# generated using pymatgen
data_TeSeO4
_symmetry_space_group_name_H-M   'P 1'
_cell_length_a   4.49144766
_cell_length_b   6.85129113
_cell_length_c   7.65946283
_cell_angle_alpha   116.56507304
_cell_angle_beta   107.04789983
_cell_angle_gamma   90.00832514
_symmetry_Int_Tables_number   1
_chemical_formula_structural   TeSeO4
_chemical_formula_sum   'Te2 Se2 O8'
_cell_volume   199.16357910
_cell_formula_units_Z   2
loop_
 _symmetry_equiv_pos_site_id
 _symmetry_equiv_pos_as_xyz
  1  'x, y, z'
loop_
 _atom_site_type_symbol
 _atom_site_label
 _atom_site_symmetry_multiplicity
 _atom_site_fract_x
 _atom_site_fract_y
 _atom_site_fract_z
 _atom_site_occupancy
  Te  Te0  1  0.13067900  0.89141100  0.78259800  1
  Te  Te1  1  0.84819400  0.10889200  0.21756700  1
  Se  Se2  1  0.62021800  0.62593900  0.25128400  1
  Se  Se3  1  0.86899800  0.37473000  0.74888300  1
  O  O4  1  0.79931100  0.95153100  0.90324900  1
  O  O5  1  0.14706400  0.20396300  0.78175300  1
  O  O6  1  0.68495400  0.75644500  0.51267900  1
  O  O7  1  0.86546700  0.42234100  0.21849300  1
  O  O8  1  0.39616100  0.04837000  0.09691100  1
  O  O9  1  0.86622700  0.79697600  0.21897000  1
  O  O10  1  0.67240600  0.24380300  0.48747600  1
  O  O11  1  0.14732400  0.57810100  0.78123700  1
