# generated using pymatgen
data_Lu6Pb5
_symmetry_space_group_name_H-M   'P 1'
_cell_length_a   6.52204300
_cell_length_b   9.28942000
_cell_length_c   11.54712932
_cell_angle_alpha   113.71824703
_cell_angle_beta   106.40407423
_cell_angle_gamma   90.00000000
_symmetry_Int_Tables_number   1
_chemical_formula_structural   Lu6Pb5
_chemical_formula_sum   'Lu12 Pb10'
_cell_volume   609.26926206
_cell_formula_units_Z   2
loop_
 _symmetry_equiv_pos_site_id
 _symmetry_equiv_pos_as_xyz
  1  'x, y, z'
loop_
 _atom_site_type_symbol
 _atom_site_label
 _atom_site_symmetry_multiplicity
 _atom_site_fract_x
 _atom_site_fract_y
 _atom_site_fract_z
 _atom_site_occupancy
  Lu  Lu0  1  0.55968300  0.30968300  0.61936500  1
  Lu  Lu1  1  0.44031700  0.69031700  0.38063500  1
  Lu  Lu2  1  0.94031700  0.69031700  0.38063500  1
  Lu  Lu3  1  0.05968300  0.30968300  0.61936500  1
  Lu  Lu4  1  0.43582900  0.67807900  0.87165800  1
  Lu  Lu5  1  0.56417100  0.32192100  0.12834200  1
  Lu  Lu6  1  0.93582900  0.19357900  0.87165800  1
  Lu  Lu7  1  0.06417100  0.80642100  0.12834200  1
  Lu  Lu8  1  0.14173100  0.25767900  0.28346200  1
  Lu  Lu9  1  0.85826900  0.74232100  0.71653800  1
  Lu  Lu10  1  0.64173100  0.02578300  0.28346200  1
  Lu  Lu11  1  0.35826900  0.97421700  0.71653800  1
  Pb  Pb12  1  0.28888900  0.59215100  0.57777800  1
  Pb  Pb13  1  0.71111100  0.40784900  0.42222200  1
  Pb  Pb14  1  0.78888900  0.98562700  0.57777800  1
  Pb  Pb15  1  0.21111100  0.01437300  0.42222200  1
  Pb  Pb16  1  0.25000000  0.00000000  0.00000000  1
  Pb  Pb17  1  0.75000000  0.00000000  0.00000000  1
  Pb  Pb18  1  0.06949600  0.47130000  0.13899300  1
  Pb  Pb19  1  0.93050400  0.52870000  0.86100700  1
  Pb  Pb20  1  0.56949600  0.66769300  0.13899300  1
  Pb  Pb21  1  0.43050400  0.33230700  0.86100700  1
