# generated using pymatgen
data_Na2PtF6
_symmetry_space_group_name_H-M   'P 1'
_cell_length_a   9.44804699
_cell_length_b   9.44804699
_cell_length_c   5.19504700
_cell_angle_alpha   90.00000000
_cell_angle_beta   90.00000000
_cell_angle_gamma   120.00000696
_symmetry_Int_Tables_number   1
_chemical_formula_structural   Na2PtF6
_chemical_formula_sum   'Na6 Pt3 F18'
_cell_volume   401.60967973
_cell_formula_units_Z   3
loop_
 _symmetry_equiv_pos_site_id
 _symmetry_equiv_pos_as_xyz
  1  'x, y, z'
loop_
 _atom_site_type_symbol
 _atom_site_label
 _atom_site_symmetry_multiplicity
 _atom_site_fract_x
 _atom_site_fract_y
 _atom_site_fract_z
 _atom_site_occupancy
  Na  Na0  1  0.00000000  0.63031900  0.50000000  1
  Na  Na1  1  0.63031900  0.00000000  0.50000000  1
  Na  Na2  1  0.36968100  0.36968100  0.50000000  1
  Na  Na3  1  0.29619800  0.00000000  0.00000000  1
  Na  Na4  1  0.70380200  0.70380200  0.00000000  1
  Na  Na5  1  0.00000000  0.29619800  0.00000000  1
  Pt  Pt6  1  0.00000000  0.00000000  0.50000000  1
  Pt  Pt7  1  0.33333300  0.66666700  0.00387700  1
  Pt  Pt8  1  0.66666700  0.33333300  0.99612300  1
  F  F9  1  0.09421100  0.89321700  0.29104100  1
  F  F10  1  0.79900600  0.90578900  0.29104100  1
  F  F11  1  0.10678300  0.20099400  0.29104100  1
  F  F12  1  0.90578900  0.79900600  0.70895900  1
  F  F13  1  0.89321700  0.09421100  0.70895900  1
  F  F14  1  0.20099400  0.10678300  0.70895900  1
  F  F15  1  0.22037300  0.75320800  0.78974000  1
  F  F16  1  0.53283500  0.77962700  0.78974000  1
  F  F17  1  0.24679200  0.46716500  0.78974000  1
  F  F18  1  0.77962700  0.53283500  0.21026000  1
  F  F19  1  0.75320800  0.22037300  0.21026000  1
  F  F20  1  0.46716500  0.24679200  0.21026000  1
  F  F21  1  0.41402900  0.86472500  0.21780700  1
  F  F22  1  0.45069600  0.58597100  0.21780700  1
  F  F23  1  0.13527500  0.54930400  0.21780700  1
  F  F24  1  0.58597100  0.45069600  0.78219300  1
  F  F25  1  0.86472500  0.41402900  0.78219300  1
  F  F26  1  0.54930400  0.13527500  0.78219300  1
