# generated using pymatgen
data_Sm(Ge2Rh3)2
_symmetry_space_group_name_H-M   'P 1'
_cell_length_a   7.23062257
_cell_length_b   7.23062257
_cell_length_c   3.88055300
_cell_angle_alpha   90.00000000
_cell_angle_beta   90.00000000
_cell_angle_gamma   120.00000525
_symmetry_Int_Tables_number   1
_chemical_formula_structural   Sm(Ge2Rh3)2
_chemical_formula_sum   'Sm1 Ge4 Rh6'
_cell_volume   175.70155838
_cell_formula_units_Z   1
loop_
 _symmetry_equiv_pos_site_id
 _symmetry_equiv_pos_as_xyz
  1  'x, y, z'
loop_
 _atom_site_type_symbol
 _atom_site_label
 _atom_site_symmetry_multiplicity
 _atom_site_fract_x
 _atom_site_fract_y
 _atom_site_fract_z
 _atom_site_occupancy
  Sm  Sm0  1  0.00000000  0.00000000  0.00000000  1
  Ge  Ge1  1  0.33333300  0.66666700  0.00000000  1
  Ge  Ge2  1  0.80245100  0.60490300  0.50000000  1
  Ge  Ge3  1  0.39509700  0.19754900  0.50000000  1
  Ge  Ge4  1  0.80245100  0.19754900  0.50000000  1
  Rh  Rh5  1  0.53329500  0.06658900  0.00000000  1
  Rh  Rh6  1  0.93341100  0.46670500  0.00000000  1
  Rh  Rh7  1  0.53329500  0.46670500  0.00000000  1
  Rh  Rh8  1  0.19984800  0.39969600  0.50000000  1
  Rh  Rh9  1  0.60030400  0.80015200  0.50000000  1
  Rh  Rh10  1  0.19984800  0.80015200  0.50000000  1
