# generated using pymatgen
data_CaAgP
_symmetry_space_group_name_H-M   'P 1'
_cell_length_a   7.07680483
_cell_length_b   7.07680483
_cell_length_c   4.20302000
_cell_angle_alpha   90.00000000
_cell_angle_beta   90.00000000
_cell_angle_gamma   120.00000776
_symmetry_Int_Tables_number   1
_chemical_formula_structural   CaAgP
_chemical_formula_sum   'Ca3 Ag3 P3'
_cell_volume   182.29153048
_cell_formula_units_Z   3
loop_
 _symmetry_equiv_pos_site_id
 _symmetry_equiv_pos_as_xyz
  1  'x, y, z'
loop_
 _atom_site_type_symbol
 _atom_site_label
 _atom_site_symmetry_multiplicity
 _atom_site_fract_x
 _atom_site_fract_y
 _atom_site_fract_z
 _atom_site_occupancy
  Ca  Ca0  1  0.58908000  0.00000000  0.50000000  1
  Ca  Ca1  1  0.41092000  0.41092000  0.50000000  1
  Ca  Ca2  1  0.00000000  0.58908000  0.50000000  1
  Ag  Ag3  1  0.25290900  0.00000000  0.00000000  1
  Ag  Ag4  1  0.74709100  0.74709100  0.00000000  1
  Ag  Ag5  1  0.00000000  0.25290900  0.00000000  1
  P  P6  1  0.00000000  0.00000000  0.50000000  1
  P  P7  1  0.33333300  0.66666700  0.00000000  1
  P  P8  1  0.66666700  0.33333300  0.00000000  1
