# generated using pymatgen
data_Tm2GaCo2
_symmetry_space_group_name_H-M   'P 1'
_cell_length_a   3.99734800
_cell_length_b   5.40815600
_cell_length_c   5.30752051
_cell_angle_alpha   120.62922976
_cell_angle_beta   112.12162644
_cell_angle_gamma   90.00000000
_symmetry_Int_Tables_number   1
_chemical_formula_structural   Tm2GaCo2
_chemical_formula_sum   'Tm2 Ga1 Co2'
_cell_volume   88.77467339
_cell_formula_units_Z   1
loop_
 _symmetry_equiv_pos_site_id
 _symmetry_equiv_pos_as_xyz
  1  'x, y, z'
loop_
 _atom_site_type_symbol
 _atom_site_label
 _atom_site_symmetry_multiplicity
 _atom_site_fract_x
 _atom_site_fract_y
 _atom_site_fract_z
 _atom_site_occupancy
  Tm  Tm0  1  0.79421700  0.29421700  0.58843400  1
  Tm  Tm1  1  0.20578300  0.70578300  0.41156600  1
  Ga  Ga2  1  0.00000000  0.00000000  0.00000000  1
  Co  Co3  1  0.50000000  0.28283600  0.00000000  1
  Co  Co4  1  0.50000000  0.71716400  0.00000000  1
