# generated using pymatgen
data_YbNiGe
_symmetry_space_group_name_H-M   'P 1'
_cell_length_a   4.27223700
_cell_length_b   6.92045800
_cell_length_c   7.00346800
_cell_angle_alpha   90.00000000
_cell_angle_beta   90.00000000
_cell_angle_gamma   90.00000000
_symmetry_Int_Tables_number   1
_chemical_formula_structural   YbNiGe
_chemical_formula_sum   'Yb4 Ni4 Ge4'
_cell_volume   207.06339139
_cell_formula_units_Z   4
loop_
 _symmetry_equiv_pos_site_id
 _symmetry_equiv_pos_as_xyz
  1  'x, y, z'
loop_
 _atom_site_type_symbol
 _atom_site_label
 _atom_site_symmetry_multiplicity
 _atom_site_fract_x
 _atom_site_fract_y
 _atom_site_fract_z
 _atom_site_occupancy
  Yb  Yb0  1  0.25000000  0.01762200  0.80435900  1
  Yb  Yb1  1  0.25000000  0.51762200  0.69564100  1
  Yb  Yb2  1  0.75000000  0.98237800  0.19564100  1
  Yb  Yb3  1  0.75000000  0.48237800  0.30435900  1
  Ni  Ni4  1  0.25000000  0.81137100  0.40955100  1
  Ni  Ni5  1  0.25000000  0.31137100  0.09044900  1
  Ni  Ni6  1  0.75000000  0.18862900  0.59044900  1
  Ni  Ni7  1  0.75000000  0.68862900  0.90955100  1
  Ge  Ge8  1  0.25000000  0.18402300  0.41505900  1
  Ge  Ge9  1  0.25000000  0.68402300  0.08494100  1
  Ge  Ge10  1  0.75000000  0.81597700  0.58494100  1
  Ge  Ge11  1  0.75000000  0.31597700  0.91505900  1
