# generated using pymatgen
data_ErAsSe
_symmetry_space_group_name_H-M   'P 1'
_cell_length_a   3.89399300
_cell_length_b   3.91364700
_cell_length_c   17.44717300
_cell_angle_alpha   90.00000000
_cell_angle_beta   90.00000000
_cell_angle_gamma   90.00000000
_symmetry_Int_Tables_number   1
_chemical_formula_structural   ErAsSe
_chemical_formula_sum   'Er4 As4 Se4'
_cell_volume   265.88992702
_cell_formula_units_Z   4
loop_
 _symmetry_equiv_pos_site_id
 _symmetry_equiv_pos_as_xyz
  1  'x, y, z'
loop_
 _atom_site_type_symbol
 _atom_site_label
 _atom_site_symmetry_multiplicity
 _atom_site_fract_x
 _atom_site_fract_y
 _atom_site_fract_z
 _atom_site_occupancy
  Er  Er0  1  0.75000000  0.72929500  0.63938300  1
  Er  Er1  1  0.25000000  0.27070500  0.36061700  1
  Er  Er2  1  0.75000000  0.77070500  0.13938300  1
  Er  Er3  1  0.25000000  0.22929500  0.86061700  1
  As  As4  1  0.25000000  0.71632800  0.99783000  1
  As  As5  1  0.75000000  0.28367200  0.00217000  1
  As  As6  1  0.25000000  0.78367200  0.49783000  1
  As  As7  1  0.75000000  0.21632800  0.50217000  1
  Se  Se8  1  0.75000000  0.73102000  0.81221000  1
  Se  Se9  1  0.25000000  0.26898000  0.18779000  1
  Se  Se10  1  0.75000000  0.76898000  0.31221000  1
  Se  Se11  1  0.25000000  0.23102000  0.68779000  1
