# generated using pymatgen
data_Ba4NaAl2B8(ClO6)3
_symmetry_space_group_name_H-M   'P 1'
_cell_length_a   12.22655500
_cell_length_b   12.22655500
_cell_length_c   6.92182500
_cell_angle_alpha   90.00000000
_cell_angle_beta   90.00000000
_cell_angle_gamma   90.00000000
_symmetry_Int_Tables_number   1
_chemical_formula_structural   Ba4NaAl2B8(ClO6)3
_chemical_formula_sum   'Ba8 Na2 Al4 B16 Cl6 O36'
_cell_volume   1034.73425518
_cell_formula_units_Z   2
loop_
 _symmetry_equiv_pos_site_id
 _symmetry_equiv_pos_as_xyz
  1  'x, y, z'
loop_
 _atom_site_type_symbol
 _atom_site_label
 _atom_site_symmetry_multiplicity
 _atom_site_fract_x
 _atom_site_fract_y
 _atom_site_fract_z
 _atom_site_occupancy
  Ba  Ba0  1  0.48294000  0.77790900  0.72131300  1
  Ba  Ba1  1  0.51706000  0.22209100  0.72131300  1
  Ba  Ba2  1  0.01706000  0.27790900  0.22131300  1
  Ba  Ba3  1  0.98294000  0.72209100  0.22131300  1
  Ba  Ba4  1  0.22209100  0.51706000  0.72131300  1
  Ba  Ba5  1  0.77790900  0.48294000  0.72131300  1
  Ba  Ba6  1  0.27790900  0.01706000  0.22131300  1
  Ba  Ba7  1  0.72209100  0.98294000  0.22131300  1
  Na  Na8  1  0.50000000  0.50000000  0.39389500  1
  Na  Na9  1  0.00000000  0.00000000  0.89389500  1
  Al  Al10  1  0.79745500  0.79745500  0.71364300  1
  Al  Al11  1  0.20254500  0.20254500  0.71364300  1
  Al  Al12  1  0.70254500  0.29745500  0.21364300  1
  Al  Al13  1  0.29745500  0.70254500  0.21364300  1
  B  B14  1  0.73293000  0.73293000  0.08665900  1
  B  B15  1  0.26707000  0.26707000  0.08665900  1
  B  B16  1  0.76707000  0.23293000  0.58665900  1
  B  B17  1  0.23293000  0.76707000  0.58665900  1
  B  B18  1  0.68443700  0.68443700  0.41785200  1
  B  B19  1  0.31556300  0.31556300  0.41785200  1
  B  B20  1  0.81556300  0.18443700  0.91785200  1
  B  B21  1  0.18443700  0.81556300  0.91785200  1
  B  B22  1  0.03430000  0.76646100  0.68231100  1
  B  B23  1  0.96570000  0.23353900  0.68231100  1
  B  B24  1  0.46570000  0.26646100  0.18231100  1
  B  B25  1  0.53430000  0.73353900  0.18231100  1
  B  B26  1  0.23353900  0.96570000  0.68231100  1
  B  B27  1  0.76646100  0.03430000  0.68231100  1
  B  B28  1  0.26646100  0.46570000  0.18231100  1
  B  B29  1  0.73353900  0.53430000  0.18231100  1
  Cl  Cl30  1  0.50000000  0.50000000  0.78118500  1
  Cl  Cl31  1  0.00000000  0.00000000  0.28118500  1
  Cl  Cl32  1  0.50000000  0.00000000  0.94892800  1
  Cl  Cl33  1  0.00000000  0.50000000  0.44892800  1
  Cl  Cl34  1  0.00000000  0.50000000  0.94892800  1
  Cl  Cl35  1  0.50000000  0.00000000  0.44892800  1
  O  O36  1  0.61428700  0.75646700  0.04659400  1
  O  O37  1  0.38571300  0.24353300  0.04659400  1
  O  O38  1  0.88571300  0.25646700  0.54659400  1
  O  O39  1  0.11428700  0.74353300  0.54659400  1
  O  O40  1  0.24353300  0.38571300  0.04659400  1
  O  O41  1  0.75646700  0.61428700  0.04659400  1
  O  O42  1  0.25646700  0.88571300  0.54659400  1
  O  O43  1  0.74353300  0.11428700  0.54659400  1
  O  O44  1  0.56352500  0.70197200  0.36867100  1
  O  O45  1  0.43647500  0.29802800  0.36867100  1
  O  O46  1  0.93647500  0.20197200  0.86867100  1
  O  O47  1  0.06352500  0.79802800  0.86867100  1
  O  O48  1  0.29802800  0.43647500  0.36867100  1
  O  O49  1  0.70197200  0.56352500  0.36867100  1
  O  O50  1  0.20197200  0.93647500  0.86867100  1
  O  O51  1  0.79802800  0.06352500  0.86867100  1
  O  O52  1  0.80184100  0.80184100  0.96998700  1
  O  O53  1  0.19815900  0.19815900  0.96998700  1
  O  O54  1  0.69815900  0.30184100  0.46998700  1
  O  O55  1  0.30184100  0.69815900  0.46998700  1
  O  O56  1  0.70162300  0.70162300  0.62150000  1
  O  O57  1  0.29837700  0.29837700  0.62150000  1
  O  O58  1  0.79837700  0.20162300  0.12150000  1
  O  O59  1  0.20162300  0.79837700  0.12150000  1
  O  O60  1  0.75367900  0.75367900  0.29458100  1
  O  O61  1  0.24632100  0.24632100  0.29458100  1
  O  O62  1  0.74632100  0.25367900  0.79458100  1
  O  O63  1  0.25367900  0.74632100  0.79458100  1
  O  O64  1  0.92821300  0.76099800  0.62442500  1
  O  O65  1  0.07178700  0.23900200  0.62442500  1
  O  O66  1  0.57178700  0.26099800  0.12442500  1
  O  O67  1  0.42821300  0.73900200  0.12442500  1
  O  O68  1  0.23900200  0.07178700  0.62442500  1
  O  O69  1  0.76099800  0.92821300  0.62442500  1
  O  O70  1  0.26099800  0.57178700  0.12442500  1
  O  O71  1  0.73900200  0.42821300  0.12442500  1
