# generated using pymatgen
data_K2TbCl5
_symmetry_space_group_name_H-M   'P 1'
_cell_length_a   8.06895400
_cell_length_b   8.61685000
_cell_length_c   12.96006800
_cell_angle_alpha   90.00000000
_cell_angle_beta   90.00000000
_cell_angle_gamma   90.00000000
_symmetry_Int_Tables_number   1
_chemical_formula_structural   K2TbCl5
_chemical_formula_sum   'K8 Tb4 Cl20'
_cell_volume   901.10013089
_cell_formula_units_Z   4
loop_
 _symmetry_equiv_pos_site_id
 _symmetry_equiv_pos_as_xyz
  1  'x, y, z'
loop_
 _atom_site_type_symbol
 _atom_site_label
 _atom_site_symmetry_multiplicity
 _atom_site_fract_x
 _atom_site_fract_y
 _atom_site_fract_z
 _atom_site_occupancy
  K  K0  1  0.94863000  0.00483800  0.82795900  1
  K  K1  1  0.05137000  0.99516200  0.17204100  1
  K  K2  1  0.44863000  0.99516200  0.67204100  1
  K  K3  1  0.05137000  0.50483800  0.17204100  1
  K  K4  1  0.55137000  0.00483800  0.32795900  1
  K  K5  1  0.94863000  0.49516200  0.82795900  1
  K  K6  1  0.55137000  0.49516200  0.32795900  1
  K  K7  1  0.44863000  0.50483800  0.67204100  1
  Tb  Tb8  1  0.92600600  0.75000000  0.50394900  1
  Tb  Tb9  1  0.07399400  0.25000000  0.49605100  1
  Tb  Tb10  1  0.42600600  0.25000000  0.99605100  1
  Tb  Tb11  1  0.57399400  0.75000000  0.00394900  1
  Cl  Cl12  1  0.11994600  0.75000000  0.67385400  1
  Cl  Cl13  1  0.88005400  0.25000000  0.32614600  1
  Cl  Cl14  1  0.61994600  0.25000000  0.82614600  1
  Cl  Cl15  1  0.38005400  0.75000000  0.17385400  1
  Cl  Cl16  1  0.83964800  0.04206500  0.57410100  1
  Cl  Cl17  1  0.16035200  0.95793500  0.42589900  1
  Cl  Cl18  1  0.33964800  0.95793500  0.92589900  1
  Cl  Cl19  1  0.16035200  0.54206500  0.42589900  1
  Cl  Cl20  1  0.66035200  0.04206500  0.07410100  1
  Cl  Cl21  1  0.83964800  0.45793500  0.57410100  1
  Cl  Cl22  1  0.66035200  0.45793500  0.07410100  1
  Cl  Cl23  1  0.33964800  0.54206500  0.92589900  1
  Cl  Cl24  1  0.58749100  0.75000000  0.51012700  1
  Cl  Cl25  1  0.41250900  0.25000000  0.48987300  1
  Cl  Cl26  1  0.08749100  0.25000000  0.98987300  1
  Cl  Cl27  1  0.91250900  0.75000000  0.01012700  1
  Cl  Cl28  1  0.65859100  0.75000000  0.80214500  1
  Cl  Cl29  1  0.34140900  0.25000000  0.19785500  1
  Cl  Cl30  1  0.15859100  0.25000000  0.69785500  1
  Cl  Cl31  1  0.84140900  0.75000000  0.30214500  1
