# generated using pymatgen
data_RbTh2F9
_symmetry_space_group_name_H-M   'P 1'
_cell_length_a   7.26281000
_cell_length_b   8.97910100
_cell_length_c   12.02010300
_cell_angle_alpha   90.00000000
_cell_angle_beta   90.00000000
_cell_angle_gamma   90.00000000
_symmetry_Int_Tables_number   1
_chemical_formula_structural   RbTh2F9
_chemical_formula_sum   'Rb4 Th8 F36'
_cell_volume   783.87304149
_cell_formula_units_Z   4
loop_
 _symmetry_equiv_pos_site_id
 _symmetry_equiv_pos_as_xyz
  1  'x, y, z'
loop_
 _atom_site_type_symbol
 _atom_site_label
 _atom_site_symmetry_multiplicity
 _atom_site_fract_x
 _atom_site_fract_y
 _atom_site_fract_z
 _atom_site_occupancy
  Rb  Rb0  1  0.63905600  0.96617800  0.25000000  1
  Rb  Rb1  1  0.86094400  0.46617800  0.25000000  1
  Rb  Rb2  1  0.36094400  0.03382200  0.75000000  1
  Rb  Rb3  1  0.13905600  0.53382200  0.75000000  1
  Th  Th4  1  0.15156800  0.82514600  0.44860200  1
  Th  Th5  1  0.34843200  0.32514600  0.05139800  1
  Th  Th6  1  0.84843200  0.17485400  0.94860200  1
  Th  Th7  1  0.65156800  0.67485400  0.55139800  1
  Th  Th8  1  0.84843200  0.17485400  0.55139800  1
  Th  Th9  1  0.65156800  0.67485400  0.94860200  1
  Th  Th10  1  0.15156800  0.82514600  0.05139800  1
  Th  Th11  1  0.34843200  0.32514600  0.44860200  1
  F  F12  1  0.42646600  0.49390100  0.59569500  1
  F  F13  1  0.07353400  0.99390100  0.90430500  1
  F  F14  1  0.57353400  0.50609900  0.09569500  1
  F  F15  1  0.92646600  0.00609900  0.40430500  1
  F  F16  1  0.57353400  0.50609900  0.40430500  1
  F  F17  1  0.92646600  0.00609900  0.09569500  1
  F  F18  1  0.42646600  0.49390100  0.90430500  1
  F  F19  1  0.07353400  0.99390100  0.59569500  1
  F  F20  1  0.46697600  0.78647800  0.09312200  1
  F  F21  1  0.03302400  0.28647800  0.40687800  1
  F  F22  1  0.53302400  0.21352200  0.59312200  1
  F  F23  1  0.96697600  0.71352200  0.90687800  1
  F  F24  1  0.53302400  0.21352200  0.90687800  1
  F  F25  1  0.96697600  0.71352200  0.59312200  1
  F  F26  1  0.46697600  0.78647800  0.40687800  1
  F  F27  1  0.03302400  0.28647800  0.09312200  1
  F  F28  1  0.35249900  0.77923800  0.60336600  1
  F  F29  1  0.14750100  0.27923800  0.89663400  1
  F  F30  1  0.64750100  0.22076200  0.10336600  1
  F  F31  1  0.85249900  0.72076200  0.39663400  1
  F  F32  1  0.64750100  0.22076200  0.39663400  1
  F  F33  1  0.85249900  0.72076200  0.10336600  1
  F  F34  1  0.35249900  0.77923800  0.89663400  1
  F  F35  1  0.14750100  0.27923800  0.60336600  1
  F  F36  1  0.19551700  0.56317200  0.42062600  1
  F  F37  1  0.30448300  0.06317200  0.07937400  1
  F  F38  1  0.80448300  0.43682800  0.92062600  1
  F  F39  1  0.69551700  0.93682800  0.57937400  1
  F  F40  1  0.80448300  0.43682800  0.57937400  1
  F  F41  1  0.69551700  0.93682800  0.92062600  1
  F  F42  1  0.19551700  0.56317200  0.07937400  1
  F  F43  1  0.30448300  0.06317200  0.42062600  1
  F  F44  1  0.16090800  0.82230600  0.25000000  1
  F  F45  1  0.33909200  0.32230600  0.25000000  1
  F  F46  1  0.83909200  0.17769400  0.75000000  1
  F  F47  1  0.66090800  0.67769400  0.75000000  1
