# generated using pymatgen
data_Cs4SnO4
_symmetry_space_group_name_H-M   'P 1'
_cell_length_a   7.49224200
_cell_length_b   11.89173600
_cell_length_c   11.91791023
_cell_angle_alpha   68.86749960
_cell_angle_beta   90.00000000
_cell_angle_gamma   90.00000000
_symmetry_Int_Tables_number   1
_chemical_formula_structural   Cs4SnO4
_chemical_formula_sum   'Cs16 Sn4 O16'
_cell_volume   990.42602096
_cell_formula_units_Z   4
loop_
 _symmetry_equiv_pos_site_id
 _symmetry_equiv_pos_as_xyz
  1  'x, y, z'
loop_
 _atom_site_type_symbol
 _atom_site_label
 _atom_site_symmetry_multiplicity
 _atom_site_fract_x
 _atom_site_fract_y
 _atom_site_fract_z
 _atom_site_occupancy
  Cs  Cs0  1  0.65627100  0.89119600  0.63370800  1
  Cs  Cs1  1  0.34372900  0.10880400  0.36629200  1
  Cs  Cs2  1  0.84372900  0.39119600  0.63370800  1
  Cs  Cs3  1  0.58954800  0.30544000  0.05719700  1
  Cs  Cs4  1  0.08954800  0.19456000  0.94280300  1
  Cs  Cs5  1  0.41045200  0.69456000  0.94280300  1
  Cs  Cs6  1  0.91045200  0.80544000  0.05719700  1
  Cs  Cs7  1  0.61151000  0.09045300  0.84393800  1
  Cs  Cs8  1  0.11151000  0.40954700  0.15606200  1
  Cs  Cs9  1  0.38849000  0.90954700  0.15606200  1
  Cs  Cs10  1  0.88849000  0.59045300  0.84393800  1
  Cs  Cs11  1  0.67578600  0.70422900  0.42661600  1
  Cs  Cs12  1  0.17578600  0.79577100  0.57338400  1
  Cs  Cs13  1  0.32421400  0.29577100  0.57338400  1
  Cs  Cs14  1  0.82421400  0.20422900  0.42661600  1
  Cs  Cs15  1  0.15627100  0.60880400  0.36629200  1
  Sn  Sn16  1  0.37089500  0.49414000  0.75724800  1
  Sn  Sn17  1  0.87089500  0.00586000  0.24275200  1
  Sn  Sn18  1  0.12910500  0.99414000  0.75724800  1
  Sn  Sn19  1  0.62910500  0.50586000  0.24275200  1
  O  O20  1  0.23999600  0.97136400  0.91739100  1
  O  O21  1  0.01092900  0.15578500  0.22249000  1
  O  O22  1  0.51092900  0.34421500  0.77751000  1
  O  O23  1  0.98907100  0.84421500  0.77751000  1
  O  O24  1  0.73999600  0.52863600  0.08260900  1
  O  O25  1  0.76000400  0.02863600  0.08260900  1
  O  O26  1  0.26000400  0.47136400  0.91739100  1
  O  O27  1  0.32278200  0.01746100  0.63444500  1
  O  O28  1  0.82278200  0.48253900  0.36555500  1
  O  O29  1  0.67721800  0.98253900  0.36555500  1
  O  O30  1  0.17721800  0.51746100  0.63444500  1
  O  O31  1  0.02439000  0.85701600  0.29797100  1
  O  O32  1  0.52439000  0.64298400  0.70202900  1
  O  O33  1  0.97561000  0.14298400  0.70202900  1
  O  O34  1  0.47561000  0.35701600  0.29797100  1
  O  O35  1  0.48907100  0.65578500  0.22249000  1
