# generated using pymatgen
data_CsEu(WO4)2
_symmetry_space_group_name_H-M   'P 1'
_cell_length_a   7.78845575
_cell_length_b   7.78845575
_cell_length_c   7.63641401
_cell_angle_alpha   63.11811854
_cell_angle_beta   63.11811854
_cell_angle_gamma   90.12693512
_symmetry_Int_Tables_number   1
_chemical_formula_structural   CsEu(WO4)2
_chemical_formula_sum   'Cs2 Eu2 W4 O16'
_cell_volume   355.87188464
_cell_formula_units_Z   2
loop_
 _symmetry_equiv_pos_site_id
 _symmetry_equiv_pos_as_xyz
  1  'x, y, z'
loop_
 _atom_site_type_symbol
 _atom_site_label
 _atom_site_symmetry_multiplicity
 _atom_site_fract_x
 _atom_site_fract_y
 _atom_site_fract_z
 _atom_site_occupancy
  Cs  Cs0  1  0.19827200  0.80172800  0.25000000  1
  Cs  Cs1  1  0.80172800  0.19827200  0.75000000  1
  Eu  Eu2  1  0.77439900  0.22560100  0.25000000  1
  Eu  Eu3  1  0.22560100  0.77439900  0.75000000  1
  W  W4  1  0.69604800  0.68631400  0.27834300  1
  W  W5  1  0.30395200  0.31368600  0.72165700  1
  W  W6  1  0.31368600  0.30395200  0.22165700  1
  W  W7  1  0.68631400  0.69604800  0.77834300  1
  O  O8  1  0.62142100  0.74942200  0.06233900  1
  O  O9  1  0.37857900  0.25057800  0.93766100  1
  O  O10  1  0.25057800  0.37857900  0.43766100  1
  O  O11  1  0.74942200  0.62142100  0.56233900  1
  O  O12  1  0.38056700  0.07276200  0.36709600  1
  O  O13  1  0.61943300  0.92723800  0.63290400  1
  O  O14  1  0.92723800  0.61943300  0.13290400  1
  O  O15  1  0.07276200  0.38056700  0.86709600  1
  O  O16  1  0.58265100  0.37322800  0.46980000  1
  O  O17  1  0.41734900  0.62677200  0.53020000  1
  O  O18  1  0.62677200  0.41734900  0.03020000  1
  O  O19  1  0.37322800  0.58265100  0.96980000  1
  O  O20  1  0.78594100  0.94294800  0.19753600  1
  O  O21  1  0.21405900  0.05705200  0.80246400  1
  O  O22  1  0.05705200  0.21405900  0.30246400  1
  O  O23  1  0.94294800  0.78594100  0.69753600  1
