# generated using pymatgen
data_Ni3Sb4(OF)6
_symmetry_space_group_name_H-M   'P 1'
_cell_length_a   8.20397500
_cell_length_b   8.20399500
_cell_length_c   8.20398200
_cell_angle_alpha   89.99995810
_cell_angle_beta   90.00005587
_cell_angle_gamma   89.99986032
_symmetry_Int_Tables_number   1
_chemical_formula_structural   Ni3Sb4(OF)6
_chemical_formula_sum   'Ni6 Sb8 O12 F12'
_cell_volume   552.17204300
_cell_formula_units_Z   2
loop_
 _symmetry_equiv_pos_site_id
 _symmetry_equiv_pos_as_xyz
  1  'x, y, z'
loop_
 _atom_site_type_symbol
 _atom_site_label
 _atom_site_symmetry_multiplicity
 _atom_site_fract_x
 _atom_site_fract_y
 _atom_site_fract_z
 _atom_site_occupancy
  Ni  Ni0  1  0.50000000  0.00000000  0.50000000  1
  Ni  Ni1  1  0.00000000  0.50000000  0.50000000  1
  Ni  Ni2  1  0.50000000  0.50000000  0.00000000  1
  Ni  Ni3  1  0.00000000  0.50000000  0.00000000  1
  Ni  Ni4  1  0.50000000  0.00000100  0.00000000  1
  Ni  Ni5  1  0.00000000  0.00000000  0.50000000  1
  Sb  Sb6  1  0.16192200  0.16192100  0.83807800  1
  Sb  Sb7  1  0.66191900  0.66191900  0.33808100  1
  Sb  Sb8  1  0.33808100  0.33808100  0.33808100  1
  Sb  Sb9  1  0.83807900  0.83807900  0.83807900  1
  Sb  Sb10  1  0.66191900  0.33808100  0.66191900  1
  Sb  Sb11  1  0.16192100  0.83807900  0.16192100  1
  Sb  Sb12  1  0.33808100  0.66191900  0.66191900  1
  Sb  Sb13  1  0.83807800  0.16192200  0.16192200  1
  O  O14  1  0.00000000  0.25197200  0.00000000  1
  O  O15  1  0.50000000  0.75194500  0.50000000  1
  O  O16  1  0.74802800  0.00000000  0.00000000  1
  O  O17  1  0.24805500  0.50000000  0.50000000  1
  O  O18  1  0.00000000  0.00000000  0.25197200  1
  O  O19  1  0.50000000  0.50000000  0.75194500  1
  O  O20  1  0.00000000  0.74802800  0.00000000  1
  O  O21  1  0.50000000  0.24805500  0.50000000  1
  O  O22  1  0.25197200  0.00000000  0.00000000  1
  O  O23  1  0.75194500  0.50000000  0.50000000  1
  O  O24  1  0.00000000  0.00000000  0.74802800  1
  O  O25  1  0.50000000  0.50000000  0.24805500  1
  F  F26  1  0.00000000  0.50000000  0.75001900  1
  F  F27  1  0.50000000  0.00000000  0.24998100  1
  F  F28  1  0.00000000  0.24998100  0.50000000  1
  F  F29  1  0.50000000  0.75001900  0.00000000  1
  F  F30  1  0.24998100  0.00000000  0.50000000  1
  F  F31  1  0.75001900  0.50000000  0.00000000  1
  F  F32  1  0.50000000  0.00000000  0.75001900  1
  F  F33  1  0.00000000  0.50000000  0.24998100  1
  F  F34  1  0.24998000  0.50000000  0.00000000  1
  F  F35  1  0.75001900  0.00000000  0.50000000  1
  F  F36  1  0.50000000  0.24998100  0.00000000  1
  F  F37  1  0.00000000  0.75001900  0.50000000  1
