# generated using pymatgen
data_Hf(Ni2As)2
_symmetry_space_group_name_H-M   'P 1'
_cell_length_a   7.03084300
_cell_length_b   7.03084300
_cell_length_c   3.76268100
_cell_angle_alpha   90.00000000
_cell_angle_beta   90.00000000
_cell_angle_gamma   90.00000000
_symmetry_Int_Tables_number   1
_chemical_formula_structural   Hf(Ni2As)2
_chemical_formula_sum   'Hf2 Ni8 As4'
_cell_volume   185.99968158
_cell_formula_units_Z   2
loop_
 _symmetry_equiv_pos_site_id
 _symmetry_equiv_pos_as_xyz
  1  'x, y, z'
loop_
 _atom_site_type_symbol
 _atom_site_label
 _atom_site_symmetry_multiplicity
 _atom_site_fract_x
 _atom_site_fract_y
 _atom_site_fract_z
 _atom_site_occupancy
  Hf  Hf0  1  0.50000000  0.50000000  0.00000000  1
  Hf  Hf1  1  0.00000000  0.00000000  0.50000000  1
  Ni  Ni2  1  0.59081900  0.15616500  0.50000000  1
  Ni  Ni3  1  0.40918100  0.84383500  0.50000000  1
  Ni  Ni4  1  0.09081900  0.34383500  0.00000000  1
  Ni  Ni5  1  0.90918100  0.65616500  0.00000000  1
  Ni  Ni6  1  0.15616500  0.59081900  0.50000000  1
  Ni  Ni7  1  0.84383500  0.40918100  0.50000000  1
  Ni  Ni8  1  0.34383500  0.09081900  0.00000000  1
  Ni  Ni9  1  0.65616500  0.90918100  0.00000000  1
  As  As10  1  0.71635200  0.71635200  0.50000000  1
  As  As11  1  0.28364800  0.28364800  0.50000000  1
  As  As12  1  0.21635200  0.78364800  0.00000000  1
  As  As13  1  0.78364800  0.21635200  0.00000000  1
