# generated using pymatgen
data_Ba3GaN3
_symmetry_space_group_name_H-M   'P 1'
_cell_length_a   8.15490980
_cell_length_b   8.15490980
_cell_length_c   5.79815300
_cell_angle_alpha   90.00000000
_cell_angle_beta   90.00000000
_cell_angle_gamma   119.99999842
_symmetry_Int_Tables_number   1
_chemical_formula_structural   Ba3GaN3
_chemical_formula_sum   'Ba6 Ga2 N6'
_cell_volume   333.93245770
_cell_formula_units_Z   2
loop_
 _symmetry_equiv_pos_site_id
 _symmetry_equiv_pos_as_xyz
  1  'x, y, z'
loop_
 _atom_site_type_symbol
 _atom_site_label
 _atom_site_symmetry_multiplicity
 _atom_site_fract_x
 _atom_site_fract_y
 _atom_site_fract_z
 _atom_site_occupancy
  Ba  Ba0  1  0.93417400  0.63822700  0.25000000  1
  Ba  Ba1  1  0.70405400  0.06582600  0.25000000  1
  Ba  Ba2  1  0.36177300  0.29594600  0.25000000  1
  Ba  Ba3  1  0.06582600  0.36177300  0.75000000  1
  Ba  Ba4  1  0.29594600  0.93417400  0.75000000  1
  Ba  Ba5  1  0.63822700  0.70405400  0.75000000  1
  Ga  Ga6  1  0.66666700  0.33333300  0.75000000  1
  Ga  Ga7  1  0.33333300  0.66666700  0.25000000  1
  N  N8  1  0.89039300  0.58148200  0.75000000  1
  N  N9  1  0.69109000  0.10960700  0.75000000  1
  N  N10  1  0.41851800  0.30891000  0.75000000  1
  N  N11  1  0.10960700  0.41851800  0.25000000  1
  N  N12  1  0.30891000  0.89039300  0.25000000  1
  N  N13  1  0.58148200  0.69109000  0.25000000  1
