# generated using pymatgen
data_Al37(Fe6Cu)2
_symmetry_space_group_name_H-M   'P 1'
_cell_length_a   8.68045744
_cell_length_b   8.68045744
_cell_length_c   12.41477135
_cell_angle_alpha   73.87256367
_cell_angle_beta   73.87256367
_cell_angle_gamma   53.82209812
_symmetry_Int_Tables_number   1
_chemical_formula_structural   Al37(Fe6Cu)2
_chemical_formula_sum   'Al37 Fe12 Cu2'
_cell_volume   717.51935464
_cell_formula_units_Z   1
loop_
 _symmetry_equiv_pos_site_id
 _symmetry_equiv_pos_as_xyz
  1  'x, y, z'
loop_
 _atom_site_type_symbol
 _atom_site_label
 _atom_site_symmetry_multiplicity
 _atom_site_fract_x
 _atom_site_fract_y
 _atom_site_fract_z
 _atom_site_occupancy
  Al  Al0  1  0.67928500  0.67928500  0.27717500  1
  Al  Al1  1  0.32126300  0.32126300  0.72359900  1
  Al  Al2  1  0.60354600  0.03714100  0.33831800  1
  Al  Al3  1  0.03714100  0.60354600  0.33831800  1
  Al  Al4  1  0.39472000  0.96525100  0.66259200  1
  Al  Al5  1  0.96525100  0.39472000  0.66259200  1
  Al  Al6  1  0.28972500  0.73208700  0.33463800  1
  Al  Al7  1  0.73208700  0.28972500  0.33463800  1
  Al  Al8  1  0.71559500  0.26144700  0.66932700  1
  Al  Al9  1  0.26144700  0.71559500  0.66932700  1
  Al  Al10  1  0.23855900  0.23855900  0.04713400  1
  Al  Al11  1  0.76677600  0.76677600  0.94286300  1
  Al  Al12  1  0.42283900  0.84343300  0.10926700  1
  Al  Al13  1  0.84343300  0.42283900  0.10926700  1
  Al  Al14  1  0.59040000  0.15108000  0.88678300  1
  Al  Al15  1  0.15108000  0.59040000  0.88678300  1
  Al  Al16  1  0.42587300  0.83852900  0.47784600  1
  Al  Al17  1  0.83852900  0.42587300  0.47784600  1
  Al  Al18  1  0.57410200  0.16155600  0.52321000  1
  Al  Al19  1  0.16155600  0.57410200  0.52321000  1
  Al  Al20  1  0.59812500  0.03077200  0.11101600  1
  Al  Al21  1  0.03077200  0.59812500  0.11101600  1
  Al  Al22  1  0.39885500  0.97116700  0.88781400  1
  Al  Al23  1  0.97116700  0.39885500  0.88781400  1
  Al  Al24  1  0.74992600  0.25047700  0.00049100  1
  Al  Al25  1  0.25047700  0.74992600  0.00049100  1
  Al  Al26  1  0.30681900  0.30681900  0.22844000  1
  Al  Al27  1  0.69209000  0.69209000  0.77095000  1
  Al  Al28  1  0.23384700  0.23384700  0.45907600  1
  Al  Al29  1  0.76744800  0.76744800  0.54168300  1
  Al  Al30  1  0.51963300  0.51963300  0.83123600  1
  Al  Al31  1  0.47981800  0.47981800  0.16830400  1
  Al  Al32  1  0.05903300  0.05903300  0.82653600  1
  Al  Al33  1  0.93391700  0.93391700  0.17551900  1
  Al  Al34  1  0.07190200  0.07190200  0.42109100  1
  Al  Al35  1  0.92490200  0.92490200  0.58795700  1
  Al  Al36  1  0.08186800  0.08186800  0.21613000  1
  Fe  Fe37  1  0.09001200  0.09001200  0.01158500  1
  Fe  Fe38  1  0.90930100  0.90930100  0.99520200  1
  Fe  Fe39  1  0.08765900  0.08765900  0.61246700  1
  Fe  Fe40  1  0.91706700  0.91706700  0.38154200  1
  Fe  Fe41  1  0.60215600  0.60215600  0.63058000  1
  Fe  Fe42  1  0.39650100  0.39650100  0.36940500  1
  Fe  Fe43  1  0.38438600  0.97724500  0.27607700  1
  Fe  Fe44  1  0.97724500  0.38438600  0.27607700  1
  Fe  Fe45  1  0.61030000  0.02118600  0.72158600  1
  Fe  Fe46  1  0.02118500  0.61030000  0.72158600  1
  Fe  Fe47  1  0.40187200  0.40187200  0.01360200  1
  Fe  Fe48  1  0.59879000  0.59879000  0.98528400  1
  Cu  Cu49  1  0.91982600  0.91982600  0.78391100  1
  Cu  Cu50  1  0.49989400  0.49989400  0.50080100  1
