# generated using pymatgen
data_Na2Ge2Se5
_symmetry_space_group_name_H-M   'P 1'
_cell_length_a   6.27548600
_cell_length_b   11.33754900
_cell_length_c   14.42396400
_cell_angle_alpha   90.00000000
_cell_angle_beta   90.00000000
_cell_angle_gamma   90.00000000
_symmetry_Int_Tables_number   1
_chemical_formula_structural   Na2Ge2Se5
_chemical_formula_sum   'Na8 Ge8 Se20'
_cell_volume   1026.24527811
_cell_formula_units_Z   4
loop_
 _symmetry_equiv_pos_site_id
 _symmetry_equiv_pos_as_xyz
  1  'x, y, z'
loop_
 _atom_site_type_symbol
 _atom_site_label
 _atom_site_symmetry_multiplicity
 _atom_site_fract_x
 _atom_site_fract_y
 _atom_site_fract_z
 _atom_site_occupancy
  Na  Na0  1  0.99280100  0.49407300  0.05666900  1
  Na  Na1  1  0.00719900  0.99407300  0.94333100  1
  Na  Na2  1  0.50719900  0.49407300  0.55666900  1
  Na  Na3  1  0.49280100  0.99407300  0.44333100  1
  Na  Na4  1  0.99713600  0.24958100  0.46271100  1
  Na  Na5  1  0.00286400  0.74958100  0.53728900  1
  Na  Na6  1  0.50286400  0.24958100  0.96271100  1
  Na  Na7  1  0.49713600  0.74958100  0.03728900  1
  Ge  Ge8  1  0.53286100  0.39407000  0.20513500  1
  Ge  Ge9  1  0.46713900  0.89407000  0.79486500  1
  Ge  Ge10  1  0.96713900  0.39407000  0.70513500  1
  Ge  Ge11  1  0.03286100  0.89407000  0.29486500  1
  Ge  Ge12  1  0.04106000  0.20133400  0.15500600  1
  Ge  Ge13  1  0.95894000  0.70133400  0.84499400  1
  Ge  Ge14  1  0.45894000  0.20133400  0.65500600  1
  Ge  Ge15  1  0.54106000  0.70133400  0.34499400  1
  Se  Se16  1  0.39444000  0.50424300  0.33569200  1
  Se  Se17  1  0.60556000  0.00424300  0.66430800  1
  Se  Se18  1  0.10556000  0.50424300  0.83569200  1
  Se  Se19  1  0.89444000  0.00424300  0.16430800  1
  Se  Se20  1  0.89929000  0.69350100  0.28407900  1
  Se  Se21  1  0.10071000  0.19350100  0.71592100  1
  Se  Se22  1  0.60071000  0.69350100  0.78407900  1
  Se  Se23  1  0.39929000  0.19350100  0.21592100  1
  Se  Se24  1  0.39751700  0.85427700  0.24450000  1
  Se  Se25  1  0.60248300  0.35427700  0.75550000  1
  Se  Se26  1  0.10248300  0.85427700  0.74450000  1
  Se  Se27  1  0.89751700  0.35427700  0.25550000  1
  Se  Se28  1  0.50208700  0.74356500  0.50169000  1
  Se  Se29  1  0.49791300  0.24356500  0.49831000  1
  Se  Se30  1  0.99791300  0.74356500  0.00169000  1
  Se  Se31  1  0.00208700  0.24356500  0.99831000  1
  Se  Se32  1  0.49604000  0.48255600  0.06141900  1
  Se  Se33  1  0.50396000  0.98255600  0.93858100  1
  Se  Se34  1  0.00396000  0.48255600  0.56141900  1
  Se  Se35  1  0.99604000  0.98255600  0.43858100  1
