# generated using pymatgen
data_DyCoGe
_symmetry_space_group_name_H-M   'P 1'
_cell_length_a   4.26428900
_cell_length_b   6.96740000
_cell_length_c   7.03059300
_cell_angle_alpha   90.00000000
_cell_angle_beta   90.00000000
_cell_angle_gamma   90.00000000
_symmetry_Int_Tables_number   1
_chemical_formula_structural   DyCoGe
_chemical_formula_sum   'Dy4 Co4 Ge4'
_cell_volume   208.88599909
_cell_formula_units_Z   4
loop_
 _symmetry_equiv_pos_site_id
 _symmetry_equiv_pos_as_xyz
  1  'x, y, z'
loop_
 _atom_site_type_symbol
 _atom_site_label
 _atom_site_symmetry_multiplicity
 _atom_site_fract_x
 _atom_site_fract_y
 _atom_site_fract_z
 _atom_site_occupancy
  Dy  Dy0  1  0.25000000  0.98243600  0.80714800  1
  Dy  Dy1  1  0.25000000  0.48243600  0.69285200  1
  Dy  Dy2  1  0.75000000  0.01756400  0.19285200  1
  Dy  Dy3  1  0.75000000  0.51756400  0.30714800  1
  Co  Co4  1  0.25000000  0.14712200  0.43791300  1
  Co  Co5  1  0.25000000  0.64712200  0.06208700  1
  Co  Co6  1  0.75000000  0.85287800  0.56208700  1
  Co  Co7  1  0.75000000  0.35287800  0.93791300  1
  Ge  Ge8  1  0.25000000  0.80002300  0.39160900  1
  Ge  Ge9  1  0.25000000  0.30002300  0.10839100  1
  Ge  Ge10  1  0.75000000  0.19997700  0.60839100  1
  Ge  Ge11  1  0.75000000  0.69997700  0.89160900  1
