# generated using pymatgen
data_K3Eu(PO4)2
_symmetry_space_group_name_H-M   'P 1'
_cell_length_a   5.74865200
_cell_length_b   7.55766200
_cell_length_c   9.68408395
_cell_angle_alpha   88.77343582
_cell_angle_beta   90.00000000
_cell_angle_gamma   90.00000000
_symmetry_Int_Tables_number   1
_chemical_formula_structural   K3Eu(PO4)2
_chemical_formula_sum   'K6 Eu2 P4 O16'
_cell_volume   420.64187719
_cell_formula_units_Z   2
loop_
 _symmetry_equiv_pos_site_id
 _symmetry_equiv_pos_as_xyz
  1  'x, y, z'
loop_
 _atom_site_type_symbol
 _atom_site_label
 _atom_site_symmetry_multiplicity
 _atom_site_fract_x
 _atom_site_fract_y
 _atom_site_fract_z
 _atom_site_occupancy
  K  K0  1  0.25000000  0.35750000  0.91139900  1
  K  K1  1  0.25000000  0.50658700  0.30779400  1
  K  K2  1  0.75000000  0.19989700  0.41490700  1
  K  K3  1  0.75000000  0.49341300  0.69220600  1
  K  K4  1  0.25000000  0.80010300  0.58509300  1
  K  K5  1  0.75000000  0.64250000  0.08860100  1
  Eu  Eu6  1  0.75000000  0.99405800  0.79007200  1
  Eu  Eu7  1  0.25000000  0.00594200  0.20992800  1
  P  P8  1  0.75000000  0.19142500  0.07185500  1
  P  P9  1  0.25000000  0.80857500  0.92814500  1
  P  P10  1  0.25000000  0.23463800  0.58803500  1
  P  P11  1  0.75000000  0.76536200  0.41196500  1
  O  O12  1  0.97212300  0.84613700  0.34195300  1
  O  O13  1  0.47212300  0.15386300  0.65804700  1
  O  O14  1  0.02787700  0.15386300  0.65804700  1
  O  O15  1  0.52787700  0.84613700  0.34195300  1
  O  O16  1  0.25000000  0.43711200  0.60390700  1
  O  O17  1  0.75000000  0.56288800  0.39609300  1
  O  O18  1  0.25000000  0.01057500  0.95344900  1
  O  O19  1  0.75000000  0.98942500  0.04655100  1
  O  O20  1  0.25000000  0.71453400  0.07341800  1
  O  O21  1  0.75000000  0.28546600  0.92658200  1
  O  O22  1  0.25000000  0.18257400  0.43300000  1
  O  O23  1  0.02914900  0.75530100  0.84512600  1
  O  O24  1  0.47085100  0.75530100  0.84512600  1
  O  O25  1  0.97085100  0.24469900  0.15487400  1
  O  O26  1  0.52914900  0.24469900  0.15487400  1
  O  O27  1  0.75000000  0.81742600  0.56700000  1
