# generated using pymatgen
data_BaGaB4H3O10
_symmetry_space_group_name_H-M   'P 1'
_cell_length_a   7.19957413
_cell_length_b   7.25046990
_cell_length_c   10.03610685
_cell_angle_alpha   107.41846209
_cell_angle_beta   90.25272340
_cell_angle_gamma   119.51803194
_symmetry_Int_Tables_number   1
_chemical_formula_structural   BaGaB4H3O10
_chemical_formula_sum   'Ba2 Ga2 B8 H6 O20'
_cell_volume   427.64109454
_cell_formula_units_Z   2
loop_
 _symmetry_equiv_pos_site_id
 _symmetry_equiv_pos_as_xyz
  1  'x, y, z'
loop_
 _atom_site_type_symbol
 _atom_site_label
 _atom_site_symmetry_multiplicity
 _atom_site_fract_x
 _atom_site_fract_y
 _atom_site_fract_z
 _atom_site_occupancy
  Ba  Ba0  1  0.08013900  0.29991600  0.70646700  1
  Ba  Ba1  1  0.91986100  0.70008400  0.29353300  1
  Ga  Ga2  1  0.39295100  0.91135700  0.62012500  1
  Ga  Ga3  1  0.60704900  0.08864300  0.37987500  1
  B  B4  1  0.69824100  0.40082800  0.70424700  1
  B  B5  1  0.30175900  0.59917200  0.29575300  1
  B  B6  1  0.56148100  0.63620500  0.65393700  1
  B  B7  1  0.43851900  0.36379500  0.34606300  1
  B  B8  1  0.93689900  0.74632800  0.64239200  1
  B  B9  1  0.06310100  0.25367200  0.35760800  1
  B  B10  1  0.62368100  0.24141500  0.90769200  1
  B  B11  1  0.37631900  0.75858500  0.09230800  1
  H  H12  1  0.62268900  0.17526100  0.08960400  1
  H  H13  1  0.37731100  0.82473900  0.91039600  1
  H  H14  1  0.16637200  0.31774300  0.02287200  1
  H  H15  1  0.83362800  0.68225700  0.97712800  1
  H  H16  1  0.18617100  0.10537700  0.93724100  1
  H  H17  1  0.81382900  0.89462300  0.06275900  1
  O  O18  1  0.52969000  0.45774600  0.69296300  1
  O  O19  1  0.47031000  0.54225400  0.30703700  1
  O  O20  1  0.38488500  0.64917600  0.62348700  1
  O  O21  1  0.61511500  0.35082400  0.37651300  1
  O  O22  1  0.77007700  0.79572400  0.64318200  1
  O  O23  1  0.22992300  0.20427600  0.35681800  1
  O  O24  1  0.11871200  0.88763600  0.60095700  1
  O  O25  1  0.88128800  0.11236400  0.39904300  1
  O  O26  1  0.90887200  0.56680000  0.67628200  1
  O  O27  1  0.09112800  0.43320000  0.32371800  1
  O  O28  1  0.63285400  0.17610700  0.60147400  1
  O  O29  1  0.36714600  0.82389300  0.39852600  1
  O  O30  1  0.74545700  0.40962500  0.85100600  1
  O  O31  1  0.25454300  0.59037500  0.14899400  1
  O  O32  1  0.68806800  0.30439500  0.05348200  1
  O  O33  1  0.31193200  0.69560500  0.94651800  1
  O  O34  1  0.45688000  0.03095700  0.83054700  1
  O  O35  1  0.54312000  0.96904300  0.16945300  1
  O  O36  1  0.11204000  0.18622300  0.93313200  1
  O  O37  1  0.88796000  0.81377700  0.06686800  1
