# generated using pymatgen
data_Nd4MgRh
_symmetry_space_group_name_H-M   'P 1'
_cell_length_a   10.00327276
_cell_length_b   10.00327276
_cell_length_c   10.00327276
_cell_angle_alpha   60.00000000
_cell_angle_beta   60.00000000
_cell_angle_gamma   60.00000000
_symmetry_Int_Tables_number   1
_chemical_formula_structural   Nd4MgRh
_chemical_formula_sum   'Nd16 Mg4 Rh4'
_cell_volume   707.80126486
_cell_formula_units_Z   4
loop_
 _symmetry_equiv_pos_site_id
 _symmetry_equiv_pos_as_xyz
  1  'x, y, z'
loop_
 _atom_site_type_symbol
 _atom_site_label
 _atom_site_symmetry_multiplicity
 _atom_site_fract_x
 _atom_site_fract_y
 _atom_site_fract_z
 _atom_site_occupancy
  Nd  Nd0  1  0.59689400  0.59689400  0.59689400  1
  Nd  Nd1  1  0.59689400  0.59689400  0.20931800  1
  Nd  Nd2  1  0.59689400  0.20931800  0.59689400  1
  Nd  Nd3  1  0.20931800  0.59689400  0.59689400  1
  Nd  Nd4  1  0.06232900  0.43767100  0.43767100  1
  Nd  Nd5  1  0.43767100  0.06232900  0.06232900  1
  Nd  Nd6  1  0.43767100  0.06232900  0.43767100  1
  Nd  Nd7  1  0.06232900  0.43767100  0.06232900  1
  Nd  Nd8  1  0.43767100  0.43767100  0.06232900  1
  Nd  Nd9  1  0.06232900  0.06232900  0.43767100  1
  Nd  Nd10  1  0.18651300  0.81348700  0.81348700  1
  Nd  Nd11  1  0.81348700  0.18651300  0.18651300  1
  Nd  Nd12  1  0.81348700  0.18651300  0.81348700  1
  Nd  Nd13  1  0.18651300  0.81348700  0.18651300  1
  Nd  Nd14  1  0.81348700  0.81348700  0.18651300  1
  Nd  Nd15  1  0.18651300  0.18651300  0.81348700  1
  Mg  Mg16  1  0.82944700  0.82944700  0.82944700  1
  Mg  Mg17  1  0.82944700  0.82944700  0.51166000  1
  Mg  Mg18  1  0.82944700  0.51166000  0.82944700  1
  Mg  Mg19  1  0.51166000  0.82944700  0.82944700  1
  Rh  Rh20  1  0.39208200  0.39208200  0.39208200  1
  Rh  Rh21  1  0.39208200  0.39208200  0.82375300  1
  Rh  Rh22  1  0.39208200  0.82375300  0.39208200  1
  Rh  Rh23  1  0.82375300  0.39208200  0.39208200  1
