# generated using pymatgen
data_NaYGeO4
_symmetry_space_group_name_H-M   'P 1'
_cell_length_a   5.33502400
_cell_length_b   6.52651400
_cell_length_c   11.53200200
_cell_angle_alpha   90.00000000
_cell_angle_beta   90.00000000
_cell_angle_gamma   90.00000000
_symmetry_Int_Tables_number   1
_chemical_formula_structural   NaYGeO4
_chemical_formula_sum   'Na4 Y4 Ge4 O16'
_cell_volume   401.53403262
_cell_formula_units_Z   4
loop_
 _symmetry_equiv_pos_site_id
 _symmetry_equiv_pos_as_xyz
  1  'x, y, z'
loop_
 _atom_site_type_symbol
 _atom_site_label
 _atom_site_symmetry_multiplicity
 _atom_site_fract_x
 _atom_site_fract_y
 _atom_site_fract_z
 _atom_site_occupancy
  Na  Na0  1  0.00000000  0.00000000  0.00000000  1
  Na  Na1  1  0.00000000  0.50000000  0.00000000  1
  Na  Na2  1  0.50000000  0.00000000  0.50000000  1
  Na  Na3  1  0.50000000  0.50000000  0.50000000  1
  Y  Y4  1  0.00394200  0.75000000  0.27766700  1
  Y  Y5  1  0.99605800  0.25000000  0.72233300  1
  Y  Y6  1  0.49605800  0.75000000  0.77766700  1
  Y  Y7  1  0.50394200  0.25000000  0.22233300  1
  Ge  Ge8  1  0.94568500  0.25000000  0.40272100  1
  Ge  Ge9  1  0.55431500  0.25000000  0.90272100  1
  Ge  Ge10  1  0.05431500  0.75000000  0.59727900  1
  Ge  Ge11  1  0.44568500  0.75000000  0.09727900  1
  O  O12  1  0.79233100  0.45720400  0.32605800  1
  O  O13  1  0.29233100  0.54279600  0.17394200  1
  O  O14  1  0.20766900  0.95720400  0.67394200  1
  O  O15  1  0.70766900  0.04279600  0.82605800  1
  O  O16  1  0.20766900  0.54279600  0.67394200  1
  O  O17  1  0.70766900  0.45720400  0.82605800  1
  O  O18  1  0.79233100  0.04279600  0.32605800  1
  O  O19  1  0.29233100  0.95720400  0.17394200  1
  O  O20  1  0.17417200  0.75000000  0.45471500  1
  O  O21  1  0.67417200  0.25000000  0.04528500  1
  O  O22  1  0.82582800  0.25000000  0.54528500  1
  O  O23  1  0.32582800  0.75000000  0.95471500  1
  O  O24  1  0.72803300  0.75000000  0.61052400  1
  O  O25  1  0.22803300  0.25000000  0.88947600  1
  O  O26  1  0.27196700  0.25000000  0.38947600  1
  O  O27  1  0.77196700  0.75000000  0.11052400  1
