# generated using pymatgen
data_NaErCu2F8
_symmetry_space_group_name_H-M   'P 1'
_cell_length_a   6.42943118
_cell_length_b   6.42943118
_cell_length_c   6.42943118
_cell_angle_alpha   130.06779781
_cell_angle_beta   130.06779781
_cell_angle_gamma   73.29840211
_symmetry_Int_Tables_number   1
_chemical_formula_structural   NaErCu2F8
_chemical_formula_sum   'Na1 Er1 Cu2 F8'
_cell_volume   151.95355231
_cell_formula_units_Z   1
loop_
 _symmetry_equiv_pos_site_id
 _symmetry_equiv_pos_as_xyz
  1  'x, y, z'
loop_
 _atom_site_type_symbol
 _atom_site_label
 _atom_site_symmetry_multiplicity
 _atom_site_fract_x
 _atom_site_fract_y
 _atom_site_fract_z
 _atom_site_occupancy
  Na  Na0  1  0.50000000  0.50000000  0.00000000  1
  Er  Er1  1  0.00000000  0.00000000  0.00000000  1
  Cu  Cu2  1  0.75000000  0.25000000  0.50000000  1
  Cu  Cu3  1  0.25000000  0.75000000  0.50000000  1
  F  F4  1  0.42857600  0.28803600  0.47517800  1
  F  F5  1  0.81285800  0.95339700  0.52482200  1
  F  F6  1  0.28803600  0.81285800  0.85946000  1
  F  F7  1  0.18714200  0.71196400  0.14054000  1
  F  F8  1  0.95339700  0.42857600  0.14054000  1
  F  F9  1  0.57142400  0.04660300  0.85946000  1
  F  F10  1  0.04660300  0.18714200  0.47517800  1
  F  F11  1  0.71196400  0.57142400  0.52482200  1
