# generated using pymatgen
data_Sr2V3Se5O18
_symmetry_space_group_name_H-M   'P 1'
_cell_length_a   9.20445900
_cell_length_b   10.81885900
_cell_length_c   17.25973800
_cell_angle_alpha   90.00000000
_cell_angle_beta   90.00000000
_cell_angle_gamma   90.00000000
_symmetry_Int_Tables_number   1
_chemical_formula_structural   Sr2V3Se5O18
_chemical_formula_sum   'Sr8 V12 Se20 O72'
_cell_volume   1718.75481262
_cell_formula_units_Z   4
loop_
 _symmetry_equiv_pos_site_id
 _symmetry_equiv_pos_as_xyz
  1  'x, y, z'
loop_
 _atom_site_type_symbol
 _atom_site_label
 _atom_site_symmetry_multiplicity
 _atom_site_fract_x
 _atom_site_fract_y
 _atom_site_fract_z
 _atom_site_occupancy
  Sr  Sr0  1  0.35657600  0.25000000  0.21605500  1
  Sr  Sr1  1  0.14342400  0.25000000  0.71605500  1
  Sr  Sr2  1  0.64342400  0.75000000  0.78394500  1
  Sr  Sr3  1  0.85657600  0.75000000  0.28394500  1
  Sr  Sr4  1  0.38401700  0.75000000  0.19030100  1
  Sr  Sr5  1  0.11598300  0.75000000  0.69030100  1
  Sr  Sr6  1  0.61598300  0.25000000  0.80969900  1
  Sr  Sr7  1  0.88401700  0.25000000  0.30969900  1
  V  V8  1  0.03058500  0.49273800  0.16017600  1
  V  V9  1  0.46941500  0.00726200  0.66017600  1
  V  V10  1  0.96941500  0.99273800  0.83982400  1
  V  V11  1  0.53058500  0.50726200  0.33982400  1
  V  V12  1  0.96941500  0.50726200  0.83982400  1
  V  V13  1  0.53058500  0.99273800  0.33982400  1
  V  V14  1  0.03058500  0.00726200  0.16017600  1
  V  V15  1  0.46941500  0.49273800  0.66017600  1
  V  V16  1  0.47768500  0.25000000  0.01925600  1
  V  V17  1  0.02231500  0.25000000  0.51925600  1
  V  V18  1  0.52231500  0.75000000  0.98074400  1
  V  V19  1  0.97768500  0.75000000  0.48074400  1
  Se  Se20  1  0.31649900  0.51911800  0.04797500  1
  Se  Se21  1  0.18350100  0.98088200  0.54797500  1
  Se  Se22  1  0.68350100  0.01911800  0.95202500  1
  Se  Se23  1  0.81649900  0.48088200  0.45202500  1
  Se  Se24  1  0.68350100  0.48088200  0.95202500  1
  Se  Se25  1  0.81649900  0.01911800  0.45202500  1
  Se  Se26  1  0.31649900  0.98088200  0.04797500  1
  Se  Se27  1  0.18350100  0.51911800  0.54797500  1
  Se  Se28  1  0.17911900  0.51900200  0.31370400  1
  Se  Se29  1  0.32088100  0.98099800  0.81370400  1
  Se  Se30  1  0.82088100  0.01900200  0.68629600  1
  Se  Se31  1  0.67911900  0.48099800  0.18629600  1
  Se  Se32  1  0.82088100  0.48099800  0.68629600  1
  Se  Se33  1  0.67911900  0.01900200  0.18629600  1
  Se  Se34  1  0.17911900  0.98099800  0.31370400  1
  Se  Se35  1  0.32088100  0.51900200  0.81370400  1
  Se  Se36  1  0.89753400  0.75000000  0.06286200  1
  Se  Se37  1  0.60246600  0.75000000  0.56286200  1
  Se  Se38  1  0.10246600  0.25000000  0.93713800  1
  Se  Se39  1  0.39753400  0.25000000  0.43713800  1
  O  O40  1  0.21796200  0.58354500  0.12333200  1
  O  O41  1  0.28203800  0.91645500  0.62333200  1
  O  O42  1  0.78203800  0.08354500  0.87666800  1
  O  O43  1  0.71796200  0.41645500  0.37666800  1
  O  O44  1  0.78203800  0.41645500  0.87666800  1
  O  O45  1  0.71796200  0.08354500  0.37666800  1
  O  O46  1  0.21796200  0.91645500  0.12333200  1
  O  O47  1  0.28203800  0.58354500  0.62333200  1
  O  O48  1  0.46751800  0.61614900  0.06156100  1
  O  O49  1  0.03248200  0.88385100  0.56156100  1
  O  O50  1  0.53248200  0.11614900  0.93843900  1
  O  O51  1  0.96751800  0.38385100  0.43843900  1
  O  O52  1  0.53248200  0.38385100  0.93843900  1
  O  O53  1  0.96751800  0.11614900  0.43843900  1
  O  O54  1  0.46751800  0.88385100  0.06156100  1
  O  O55  1  0.03248200  0.61614900  0.56156100  1
  O  O56  1  0.38124000  0.38345700  0.08962700  1
  O  O57  1  0.11876000  0.11654300  0.58962700  1
  O  O58  1  0.61876000  0.88345700  0.91037300  1
  O  O59  1  0.88124000  0.61654300  0.41037300  1
  O  O60  1  0.61876000  0.61654300  0.91037300  1
  O  O61  1  0.88124000  0.88345700  0.41037300  1
  O  O62  1  0.38124000  0.11654300  0.08962700  1
  O  O63  1  0.11876000  0.38345700  0.58962700  1
  O  O64  1  0.07780900  0.61934500  0.25939600  1
  O  O65  1  0.42219100  0.88065500  0.75939600  1
  O  O66  1  0.92219100  0.11934500  0.74060400  1
  O  O67  1  0.57780900  0.38065500  0.24060400  1
  O  O68  1  0.92219100  0.38065500  0.74060400  1
  O  O69  1  0.57780900  0.11934500  0.24060400  1
  O  O70  1  0.07780900  0.88065500  0.25939600  1
  O  O71  1  0.42219100  0.61934500  0.75939600  1
  O  O72  1  0.14088900  0.39364500  0.25041500  1
  O  O73  1  0.35911100  0.10635500  0.75041500  1
  O  O74  1  0.85911100  0.89364500  0.74958500  1
  O  O75  1  0.64088900  0.60635500  0.24958500  1
  O  O76  1  0.85911100  0.60635500  0.74958500  1
  O  O77  1  0.64088900  0.89364500  0.24958500  1
  O  O78  1  0.14088900  0.10635500  0.25041500  1
  O  O79  1  0.35911100  0.39364500  0.75041500  1
  O  O80  1  0.35143800  0.56680000  0.28193000  1
  O  O81  1  0.14856200  0.93320000  0.78193000  1
  O  O82  1  0.64856200  0.06680000  0.71807000  1
  O  O83  1  0.85143800  0.43320000  0.21807000  1
  O  O84  1  0.64856200  0.43320000  0.71807000  1
  O  O85  1  0.85143800  0.06680000  0.21807000  1
  O  O86  1  0.35143800  0.93320000  0.28193000  1
  O  O87  1  0.14856200  0.56680000  0.78193000  1
  O  O88  1  0.89763800  0.63006400  0.13166500  1
  O  O89  1  0.60236200  0.86993600  0.63166500  1
  O  O90  1  0.10236200  0.13006400  0.86833500  1
  O  O91  1  0.39763800  0.36993600  0.36833500  1
  O  O92  1  0.10236200  0.36993600  0.86833500  1
  O  O93  1  0.39763800  0.13006400  0.36833500  1
  O  O94  1  0.89763800  0.86993600  0.13166500  1
  O  O95  1  0.60236200  0.63006400  0.63166500  1
  O  O96  1  0.71737300  0.75000000  0.04401300  1
  O  O97  1  0.78262700  0.75000000  0.54401300  1
  O  O98  1  0.28262700  0.25000000  0.95598700  1
  O  O99  1  0.21737300  0.25000000  0.45598700  1
  O  O100  1  0.03751900  0.39357700  0.08804700  1
  O  O101  1  0.46248100  0.10642300  0.58804700  1
  O  O102  1  0.96248100  0.89357700  0.91195300  1
  O  O103  1  0.53751900  0.60642300  0.41195300  1
  O  O104  1  0.96248100  0.60642300  0.91195300  1
  O  O105  1  0.53751900  0.89357700  0.41195300  1
  O  O106  1  0.03751900  0.10642300  0.08804700  1
  O  O107  1  0.46248100  0.39357700  0.58804700  1
  O  O108  1  0.63329600  0.25000000  0.06789100  1
  O  O109  1  0.86670400  0.25000000  0.56789100  1
  O  O110  1  0.36670400  0.75000000  0.93210900  1
  O  O111  1  0.13329600  0.75000000  0.43210900  1
