# generated using pymatgen
data_CdP2(H4O5)2
_symmetry_space_group_name_H-M   'P 1'
_cell_length_a   10.55431400
_cell_length_b   5.45274000
_cell_length_c   8.92132117
_cell_angle_alpha   56.58023089
_cell_angle_beta   90.00000000
_cell_angle_gamma   90.00000000
_symmetry_Int_Tables_number   1
_chemical_formula_structural   CdP2(H4O5)2
_chemical_formula_sum   'Cd2 P4 H16 O20'
_cell_volume   428.53122471
_cell_formula_units_Z   2
loop_
 _symmetry_equiv_pos_site_id
 _symmetry_equiv_pos_as_xyz
  1  'x, y, z'
loop_
 _atom_site_type_symbol
 _atom_site_label
 _atom_site_symmetry_multiplicity
 _atom_site_fract_x
 _atom_site_fract_y
 _atom_site_fract_z
 _atom_site_occupancy
  Cd  Cd0  1  0.50000000  0.00000000  0.50000000  1
  Cd  Cd1  1  0.00000000  0.00000000  0.00000000  1
  P  P2  1  0.71747100  0.08379600  0.17253400  1
  P  P3  1  0.78252900  0.08379600  0.67253400  1
  P  P4  1  0.28252900  0.91620400  0.82746600  1
  P  P5  1  0.21747100  0.91620400  0.32746600  1
  H  H6  1  0.58239600  0.38905700  0.68394300  1
  H  H7  1  0.91760400  0.38905700  0.18394300  1
  H  H8  1  0.41760400  0.61094300  0.31605700  1
  H  H9  1  0.08239600  0.61094300  0.81605700  1
  H  H10  1  0.45748300  0.40129400  0.77677900  1
  H  H11  1  0.04251700  0.40129400  0.27677900  1
  H  H12  1  0.54251700  0.59870600  0.22322100  1
  H  H13  1  0.95748300  0.59870600  0.72322100  1
  H  H14  1  0.61103100  0.42774200  0.92935400  1
  H  H15  1  0.88896900  0.42774200  0.42935400  1
  H  H16  1  0.38896900  0.57225800  0.07064600  1
  H  H17  1  0.11103100  0.57225800  0.57064600  1
  H  H18  1  0.72198200  0.87482800  0.02067400  1
  H  H19  1  0.77801800  0.87482800  0.52067400  1
  H  H20  1  0.27801800  0.12517200  0.97932600  1
  H  H21  1  0.22198200  0.12517200  0.47932600  1
  O  O22  1  0.67949300  0.96079700  0.36659800  1
  O  O23  1  0.82050700  0.96079700  0.86659800  1
  O  O24  1  0.32050700  0.03920300  0.63340200  1
  O  O25  1  0.17949300  0.03920300  0.13340200  1
  O  O26  1  0.85938700  0.14529200  0.13857400  1
  O  O27  1  0.64061300  0.14529200  0.63857400  1
  O  O28  1  0.14061300  0.85470800  0.86142600  1
  O  O29  1  0.35938700  0.85470800  0.36142600  1
  O  O30  1  0.63792500  0.37493900  0.05112200  1
  O  O31  1  0.86207500  0.37493900  0.55112200  1
  O  O32  1  0.36207500  0.62506100  0.94887800  1
  O  O33  1  0.13792500  0.62506100  0.44887800  1
  O  O34  1  0.67308800  0.85361000  0.12604900  1
  O  O35  1  0.82691200  0.85361000  0.62604900  1
  O  O36  1  0.32691200  0.14639000  0.87395100  1
  O  O37  1  0.17308800  0.14639000  0.37395100  1
  O  O38  1  0.53988900  0.50198900  0.72921700  1
  O  O39  1  0.96011100  0.50198900  0.22921700  1
  O  O40  1  0.46011100  0.49801100  0.27078300  1
  O  O41  1  0.03988900  0.49801100  0.77078300  1
