# generated using pymatgen
data_BaMg2
_symmetry_space_group_name_H-M   'P 1'
_cell_length_a   6.66604225
_cell_length_b   6.66604225
_cell_length_c   10.58828900
_cell_angle_alpha   90.00000000
_cell_angle_beta   90.00000000
_cell_angle_gamma   120.00000245
_symmetry_Int_Tables_number   1
_chemical_formula_structural   BaMg2
_chemical_formula_sum   'Ba4 Mg8'
_cell_volume   407.46708370
_cell_formula_units_Z   4
loop_
 _symmetry_equiv_pos_site_id
 _symmetry_equiv_pos_as_xyz
  1  'x, y, z'
loop_
 _atom_site_type_symbol
 _atom_site_label
 _atom_site_symmetry_multiplicity
 _atom_site_fract_x
 _atom_site_fract_y
 _atom_site_fract_z
 _atom_site_occupancy
  Ba  Ba0  1  0.33333300  0.66666700  0.44311500  1
  Ba  Ba1  1  0.66666700  0.33333300  0.94311500  1
  Ba  Ba2  1  0.66666700  0.33333300  0.55688500  1
  Ba  Ba3  1  0.33333300  0.66666700  0.05688500  1
  Mg  Mg4  1  0.16135300  0.32270600  0.75000000  1
  Mg  Mg5  1  0.83864700  0.16135300  0.25000000  1
  Mg  Mg6  1  0.32270600  0.16135300  0.25000000  1
  Mg  Mg7  1  0.67729400  0.83864700  0.75000000  1
  Mg  Mg8  1  0.00000000  0.00000000  0.00000000  1
  Mg  Mg9  1  0.00000000  0.00000000  0.50000000  1
  Mg  Mg10  1  0.83864700  0.67729400  0.25000000  1
  Mg  Mg11  1  0.16135300  0.83864700  0.75000000  1
