# generated using pymatgen
data_YPt
_symmetry_space_group_name_H-M   'P 1'
_cell_length_a   4.55419300
_cell_length_b   5.59438700
_cell_length_c   7.05735500
_cell_angle_alpha   90.00000000
_cell_angle_beta   90.00000000
_cell_angle_gamma   90.00000000
_symmetry_Int_Tables_number   1
_chemical_formula_structural   YPt
_chemical_formula_sum   'Y4 Pt4'
_cell_volume   179.80671280
_cell_formula_units_Z   4
loop_
 _symmetry_equiv_pos_site_id
 _symmetry_equiv_pos_as_xyz
  1  'x, y, z'
loop_
 _atom_site_type_symbol
 _atom_site_label
 _atom_site_symmetry_multiplicity
 _atom_site_fract_x
 _atom_site_fract_y
 _atom_site_fract_z
 _atom_site_occupancy
  Y  Y0  1  0.25000000  0.64043000  0.18128400  1
  Y  Y1  1  0.75000000  0.35957000  0.81871600  1
  Y  Y2  1  0.75000000  0.14043000  0.31871600  1
  Y  Y3  1  0.25000000  0.85957000  0.68128400  1
  Pt  Pt4  1  0.25000000  0.15264700  0.04290900  1
  Pt  Pt5  1  0.75000000  0.84735300  0.95709100  1
  Pt  Pt6  1  0.75000000  0.65264700  0.45709100  1
  Pt  Pt7  1  0.25000000  0.34735300  0.54290900  1
