# generated using pymatgen
data_Cs3Re2N5
_symmetry_space_group_name_H-M   'P 1'
_cell_length_a   11.11879317
_cell_length_b   11.11879317
_cell_length_c   11.11879317
_cell_angle_alpha   101.25012949
_cell_angle_beta   101.25012949
_cell_angle_gamma   127.57612188
_symmetry_Int_Tables_number   1
_chemical_formula_structural   Cs3Re2N5
_chemical_formula_sum   'Cs12 Re8 N20'
_cell_volume   977.39302024
_cell_formula_units_Z   4
loop_
 _symmetry_equiv_pos_site_id
 _symmetry_equiv_pos_as_xyz
  1  'x, y, z'
loop_
 _atom_site_type_symbol
 _atom_site_label
 _atom_site_symmetry_multiplicity
 _atom_site_fract_x
 _atom_site_fract_y
 _atom_site_fract_z
 _atom_site_occupancy
  Cs  Cs0  1  0.84959200  0.54891200  0.84205700  1
  Cs  Cs1  1  0.70685500  0.00753500  0.15794300  1
  Cs  Cs2  1  0.79891200  0.45685500  0.19932000  1
  Cs  Cs3  1  0.25753500  0.59959200  0.80068000  1
  Cs  Cs4  1  0.51184600  0.69381000  0.33105200  1
  Cs  Cs5  1  0.36275900  0.18079400  0.66894800  1
  Cs  Cs6  1  0.94381000  0.11275900  0.68196500  1
  Cs  Cs7  1  0.43079400  0.26184600  0.31803500  1
  Cs  Cs8  1  0.98603600  0.98603600  0.00000000  1
  Cs  Cs9  1  0.23603600  0.73603600  0.50000000  1
  Cs  Cs10  1  0.72860200  0.22860200  0.50000000  1
  Cs  Cs11  1  0.47860200  0.47860200  0.00000000  1
  Re  Re12  1  0.61761300  0.04392800  0.81916500  1
  Re  Re13  1  0.22476300  0.79844800  0.18083500  1
  Re  Re14  1  0.29392800  0.97476300  0.92631600  1
  Re  Re15  1  0.04844800  0.36761300  0.07368400  1
  Re  Re16  1  0.93535900  0.76092700  0.59635000  1
  Re  Re17  1  0.16457700  0.33900900  0.40365000  1
  Re  Re18  1  0.01092700  0.91457700  0.32556900  1
  Re  Re19  1  0.58900900  0.68535900  0.67443100  1
  N  N20  1  0.62766600  0.15260700  0.71838500  1
  N  N21  1  0.43422200  0.90928100  0.28161500  1
  N  N22  1  0.40260700  0.18422200  0.02494200  1
  N  N23  1  0.15928100  0.37766600  0.97505800  1
  N  N24  1  0.80471900  0.78541400  0.20677000  1
  N  N25  1  0.57864500  0.59794900  0.79323000  1
  N  N26  1  0.03541400  0.32864500  0.48069500  1
  N  N27  1  0.84794900  0.55471900  0.51930500  1
  N  N28  1  0.82108100  0.19158000  0.98009200  1
  N  N29  1  0.21148800  0.84098800  0.01990800  1
  N  N30  1  0.44158000  0.96148800  0.87050000  1
  N  N31  1  0.09098800  0.57108100  0.12950000  1
  N  N32  1  0.00894600  0.87659000  0.48850300  1
  N  N33  1  0.38808700  0.52044300  0.51149700  1
  N  N34  1  0.12659000  0.13808700  0.36764400  1
  N  N35  1  0.77044300  0.75894600  0.63235600  1
  N  N36  1  0.11654600  0.88166600  0.76396800  1
  N  N37  1  0.11769800  0.35257800  0.23603200  1
  N  N38  1  0.13166600  0.86769800  0.26512000  1
  N  N39  1  0.60257800  0.86654600  0.73488000  1
