# generated using pymatgen
data_NbTlCl6
_symmetry_space_group_name_H-M   'P 1'
_cell_length_a   6.97146633
_cell_length_b   6.97146633
_cell_length_c   12.51321874
_cell_angle_alpha   79.61137912
_cell_angle_beta   79.61137912
_cell_angle_gamma   55.42523721
_symmetry_Int_Tables_number   1
_chemical_formula_structural   NbTlCl6
_chemical_formula_sum   'Nb2 Tl2 Cl12'
_cell_volume   490.25217838
_cell_formula_units_Z   2
loop_
 _symmetry_equiv_pos_site_id
 _symmetry_equiv_pos_as_xyz
  1  'x, y, z'
loop_
 _atom_site_type_symbol
 _atom_site_label
 _atom_site_symmetry_multiplicity
 _atom_site_fract_x
 _atom_site_fract_y
 _atom_site_fract_z
 _atom_site_occupancy
  Nb  Nb0  1  0.50000000  0.00000000  0.50000000  1
  Nb  Nb1  1  0.00000000  0.50000000  0.00000000  1
  Tl  Tl2  1  0.88142100  0.11857900  0.75000000  1
  Tl  Tl3  1  0.11857900  0.88142100  0.25000000  1
  Cl  Cl4  1  0.46282900  0.69886400  0.60375600  1
  Cl  Cl5  1  0.53717100  0.30113600  0.39624400  1
  Cl  Cl6  1  0.30113600  0.53717100  0.89624400  1
  Cl  Cl7  1  0.69886400  0.46282900  0.10375600  1
  Cl  Cl8  1  0.37041500  0.20141400  0.65927200  1
  Cl  Cl9  1  0.62958500  0.79858600  0.34072800  1
  Cl  Cl10  1  0.79858600  0.62958500  0.84072800  1
  Cl  Cl11  1  0.20141400  0.37041500  0.15927200  1
  Cl  Cl12  1  0.79538600  0.89471700  0.04025400  1
  Cl  Cl13  1  0.20461400  0.10528300  0.95974600  1
  Cl  Cl14  1  0.10528300  0.20461400  0.45974600  1
  Cl  Cl15  1  0.89471700  0.79538600  0.54025400  1
