# generated using pymatgen
data_Na3CuF6
_symmetry_space_group_name_H-M   'P 1'
_cell_length_a   5.54955624
_cell_length_b   5.76084900
_cell_length_c   7.96897623
_cell_angle_alpha   90.00000000
_cell_angle_beta   89.90685967
_cell_angle_gamma   90.00000000
_symmetry_Int_Tables_number   1
_chemical_formula_structural   Na3CuF6
_chemical_formula_sum   'Na6 Cu2 F12'
_cell_volume   254.76907259
_cell_formula_units_Z   2
loop_
 _symmetry_equiv_pos_site_id
 _symmetry_equiv_pos_as_xyz
  1  'x, y, z'
loop_
 _atom_site_type_symbol
 _atom_site_label
 _atom_site_symmetry_multiplicity
 _atom_site_fract_x
 _atom_site_fract_y
 _atom_site_fract_z
 _atom_site_occupancy
  Na  Na0  1  0.00000000  0.00000000  0.50000000  1
  Na  Na1  1  0.50000000  0.50000000  0.00000000  1
  Na  Na2  1  0.01468000  0.44224300  0.25530100  1
  Na  Na3  1  0.98532000  0.55775700  0.74469900  1
  Na  Na4  1  0.48532000  0.94224300  0.24469900  1
  Na  Na5  1  0.51468000  0.05775700  0.75530100  1
  Cu  Cu6  1  0.00000000  0.00000000  0.00000000  1
  Cu  Cu7  1  0.50000000  0.50000000  0.50000000  1
  F  F8  1  0.16475700  0.72145000  0.07033800  1
  F  F9  1  0.83524300  0.27855000  0.92966200  1
  F  F10  1  0.33524300  0.22145000  0.42966200  1
  F  F11  1  0.66475700  0.77855000  0.57033800  1
  F  F12  1  0.88382900  0.05650400  0.22570500  1
  F  F13  1  0.11617100  0.94349600  0.77429500  1
  F  F14  1  0.61617100  0.55650400  0.27429500  1
  F  F15  1  0.38382900  0.44349600  0.72570500  1
  F  F16  1  0.28509500  0.17559900  0.05334100  1
  F  F17  1  0.71490500  0.82440100  0.94665900  1
  F  F18  1  0.21490500  0.67559900  0.44665900  1
  F  F19  1  0.78509500  0.32440100  0.55334100  1
