# generated using pymatgen
data_Ba3NdIrRuO9
_symmetry_space_group_name_H-M   'P 1'
_cell_length_a   6.00043016
_cell_length_b   6.00043016
_cell_length_c   14.99522900
_cell_angle_alpha   90.00000000
_cell_angle_beta   90.00000000
_cell_angle_gamma   120.00000178
_symmetry_Int_Tables_number   1
_chemical_formula_structural   Ba3NdIrRuO9
_chemical_formula_sum   'Ba6 Nd2 Ir2 Ru2 O18'
_cell_volume   467.57200120
_cell_formula_units_Z   2
loop_
 _symmetry_equiv_pos_site_id
 _symmetry_equiv_pos_as_xyz
  1  'x, y, z'
loop_
 _atom_site_type_symbol
 _atom_site_label
 _atom_site_symmetry_multiplicity
 _atom_site_fract_x
 _atom_site_fract_y
 _atom_site_fract_z
 _atom_site_occupancy
  Ba  Ba0  1  0.33333300  0.66666700  0.39905400  1
  Ba  Ba1  1  0.66666700  0.33333300  0.60178800  1
  Ba  Ba2  1  0.66666700  0.33333300  0.89905400  1
  Ba  Ba3  1  0.33333300  0.66666700  0.10178800  1
  Ba  Ba4  1  0.00000000  0.00000000  0.74969300  1
  Ba  Ba5  1  0.00000000  0.00000000  0.24969300  1
  Nd  Nd6  1  0.00000000  0.00000000  0.50166200  1
  Nd  Nd7  1  0.00000000  0.00000000  0.00166200  1
  Ir  Ir8  1  0.33333300  0.66666700  0.66682400  1
  Ir  Ir9  1  0.66666700  0.33333300  0.16682400  1
  Ru  Ru10  1  0.66666700  0.33333300  0.33432700  1
  Ru  Ru11  1  0.33333300  0.66666700  0.83432700  1
  O  O12  1  0.17843700  0.82156300  0.90716000  1
  O  O13  1  0.64312600  0.82156300  0.90716000  1
  O  O14  1  0.17843700  0.35687400  0.90716000  1
  O  O15  1  0.82248400  0.17751600  0.09081800  1
  O  O16  1  0.35503200  0.17751600  0.09081800  1
  O  O17  1  0.82248400  0.64496800  0.09081800  1
  O  O18  1  0.82156300  0.17843700  0.40716000  1
  O  O19  1  0.35687400  0.17843700  0.40716000  1
  O  O20  1  0.82156300  0.64312600  0.40716000  1
  O  O21  1  0.17751600  0.82248400  0.59081800  1
  O  O22  1  0.64496800  0.82248400  0.59081800  1
  O  O23  1  0.17751600  0.35503200  0.59081800  1
  O  O24  1  0.49041800  0.50958200  0.75084300  1
  O  O25  1  0.01916400  0.50958200  0.75084300  1
  O  O26  1  0.49041800  0.98083600  0.75084300  1
  O  O27  1  0.50958200  0.49041800  0.25084300  1
  O  O28  1  0.98083600  0.49041800  0.25084300  1
  O  O29  1  0.50958200  0.01916400  0.25084300  1
