# generated using pymatgen
data_Rb2Cd3SnAs4
_symmetry_space_group_name_H-M   'P 1'
_cell_length_a   9.75197829
_cell_length_b   9.75197829
_cell_length_c   7.86006950
_cell_angle_alpha   66.40761460
_cell_angle_beta   66.40761460
_cell_angle_gamma   26.79884613
_symmetry_Int_Tables_number   1
_chemical_formula_structural   Rb2Cd3SnAs4
_chemical_formula_sum   'Rb2 Cd3 Sn1 As4'
_cell_volume   307.17261727
_cell_formula_units_Z   1
loop_
 _symmetry_equiv_pos_site_id
 _symmetry_equiv_pos_as_xyz
  1  'x, y, z'
loop_
 _atom_site_type_symbol
 _atom_site_label
 _atom_site_symmetry_multiplicity
 _atom_site_fract_x
 _atom_site_fract_y
 _atom_site_fract_z
 _atom_site_occupancy
  Rb  Rb0  1  0.49462100  0.49462100  0.50716300  1
  Rb  Rb1  1  0.99639700  0.99639700  0.00182300  1
  Cd  Cd2  1  0.19729800  0.19729800  0.48138400  1
  Cd  Cd3  1  0.31979100  0.31979100  0.02834700  1
  Cd  Cd4  1  0.81526600  0.81526600  0.50453900  1
  Sn  Sn5  1  0.69027300  0.69027300  0.96524700  1
  As  As6  1  0.36284900  0.36284900  0.30752700  1
  As  As7  1  0.84568800  0.84568800  0.81709600  1
  As  As8  1  0.63752000  0.63752000  0.69563800  1
  As  As9  1  0.14120900  0.14120900  0.19123600  1
