# generated using pymatgen
data_Na5Li(Mo3O10)3
_symmetry_space_group_name_H-M   'P 1'
_cell_length_a   21.06108852
_cell_length_b   19.31966614
_cell_length_c   9.88754009
_cell_angle_alpha   85.88074722
_cell_angle_beta   66.19805264
_cell_angle_gamma   27.92120014
_symmetry_Int_Tables_number   1
_chemical_formula_structural   Na5Li(Mo3O10)3
_chemical_formula_sum   'Na10 Li2 Mo18 O60'
_cell_volume   1287.79982546
_cell_formula_units_Z   2
loop_
 _symmetry_equiv_pos_site_id
 _symmetry_equiv_pos_as_xyz
  1  'x, y, z'
loop_
 _atom_site_type_symbol
 _atom_site_label
 _atom_site_symmetry_multiplicity
 _atom_site_fract_x
 _atom_site_fract_y
 _atom_site_fract_z
 _atom_site_occupancy
  Na  Na0  1  0.56215500  0.13388000  0.33586900  1
  Na  Na1  1  0.33586900  0.96809500  0.56215500  1
  Na  Na2  1  0.28190500  0.91413100  0.11612000  1
  Na  Na3  1  0.11612000  0.68784500  0.28190500  1
  Na  Na4  1  0.64406400  0.26261400  0.24960900  1
  Na  Na5  1  0.24960900  0.84371400  0.64406400  1
  Na  Na6  1  0.40628600  0.00039100  0.98738600  1
  Na  Na7  1  0.98738600  0.60593600  0.40628600  1
  Na  Na8  1  0.20079400  0.79920600  0.20079400  1
  Na  Na9  1  0.45079400  0.04920600  0.45079400  1
  Li  Li10  1  0.79496900  0.20503100  0.79496900  1
  Li  Li11  1  0.04496900  0.45503100  0.04496900  1
  Mo  Mo12  1  0.10405400  0.80344500  0.60776600  1
  Mo  Mo13  1  0.60776600  0.48473500  0.10405400  1
  Mo  Mo14  1  0.76526500  0.64223400  0.44655500  1
  Mo  Mo15  1  0.44655500  0.14594600  0.76526500  1
  Mo  Mo16  1  0.10955800  0.59029400  0.97831800  1
  Mo  Mo17  1  0.97831800  0.32183000  0.10955800  1
  Mo  Mo18  1  0.92817000  0.27168200  0.65970600  1
  Mo  Mo19  1  0.65970600  0.14044200  0.92817000  1
  Mo  Mo20  1  0.56173600  0.23751400  0.65117300  1
  Mo  Mo21  1  0.65117300  0.54957700  0.56173600  1
  Mo  Mo22  1  0.70042300  0.59882700  0.01248600  1
  Mo  Mo23  1  0.01248600  0.68826400  0.70042300  1
  Mo  Mo24  1  0.20259400  0.70067600  0.86506900  1
  Mo  Mo25  1  0.86506900  0.23166200  0.20259400  1
  Mo  Mo26  1  0.01833800  0.38493100  0.54932400  1
  Mo  Mo27  1  0.54932400  0.04740600  0.01833800  1
  Mo  Mo28  1  0.62777300  0.37222700  0.62777300  1
  Mo  Mo29  1  0.87777300  0.62222700  0.87777300  1
  O  O30  1  0.33307000  0.66192500  0.74379100  1
  O  O31  1  0.74379100  0.26121400  0.33307000  1
  O  O32  1  0.98878600  0.50620900  0.58807500  1
  O  O33  1  0.58807500  0.91693000  0.98878600  1
  O  O34  1  0.01722200  0.68581200  0.20771400  1
  O  O35  1  0.20771400  0.08925200  0.01722200  1
  O  O36  1  0.16074800  0.04228600  0.56418800  1
  O  O37  1  0.56418800  0.23277800  0.16074800  1
  O  O38  1  0.64718800  0.15211100  0.42413600  1
  O  O39  1  0.42413600  0.77656600  0.64718800  1
  O  O40  1  0.47343400  0.82586400  0.09788900  1
  O  O41  1  0.09788900  0.60281200  0.47343400  1
  O  O42  1  0.97186300  0.82406500  0.73424900  1
  O  O43  1  0.73424900  0.46982400  0.97186300  1
  O  O44  1  0.78017600  0.51575100  0.42593500  1
  O  O45  1  0.42593500  0.27813700  0.78017600  1
  O  O46  1  0.18877500  0.71051400  0.38213300  1
  O  O47  1  0.38213300  0.71857800  0.18877500  1
  O  O48  1  0.53142200  0.86786700  0.53948600  1
  O  O49  1  0.53948600  0.06122500  0.53142200  1
  O  O50  1  0.79598700  0.09756900  0.80508300  1
  O  O51  1  0.80508300  0.30136100  0.79598700  1
  O  O52  1  0.94863900  0.44491700  0.15243100  1
  O  O53  1  0.15243100  0.45401300  0.94863900  1
  O  O54  1  0.09849900  0.90019900  0.61725600  1
  O  O55  1  0.61725600  0.38404600  0.09849900  1
  O  O56  1  0.86595400  0.63274400  0.34980100  1
  O  O57  1  0.34980100  0.15150100  0.86595400  1
  O  O58  1  0.97597000  0.92362900  0.93876600  1
  O  O59  1  0.93876600  0.16163500  0.97597000  1
  O  O60  1  0.08836500  0.31123400  0.32637100  1
  O  O61  1  0.32637100  0.27403000  0.08836500  1
  O  O62  1  0.89899200  0.80054400  0.02400000  1
  O  O63  1  0.02400000  0.27646400  0.89899200  1
  O  O64  1  0.97353600  0.22600000  0.44945600  1
  O  O65  1  0.44945600  0.35100800  0.97353600  1
  O  O66  1  0.12885500  0.77046600  0.08927100  1
  O  O67  1  0.08927100  0.01140700  0.12885500  1
  O  O68  1  0.23859300  0.16072900  0.47953400  1
  O  O69  1  0.47953400  0.12114500  0.23859300  1
  O  O70  1  0.52635900  0.37220100  0.67719800  1
  O  O71  1  0.67719800  0.42424300  0.52635900  1
  O  O72  1  0.82575700  0.57280200  0.87779900  1
  O  O73  1  0.87779900  0.72364100  0.82575700  1
  O  O74  1  0.24636300  0.55354000  0.84600500  1
  O  O75  1  0.84600500  0.35409200  0.24636300  1
  O  O76  1  0.89590800  0.40399500  0.69646000  1
  O  O77  1  0.69646000  0.00363700  0.89590800  1
  O  O78  1  0.22728100  0.47265900  0.64421200  1
  O  O79  1  0.64421200  0.65584800  0.22728100  1
  O  O80  1  0.59415200  0.60578800  0.77734100  1
  O  O81  1  0.77734100  0.02271900  0.59415200  1
  O  O82  1  0.30831100  0.58450800  0.57064300  1
  O  O83  1  0.57064300  0.53653800  0.30831100  1
  O  O84  1  0.71346200  0.67935700  0.66549200  1
  O  O85  1  0.66549200  0.94168900  0.71346200  1
  O  O86  1  0.51367100  0.49394000  0.86502400  1
  O  O87  1  0.86502400  0.12736600  0.51367100  1
  O  O88  1  0.12263400  0.38497600  0.75606000  1
  O  O89  1  0.75606000  0.73632900  0.12263400  1
