# generated using pymatgen
data_Ce3Ni13B2
_symmetry_space_group_name_H-M   'P 1'
_cell_length_a   4.92600800
_cell_length_b   4.92600794
_cell_length_c   10.99245600
_cell_angle_alpha   90.00000000
_cell_angle_beta   90.00000000
_cell_angle_gamma   120.00000039
_symmetry_Int_Tables_number   1
_chemical_formula_structural   Ce3Ni13B2
_chemical_formula_sum   'Ce3 Ni13 B2'
_cell_volume   231.00191830
_cell_formula_units_Z   1
loop_
 _symmetry_equiv_pos_site_id
 _symmetry_equiv_pos_as_xyz
  1  'x, y, z'
loop_
 _atom_site_type_symbol
 _atom_site_label
 _atom_site_symmetry_multiplicity
 _atom_site_fract_x
 _atom_site_fract_y
 _atom_site_fract_z
 _atom_site_occupancy
  Ce  Ce0  1  0.00000000  0.00000000  0.00000000  1
  Ce  Ce1  1  0.00000000  0.00000000  0.66912000  1
  Ce  Ce2  1  0.00000000  0.00000000  0.33088000  1
  Ni  Ni3  1  0.50000000  0.50000000  0.50000000  1
  Ni  Ni4  1  0.50000000  0.00000000  0.50000000  1
  Ni  Ni5  1  0.00000000  0.50000000  0.50000000  1
  Ni  Ni6  1  0.66666700  0.33333300  0.68206400  1
  Ni  Ni7  1  0.33333300  0.66666700  0.68206400  1
  Ni  Ni8  1  0.33333300  0.66666700  0.31793600  1
  Ni  Ni9  1  0.66666700  0.33333300  0.31793600  1
  Ni  Ni10  1  0.50000000  0.50000000  0.86712100  1
  Ni  Ni11  1  0.50000000  0.00000000  0.86712100  1
  Ni  Ni12  1  0.00000000  0.50000000  0.86712100  1
  Ni  Ni13  1  0.50000000  0.50000000  0.13287900  1
  Ni  Ni14  1  0.50000000  0.00000000  0.13287900  1
  Ni  Ni15  1  0.00000000  0.50000000  0.13287900  1
  B  B16  1  0.66666700  0.33333300  0.00000000  1
  B  B17  1  0.33333300  0.66666700  0.00000000  1
