# generated using pymatgen
data_V2AsO6
_symmetry_space_group_name_H-M   'P 1'
_cell_length_a   4.84245900
_cell_length_b   9.03467500
_cell_length_c   9.64377100
_cell_angle_alpha   90.00000000
_cell_angle_beta   90.00000000
_cell_angle_gamma   90.00000000
_symmetry_Int_Tables_number   1
_chemical_formula_structural   V2AsO6
_chemical_formula_sum   'V8 As4 O24'
_cell_volume   421.91539850
_cell_formula_units_Z   4
loop_
 _symmetry_equiv_pos_site_id
 _symmetry_equiv_pos_as_xyz
  1  'x, y, z'
loop_
 _atom_site_type_symbol
 _atom_site_label
 _atom_site_symmetry_multiplicity
 _atom_site_fract_x
 _atom_site_fract_y
 _atom_site_fract_z
 _atom_site_occupancy
  V  V0  1  0.10255100  0.66754100  0.89102200  1
  V  V1  1  0.39744900  0.33245900  0.39102200  1
  V  V2  1  0.60255100  0.83245900  0.10897800  1
  V  V3  1  0.89744900  0.16754100  0.60897800  1
  V  V4  1  0.11340900  0.00611800  0.90436900  1
  V  V5  1  0.38659100  0.99388200  0.40436900  1
  V  V6  1  0.61340900  0.49388200  0.09563100  1
  V  V7  1  0.88659100  0.50611800  0.59563100  1
  As  As8  1  0.88619400  0.15891800  0.19098200  1
  As  As9  1  0.61380600  0.84108200  0.69098200  1
  As  As10  1  0.38619400  0.34108200  0.80901800  1
  As  As11  1  0.11380600  0.65891800  0.30901800  1
  O  O12  1  0.91779500  0.15432300  0.01541400  1
  O  O13  1  0.58220500  0.84567700  0.51541400  1
  O  O14  1  0.41779500  0.34567700  0.98458600  1
  O  O15  1  0.08220500  0.65432300  0.48458600  1
  O  O16  1  0.71203900  0.32207900  0.23394800  1
  O  O17  1  0.78796100  0.67792100  0.73394800  1
  O  O18  1  0.21203900  0.17792100  0.76605200  1
  O  O19  1  0.28796100  0.82207900  0.26605200  1
  O  O20  1  0.71245700  0.00132800  0.24801500  1
  O  O21  1  0.78754300  0.99867200  0.74801500  1
  O  O22  1  0.21245700  0.49867200  0.75198500  1
  O  O23  1  0.28754300  0.50132800  0.25198500  1
  O  O24  1  0.20632000  0.16237000  0.27203300  1
  O  O25  1  0.29368000  0.83763000  0.77203300  1
  O  O26  1  0.70632000  0.33763000  0.72796700  1
  O  O27  1  0.79368000  0.66237000  0.22796700  1
  O  O28  1  0.41349800  0.66204400  0.01853500  1
  O  O29  1  0.08650200  0.33795600  0.51853500  1
  O  O30  1  0.91349800  0.83795600  0.98146500  1
  O  O31  1  0.58650200  0.16204400  0.48146500  1
  O  O32  1  0.39542100  0.98504200  0.00627800  1
  O  O33  1  0.10457900  0.01495800  0.50627800  1
  O  O34  1  0.89542100  0.51495800  0.99372200  1
  O  O35  1  0.60457900  0.48504200  0.49372200  1
