# generated using pymatgen
data_Dy4Fe28BC
_symmetry_space_group_name_H-M   'P 1'
_cell_length_a   8.73397328
_cell_length_b   8.73397328
_cell_length_c   11.85904200
_cell_angle_alpha   90.00000000
_cell_angle_beta   90.00000000
_cell_angle_gamma   90.02924495
_symmetry_Int_Tables_number   1
_chemical_formula_structural   Dy4Fe28BC
_chemical_formula_sum   'Dy8 Fe56 B2 C2'
_cell_volume   904.63475522
_cell_formula_units_Z   2
loop_
 _symmetry_equiv_pos_site_id
 _symmetry_equiv_pos_as_xyz
  1  'x, y, z'
loop_
 _atom_site_type_symbol
 _atom_site_label
 _atom_site_symmetry_multiplicity
 _atom_site_fract_x
 _atom_site_fract_y
 _atom_site_fract_z
 _atom_site_occupancy
  Dy  Dy0  1  0.23307300  0.76692700  0.50000000  1
  Dy  Dy1  1  0.76692700  0.23307300  0.50000000  1
  Dy  Dy2  1  0.26168500  0.26168500  0.00000000  1
  Dy  Dy3  1  0.73831500  0.73831500  0.00000000  1
  Dy  Dy4  1  0.64337000  0.64337000  0.50000000  1
  Dy  Dy5  1  0.35663000  0.35663000  0.50000000  1
  Dy  Dy6  1  0.85637900  0.14362100  0.00000000  1
  Dy  Dy7  1  0.14362100  0.85637900  0.00000000  1
  Fe  Fe8  1  0.18383200  0.81616800  0.25286000  1
  Fe  Fe9  1  0.81616800  0.18383200  0.25286000  1
  Fe  Fe10  1  0.31745000  0.31745000  0.75514100  1
  Fe  Fe11  1  0.68255000  0.68255000  0.75514100  1
  Fe  Fe12  1  0.81616800  0.18383200  0.74714000  1
  Fe  Fe13  1  0.18383200  0.81616800  0.74714000  1
  Fe  Fe14  1  0.68255000  0.68255000  0.24485900  1
  Fe  Fe15  1  0.31745000  0.31745000  0.24485900  1
  Fe  Fe16  1  0.93426100  0.72436100  0.37321900  1
  Fe  Fe17  1  0.06573900  0.27563900  0.37321900  1
  Fe  Fe18  1  0.56568700  0.22590200  0.87923700  1
  Fe  Fe19  1  0.43431300  0.77409800  0.87923700  1
  Fe  Fe20  1  0.06573900  0.27563900  0.62678100  1
  Fe  Fe21  1  0.93426100  0.72436100  0.62678100  1
  Fe  Fe22  1  0.43431300  0.77409800  0.12076300  1
  Fe  Fe23  1  0.56568700  0.22590200  0.12076300  1
  Fe  Fe24  1  0.72436100  0.93426100  0.37321900  1
  Fe  Fe25  1  0.27563900  0.06573900  0.37321900  1
  Fe  Fe26  1  0.22590200  0.56568700  0.87923700  1
  Fe  Fe27  1  0.77409800  0.43431300  0.87923700  1
  Fe  Fe28  1  0.27563900  0.06573900  0.62678100  1
  Fe  Fe29  1  0.72436100  0.93426100  0.62678100  1
  Fe  Fe30  1  0.77409800  0.43431300  0.12076300  1
  Fe  Fe31  1  0.22590200  0.56568700  0.12076300  1
  Fe  Fe32  1  0.50000000  0.50000000  0.10823500  1
  Fe  Fe33  1  0.00000000  0.00000000  0.61608900  1
  Fe  Fe34  1  0.50000000  0.50000000  0.89176500  1
  Fe  Fe35  1  0.00000000  0.00000000  0.38391100  1
  Fe  Fe36  1  0.14190000  0.53720100  0.32440000  1
  Fe  Fe37  1  0.85810000  0.46279900  0.32440000  1
  Fe  Fe38  1  0.35913000  0.03673600  0.82575900  1
  Fe  Fe39  1  0.64087000  0.96326400  0.82575900  1
  Fe  Fe40  1  0.85810000  0.46279900  0.67560000  1
  Fe  Fe41  1  0.14190000  0.53720100  0.67560000  1
  Fe  Fe42  1  0.64087000  0.96326400  0.17424100  1
  Fe  Fe43  1  0.35913000  0.03673600  0.17424100  1
  Fe  Fe44  1  0.53720100  0.14190000  0.32440000  1
  Fe  Fe45  1  0.46279900  0.85810000  0.32440000  1
  Fe  Fe46  1  0.03673600  0.35913000  0.82575900  1
  Fe  Fe47  1  0.96326400  0.64087000  0.82575900  1
  Fe  Fe48  1  0.46279900  0.85810000  0.67560000  1
  Fe  Fe49  1  0.53720100  0.14190000  0.67560000  1
  Fe  Fe50  1  0.96326400  0.64087000  0.17424100  1
  Fe  Fe51  1  0.03673600  0.35913000  0.17424100  1
  Fe  Fe52  1  0.00000000  0.50000000  0.50000000  1
  Fe  Fe53  1  0.50000000  0.00000000  0.00000000  1
  Fe  Fe54  1  0.50000000  0.00000000  0.50000000  1
  Fe  Fe55  1  0.00000000  0.50000000  0.00000000  1
  Fe  Fe56  1  0.40254700  0.59745300  0.29614500  1
  Fe  Fe57  1  0.59745300  0.40254700  0.29614500  1
  Fe  Fe58  1  0.09712800  0.09712800  0.80044600  1
  Fe  Fe59  1  0.90287200  0.90287200  0.80044600  1
  Fe  Fe60  1  0.59745300  0.40254700  0.70385500  1
  Fe  Fe61  1  0.40254700  0.59745300  0.70385500  1
  Fe  Fe62  1  0.90287200  0.90287200  0.19955400  1
  Fe  Fe63  1  0.09712800  0.09712800  0.19955400  1
  B  B64  1  0.87440100  0.87440100  0.50000000  1
  B  B65  1  0.12559900  0.12559900  0.50000000  1
  C  C66  1  0.62612200  0.37387800  0.00000000  1
  C  C67  1  0.37387800  0.62612200  0.00000000  1
