# generated using pymatgen
data_PrEuCuS3
_symmetry_space_group_name_H-M   'P 1'
_cell_length_a   4.07213600
_cell_length_b   11.12850700
_cell_length_c   11.50266800
_cell_angle_alpha   90.00000000
_cell_angle_beta   90.00000000
_cell_angle_gamma   90.00000000
_symmetry_Int_Tables_number   1
_chemical_formula_structural   PrEuCuS3
_chemical_formula_sum   'Pr4 Eu4 Cu4 S12'
_cell_volume   521.26403599
_cell_formula_units_Z   4
loop_
 _symmetry_equiv_pos_site_id
 _symmetry_equiv_pos_as_xyz
  1  'x, y, z'
loop_
 _atom_site_type_symbol
 _atom_site_label
 _atom_site_symmetry_multiplicity
 _atom_site_fract_x
 _atom_site_fract_y
 _atom_site_fract_z
 _atom_site_occupancy
  Pr  Pr0  1  0.25000000  0.48809600  0.68336800  1
  Pr  Pr1  1  0.25000000  0.98809600  0.81663200  1
  Pr  Pr2  1  0.75000000  0.51190400  0.31663200  1
  Pr  Pr3  1  0.75000000  0.01190400  0.18336800  1
  Eu  Eu4  1  0.25000000  0.31750500  0.00542700  1
  Eu  Eu5  1  0.25000000  0.81750500  0.49457300  1
  Eu  Eu6  1  0.75000000  0.68249500  0.99457300  1
  Eu  Eu7  1  0.75000000  0.18249500  0.50542700  1
  Cu  Cu8  1  0.25000000  0.24443300  0.28616100  1
  Cu  Cu9  1  0.25000000  0.74443300  0.21383900  1
  Cu  Cu10  1  0.75000000  0.75556700  0.71383900  1
  Cu  Cu11  1  0.75000000  0.25556700  0.78616100  1
  S  S12  1  0.25000000  0.22220100  0.69194800  1
  S  S13  1  0.25000000  0.72220100  0.80805200  1
  S  S14  1  0.75000000  0.77779900  0.30805200  1
  S  S15  1  0.75000000  0.27779900  0.19194800  1
  S  S16  1  0.25000000  0.38355500  0.44297500  1
  S  S17  1  0.25000000  0.88355500  0.05702500  1
  S  S18  1  0.75000000  0.61644500  0.55702500  1
  S  S19  1  0.75000000  0.11644500  0.94297500  1
  S  S20  1  0.25000000  0.05013300  0.36284300  1
  S  S21  1  0.25000000  0.55013300  0.13715700  1
  S  S22  1  0.75000000  0.94986700  0.63715700  1
  S  S23  1  0.75000000  0.44986700  0.86284300  1
