# generated using pymatgen
data_Mg149Te
_symmetry_space_group_name_H-M   'P 1'
_cell_length_a   15.90476310
_cell_length_b   15.90476947
_cell_length_c   15.57324679
_cell_angle_alpha   90.00000000
_cell_angle_beta   90.00000000
_cell_angle_gamma   120.00001088
_symmetry_Int_Tables_number   1
_chemical_formula_structural   Mg149Te
_chemical_formula_sum   'Mg149 Te1'
_cell_volume   3411.64892149
_cell_formula_units_Z   1
loop_
 _symmetry_equiv_pos_site_id
 _symmetry_equiv_pos_as_xyz
  1  'x, y, z'
loop_
 _atom_site_type_symbol
 _atom_site_label
 _atom_site_symmetry_multiplicity
 _atom_site_fract_x
 _atom_site_fract_y
 _atom_site_fract_z
 _atom_site_occupancy
  Mg  Mg0  1  0.79728393  0.00148184  -0.00000000  1
  Mg  Mg1  1  0.20419792  0.00148184  -0.00000000  1
  Mg  Mg2  1  0.40046111  0.20023056  -0.00000000  1
  Mg  Mg3  1  0.79976944  0.20023056  -0.00000000  1
  Mg  Mg4  1  0.60031222  0.20062543  -0.00000000  1
  Mg  Mg5  1  0.20419792  0.20271607  -0.00000000  1
  Mg  Mg6  1  0.99851816  0.20271507  -0.00000000  1
  Mg  Mg7  1  0.19964411  0.39928822  -0.00000000  1
  Mg  Mg8  1  0.79937457  0.39968678  -0.00000000  1
  Mg  Mg9  1  0.60031222  0.39968778  -0.00000000  1
  Mg  Mg10  1  0.00033616  0.40136237  -0.00000000  1
  Mg  Mg11  1  0.40102622  0.40136237  -0.00000000  1
  Mg  Mg12  1  0.59863763  0.59897278  -0.00000000  1
  Mg  Mg13  1  0.00033616  0.59897378  -0.00000000  1
  Mg  Mg14  1  0.79976944  0.59953889  -0.00000000  1
  Mg  Mg15  1  0.39970391  0.60029609  -0.00000000  1
  Mg  Mg16  1  0.20059218  0.60029609  -0.00000000  1
  Mg  Mg17  1  0.79728393  0.79580208  -0.00000000  1
  Mg  Mg18  1  0.99851816  0.79580308  -0.00000000  1
  Mg  Mg19  1  0.39970391  0.79940782  -0.00000000  1
  Mg  Mg20  1  0.19964411  0.80035589  -0.00000000  1
  Mg  Mg21  1  0.60071278  0.80035589  -0.00000000  1
  Mg  Mg22  1  0.59863763  0.99966384  -0.00000000  1
  Mg  Mg23  1  0.40102622  0.99966484  -0.00000000  1
  Mg  Mg24  1  0.66666600  0.33333300  0.16623808  1
  Mg  Mg25  1  0.66667800  0.13337367  0.16620518  1
  Mg  Mg26  1  0.46669667  0.13337367  0.16620518  1
  Mg  Mg27  1  0.46669667  0.33332200  0.16620518  1
  Mg  Mg28  1  0.86662633  0.33332200  0.16620518  1
  Mg  Mg29  1  0.66667800  0.53330333  0.16620518  1
  Mg  Mg30  1  0.86662633  0.53330433  0.16620518  1
  Mg  Mg31  1  0.26659285  0.53318570  0.16634115  1
  Mg  Mg32  1  0.46681330  0.73340715  0.16634115  1
  Mg  Mg33  1  0.26659285  0.73340715  0.16634115  1
  Mg  Mg34  1  0.26667203  0.33296329  0.16628537  1
  Mg  Mg35  1  0.06629127  0.33296429  0.16628537  1
  Mg  Mg36  1  0.06629127  0.73332697  0.16628537  1
  Mg  Mg37  1  0.66703571  0.73332697  0.16628537  1
  Mg  Mg38  1  0.66703571  0.93370773  0.16628537  1
  Mg  Mg39  1  0.26667203  0.93370873  0.16628537  1
  Mg  Mg40  1  0.46653430  0.53346670  0.16655210  1
  Mg  Mg41  1  0.06693239  0.53346670  0.16655210  1
  Mg  Mg42  1  0.46653430  0.93306761  0.16655210  1
  Mg  Mg43  1  0.26687199  0.13343599  0.16725202  1
  Mg  Mg44  1  0.86656401  0.13343699  0.16725202  1
  Mg  Mg45  1  0.86656401  0.73312801  0.16725202  1
  Mg  Mg46  1  0.06718514  0.13436927  0.16965995  1
  Mg  Mg47  1  0.06718514  0.93281586  0.16965995  1
  Mg  Mg48  1  0.86563073  0.93281586  0.16965995  1
  Mg  Mg49  1  -0.00000000  0.00000000  0.33267615  1
  Mg  Mg50  1  0.19981263  0.39962425  0.33267949  1
  Mg  Mg51  1  0.19981263  0.80018837  0.33267949  1
  Mg  Mg52  1  0.60037575  0.80018837  0.33267949  1
  Mg  Mg53  1  0.80001139  0.19998861  0.33289526  1
  Mg  Mg54  1  0.39997722  0.19998861  0.33289526  1
  Mg  Mg55  1  0.80001139  0.60002278  0.33289526  1
  Mg  Mg56  1  0.60022245  0.20044590  0.33290743  1
  Mg  Mg57  1  0.60022245  0.39977655  0.33290743  1
  Mg  Mg58  1  0.79955410  0.39977655  0.33290743  1
  Mg  Mg59  1  0.20032207  0.60016153  0.33300504  1
  Mg  Mg60  1  0.39983847  0.60016153  0.33300504  1
  Mg  Mg61  1  0.39983847  0.79967793  0.33300504  1
  Mg  Mg62  1  0.39999515  -0.00001413  0.33330336  1
  Mg  Mg63  1  0.59999072  -0.00001413  0.33330336  1
  Mg  Mg64  1  0.39999515  0.40000928  0.33330336  1
  Mg  Mg65  1  0.00001413  0.40000928  0.33330336  1
  Mg  Mg66  1  0.59999072  0.60000485  0.33330336  1
  Mg  Mg67  1  0.00001413  0.60000485  0.33330336  1
  Mg  Mg68  1  0.79985367  0.00010496  0.33438573  1
  Mg  Mg69  1  0.20025229  0.00010596  0.33438573  1
  Mg  Mg70  1  0.20025229  0.20014633  0.33438573  1
  Mg  Mg71  1  0.99989404  0.20014633  0.33438573  1
  Mg  Mg72  1  0.99989404  0.79974771  0.33438573  1
  Mg  Mg73  1  0.79985367  0.79974771  0.33438573  1
  Mg  Mg74  1  0.06649525  0.13298950  0.50000000  1
  Mg  Mg75  1  0.66653154  0.13320724  0.50000000  1
  Mg  Mg76  1  0.46667670  0.13320824  0.50000000  1
  Mg  Mg77  1  0.26689461  0.13344731  0.50000000  1
  Mg  Mg78  1  0.86655169  0.13344731  0.50000000  1
  Mg  Mg79  1  0.66666600  0.33333300  0.50000000  1
  Mg  Mg80  1  0.86679176  0.33346846  0.50000000  1
  Mg  Mg81  1  0.46667670  0.33346846  0.50000000  1
  Mg  Mg82  1  0.06684469  0.33344136  0.50000000  1
  Mg  Mg83  1  0.26659667  0.33344136  0.50000000  1
  Mg  Mg84  1  0.86679176  0.53332330  0.50000000  1
  Mg  Mg85  1  0.66653154  0.53332330  0.50000000  1
  Mg  Mg86  1  0.46662142  0.53337858  0.50000000  1
  Mg  Mg87  1  0.06675616  0.53337858  0.50000000  1
  Mg  Mg88  1  0.26664252  0.53328604  0.50000000  1
  Mg  Mg89  1  0.86655169  0.73310439  0.50000000  1
  Mg  Mg90  1  0.46671396  0.73335748  0.50000000  1
  Mg  Mg91  1  0.26664252  0.73335748  0.50000000  1
  Mg  Mg92  1  0.66655964  0.73340333  0.50000000  1
  Mg  Mg93  1  0.06684469  0.73340333  0.50000000  1
  Mg  Mg94  1  0.46662142  0.93324284  0.50000000  1
  Mg  Mg95  1  0.66655964  0.93315631  0.50000000  1
  Mg  Mg96  1  0.26659667  0.93315631  0.50000000  1
  Mg  Mg97  1  0.86701050  0.93350575  0.50000000  1
  Mg  Mg98  1  0.06649525  0.93350575  0.50000000  1
  Mg  Mg99  1  0.79985367  0.00010496  0.66561427  1
  Mg  Mg100  1  0.20025229  0.00010596  0.66561427  1
  Mg  Mg101  1  0.20025229  0.20014633  0.66561427  1
  Mg  Mg102  1  0.99989404  0.20014633  0.66561427  1
  Mg  Mg103  1  0.99989404  0.79974771  0.66561427  1
  Mg  Mg104  1  0.79985367  0.79974771  0.66561427  1
  Mg  Mg105  1  0.39999515  -0.00001413  0.66669564  1
  Mg  Mg106  1  0.59999072  -0.00001413  0.66669564  1
  Mg  Mg107  1  0.39999515  0.40000928  0.66669564  1
  Mg  Mg108  1  0.00001413  0.40000928  0.66669564  1
  Mg  Mg109  1  0.59999072  0.60000485  0.66669564  1
  Mg  Mg110  1  0.00001413  0.60000485  0.66669564  1
  Mg  Mg111  1  0.20032207  0.60016153  0.66699396  1
  Mg  Mg112  1  0.39983847  0.60016153  0.66699396  1
  Mg  Mg113  1  0.39983847  0.79967793  0.66699396  1
  Mg  Mg114  1  0.60022245  0.20044590  0.66709257  1
  Mg  Mg115  1  0.60022245  0.39977655  0.66709257  1
  Mg  Mg116  1  0.79955410  0.39977655  0.66709257  1
  Mg  Mg117  1  0.80001139  0.19998861  0.66710474  1
  Mg  Mg118  1  0.39997722  0.19998861  0.66710474  1
  Mg  Mg119  1  0.80001139  0.60002278  0.66710474  1
  Mg  Mg120  1  0.19981263  0.39962425  0.66732051  1
  Mg  Mg121  1  0.19981263  0.80018837  0.66732051  1
  Mg  Mg122  1  0.60037575  0.80018837  0.66732051  1
  Mg  Mg123  1  -0.00000000  0.00000000  0.66732385  1
  Mg  Mg124  1  0.06718514  0.13436927  0.83034005  1
  Mg  Mg125  1  0.06718514  0.93281586  0.83034005  1
  Mg  Mg126  1  0.86563073  0.93281586  0.83034005  1
  Mg  Mg127  1  0.26687199  0.13343599  0.83274798  1
  Mg  Mg128  1  0.86656401  0.13343699  0.83274798  1
  Mg  Mg129  1  0.86656401  0.73312801  0.83274798  1
  Mg  Mg130  1  0.46653430  0.53346670  0.83344790  1
  Mg  Mg131  1  0.06693239  0.53346670  0.83344790  1
  Mg  Mg132  1  0.46653430  0.93306761  0.83344790  1
  Mg  Mg133  1  0.26667203  0.33296329  0.83371363  1
  Mg  Mg134  1  0.06629127  0.33296429  0.83371363  1
  Mg  Mg135  1  0.06629127  0.73332697  0.83371363  1
  Mg  Mg136  1  0.66703571  0.73332697  0.83371363  1
  Mg  Mg137  1  0.66703571  0.93370773  0.83371363  1
  Mg  Mg138  1  0.26667203  0.93370873  0.83371363  1
  Mg  Mg139  1  0.26659285  0.53318570  0.83365885  1
  Mg  Mg140  1  0.46681330  0.73340715  0.83365885  1
  Mg  Mg141  1  0.26659285  0.73340715  0.83365885  1
  Mg  Mg142  1  0.66667800  0.13337367  0.83379582  1
  Mg  Mg143  1  0.46669667  0.13337367  0.83379582  1
  Mg  Mg144  1  0.46669667  0.33332200  0.83379582  1
  Mg  Mg145  1  0.86662633  0.33332200  0.83379582  1
  Mg  Mg146  1  0.66667800  0.53330333  0.83379582  1
  Mg  Mg147  1  0.86662633  0.53330433  0.83379582  1
  Mg  Mg148  1  0.66666600  0.33333300  0.83376192  1
  Te  Te149  1  -0.00000000  0.00000000  -0.00000000  1
