# generated using pymatgen
data_GePd5
_symmetry_space_group_name_H-M   'P 1'
_cell_length_a   4.82308757
_cell_length_b   4.82308757
_cell_length_c   8.53405005
_cell_angle_alpha   94.58439429
_cell_angle_beta   94.58439429
_cell_angle_gamma   108.91725454
_symmetry_Int_Tables_number   1
_chemical_formula_structural   GePd5
_chemical_formula_sum   'Ge2 Pd10'
_cell_volume   186.01426933
_cell_formula_units_Z   2
loop_
 _symmetry_equiv_pos_site_id
 _symmetry_equiv_pos_as_xyz
  1  'x, y, z'
loop_
 _atom_site_type_symbol
 _atom_site_label
 _atom_site_symmetry_multiplicity
 _atom_site_fract_x
 _atom_site_fract_y
 _atom_site_fract_z
 _atom_site_occupancy
  Ge  Ge0  1  0.79899900  0.75322900  0.29176500  1
  Ge  Ge1  1  0.24677100  0.20100100  0.70823500  1
  Pd  Pd2  1  0.83397000  0.16603000  0.50000000  1
  Pd  Pd3  1  0.21106000  0.78894000  0.50000000  1
  Pd  Pd4  1  0.29907500  0.77158800  0.17388900  1
  Pd  Pd5  1  0.22841200  0.70092500  0.82611100  1
  Pd  Pd6  1  0.81739600  0.25330800  0.17392800  1
  Pd  Pd7  1  0.74669200  0.18260400  0.82607200  1
  Pd  Pd8  1  0.36781300  0.32249800  0.35250600  1
  Pd  Pd9  1  0.67750200  0.63218700  0.64749400  1
  Pd  Pd10  1  0.27945200  0.23314200  0.00737000  1
  Pd  Pd11  1  0.76685800  0.72054800  0.99263000  1
