# generated using pymatgen
data_Pr2Ni7
_symmetry_space_group_name_H-M   'P 1'
_cell_length_a   5.06605900
_cell_length_b   5.06605806
_cell_length_c   24.67016300
_cell_angle_alpha   90.00000000
_cell_angle_beta   90.00000000
_cell_angle_gamma   119.99999958
_symmetry_Int_Tables_number   1
_chemical_formula_structural   Pr2Ni7
_chemical_formula_sum   'Pr8 Ni28'
_cell_volume   548.33132766
_cell_formula_units_Z   4
loop_
 _symmetry_equiv_pos_site_id
 _symmetry_equiv_pos_as_xyz
  1  'x, y, z'
loop_
 _atom_site_type_symbol
 _atom_site_label
 _atom_site_symmetry_multiplicity
 _atom_site_fract_x
 _atom_site_fract_y
 _atom_site_fract_z
 _atom_site_occupancy
  Pr  Pr0  1  0.33333300  0.66666700  0.47016400  1
  Pr  Pr1  1  0.66666700  0.33333300  0.52983600  1
  Pr  Pr2  1  0.66666700  0.33333300  0.97016400  1
  Pr  Pr3  1  0.33333300  0.66666700  0.02983600  1
  Pr  Pr4  1  0.33333300  0.66666700  0.32558000  1
  Pr  Pr5  1  0.66666700  0.33333300  0.67442000  1
  Pr  Pr6  1  0.66666700  0.33333300  0.82558000  1
  Pr  Pr7  1  0.33333300  0.66666700  0.17442000  1
  Ni  Ni8  1  0.00000000  0.00000000  0.50000000  1
  Ni  Ni9  1  0.00000000  0.00000000  0.00000000  1
  Ni  Ni10  1  0.83311800  0.16688200  0.25000000  1
  Ni  Ni11  1  0.83311800  0.66623500  0.25000000  1
  Ni  Ni12  1  0.33376500  0.16688200  0.25000000  1
  Ni  Ni13  1  0.16688200  0.83311800  0.75000000  1
  Ni  Ni14  1  0.16688200  0.33376500  0.75000000  1
  Ni  Ni15  1  0.66623500  0.83311800  0.75000000  1
  Ni  Ni16  1  0.83395100  0.16604900  0.41245400  1
  Ni  Ni17  1  0.83395100  0.66790100  0.41245400  1
  Ni  Ni18  1  0.33209900  0.16604900  0.41245400  1
  Ni  Ni19  1  0.16604900  0.83395100  0.58754600  1
  Ni  Ni20  1  0.16604900  0.33209900  0.58754600  1
  Ni  Ni21  1  0.66790100  0.83395100  0.58754600  1
  Ni  Ni22  1  0.16604900  0.83395100  0.91245400  1
  Ni  Ni23  1  0.16604900  0.33209900  0.91245400  1
  Ni  Ni24  1  0.66790100  0.83395100  0.91245400  1
  Ni  Ni25  1  0.83395100  0.16604900  0.08754600  1
  Ni  Ni26  1  0.83395100  0.66790100  0.08754600  1
  Ni  Ni27  1  0.33209900  0.16604900  0.08754600  1
  Ni  Ni28  1  0.00000000  0.00000000  0.33100200  1
  Ni  Ni29  1  0.00000000  0.00000000  0.66899800  1
  Ni  Ni30  1  0.00000000  0.00000000  0.83100200  1
  Ni  Ni31  1  0.00000000  0.00000000  0.16899800  1
  Ni  Ni32  1  0.33333300  0.66666700  0.66753600  1
  Ni  Ni33  1  0.66666700  0.33333300  0.33246400  1
  Ni  Ni34  1  0.66666700  0.33333300  0.16753600  1
  Ni  Ni35  1  0.33333300  0.66666700  0.83246400  1
