# generated using pymatgen
data_K3AsSe3
_symmetry_space_group_name_H-M   'P 1'
_cell_length_a   9.90500700
_cell_length_b   9.90500700
_cell_length_c   9.90500700
_cell_angle_alpha   90.00000000
_cell_angle_beta   90.00000000
_cell_angle_gamma   90.00000000
_symmetry_Int_Tables_number   1
_chemical_formula_structural   K3AsSe3
_chemical_formula_sum   'K12 As4 Se12'
_cell_volume   971.77195292
_cell_formula_units_Z   4
loop_
 _symmetry_equiv_pos_site_id
 _symmetry_equiv_pos_as_xyz
  1  'x, y, z'
loop_
 _atom_site_type_symbol
 _atom_site_label
 _atom_site_symmetry_multiplicity
 _atom_site_fract_x
 _atom_site_fract_y
 _atom_site_fract_z
 _atom_site_occupancy
  K  K0  1  0.81628300  0.18371700  0.68371700  1
  K  K1  1  0.68371700  0.81628300  0.18371700  1
  K  K2  1  0.18371700  0.68371700  0.81628300  1
  K  K3  1  0.31628300  0.31628300  0.31628300  1
  K  K4  1  0.18746800  0.31253200  0.68746900  1
  K  K5  1  0.31253200  0.68746900  0.18746900  1
  K  K6  1  0.68746900  0.18746800  0.31253100  1
  K  K7  1  0.81253100  0.81253100  0.81253100  1
  K  K8  1  0.42016400  0.07983600  0.92016400  1
  K  K9  1  0.07983600  0.92016400  0.42016400  1
  K  K10  1  0.92016400  0.42016400  0.07983600  1
  K  K11  1  0.57983600  0.57983600  0.57983600  1
  As  As12  1  0.02216700  0.02216700  0.02216700  1
  As  As13  1  0.47783300  0.97783300  0.52216700  1
  As  As14  1  0.97783300  0.52216700  0.47783300  1
  As  As15  1  0.52216700  0.47783300  0.97783300  1
  Se  Se16  1  0.28883600  0.40150900  0.99527300  1
  Se  Se17  1  0.78883600  0.09849100  0.00472700  1
  Se  Se18  1  0.71116400  0.90150900  0.50472700  1
  Se  Se19  1  0.09849100  0.00472700  0.78883600  1
  Se  Se20  1  0.50472700  0.71116400  0.90150900  1
  Se  Se21  1  0.00472700  0.78883600  0.09849100  1
  Se  Se22  1  0.40150900  0.99527300  0.28883600  1
  Se  Se23  1  0.99527300  0.28883600  0.40150900  1
  Se  Se24  1  0.90150900  0.50472700  0.71116400  1
  Se  Se25  1  0.59849100  0.49527300  0.21116400  1
  Se  Se26  1  0.49527300  0.21116400  0.59849100  1
  Se  Se27  1  0.21116400  0.59849100  0.49527300  1
