# generated using pymatgen
data_V5SiB2
_symmetry_space_group_name_H-M   'P 1'
_cell_length_a   6.75981261
_cell_length_b   6.75981261
_cell_length_c   6.75981261
_cell_angle_alpha   129.38839463
_cell_angle_beta   129.38839463
_cell_angle_gamma   74.38642801
_symmetry_Int_Tables_number   1
_chemical_formula_structural   V5SiB2
_chemical_formula_sum   'V10 Si2 B4'
_cell_volume   179.83514249
_cell_formula_units_Z   2
loop_
 _symmetry_equiv_pos_site_id
 _symmetry_equiv_pos_as_xyz
  1  'x, y, z'
loop_
 _atom_site_type_symbol
 _atom_site_label
 _atom_site_symmetry_multiplicity
 _atom_site_fract_x
 _atom_site_fract_y
 _atom_site_fract_z
 _atom_site_occupancy
  V  V0  1  0.53287000  0.69307600  0.50000000  1
  V  V1  1  0.03287000  0.53287000  0.83979400  1
  V  V2  1  0.69307600  0.19307600  0.16020600  1
  V  V3  1  0.96713000  0.46713000  0.16020600  1
  V  V4  1  0.19307600  0.03287000  0.50000000  1
  V  V5  1  0.46713000  0.30692400  0.50000000  1
  V  V6  1  0.80692400  0.96713000  0.50000000  1
  V  V7  1  0.30692400  0.80692400  0.83979400  1
  V  V8  1  0.00000000  0.00000000  0.00000000  1
  V  V9  1  0.50000000  0.50000000  0.00000000  1
  Si  Si10  1  0.25000000  0.25000000  0.00000000  1
  Si  Si11  1  0.75000000  0.75000000  0.00000000  1
  B  B12  1  0.61491600  0.11491600  0.72983200  1
  B  B13  1  0.11491600  0.38508400  0.50000000  1
  B  B14  1  0.88508400  0.61491600  0.50000000  1
  B  B15  1  0.38508400  0.88508400  0.27016800  1
