# generated using pymatgen
data_Sm3Sc2(FeO4)3
_symmetry_space_group_name_H-M   'P 1'
_cell_length_a   11.08289948
_cell_length_b   11.08289948
_cell_length_c   11.08289948
_cell_angle_alpha   109.47122063
_cell_angle_beta   109.47122063
_cell_angle_gamma   109.47122063
_symmetry_Int_Tables_number   1
_chemical_formula_structural   Sm3Sc2(FeO4)3
_chemical_formula_sum   'Sm12 Sc8 Fe12 O48'
_cell_volume   1047.94452361
_cell_formula_units_Z   4
loop_
 _symmetry_equiv_pos_site_id
 _symmetry_equiv_pos_as_xyz
  1  'x, y, z'
loop_
 _atom_site_type_symbol
 _atom_site_label
 _atom_site_symmetry_multiplicity
 _atom_site_fract_x
 _atom_site_fract_y
 _atom_site_fract_z
 _atom_site_occupancy
  Sm  Sm0  1  0.25000000  0.37500000  0.12500000  1
  Sm  Sm1  1  0.75000000  0.62500000  0.87500000  1
  Sm  Sm2  1  0.75000000  0.12500000  0.37500000  1
  Sm  Sm3  1  0.12500000  0.25000000  0.37500000  1
  Sm  Sm4  1  0.37500000  0.75000000  0.12500000  1
  Sm  Sm5  1  0.25000000  0.87500000  0.62500000  1
  Sm  Sm6  1  0.87500000  0.75000000  0.62500000  1
  Sm  Sm7  1  0.62500000  0.25000000  0.87500000  1
  Sm  Sm8  1  0.37500000  0.12500000  0.25000000  1
  Sm  Sm9  1  0.62500000  0.87500000  0.75000000  1
  Sm  Sm10  1  0.12500000  0.37500000  0.75000000  1
  Sm  Sm11  1  0.87500000  0.62500000  0.25000000  1
  Sc  Sc12  1  0.00000000  0.00000000  0.00000000  1
  Sc  Sc13  1  0.50000000  0.00000000  0.50000000  1
  Sc  Sc14  1  0.00000000  0.50000000  0.50000000  1
  Sc  Sc15  1  0.50000000  0.00000000  0.00000000  1
  Sc  Sc16  1  0.50000000  0.50000000  0.00000000  1
  Sc  Sc17  1  0.50000000  0.50000000  0.50000000  1
  Sc  Sc18  1  0.00000000  0.00000000  0.50000000  1
  Sc  Sc19  1  0.00000000  0.50000000  0.00000000  1
  Fe  Fe20  1  0.25000000  0.62500000  0.37500000  1
  Fe  Fe21  1  0.75000000  0.37500000  0.62500000  1
  Fe  Fe22  1  0.75000000  0.87500000  0.12500000  1
  Fe  Fe23  1  0.37500000  0.25000000  0.62500000  1
  Fe  Fe24  1  0.62500000  0.75000000  0.37500000  1
  Fe  Fe25  1  0.25000000  0.12500000  0.87500000  1
  Fe  Fe26  1  0.12500000  0.75000000  0.87500000  1
  Fe  Fe27  1  0.87500000  0.25000000  0.12500000  1
  Fe  Fe28  1  0.62500000  0.37500000  0.25000000  1
  Fe  Fe29  1  0.37500000  0.62500000  0.75000000  1
  Fe  Fe30  1  0.87500000  0.12500000  0.75000000  1
  Fe  Fe31  1  0.12500000  0.87500000  0.25000000  1
  O  O32  1  0.47075600  0.37466500  0.28996700  1
  O  O33  1  0.52924400  0.62533500  0.71003300  1
  O  O34  1  0.58469800  0.18078900  0.21003300  1
  O  O35  1  0.91530200  0.12533500  0.59609100  1
  O  O36  1  0.28996700  0.47075600  0.37466500  1
  O  O37  1  0.31921100  0.91530200  0.28996700  1
  O  O38  1  0.41530200  0.81921100  0.78996700  1
  O  O39  1  0.08469800  0.87466500  0.40390900  1
  O  O40  1  0.71003300  0.52924400  0.62533500  1
  O  O41  1  0.68078900  0.08469800  0.71003300  1
  O  O42  1  0.02924400  0.31921100  0.90390900  1
  O  O43  1  0.21003300  0.58469800  0.18078900  1
  O  O44  1  0.12533500  0.02924400  0.21003300  1
  O  O45  1  0.97075600  0.68078900  0.09609100  1
  O  O46  1  0.78996700  0.41530200  0.81921100  1
  O  O47  1  0.87466500  0.97075600  0.78996700  1
  O  O48  1  0.59609100  0.91530200  0.12533500  1
  O  O49  1  0.18078900  0.47075600  0.59609100  1
  O  O50  1  0.40390900  0.08469800  0.87466500  1
  O  O51  1  0.81921100  0.52924400  0.40390900  1
  O  O52  1  0.90390900  0.02924400  0.31921100  1
  O  O53  1  0.37466500  0.58469800  0.90390900  1
  O  O54  1  0.09609100  0.97075600  0.68078900  1
  O  O55  1  0.62533500  0.41530200  0.09609100  1
  O  O56  1  0.37466500  0.28996700  0.47075600  1
  O  O57  1  0.58469800  0.90390900  0.37466500  1
  O  O58  1  0.62533500  0.71003300  0.52924400  1
  O  O59  1  0.41530200  0.09609100  0.62533500  1
  O  O60  1  0.12533500  0.59609100  0.91530200  1
  O  O61  1  0.02924400  0.21003300  0.12533500  1
  O  O62  1  0.87466500  0.40390900  0.08469800  1
  O  O63  1  0.97075600  0.78996700  0.87466500  1
  O  O64  1  0.31921100  0.90390900  0.02924400  1
  O  O65  1  0.91530200  0.28996700  0.31921100  1
  O  O66  1  0.68078900  0.09609100  0.97075600  1
  O  O67  1  0.08469800  0.71003300  0.68078900  1
  O  O68  1  0.18078900  0.21003300  0.58469800  1
  O  O69  1  0.47075600  0.59609100  0.18078900  1
  O  O70  1  0.81921100  0.78996700  0.41530200  1
  O  O71  1  0.52924400  0.40390900  0.81921100  1
  O  O72  1  0.28996700  0.31921100  0.91530200  1
  O  O73  1  0.71003300  0.68078900  0.08469800  1
  O  O74  1  0.21003300  0.12533500  0.02924400  1
  O  O75  1  0.78996700  0.87466500  0.97075600  1
  O  O76  1  0.90390900  0.37466500  0.58469800  1
  O  O77  1  0.09609100  0.62533500  0.41530200  1
  O  O78  1  0.59609100  0.18078900  0.47075600  1
  O  O79  1  0.40390900  0.81921100  0.52924400  1
