# generated using pymatgen
data_Mg149Cr
_symmetry_space_group_name_H-M   'P 1'
_cell_length_a   15.93051653
_cell_length_b   15.93052082
_cell_length_c   15.62105859
_cell_angle_alpha   90.00000000
_cell_angle_beta   90.00000000
_cell_angle_gamma   120.00001345
_symmetry_Int_Tables_number   1
_chemical_formula_structural   Mg149Cr
_chemical_formula_sum   'Mg149 Cr1'
_cell_volume   3433.21393187
_cell_formula_units_Z   1
loop_
 _symmetry_equiv_pos_site_id
 _symmetry_equiv_pos_as_xyz
  1  'x, y, z'
loop_
 _atom_site_type_symbol
 _atom_site_label
 _atom_site_symmetry_multiplicity
 _atom_site_fract_x
 _atom_site_fract_y
 _atom_site_fract_z
 _atom_site_occupancy
  Mg  Mg0  1  0.39888306  0.00004217  -0.00000000  1
  Mg  Mg1  1  0.60115911  0.00004217  -0.00000000  1
  Mg  Mg2  1  0.80432535  0.00040070  -0.00000000  1
  Mg  Mg3  1  0.19607635  0.00040070  -0.00000000  1
  Mg  Mg4  1  0.19607635  0.19567465  -0.00000000  1
  Mg  Mg5  1  0.99959930  0.19567565  -0.00000000  1
  Mg  Mg6  1  0.39919664  0.19959832  -0.00000000  1
  Mg  Mg7  1  0.80040168  0.19959932  -0.00000000  1
  Mg  Mg8  1  0.59981382  0.19962765  -0.00000000  1
  Mg  Mg9  1  0.99995783  0.39884089  -0.00000000  1
  Mg  Mg10  1  0.39888306  0.39884089  -0.00000000  1
  Mg  Mg11  1  0.19958295  0.39916589  -0.00000000  1
  Mg  Mg12  1  0.80037235  0.40018618  -0.00000000  1
  Mg  Mg13  1  0.59981382  0.40018618  0.00000000  1
  Mg  Mg14  1  0.19989273  0.59994636  -0.00000000  1
  Mg  Mg15  1  0.40005364  0.59994736  -0.00000000  1
  Mg  Mg16  1  0.80040168  0.60080236  -0.00000000  1
  Mg  Mg17  1  0.99995783  0.60111694  0.00000000  1
  Mg  Mg18  1  0.60115911  0.60111694  -0.00000000  1
  Mg  Mg19  1  0.40005364  0.80010627  -0.00000000  1
  Mg  Mg20  1  0.19958295  0.80041705  -0.00000000  1
  Mg  Mg21  1  0.60083411  0.80041705  -0.00000000  1
  Mg  Mg22  1  0.99959930  0.80392365  -0.00000000  1
  Mg  Mg23  1  0.80432535  0.80392465  -0.00000000  1
  Mg  Mg24  1  0.06541600  0.13083300  0.16288086  1
  Mg  Mg25  1  0.06541600  0.93458300  0.16288086  1
  Mg  Mg26  1  0.86916700  0.93458400  0.16288086  1
  Mg  Mg27  1  0.26593718  0.33262286  0.16632711  1
  Mg  Mg28  1  0.06668568  0.33262386  0.16632711  1
  Mg  Mg29  1  0.06668568  0.73406282  0.16632711  1
  Mg  Mg30  1  0.66737714  0.73406282  0.16632711  1
  Mg  Mg31  1  0.66737714  0.93331432  0.16632711  1
  Mg  Mg32  1  0.26593718  0.93331432  0.16632711  1
  Mg  Mg33  1  0.46669639  0.53330261  0.16652879  1
  Mg  Mg34  1  0.06660621  0.53330261  0.16652879  1
  Mg  Mg35  1  0.46669639  0.93339379  0.16652879  1
  Mg  Mg36  1  0.66666600  0.33333300  0.16645797  1
  Mg  Mg37  1  0.66666417  0.13342592  0.16660294  1
  Mg  Mg38  1  0.46676175  0.13342592  0.16660294  1
  Mg  Mg39  1  0.86657408  0.33333583  0.16660294  1
  Mg  Mg40  1  0.46676175  0.33333583  0.16660294  1
  Mg  Mg41  1  0.86657408  0.53323825  0.16660294  1
  Mg  Mg42  1  0.66666417  0.53323925  0.16660294  1
  Mg  Mg43  1  0.26660017  0.53320133  0.16665054  1
  Mg  Mg44  1  0.26660017  0.73339883  0.16665054  1
  Mg  Mg45  1  0.46679867  0.73339983  0.16665054  1
  Mg  Mg46  1  0.86638807  0.13361193  0.16670846  1
  Mg  Mg47  1  0.26722385  0.13361193  0.16670846  1
  Mg  Mg48  1  0.86638807  0.73277615  0.16670846  1
  Mg  Mg49  1  0.00020369  0.19964479  0.33233847  1
  Mg  Mg50  1  0.19944110  0.19964479  0.33233847  1
  Mg  Mg51  1  0.00020369  0.80055890  0.33233847  1
  Mg  Mg52  1  0.80035521  0.80055990  0.33233847  1
  Mg  Mg53  1  0.80035521  0.99979631  0.33233847  1
  Mg  Mg54  1  0.19944110  0.99979631  0.33233847  1
  Mg  Mg55  1  0.00000000  -0.00000000  0.33292741  1
  Mg  Mg56  1  0.60019161  0.00001338  0.33315408  1
  Mg  Mg57  1  0.39982077  0.00001338  0.33315408  1
  Mg  Mg58  1  0.39982077  0.39980739  0.33315408  1
  Mg  Mg59  1  0.99998662  0.39980839  0.33315408  1
  Mg  Mg60  1  0.99998662  0.60017823  0.33315408  1
  Mg  Mg61  1  0.60019161  0.60017823  0.33315408  1
  Mg  Mg62  1  0.59985509  0.19971018  0.33323553  1
  Mg  Mg63  1  0.59985509  0.40014491  0.33323553  1
  Mg  Mg64  1  0.80028982  0.40014491  0.33323553  1
  Mg  Mg65  1  0.39986723  0.19993361  0.33336041  1
  Mg  Mg66  1  0.80006639  0.19993361  0.33336041  1
  Mg  Mg67  1  0.80006639  0.60013277  0.33336041  1
  Mg  Mg68  1  0.20005470  0.40010940  0.33339399  1
  Mg  Mg69  1  0.59989060  0.79994530  0.33339399  1
  Mg  Mg70  1  0.20005470  0.79994530  0.33339399  1
  Mg  Mg71  1  0.40007539  0.59992361  0.33343480  1
  Mg  Mg72  1  0.19984822  0.59992361  0.33343480  1
  Mg  Mg73  1  0.40007539  0.80015178  0.33343480  1
  Mg  Mg74  1  0.86673994  0.13326006  0.50000000  1
  Mg  Mg75  1  0.26651911  0.13326006  0.50000000  1
  Mg  Mg76  1  0.06674240  0.13348580  0.50000000  1
  Mg  Mg77  1  0.46688794  0.13357676  0.50000000  1
  Mg  Mg78  1  0.66668782  0.13357676  0.50000000  1
  Mg  Mg79  1  0.26653056  0.33306999  0.50000000  1
  Mg  Mg80  1  0.06653943  0.33307099  0.50000000  1
  Mg  Mg81  1  0.46688794  0.33331118  0.50000000  1
  Mg  Mg82  1  0.86642324  0.33331218  0.50000000  1
  Mg  Mg83  1  0.66666600  0.33333300  0.50000000  1
  Mg  Mg84  1  0.66668782  0.53311106  0.50000000  1
  Mg  Mg85  1  0.86642324  0.53311106  0.50000000  1
  Mg  Mg86  1  0.46682750  0.53317150  0.50000000  1
  Mg  Mg87  1  0.06634500  0.53317250  0.50000000  1
  Mg  Mg88  1  0.26659728  0.53319456  0.50000000  1
  Mg  Mg89  1  0.26659728  0.73340272  0.50000000  1
  Mg  Mg90  1  0.46680544  0.73340272  0.50000000  1
  Mg  Mg91  1  0.06653943  0.73346844  0.50000000  1
  Mg  Mg92  1  0.66693001  0.73346944  0.50000000  1
  Mg  Mg93  1  0.86673994  0.73348089  0.50000000  1
  Mg  Mg94  1  0.06674240  0.93325760  0.50000000  1
  Mg  Mg95  1  0.86651420  0.93325760  0.50000000  1
  Mg  Mg96  1  0.66693001  0.93346057  0.50000000  1
  Mg  Mg97  1  0.26653056  0.93346057  0.50000000  1
  Mg  Mg98  1  0.46682750  0.93365500  0.50000000  1
  Mg  Mg99  1  0.40007539  0.59992361  0.66656520  1
  Mg  Mg100  1  0.19984822  0.59992361  0.66656520  1
  Mg  Mg101  1  0.40007539  0.80015178  0.66656520  1
  Mg  Mg102  1  0.20005470  0.40010940  0.66660601  1
  Mg  Mg103  1  0.59989060  0.79994530  0.66660601  1
  Mg  Mg104  1  0.20005470  0.79994530  0.66660601  1
  Mg  Mg105  1  0.39986723  0.19993361  0.66663959  1
  Mg  Mg106  1  0.80006639  0.19993361  0.66663959  1
  Mg  Mg107  1  0.80006639  0.60013277  0.66663959  1
  Mg  Mg108  1  0.59985509  0.19971018  0.66676447  1
  Mg  Mg109  1  0.59985509  0.40014491  0.66676447  1
  Mg  Mg110  1  0.80028982  0.40014491  0.66676447  1
  Mg  Mg111  1  0.60019161  0.00001338  0.66684592  1
  Mg  Mg112  1  0.39982077  0.00001338  0.66684592  1
  Mg  Mg113  1  0.39982077  0.39980739  0.66684592  1
  Mg  Mg114  1  0.99998662  0.39980839  0.66684592  1
  Mg  Mg115  1  0.99998662  0.60017823  0.66684592  1
  Mg  Mg116  1  0.60019161  0.60017823  0.66684592  1
  Mg  Mg117  1  0.00000000  -0.00000000  0.66707259  1
  Mg  Mg118  1  0.00020369  0.19964479  0.66766153  1
  Mg  Mg119  1  0.19944110  0.19964479  0.66766153  1
  Mg  Mg120  1  0.00020369  0.80055890  0.66766153  1
  Mg  Mg121  1  0.80035521  0.80055990  0.66766153  1
  Mg  Mg122  1  0.80035521  0.99979631  0.66766153  1
  Mg  Mg123  1  0.19944110  0.99979631  0.66766153  1
  Mg  Mg124  1  0.86638807  0.13361193  0.83329154  1
  Mg  Mg125  1  0.26722385  0.13361193  0.83329154  1
  Mg  Mg126  1  0.86638807  0.73277615  0.83329154  1
  Mg  Mg127  1  0.26660017  0.53320133  0.83334946  1
  Mg  Mg128  1  0.26660017  0.73339883  0.83334946  1
  Mg  Mg129  1  0.46679867  0.73339983  0.83334946  1
  Mg  Mg130  1  0.66666417  0.13342592  0.83339706  1
  Mg  Mg131  1  0.46676175  0.13342592  0.83339706  1
  Mg  Mg132  1  0.86657408  0.33333583  0.83339706  1
  Mg  Mg133  1  0.46676175  0.33333583  0.83339706  1
  Mg  Mg134  1  0.86657408  0.53323825  0.83339706  1
  Mg  Mg135  1  0.66666417  0.53323925  0.83339706  1
  Mg  Mg136  1  0.66666600  0.33333300  0.83354303  1
  Mg  Mg137  1  0.46669639  0.53330261  0.83347121  1
  Mg  Mg138  1  0.06660621  0.53330261  0.83347121  1
  Mg  Mg139  1  0.46669639  0.93339379  0.83347121  1
  Mg  Mg140  1  0.26593718  0.33262286  0.83367189  1
  Mg  Mg141  1  0.06668568  0.33262386  0.83367189  1
  Mg  Mg142  1  0.06668568  0.73406282  0.83367189  1
  Mg  Mg143  1  0.66737714  0.73406282  0.83367189  1
  Mg  Mg144  1  0.66737714  0.93331432  0.83367189  1
  Mg  Mg145  1  0.26593718  0.93331432  0.83367189  1
  Mg  Mg146  1  0.06541600  0.13083300  0.83711914  1
  Mg  Mg147  1  0.06541600  0.93458300  0.83711914  1
  Mg  Mg148  1  0.86916700  0.93458400  0.83711914  1
  Cr  Cr149  1  0.00000000  -0.00000000  -0.00000000  1
