# generated using pymatgen
data_BaGaSiH
_symmetry_space_group_name_H-M   'P 1'
_cell_length_a   4.30149976
_cell_length_b   4.30149976
_cell_length_c   5.27030000
_cell_angle_alpha   90.00000000
_cell_angle_beta   90.00000000
_cell_angle_gamma   119.99999635
_symmetry_Int_Tables_number   1
_chemical_formula_structural   BaGaSiH
_chemical_formula_sum   'Ba1 Ga1 Si1 H1'
_cell_volume   84.45119345
_cell_formula_units_Z   1
loop_
 _symmetry_equiv_pos_site_id
 _symmetry_equiv_pos_as_xyz
  1  'x, y, z'
loop_
 _atom_site_type_symbol
 _atom_site_label
 _atom_site_symmetry_multiplicity
 _atom_site_fract_x
 _atom_site_fract_y
 _atom_site_fract_z
 _atom_site_occupancy
  Ba  Ba0  1  0.00000000  0.00000000  0.00000000  1
  Ga  Ga1  1  0.66666700  0.33333300  0.54230000  1
  Si  Si2  1  0.33333300  0.66666700  0.45550000  1
  H  H3  1  0.66666700  0.33333300  0.87590000  1
