# generated using pymatgen
data_K2CeBr5
_symmetry_space_group_name_H-M   'P 1'
_cell_length_a   8.59288700
_cell_length_b   9.34702100
_cell_length_c   13.60095700
_cell_angle_alpha   90.00000000
_cell_angle_beta   90.00000000
_cell_angle_gamma   90.00000000
_symmetry_Int_Tables_number   1
_chemical_formula_structural   K2CeBr5
_chemical_formula_sum   'K8 Ce4 Br20'
_cell_volume   1092.40023948
_cell_formula_units_Z   4
loop_
 _symmetry_equiv_pos_site_id
 _symmetry_equiv_pos_as_xyz
  1  'x, y, z'
loop_
 _atom_site_type_symbol
 _atom_site_label
 _atom_site_symmetry_multiplicity
 _atom_site_fract_x
 _atom_site_fract_y
 _atom_site_fract_z
 _atom_site_occupancy
  K  K0  1  0.95015500  0.00565700  0.82917000  1
  K  K1  1  0.04984500  0.99434300  0.17083000  1
  K  K2  1  0.45015500  0.99434300  0.67083000  1
  K  K3  1  0.04984500  0.50565700  0.17083000  1
  K  K4  1  0.54984500  0.00565700  0.32917000  1
  K  K5  1  0.95015500  0.49434300  0.82917000  1
  K  K6  1  0.54984500  0.49434300  0.32917000  1
  K  K7  1  0.45015500  0.50565700  0.67083000  1
  Ce  Ce8  1  0.92316500  0.75000000  0.50586500  1
  Ce  Ce9  1  0.07683500  0.25000000  0.49413500  1
  Ce  Ce10  1  0.42316500  0.25000000  0.99413500  1
  Ce  Ce11  1  0.57683500  0.75000000  0.00586500  1
  Br  Br12  1  0.12712800  0.75000000  0.68103800  1
  Br  Br13  1  0.87287200  0.25000000  0.31896200  1
  Br  Br14  1  0.62712800  0.25000000  0.81896200  1
  Br  Br15  1  0.37287200  0.75000000  0.18103800  1
  Br  Br16  1  0.83477400  0.04351600  0.57769300  1
  Br  Br17  1  0.16522600  0.95648400  0.42230700  1
  Br  Br18  1  0.33477400  0.95648400  0.92230700  1
  Br  Br19  1  0.16522600  0.54351600  0.42230700  1
  Br  Br20  1  0.66522600  0.04351600  0.07769300  1
  Br  Br21  1  0.83477400  0.45648400  0.57769300  1
  Br  Br22  1  0.66522600  0.45648400  0.07769300  1
  Br  Br23  1  0.33477400  0.54351600  0.92230700  1
  Br  Br24  1  0.57389200  0.75000000  0.50705000  1
  Br  Br25  1  0.42610800  0.25000000  0.49295000  1
  Br  Br26  1  0.07389200  0.25000000  0.99295000  1
  Br  Br27  1  0.92610800  0.75000000  0.00705000  1
  Br  Br28  1  0.66518600  0.75000000  0.79439000  1
  Br  Br29  1  0.33481400  0.25000000  0.20561000  1
  Br  Br30  1  0.16518600  0.25000000  0.70561000  1
  Br  Br31  1  0.83481400  0.75000000  0.29439000  1
