# generated using pymatgen
data_Rb2Te2Pt
_symmetry_space_group_name_H-M   'P 1'
_cell_length_a   7.10226352
_cell_length_b   7.10226352
_cell_length_c   7.10226352
_cell_angle_alpha   146.69644456
_cell_angle_beta   109.26274492
_cell_angle_gamma   80.46361324
_symmetry_Int_Tables_number   1
_chemical_formula_structural   Rb2Te2Pt
_chemical_formula_sum   'Rb2 Te2 Pt1'
_cell_volume   181.46187038
_cell_formula_units_Z   1
loop_
 _symmetry_equiv_pos_site_id
 _symmetry_equiv_pos_as_xyz
  1  'x, y, z'
loop_
 _atom_site_type_symbol
 _atom_site_label
 _atom_site_symmetry_multiplicity
 _atom_site_fract_x
 _atom_site_fract_y
 _atom_site_fract_z
 _atom_site_occupancy
  Rb  Rb0  1  0.69893500  0.19893500  0.50000000  1
  Rb  Rb1  1  0.30106500  0.80106500  0.50000000  1
  Te  Te2  1  0.21099400  0.50000000  0.71099400  1
  Te  Te3  1  0.78900600  0.50000000  0.28900600  1
  Pt  Pt4  1  0.00000000  0.00000000  0.00000000  1
