# generated using pymatgen
data_ZrAu2
_symmetry_space_group_name_H-M   'P 1'
_cell_length_a   5.11382113
_cell_length_b   5.11382113
_cell_length_c   5.11382113
_cell_angle_alpha   138.66282950
_cell_angle_beta   138.66282950
_cell_angle_gamma   59.88934595
_symmetry_Int_Tables_number   1
_chemical_formula_structural   ZrAu2
_chemical_formula_sum   'Zr1 Au2'
_cell_volume   57.74637466
_cell_formula_units_Z   1
loop_
 _symmetry_equiv_pos_site_id
 _symmetry_equiv_pos_as_xyz
  1  'x, y, z'
loop_
 _atom_site_type_symbol
 _atom_site_label
 _atom_site_symmetry_multiplicity
 _atom_site_fract_x
 _atom_site_fract_y
 _atom_site_fract_z
 _atom_site_occupancy
  Zr  Zr0  1  0.00000000  0.00000000  0.00000000  1
  Au  Au1  1  0.66819300  0.66819300  0.00000000  1
  Au  Au2  1  0.33180700  0.33180700  0.00000000  1
