# generated using pymatgen
data_Tm(Ni2As)2
_symmetry_space_group_name_H-M   'P 1'
_cell_length_a   7.19785800
_cell_length_b   7.19785800
_cell_length_c   3.77364500
_cell_angle_alpha   90.00000000
_cell_angle_beta   90.00000000
_cell_angle_gamma   90.00000000
_symmetry_Int_Tables_number   1
_chemical_formula_structural   Tm(Ni2As)2
_chemical_formula_sum   'Tm2 Ni8 As4'
_cell_volume   195.50937679
_cell_formula_units_Z   2
loop_
 _symmetry_equiv_pos_site_id
 _symmetry_equiv_pos_as_xyz
  1  'x, y, z'
loop_
 _atom_site_type_symbol
 _atom_site_label
 _atom_site_symmetry_multiplicity
 _atom_site_fract_x
 _atom_site_fract_y
 _atom_site_fract_z
 _atom_site_occupancy
  Tm  Tm0  1  0.50000000  0.50000000  0.00000000  1
  Tm  Tm1  1  0.00000000  0.00000000  0.50000000  1
  Ni  Ni2  1  0.58930800  0.15403900  0.50000000  1
  Ni  Ni3  1  0.41069200  0.84596100  0.50000000  1
  Ni  Ni4  1  0.08930800  0.34596100  0.00000000  1
  Ni  Ni5  1  0.91069200  0.65403900  0.00000000  1
  Ni  Ni6  1  0.15403900  0.58930800  0.50000000  1
  Ni  Ni7  1  0.84596100  0.41069200  0.50000000  1
  Ni  Ni8  1  0.34596100  0.08930800  0.00000000  1
  Ni  Ni9  1  0.65403900  0.91069200  0.00000000  1
  As  As10  1  0.71696900  0.71696900  0.50000000  1
  As  As11  1  0.28303100  0.28303100  0.50000000  1
  As  As12  1  0.21696900  0.78303100  0.00000000  1
  As  As13  1  0.78303100  0.21696900  0.00000000  1
