# generated using pymatgen
data_Cs2TlAsBr6
_symmetry_space_group_name_H-M   'P 1'
_cell_length_a   8.24206917
_cell_length_b   8.24206917
_cell_length_c   8.24206917
_cell_angle_alpha   60.00000000
_cell_angle_beta   60.00000000
_cell_angle_gamma   60.00000000
_symmetry_Int_Tables_number   1
_chemical_formula_structural   Cs2TlAsBr6
_chemical_formula_sum   'Cs2 Tl1 As1 Br6'
_cell_volume   395.90753437
_cell_formula_units_Z   1
loop_
 _symmetry_equiv_pos_site_id
 _symmetry_equiv_pos_as_xyz
  1  'x, y, z'
loop_
 _atom_site_type_symbol
 _atom_site_label
 _atom_site_symmetry_multiplicity
 _atom_site_fract_x
 _atom_site_fract_y
 _atom_site_fract_z
 _atom_site_occupancy
  Cs  Cs0  1  0.75000000  0.75000000  0.75000000  1
  Cs  Cs1  1  0.25000000  0.25000000  0.25000000  1
  Tl  Tl2  1  0.50000000  0.50000000  0.50000000  1
  As  As3  1  0.00000000  0.00000000  0.00000000  1
  Br  Br4  1  0.77023400  0.22976600  0.22976600  1
  Br  Br5  1  0.22976600  0.22976600  0.77023400  1
  Br  Br6  1  0.22976600  0.77023400  0.77023400  1
  Br  Br7  1  0.22976600  0.77023400  0.22976600  1
  Br  Br8  1  0.77023400  0.22976600  0.77023400  1
  Br  Br9  1  0.77023400  0.77023400  0.22976600  1
