# generated using pymatgen
data_Hf9Re4P
_symmetry_space_group_name_H-M   'P 1'
_cell_length_a   8.53318390
_cell_length_b   8.53318390
_cell_length_c   8.65054600
_cell_angle_alpha   90.00000000
_cell_angle_beta   90.00000000
_cell_angle_gamma   119.99999920
_symmetry_Int_Tables_number   1
_chemical_formula_structural   Hf9Re4P
_chemical_formula_sum   'Hf18 Re8 P2'
_cell_volume   545.50202274
_cell_formula_units_Z   2
loop_
 _symmetry_equiv_pos_site_id
 _symmetry_equiv_pos_as_xyz
  1  'x, y, z'
loop_
 _atom_site_type_symbol
 _atom_site_label
 _atom_site_symmetry_multiplicity
 _atom_site_fract_x
 _atom_site_fract_y
 _atom_site_fract_z
 _atom_site_occupancy
  Hf  Hf0  1  0.19697000  0.80303000  0.45163300  1
  Hf  Hf1  1  0.19697000  0.39393900  0.45163300  1
  Hf  Hf2  1  0.60606100  0.80303000  0.45163300  1
  Hf  Hf3  1  0.80303000  0.19697000  0.54836700  1
  Hf  Hf4  1  0.80303000  0.60606100  0.54836700  1
  Hf  Hf5  1  0.39393900  0.19697000  0.54836700  1
  Hf  Hf6  1  0.80303000  0.19697000  0.95163300  1
  Hf  Hf7  1  0.80303000  0.60606100  0.95163300  1
  Hf  Hf8  1  0.39393900  0.19697000  0.95163300  1
  Hf  Hf9  1  0.19697000  0.80303000  0.04836700  1
  Hf  Hf10  1  0.19697000  0.39393900  0.04836700  1
  Hf  Hf11  1  0.60606100  0.80303000  0.04836700  1
  Hf  Hf12  1  0.53940700  0.46059300  0.25000000  1
  Hf  Hf13  1  0.53940700  0.07881400  0.25000000  1
  Hf  Hf14  1  0.92118600  0.46059300  0.25000000  1
  Hf  Hf15  1  0.46059300  0.53940700  0.75000000  1
  Hf  Hf16  1  0.46059300  0.92118600  0.75000000  1
  Hf  Hf17  1  0.07881400  0.53940700  0.75000000  1
  Re  Re18  1  0.89098600  0.10901400  0.25000000  1
  Re  Re19  1  0.89098600  0.78197100  0.25000000  1
  Re  Re20  1  0.21802900  0.10901400  0.25000000  1
  Re  Re21  1  0.10901400  0.89098600  0.75000000  1
  Re  Re22  1  0.10901400  0.21802900  0.75000000  1
  Re  Re23  1  0.78197100  0.89098600  0.75000000  1
  Re  Re24  1  0.00000000  0.00000000  0.50000000  1
  Re  Re25  1  0.00000000  0.00000000  0.00000000  1
  P  P26  1  0.33333300  0.66666700  0.25000000  1
  P  P27  1  0.66666700  0.33333300  0.75000000  1
