# generated using pymatgen
data_Dy2Ge2Ru
_symmetry_space_group_name_H-M   'P 1'
_cell_length_a   5.81093238
_cell_length_b   5.81093238
_cell_length_c   10.19697479
_cell_angle_alpha   63.85819313
_cell_angle_beta   63.85819313
_cell_angle_gamma   43.52859569
_symmetry_Int_Tables_number   1
_chemical_formula_structural   Dy2Ge2Ru
_chemical_formula_sum   'Dy4 Ge4 Ru2'
_cell_volume   208.75442672
_cell_formula_units_Z   2
loop_
 _symmetry_equiv_pos_site_id
 _symmetry_equiv_pos_as_xyz
  1  'x, y, z'
loop_
 _atom_site_type_symbol
 _atom_site_label
 _atom_site_symmetry_multiplicity
 _atom_site_fract_x
 _atom_site_fract_y
 _atom_site_fract_z
 _atom_site_occupancy
  Dy  Dy0  1  0.99852000  0.99852000  0.32805900  1
  Dy  Dy1  1  0.00148000  0.00148000  0.67194100  1
  Dy  Dy2  1  0.81581200  0.81581200  0.10872900  1
  Dy  Dy3  1  0.18418800  0.18418800  0.89127100  1
  Ge  Ge4  1  0.64629700  0.64629700  0.43186400  1
  Ge  Ge5  1  0.35370300  0.35370300  0.56813600  1
  Ge  Ge6  1  0.51067100  0.51067100  0.12442100  1
  Ge  Ge7  1  0.48932900  0.48932900  0.87557900  1
  Ru  Ru8  1  0.72819100  0.72819100  0.62722500  1
  Ru  Ru9  1  0.27180900  0.27180900  0.37277500  1
