# generated using pymatgen
data_HoSnGe
_symmetry_space_group_name_H-M   'P 1'
_cell_length_a   8.39192221
_cell_length_b   8.39192221
_cell_length_c   4.09493700
_cell_angle_alpha   90.00000000
_cell_angle_beta   90.00000000
_cell_angle_gamma   150.59006051
_symmetry_Int_Tables_number   1
_chemical_formula_structural   HoSnGe
_chemical_formula_sum   'Ho2 Sn2 Ge2'
_cell_volume   141.61203268
_cell_formula_units_Z   2
loop_
 _symmetry_equiv_pos_site_id
 _symmetry_equiv_pos_as_xyz
  1  'x, y, z'
loop_
 _atom_site_type_symbol
 _atom_site_label
 _atom_site_symmetry_multiplicity
 _atom_site_fract_x
 _atom_site_fract_y
 _atom_site_fract_z
 _atom_site_occupancy
  Ho  Ho0  1  0.90611300  0.09388700  0.75000000  1
  Ho  Ho1  1  0.09388700  0.90611300  0.25000000  1
  Sn  Sn2  1  0.25600600  0.74399400  0.75000000  1
  Sn  Sn3  1  0.74399400  0.25600600  0.25000000  1
  Ge  Ge4  1  0.55489300  0.44510700  0.75000000  1
  Ge  Ge5  1  0.44510700  0.55489300  0.25000000  1
