# generated using pymatgen
data_Nb10Pb14O39
_symmetry_space_group_name_H-M   'P 1'
_cell_length_a   16.93651444
_cell_length_b   16.93651444
_cell_length_c   7.64924700
_cell_angle_alpha   90.00000000
_cell_angle_beta   90.00000000
_cell_angle_gamma   153.99186013
_symmetry_Int_Tables_number   1
_chemical_formula_structural   Nb10Pb14O39
_chemical_formula_sum   'Nb10 Pb14 O39'
_cell_volume   962.13319563
_cell_formula_units_Z   1
loop_
 _symmetry_equiv_pos_site_id
 _symmetry_equiv_pos_as_xyz
  1  'x, y, z'
loop_
 _atom_site_type_symbol
 _atom_site_label
 _atom_site_symmetry_multiplicity
 _atom_site_fract_x
 _atom_site_fract_y
 _atom_site_fract_z
 _atom_site_occupancy
  Nb  Nb0  1  0.66774700  0.83311100  0.50000000  1
  Nb  Nb1  1  0.00045100  0.99954900  0.24893400  1
  Nb  Nb2  1  0.33491300  0.66508700  0.75442900  1
  Nb  Nb3  1  0.33491300  0.66508700  0.24557100  1
  Nb  Nb4  1  0.83066800  0.66483300  0.00000000  1
  Nb  Nb5  1  0.16688900  0.33225300  0.50000000  1
  Nb  Nb6  1  0.66527700  0.33472300  0.74714900  1
  Nb  Nb7  1  0.66527700  0.33472300  0.25285100  1
  Nb  Nb8  1  0.00045100  0.99954900  0.75106600  1
  Nb  Nb9  1  0.33516700  0.16933200  0.00000000  1
  Pb  Pb10  1  0.50528000  0.99541900  0.50000000  1
  Pb  Pb11  1  0.66861300  0.83693700  0.00000000  1
  Pb  Pb12  1  0.16966900  0.83033100  0.25765200  1
  Pb  Pb13  1  0.16966900  0.83033100  0.74234800  1
  Pb  Pb14  1  0.49810300  0.50189700  0.25290200  1
  Pb  Pb15  1  0.16306300  0.33138700  0.00000000  1
  Pb  Pb16  1  0.99362200  0.50416800  0.00000000  1
  Pb  Pb17  1  0.00458100  0.49472000  0.50000000  1
  Pb  Pb18  1  0.83243700  0.66624200  0.50000000  1
  Pb  Pb19  1  0.49810300  0.50189700  0.74709800  1
  Pb  Pb20  1  0.82960700  0.17039300  0.23590700  1
  Pb  Pb21  1  0.82960700  0.17039300  0.76409300  1
  Pb  Pb22  1  0.33375800  0.16756300  0.50000000  1
  Pb  Pb23  1  0.49583200  0.00637800  0.00000000  1
  O  O24  1  0.77096300  0.85207600  0.31643200  1
  O  O25  1  0.77096300  0.85207600  0.68356800  1
  O  O26  1  0.57117900  0.81199000  0.30984000  1
  O  O27  1  0.57117900  0.81199000  0.69016000  1
  O  O28  1  0.48773200  0.89201100  0.20429000  1
  O  O29  1  0.48773200  0.89201100  0.79571000  1
  O  O30  1  0.13070200  0.86929800  0.50000000  1
  O  O31  1  0.02106800  0.97893200  0.50000000  1
  O  O32  1  0.09926400  0.90073600  0.00000000  1
  O  O33  1  0.32013100  0.67986900  0.50000000  1
  O  O34  1  0.22161200  0.77838800  0.50000000  1
  O  O35  1  0.44065500  0.55934500  0.50000000  1
  O  O36  1  0.36055500  0.63944500  0.00000000  1
  O  O37  1  0.84957900  0.77047800  0.81512800  1
  O  O38  1  0.10798900  0.51226800  0.79571000  1
  O  O39  1  0.10798900  0.51226800  0.20429000  1
  O  O40  1  0.18801000  0.42882100  0.69016000  1
  O  O41  1  0.18801000  0.42882100  0.30984000  1
  O  O42  1  0.84957900  0.77047800  0.18487200  1
  O  O43  1  0.14792400  0.22903700  0.68356800  1
  O  O44  1  0.81035500  0.56920900  0.81281400  1
  O  O45  1  0.81035500  0.56920900  0.18718600  1
  O  O46  1  0.89183700  0.48660300  0.70457500  1
  O  O47  1  0.89183700  0.48660300  0.29542500  1
  O  O48  1  0.14792400  0.22903700  0.31643200  1
  O  O49  1  0.53426200  0.46573800  0.50000000  1
  O  O50  1  0.55924600  0.44075400  0.00000000  1
  O  O51  1  0.68082100  0.31917900  0.00000000  1
  O  O52  1  0.63966000  0.36034000  0.50000000  1
  O  O53  1  0.87435200  0.12564800  0.00000000  1
  O  O54  1  0.89940400  0.10059600  0.50000000  1
  O  O55  1  0.97696500  0.02303500  0.00000000  1
  O  O56  1  0.78009100  0.21990900  0.00000000  1
  O  O57  1  0.51339700  0.10816300  0.29542500  1
  O  O58  1  0.51339700  0.10816300  0.70457500  1
  O  O59  1  0.43079100  0.18964500  0.18718600  1
  O  O60  1  0.43079100  0.18964500  0.81281400  1
  O  O61  1  0.22952200  0.15042100  0.18487200  1
  O  O62  1  0.22952200  0.15042100  0.81512800  1
