# generated using pymatgen
data_ErZn2
_symmetry_space_group_name_H-M   'P 1'
_cell_length_a   5.61431742
_cell_length_b   5.61431742
_cell_length_c   5.61431742
_cell_angle_alpha   133.30646943
_cell_angle_beta   102.43754293
_cell_angle_gamma   95.66571089
_symmetry_Int_Tables_number   1
_chemical_formula_structural   ErZn2
_chemical_formula_sum   'Er2 Zn4'
_cell_volume   117.95037951
_cell_formula_units_Z   2
loop_
 _symmetry_equiv_pos_site_id
 _symmetry_equiv_pos_as_xyz
  1  'x, y, z'
loop_
 _atom_site_type_symbol
 _atom_site_label
 _atom_site_symmetry_multiplicity
 _atom_site_fract_x
 _atom_site_fract_y
 _atom_site_fract_z
 _atom_site_occupancy
  Er  Er0  1  0.28397200  0.53397200  0.75000000  1
  Er  Er1  1  0.71602800  0.46602800  0.25000000  1
  Zn  Zn2  1  0.71025400  0.16595300  0.54430200  1
  Zn  Zn3  1  0.28974600  0.83404700  0.45569800  1
  Zn  Zn4  1  0.12165100  0.16595300  0.95569800  1
  Zn  Zn5  1  0.87834900  0.83404700  0.04430200  1
