# generated using pymatgen
data_CaTiGeO5
_symmetry_space_group_name_H-M   'P 1'
_cell_length_a   8.96593800
_cell_length_b   6.77138000
_cell_length_c   7.27788925
_cell_angle_alpha   65.69653552
_cell_angle_beta   90.00000000
_cell_angle_gamma   90.00000000
_symmetry_Int_Tables_number   1
_chemical_formula_structural   CaTiGeO5
_chemical_formula_sum   'Ca4 Ti4 Ge4 O20'
_cell_volume   402.69578865
_cell_formula_units_Z   4
loop_
 _symmetry_equiv_pos_site_id
 _symmetry_equiv_pos_as_xyz
  1  'x, y, z'
loop_
 _atom_site_type_symbol
 _atom_site_label
 _atom_site_symmetry_multiplicity
 _atom_site_fract_x
 _atom_site_fract_y
 _atom_site_fract_z
 _atom_site_occupancy
  Ca  Ca0  1  0.42490400  0.74984900  0.24363500  1
  Ca  Ca1  1  0.92490400  0.25015100  0.25636500  1
  Ca  Ca2  1  0.57509600  0.25015100  0.75636500  1
  Ca  Ca3  1  0.07509600  0.74984900  0.74363500  1
  Ti  Ti4  1  0.24593500  0.25098800  0.01425900  1
  Ti  Ti5  1  0.74593500  0.74901200  0.48574100  1
  Ti  Ti6  1  0.75406500  0.74901200  0.98574100  1
  Ti  Ti7  1  0.25406500  0.25098800  0.51425900  1
  Ge  Ge8  1  0.43162200  0.75144600  0.74768400  1
  Ge  Ge9  1  0.93162200  0.24855400  0.75231600  1
  Ge  Ge10  1  0.56837800  0.24855400  0.25231600  1
  Ge  Ge11  1  0.06837800  0.75144600  0.24768400  1
  O  O12  1  0.45871700  0.14675600  0.10714000  1
  O  O13  1  0.95871700  0.85324400  0.39286000  1
  O  O14  1  0.54128300  0.85324400  0.89286000  1
  O  O15  1  0.04128300  0.14675600  0.60714000  1
  O  O16  1  0.03989700  0.35430400  0.89496700  1
  O  O17  1  0.53989700  0.64569600  0.60503300  1
  O  O18  1  0.96010300  0.64569600  0.10503300  1
  O  O19  1  0.46010300  0.35430400  0.39496700  1
  O  O20  1  0.30594200  0.94278600  0.58015300  1
  O  O21  1  0.80594200  0.05721400  0.91984700  1
  O  O22  1  0.69405800  0.05721400  0.41984700  1
  O  O23  1  0.19405800  0.94278600  0.08015300  1
  O  O24  1  0.31694500  0.24898200  0.74975000  1
  O  O25  1  0.81694500  0.75101800  0.75025000  1
  O  O26  1  0.68305500  0.75101800  0.25025000  1
  O  O27  1  0.18305500  0.24898200  0.24975000  1
  O  O28  1  0.30606300  0.56031100  0.91600200  1
  O  O29  1  0.80606300  0.43968900  0.58399800  1
  O  O30  1  0.69393700  0.43968900  0.08399800  1
  O  O31  1  0.19393700  0.56031100  0.41600200  1
