# generated using pymatgen
data_TaTiAlC
_symmetry_space_group_name_H-M   'P 1'
_cell_length_a   3.08781815
_cell_length_b   3.08781815
_cell_length_c   13.83835000
_cell_angle_alpha   90.00000000
_cell_angle_beta   90.00000000
_cell_angle_gamma   120.00000315
_symmetry_Int_Tables_number   1
_chemical_formula_structural   TaTiAlC
_chemical_formula_sum   'Ta2 Ti2 Al2 C2'
_cell_volume   114.26635104
_cell_formula_units_Z   2
loop_
 _symmetry_equiv_pos_site_id
 _symmetry_equiv_pos_as_xyz
  1  'x, y, z'
loop_
 _atom_site_type_symbol
 _atom_site_label
 _atom_site_symmetry_multiplicity
 _atom_site_fract_x
 _atom_site_fract_y
 _atom_site_fract_z
 _atom_site_occupancy
  Ta  Ta0  1  0.33333300  0.66666700  0.40955500  1
  Ta  Ta1  1  0.66666700  0.33333300  0.59044500  1
  Ti  Ti2  1  0.66666700  0.33333300  0.91718600  1
  Ti  Ti3  1  0.33333300  0.66666700  0.08281400  1
  Al  Al4  1  0.33333300  0.66666700  0.75440500  1
  Al  Al5  1  0.66666700  0.33333300  0.24559500  1
  C  C6  1  0.00000000  0.00000000  0.50000000  1
  C  C7  1  0.00000000  0.00000000  0.00000000  1
