# generated using pymatgen
data_H4W
_symmetry_space_group_name_H-M   'P 1'
_cell_length_a   3.08757900
_cell_length_b   3.08757900
_cell_length_c   7.59496000
_cell_angle_alpha   90.00000000
_cell_angle_beta   90.00000000
_cell_angle_gamma   90.00000000
_symmetry_Int_Tables_number   1
_chemical_formula_structural   H4W
_chemical_formula_sum   'H8 W2'
_cell_volume   72.40384797
_cell_formula_units_Z   2
loop_
 _symmetry_equiv_pos_site_id
 _symmetry_equiv_pos_as_xyz
  1  'x, y, z'
loop_
 _atom_site_type_symbol
 _atom_site_label
 _atom_site_symmetry_multiplicity
 _atom_site_fract_x
 _atom_site_fract_y
 _atom_site_fract_z
 _atom_site_occupancy
  H  H0  1  0.00000000  0.50000000  0.88074200  1
  H  H1  1  0.50000000  0.00000000  0.11925800  1
  H  H2  1  0.00000000  0.50000000  0.35394900  1
  H  H3  1  0.50000000  0.00000000  0.64605100  1
  H  H4  1  0.00000000  0.00000000  0.73368000  1
  H  H5  1  0.50000000  0.50000000  0.26632000  1
  H  H6  1  0.00000000  0.00000000  0.26632000  1
  H  H7  1  0.50000000  0.50000000  0.73368000  1
  W  W8  1  0.00000000  0.50000000  0.12624700  1
  W  W9  1  0.50000000  0.00000000  0.87375300  1
