# generated using pymatgen
data_Sc3Ga5
_symmetry_space_group_name_H-M   'P 1'
_cell_length_a   5.77509100
_cell_length_b   9.32401400
_cell_length_c   10.91131900
_cell_angle_alpha   90.00000000
_cell_angle_beta   90.00000000
_cell_angle_gamma   90.00000000
_symmetry_Int_Tables_number   1
_chemical_formula_structural   Sc3Ga5
_chemical_formula_sum   'Sc12 Ga20'
_cell_volume   587.54211428
_cell_formula_units_Z   4
loop_
 _symmetry_equiv_pos_site_id
 _symmetry_equiv_pos_as_xyz
  1  'x, y, z'
loop_
 _atom_site_type_symbol
 _atom_site_label
 _atom_site_symmetry_multiplicity
 _atom_site_fract_x
 _atom_site_fract_y
 _atom_site_fract_z
 _atom_site_occupancy
  Sc  Sc0  1  0.84669500  0.75000000  0.06718100  1
  Sc  Sc1  1  0.65330500  0.75000000  0.56718100  1
  Sc  Sc2  1  0.15330500  0.25000000  0.93281900  1
  Sc  Sc3  1  0.34669500  0.25000000  0.43281900  1
  Sc  Sc4  1  0.89134100  0.50830100  0.35433500  1
  Sc  Sc5  1  0.60865900  0.99169900  0.85433500  1
  Sc  Sc6  1  0.10865900  0.00830100  0.64566500  1
  Sc  Sc7  1  0.39134100  0.49169900  0.14566500  1
  Sc  Sc8  1  0.10865900  0.49169900  0.64566500  1
  Sc  Sc9  1  0.39134100  0.00830100  0.14566500  1
  Sc  Sc10  1  0.89134100  0.99169900  0.35433500  1
  Sc  Sc11  1  0.60865900  0.50830100  0.85433500  1
  Ga  Ga12  1  0.87321100  0.04718400  0.09322900  1
  Ga  Ga13  1  0.62678900  0.45281600  0.59322900  1
  Ga  Ga14  1  0.12678900  0.54718400  0.90677100  1
  Ga  Ga15  1  0.37321100  0.95281600  0.40677100  1
  Ga  Ga16  1  0.12678900  0.95281600  0.90677100  1
  Ga  Ga17  1  0.37321100  0.54718400  0.40677100  1
  Ga  Ga18  1  0.87321100  0.45281600  0.09322900  1
  Ga  Ga19  1  0.62678900  0.04718400  0.59322900  1
  Ga  Ga20  1  0.16402400  0.75000000  0.24835200  1
  Ga  Ga21  1  0.33597600  0.75000000  0.74835200  1
  Ga  Ga22  1  0.83597600  0.25000000  0.75164800  1
  Ga  Ga23  1  0.66402400  0.25000000  0.25164800  1
  Ga  Ga24  1  0.37813200  0.75000000  0.00964200  1
  Ga  Ga25  1  0.12186800  0.75000000  0.50964200  1
  Ga  Ga26  1  0.62186800  0.25000000  0.99035800  1
  Ga  Ga27  1  0.87813200  0.25000000  0.49035800  1
  Ga  Ga28  1  0.61954500  0.75000000  0.29654100  1
  Ga  Ga29  1  0.88045500  0.75000000  0.79654100  1
  Ga  Ga30  1  0.38045500  0.25000000  0.70345900  1
  Ga  Ga31  1  0.11954500  0.25000000  0.20345900  1
