# generated using pymatgen
data_Na2(ReSe2)3
_symmetry_space_group_name_H-M   'P 1'
_cell_length_a   9.84301192
_cell_length_b   9.84301192
_cell_length_c   12.22418222
_cell_angle_alpha   87.77992245
_cell_angle_beta   87.77992245
_cell_angle_gamma   61.95767130
_symmetry_Int_Tables_number   1
_chemical_formula_structural   Na2(ReSe2)3
_chemical_formula_sum   'Na8 Re12 Se24'
_cell_volume   1044.23021460
_cell_formula_units_Z   4
loop_
 _symmetry_equiv_pos_site_id
 _symmetry_equiv_pos_as_xyz
  1  'x, y, z'
loop_
 _atom_site_type_symbol
 _atom_site_label
 _atom_site_symmetry_multiplicity
 _atom_site_fract_x
 _atom_site_fract_y
 _atom_site_fract_z
 _atom_site_occupancy
  Na  Na0  1  0.42827800  0.57172200  0.75000000  1
  Na  Na1  1  0.57172200  0.42827800  0.25000000  1
  Na  Na2  1  0.78623400  0.21376600  0.75000000  1
  Na  Na3  1  0.21376600  0.78623400  0.25000000  1
  Na  Na4  1  0.89425200  0.34960300  0.49245900  1
  Na  Na5  1  0.65039700  0.10574800  0.00754100  1
  Na  Na6  1  0.10574800  0.65039700  0.50754100  1
  Na  Na7  1  0.34960300  0.89425200  0.99245900  1
  Re  Re8  1  0.98977500  0.69175300  0.96918300  1
  Re  Re9  1  0.30824700  0.01022500  0.53081700  1
  Re  Re10  1  0.01022500  0.30824700  0.03081700  1
  Re  Re11  1  0.69175300  0.98977500  0.46918300  1
  Re  Re12  1  0.88909100  0.52110700  0.87184200  1
  Re  Re13  1  0.47889300  0.11090900  0.62815800  1
  Re  Re14  1  0.11090900  0.47889300  0.12815800  1
  Re  Re15  1  0.52110700  0.88909100  0.37184200  1
  Re  Re16  1  0.18700100  0.40364500  0.91834800  1
  Re  Re17  1  0.59635500  0.81299900  0.58165200  1
  Re  Re18  1  0.81299900  0.59635500  0.08165200  1
  Re  Re19  1  0.40364500  0.18700100  0.41834800  1
  Se  Se20  1  0.91846800  0.75574900  0.16882500  1
  Se  Se21  1  0.24425100  0.08153200  0.33117500  1
  Se  Se22  1  0.08153200  0.24425100  0.83117500  1
  Se  Se23  1  0.75574900  0.91846800  0.66882500  1
  Se  Se24  1  0.20513600  0.29568800  0.57405900  1
  Se  Se25  1  0.70431200  0.79486400  0.92594100  1
  Se  Se26  1  0.79486400  0.70431200  0.42594100  1
  Se  Se27  1  0.29568800  0.20513600  0.07405900  1
  Se  Se28  1  0.93421300  0.38824400  0.22908900  1
  Se  Se29  1  0.61175600  0.06578700  0.27091100  1
  Se  Se30  1  0.06578700  0.61175600  0.77091100  1
  Se  Se31  1  0.38824400  0.93421300  0.72908900  1
  Se  Se32  1  0.72479400  0.42462100  0.98486400  1
  Se  Se33  1  0.57537900  0.27520600  0.51513600  1
  Se  Se34  1  0.27520600  0.57537900  0.01513600  1
  Se  Se35  1  0.42462100  0.72479400  0.48486400  1
  Se  Se36  1  0.95301800  0.97892100  0.41522500  1
  Se  Se37  1  0.02107900  0.04698200  0.08477500  1
  Se  Se38  1  0.04698200  0.02107900  0.58477500  1
  Se  Se39  1  0.97892100  0.95301800  0.91522500  1
  Se  Se40  1  0.73303500  0.54250100  0.69218100  1
  Se  Se41  1  0.45749900  0.26696500  0.80781900  1
  Se  Se42  1  0.26696500  0.45749900  0.30781900  1
  Se  Se43  1  0.54250100  0.73303500  0.19218100  1
