# generated using pymatgen
data_GdYScSbO7
_symmetry_space_group_name_H-M   'P 1'
_cell_length_a   7.40381326
_cell_length_b   7.40381326
_cell_length_c   7.40381326
_cell_angle_alpha   120.16163106
_cell_angle_beta   119.46422455
_cell_angle_gamma   90.32538021
_symmetry_Int_Tables_number   1
_chemical_formula_structural   GdYScSbO7
_chemical_formula_sum   'Gd2 Y2 Sc2 Sb2 O14'
_cell_volume   287.77303389
_cell_formula_units_Z   2
loop_
 _symmetry_equiv_pos_site_id
 _symmetry_equiv_pos_as_xyz
  1  'x, y, z'
loop_
 _atom_site_type_symbol
 _atom_site_label
 _atom_site_symmetry_multiplicity
 _atom_site_fract_x
 _atom_site_fract_y
 _atom_site_fract_z
 _atom_site_occupancy
  Gd  Gd0  1  0.00000000  0.50000000  0.50000000  1
  Gd  Gd1  1  0.50000000  0.50000000  0.00000000  1
  Y  Y2  1  0.00000000  0.50000000  0.00000000  1
  Y  Y3  1  0.00000000  0.00000000  0.50000000  1
  Sc  Sc4  1  0.50000000  0.00000000  0.00000000  1
  Sc  Sc5  1  0.50000000  0.50000000  0.50000000  1
  Sb  Sb6  1  0.50000000  0.00000000  0.50000000  1
  Sb  Sb7  1  0.00000000  0.00000000  0.00000000  1
  O  O8  1  0.88172600  0.63172600  0.25000000  1
  O  O9  1  0.11827400  0.36827400  0.75000000  1
  O  O10  1  0.82365900  0.07365900  0.75000000  1
  O  O11  1  0.40227700  0.65227700  0.75000000  1
  O  O12  1  0.84432600  0.67421300  0.77047100  1
  O  O13  1  0.40374200  0.07385500  0.72952900  1
  O  O14  1  0.84432600  0.07385500  0.17011200  1
  O  O15  1  0.40374200  0.67421300  0.32988800  1
  O  O16  1  0.17634100  0.92634100  0.25000000  1
  O  O17  1  0.59772300  0.34772300  0.25000000  1
  O  O18  1  0.15567400  0.32578700  0.22952900  1
  O  O19  1  0.59625800  0.92614500  0.27047100  1
  O  O20  1  0.15567400  0.92614500  0.82988800  1
  O  O21  1  0.59625800  0.32578700  0.67011200  1
