# generated using pymatgen
data_Nb3Ag2TeS6
_symmetry_space_group_name_H-M   'P 1'
_cell_length_a   5.78962807
_cell_length_b   5.78962807
_cell_length_c   8.30216100
_cell_angle_alpha   90.00000000
_cell_angle_beta   90.00000000
_cell_angle_gamma   120.09955282
_symmetry_Int_Tables_number   1
_chemical_formula_structural   Nb3Ag2TeS6
_chemical_formula_sum   'Nb3 Ag2 Te1 S6'
_cell_volume   240.76124021
_cell_formula_units_Z   1
loop_
 _symmetry_equiv_pos_site_id
 _symmetry_equiv_pos_as_xyz
  1  'x, y, z'
loop_
 _atom_site_type_symbol
 _atom_site_label
 _atom_site_symmetry_multiplicity
 _atom_site_fract_x
 _atom_site_fract_y
 _atom_site_fract_z
 _atom_site_occupancy
  Nb  Nb0  1  0.69537600  0.03417800  0.50000000  1
  Nb  Nb1  1  0.03417800  0.69537600  0.50000000  1
  Nb  Nb2  1  0.37188300  0.37188300  0.50000000  1
  Ag  Ag3  1  0.35129100  0.66705700  0.00000000  1
  Ag  Ag4  1  0.66705700  0.35129100  0.00000000  1
  Te  Te5  1  0.03549400  0.03549400  0.00000000  1
  S  S6  1  0.69980600  0.36684700  0.69182300  1
  S  S7  1  0.36684700  0.69980600  0.30817700  1
  S  S8  1  0.69980600  0.36684700  0.30817700  1
  S  S9  1  0.36684700  0.69980600  0.69182300  1
  S  S10  1  0.03415800  0.03415800  0.31675800  1
  S  S11  1  0.03415800  0.03415800  0.68324200  1
