# generated using pymatgen
data_Er5(SiSb)2
_symmetry_space_group_name_H-M   'P 1'
_cell_length_a   8.44853108
_cell_length_b   8.44853108
_cell_length_c   7.79762100
_cell_angle_alpha   90.00000000
_cell_angle_beta   90.00000000
_cell_angle_gamma   125.17728422
_symmetry_Int_Tables_number   1
_chemical_formula_structural   Er5(SiSb)2
_chemical_formula_sum   'Er10 Si4 Sb4'
_cell_volume   454.93046321
_cell_formula_units_Z   2
loop_
 _symmetry_equiv_pos_site_id
 _symmetry_equiv_pos_as_xyz
  1  'x, y, z'
loop_
 _atom_site_type_symbol
 _atom_site_label
 _atom_site_symmetry_multiplicity
 _atom_site_fract_x
 _atom_site_fract_y
 _atom_site_fract_z
 _atom_site_occupancy
  Er  Er0  1  0.03865600  0.29029100  0.33634300  1
  Er  Er1  1  0.96134400  0.70970900  0.66365700  1
  Er  Er2  1  0.46134400  0.20970900  0.83634300  1
  Er  Er3  1  0.79029100  0.53865600  0.16365700  1
  Er  Er4  1  0.53865600  0.79029100  0.16365700  1
  Er  Er5  1  0.20970900  0.46134400  0.83634300  1
  Er  Er6  1  0.70970900  0.96134400  0.66365700  1
  Er  Er7  1  0.29029100  0.03865600  0.33634300  1
  Er  Er8  1  0.00000000  0.00000000  0.00000000  1
  Er  Er9  1  0.50000000  0.50000000  0.50000000  1
  Si  Si10  1  0.36484400  0.36484400  0.13410200  1
  Si  Si11  1  0.63515600  0.63515600  0.86589800  1
  Si  Si12  1  0.13515600  0.13515600  0.63410200  1
  Si  Si13  1  0.86484400  0.86484400  0.36589800  1
  Sb  Sb14  1  0.79455000  0.20545000  0.00000000  1
  Sb  Sb15  1  0.20545100  0.79455000  0.00000000  1
  Sb  Sb16  1  0.70545000  0.29455000  0.50000000  1
  Sb  Sb17  1  0.29455000  0.70545000  0.50000000  1
