# generated using pymatgen
data_TbMg149
_symmetry_space_group_name_H-M   'P 1'
_cell_length_a   15.99246199
_cell_length_b   15.99246813
_cell_length_c   15.62167087
_cell_angle_alpha   90.00000000
_cell_angle_beta   90.00000000
_cell_angle_gamma   120.00001272
_symmetry_Int_Tables_number   1
_chemical_formula_structural   TbMg149
_chemical_formula_sum   'Tb1 Mg149'
_cell_volume   3460.10183443
_cell_formula_units_Z   1
loop_
 _symmetry_equiv_pos_site_id
 _symmetry_equiv_pos_as_xyz
  1  'x, y, z'
loop_
 _atom_site_type_symbol
 _atom_site_label
 _atom_site_symmetry_multiplicity
 _atom_site_fract_x
 _atom_site_fract_y
 _atom_site_fract_z
 _atom_site_occupancy
  Tb  Tb0  1  0.00000000  0.00000000  -0.00000000  1
  Mg  Mg1  1  0.60005226  0.20010352  -0.00000000  1
  Mg  Mg2  1  0.79940940  0.20059060  -0.00000000  1
  Mg  Mg3  1  0.40118120  0.20059060  -0.00000000  1
  Mg  Mg4  1  0.20205998  0.20497178  -0.00000000  1
  Mg  Mg5  1  0.00291180  0.20497178  -0.00000000  1
  Mg  Mg6  1  0.00015827  0.40017291  -0.00000000  1
  Mg  Mg7  1  0.40001464  0.40017291  -0.00000000  1
  Mg  Mg8  1  0.79989648  0.39994874  -0.00000000  1
  Mg  Mg9  1  0.60005226  0.39994874  -0.00000000  1
  Mg  Mg10  1  0.20158012  0.40315925  -0.00000000  1
  Mg  Mg11  1  0.79940940  0.59881880  -0.00000000  1
  Mg  Mg12  1  0.00015827  0.59998536  -0.00000000  1
  Mg  Mg13  1  0.59982809  0.59998636  -0.00000000  1
  Mg  Mg14  1  0.39974509  0.60025491  -0.00000000  1
  Mg  Mg15  1  0.20050983  0.60025491  -0.00000000  1
  Mg  Mg16  1  0.59684075  0.79841988  -0.00000000  1
  Mg  Mg17  1  0.20158012  0.79842088  -0.00000000  1
  Mg  Mg18  1  0.79502822  0.79794002  -0.00000000  1
  Mg  Mg19  1  0.00291180  0.79794002  -0.00000000  1
  Mg  Mg20  1  0.39974509  0.79949017  -0.00000000  1
  Mg  Mg21  1  0.20205998  0.99708820  -0.00000000  1
  Mg  Mg22  1  0.79502822  0.99708820  -0.00000000  1
  Mg  Mg23  1  0.40001464  0.99984173  -0.00000000  1
  Mg  Mg24  1  0.59982809  0.99984173  -0.00000000  1
  Mg  Mg25  1  0.26383275  0.13191637  0.16463697  1
  Mg  Mg26  1  0.86808363  0.13191637  0.16463697  1
  Mg  Mg27  1  0.86808363  0.73616725  0.16463697  1
  Mg  Mg28  1  0.66666700  0.33333300  0.16610712  1
  Mg  Mg29  1  0.46559821  0.13296561  0.16651697  1
  Mg  Mg30  1  0.66736740  0.13296561  0.16651697  1
  Mg  Mg31  1  0.46559821  0.33263260  0.16651697  1
  Mg  Mg32  1  0.86703439  0.33263360  0.16651697  1
  Mg  Mg33  1  0.66736740  0.53440079  0.16651697  1
  Mg  Mg34  1  0.86703439  0.53440079  0.16651697  1
  Mg  Mg35  1  0.06671089  0.53335544  0.16726756  1
  Mg  Mg36  1  0.46664456  0.53335544  0.16726756  1
  Mg  Mg37  1  0.46664456  0.93328911  0.16726756  1
  Mg  Mg38  1  0.26714607  0.53429315  0.16734837  1
  Mg  Mg39  1  0.46570685  0.73285293  0.16734837  1
  Mg  Mg40  1  0.26714607  0.73285393  0.16734837  1
  Mg  Mg41  1  0.26759427  0.33561455  0.16767513  1
  Mg  Mg42  1  0.06802028  0.33561455  0.16767513  1
  Mg  Mg43  1  0.66438545  0.73240573  0.16767513  1
  Mg  Mg44  1  0.06802028  0.73240573  0.16767513  1
  Mg  Mg45  1  0.66438545  0.93197972  0.16767513  1
  Mg  Mg46  1  0.26759427  0.93197972  0.16767513  1
  Mg  Mg47  1  0.06795233  0.13590467  0.16965930  1
  Mg  Mg48  1  0.86409533  0.93204767  0.16965930  1
  Mg  Mg49  1  0.06795233  0.93204767  0.16965930  1
  Mg  Mg50  1  0.39970765  0.19985333  0.33280663  1
  Mg  Mg51  1  0.80014667  0.19985433  0.33280663  1
  Mg  Mg52  1  0.80014667  0.60029235  0.33280663  1
  Mg  Mg53  1  0.59999020  0.19998040  0.33276850  1
  Mg  Mg54  1  0.80001960  0.40000980  0.33276850  1
  Mg  Mg55  1  0.59999020  0.40000980  0.33276850  1
  Mg  Mg56  1  0.79944097  0.00000845  0.33346208  1
  Mg  Mg57  1  0.20056848  0.00000945  0.33346208  1
  Mg  Mg58  1  0.20056848  0.20056003  0.33346208  1
  Mg  Mg59  1  0.99999055  0.20056003  0.33346208  1
  Mg  Mg60  1  0.99999055  0.79943052  0.33346208  1
  Mg  Mg61  1  0.79944097  0.79943152  0.33346208  1
  Mg  Mg62  1  0.40046125  0.00018586  0.33375749  1
  Mg  Mg63  1  0.59972561  0.00018686  0.33375749  1
  Mg  Mg64  1  0.40046125  0.40027439  0.33375749  1
  Mg  Mg65  1  0.99981414  0.40027539  0.33375749  1
  Mg  Mg66  1  0.99981414  0.59953875  0.33375749  1
  Mg  Mg67  1  0.59972561  0.59953875  0.33375749  1
  Mg  Mg68  1  0.40007402  0.59992598  0.33369220  1
  Mg  Mg69  1  0.19985297  0.59992598  0.33369220  1
  Mg  Mg70  1  0.40007402  0.80014703  0.33369220  1
  Mg  Mg71  1  0.20021826  0.40043852  0.33413763  1
  Mg  Mg72  1  0.59956148  0.79978074  0.33413763  1
  Mg  Mg73  1  0.20021826  0.79978074  0.33413763  1
  Mg  Mg74  1  0.00000000  0.00000000  0.33465575  1
  Mg  Mg75  1  0.86642916  0.13357084  0.50000000  1
  Mg  Mg76  1  0.26714168  0.13357084  0.50000000  1
  Mg  Mg77  1  0.06679907  0.13359915  0.50000000  1
  Mg  Mg78  1  0.66712364  0.13415065  0.50000000  1
  Mg  Mg79  1  0.46702801  0.13415065  0.50000000  1
  Mg  Mg80  1  0.86584835  0.33287636  0.50000000  1
  Mg  Mg81  1  0.46702801  0.33287636  0.50000000  1
  Mg  Mg82  1  0.66666700  0.33333300  0.50000000  1
  Mg  Mg83  1  0.26677017  0.33359824  0.50000000  1
  Mg  Mg84  1  0.06682807  0.33359824  0.50000000  1
  Mg  Mg85  1  0.86584835  0.53297199  0.50000000  1
  Mg  Mg86  1  0.66712364  0.53297299  0.50000000  1
  Mg  Mg87  1  0.06607591  0.53303796  0.50000000  1
  Mg  Mg88  1  0.46696204  0.53303796  0.50000000  1
  Mg  Mg89  1  0.26676962  0.53353925  0.50000000  1
  Mg  Mg90  1  0.86642916  0.73285832  0.50000000  1
  Mg  Mg91  1  0.06682807  0.73322883  0.50000000  1
  Mg  Mg92  1  0.66640176  0.73322883  0.50000000  1
  Mg  Mg93  1  0.46646075  0.73323038  0.50000000  1
  Mg  Mg94  1  0.26676962  0.73323038  0.50000000  1
  Mg  Mg95  1  0.86640085  0.93319993  0.50000000  1
  Mg  Mg96  1  0.06679907  0.93319993  0.50000000  1
  Mg  Mg97  1  0.26677017  0.93317193  0.50000000  1
  Mg  Mg98  1  0.66640176  0.93317193  0.50000000  1
  Mg  Mg99  1  0.46696204  0.93392309  0.50000000  1
  Mg  Mg100  1  0.00000000  0.00000000  0.66534425  1
  Mg  Mg101  1  0.20021826  0.40043852  0.66586237  1
  Mg  Mg102  1  0.59956148  0.79978074  0.66586237  1
  Mg  Mg103  1  0.20021826  0.79978074  0.66586237  1
  Mg  Mg104  1  0.40007402  0.59992598  0.66630780  1
  Mg  Mg105  1  0.19985297  0.59992598  0.66630780  1
  Mg  Mg106  1  0.40007402  0.80014703  0.66630780  1
  Mg  Mg107  1  0.40046125  0.00018586  0.66624251  1
  Mg  Mg108  1  0.59972561  0.00018686  0.66624251  1
  Mg  Mg109  1  0.40046125  0.40027439  0.66624251  1
  Mg  Mg110  1  0.99981414  0.40027539  0.66624251  1
  Mg  Mg111  1  0.99981414  0.59953875  0.66624251  1
  Mg  Mg112  1  0.59972561  0.59953875  0.66624251  1
  Mg  Mg113  1  0.79944097  0.00000845  0.66653792  1
  Mg  Mg114  1  0.20056848  0.00000945  0.66653792  1
  Mg  Mg115  1  0.20056848  0.20056003  0.66653792  1
  Mg  Mg116  1  0.99999055  0.20056003  0.66653792  1
  Mg  Mg117  1  0.99999055  0.79943052  0.66653792  1
  Mg  Mg118  1  0.79944097  0.79943152  0.66653792  1
  Mg  Mg119  1  0.59999020  0.19998040  0.66723150  1
  Mg  Mg120  1  0.80001960  0.40000980  0.66723150  1
  Mg  Mg121  1  0.59999020  0.40000980  0.66723150  1
  Mg  Mg122  1  0.39970765  0.19985333  0.66719337  1
  Mg  Mg123  1  0.80014667  0.19985433  0.66719337  1
  Mg  Mg124  1  0.80014667  0.60029235  0.66719337  1
  Mg  Mg125  1  0.06795233  0.13590467  0.83034070  1
  Mg  Mg126  1  0.86409533  0.93204767  0.83034070  1
  Mg  Mg127  1  0.06795233  0.93204767  0.83034070  1
  Mg  Mg128  1  0.26759427  0.33561455  0.83232487  1
  Mg  Mg129  1  0.06802028  0.33561455  0.83232487  1
  Mg  Mg130  1  0.66438545  0.73240573  0.83232487  1
  Mg  Mg131  1  0.06802028  0.73240573  0.83232487  1
  Mg  Mg132  1  0.66438545  0.93197972  0.83232487  1
  Mg  Mg133  1  0.26759427  0.93197972  0.83232487  1
  Mg  Mg134  1  0.26714607  0.53429315  0.83265163  1
  Mg  Mg135  1  0.46570685  0.73285293  0.83265163  1
  Mg  Mg136  1  0.26714607  0.73285393  0.83265163  1
  Mg  Mg137  1  0.06671089  0.53335544  0.83273244  1
  Mg  Mg138  1  0.46664456  0.53335544  0.83273244  1
  Mg  Mg139  1  0.46664456  0.93328911  0.83273244  1
  Mg  Mg140  1  0.46559821  0.13296561  0.83348303  1
  Mg  Mg141  1  0.66736740  0.13296561  0.83348303  1
  Mg  Mg142  1  0.46559821  0.33263260  0.83348303  1
  Mg  Mg143  1  0.86703439  0.33263360  0.83348303  1
  Mg  Mg144  1  0.66736740  0.53440079  0.83348303  1
  Mg  Mg145  1  0.86703439  0.53440079  0.83348303  1
  Mg  Mg146  1  0.66666700  0.33333300  0.83389288  1
  Mg  Mg147  1  0.26383275  0.13191637  0.83536303  1
  Mg  Mg148  1  0.86808363  0.13191637  0.83536303  1
  Mg  Mg149  1  0.86808363  0.73616725  0.83536303  1
