# generated using pymatgen
data_YMnO3
_symmetry_space_group_name_H-M   'P 1'
_cell_length_a   6.23302166
_cell_length_b   6.23302166
_cell_length_c   11.58909000
_cell_angle_alpha   90.00000000
_cell_angle_beta   90.00000000
_cell_angle_gamma   119.99999638
_symmetry_Int_Tables_number   1
_chemical_formula_structural   YMnO3
_chemical_formula_sum   'Y6 Mn6 O18'
_cell_volume   389.92156514
_cell_formula_units_Z   6
loop_
 _symmetry_equiv_pos_site_id
 _symmetry_equiv_pos_as_xyz
  1  'x, y, z'
loop_
 _atom_site_type_symbol
 _atom_site_label
 _atom_site_symmetry_multiplicity
 _atom_site_fract_x
 _atom_site_fract_y
 _atom_site_fract_z
 _atom_site_occupancy
  Y  Y0  1  0.66666700  0.33333300  0.23304500  1
  Y  Y1  1  0.33333300  0.66666700  0.73304500  1
  Y  Y2  1  0.66666700  0.33333300  0.73304500  1
  Y  Y3  1  0.33333300  0.66666700  0.23304500  1
  Y  Y4  1  0.00000000  0.00000000  0.77597800  1
  Y  Y5  1  0.00000000  0.00000000  0.27597800  1
  Mn  Mn6  1  0.66639900  0.00000000  0.50137500  1
  Mn  Mn7  1  0.66639900  0.66639900  0.00137500  1
  Mn  Mn8  1  0.00000000  0.33360100  0.00137500  1
  Mn  Mn9  1  0.00000000  0.66639900  0.50137500  1
  Mn  Mn10  1  0.33360100  0.33360100  0.50137500  1
  Mn  Mn11  1  0.33360100  0.00000000  0.00137500  1
  O  O12  1  0.66666700  0.33333300  0.02122200  1
  O  O13  1  0.33333300  0.66666700  0.52122200  1
  O  O14  1  0.66666700  0.33333300  0.52122200  1
  O  O15  1  0.33333300  0.66666700  0.02122200  1
  O  O16  1  0.00000000  0.00000000  0.97754000  1
  O  O17  1  0.00000000  0.00000000  0.47754000  1
  O  O18  1  0.35859500  0.00000000  0.83727700  1
  O  O19  1  0.35859500  0.35859500  0.33727700  1
  O  O20  1  0.00000000  0.64140500  0.33727700  1
  O  O21  1  0.00000000  0.35859500  0.83727700  1
  O  O22  1  0.64140500  0.64140500  0.83727700  1
  O  O23  1  0.64140500  0.00000000  0.33727700  1
  O  O24  1  0.30771500  0.00000000  0.16566400  1
  O  O25  1  0.30771500  0.30771500  0.66566400  1
  O  O26  1  0.00000000  0.69228500  0.66566400  1
  O  O27  1  0.00000000  0.30771500  0.16566400  1
  O  O28  1  0.69228500  0.69228500  0.16566400  1
  O  O29  1  0.69228500  0.00000000  0.66566400  1
