# generated using pymatgen
data_Cs2ZnGe3Se8
_symmetry_space_group_name_H-M   'P 1'
_cell_length_a   7.80076800
_cell_length_b   13.77594700
_cell_length_c   18.02940100
_cell_angle_alpha   90.00000000
_cell_angle_beta   90.00000000
_cell_angle_gamma   90.00000000
_symmetry_Int_Tables_number   1
_chemical_formula_structural   Cs2ZnGe3Se8
_chemical_formula_sum   'Cs8 Zn4 Ge12 Se32'
_cell_volume   1937.49291617
_cell_formula_units_Z   4
loop_
 _symmetry_equiv_pos_site_id
 _symmetry_equiv_pos_as_xyz
  1  'x, y, z'
loop_
 _atom_site_type_symbol
 _atom_site_label
 _atom_site_symmetry_multiplicity
 _atom_site_fract_x
 _atom_site_fract_y
 _atom_site_fract_z
 _atom_site_occupancy
  Cs  Cs0  1  0.75195500  0.62666000  0.05315600  1
  Cs  Cs1  1  0.74804500  0.37334000  0.55315600  1
  Cs  Cs2  1  0.25195500  0.87334000  0.94684400  1
  Cs  Cs3  1  0.24804500  0.12666000  0.44684400  1
  Cs  Cs4  1  0.25433000  0.80936100  0.34711400  1
  Cs  Cs5  1  0.24567000  0.19063900  0.84711400  1
  Cs  Cs6  1  0.75433000  0.69063900  0.65288600  1
  Cs  Cs7  1  0.74567000  0.30936100  0.15288600  1
  Zn  Zn8  1  0.99268700  0.49745800  0.34822800  1
  Zn  Zn9  1  0.50731300  0.50254200  0.84822800  1
  Zn  Zn10  1  0.49268700  0.00254200  0.65177200  1
  Zn  Zn11  1  0.00731300  0.99745800  0.15177200  1
  Ge  Ge12  1  0.76470400  0.04480200  0.32154900  1
  Ge  Ge13  1  0.73529600  0.95519800  0.82154900  1
  Ge  Ge14  1  0.26470400  0.45519800  0.67845100  1
  Ge  Ge15  1  0.23529600  0.54480200  0.17845100  1
  Ge  Ge16  1  0.73680800  0.94552900  0.48289100  1
  Ge  Ge17  1  0.76319200  0.05447100  0.98289100  1
  Ge  Ge18  1  0.23680800  0.55447100  0.51710900  1
  Ge  Ge19  1  0.26319200  0.44552900  0.01710900  1
  Ge  Ge20  1  0.51564100  0.98062900  0.15254700  1
  Ge  Ge21  1  0.98435900  0.01937100  0.65254700  1
  Ge  Ge22  1  0.01564100  0.51937100  0.84745300  1
  Ge  Ge23  1  0.48435900  0.48062900  0.34745300  1
  Se  Se24  1  0.99068100  0.60380200  0.23636800  1
  Se  Se25  1  0.50931900  0.39619800  0.73636800  1
  Se  Se26  1  0.49068100  0.89619800  0.76363200  1
  Se  Se27  1  0.00931900  0.10380200  0.26363200  1
  Se  Se28  1  0.98712600  0.60683700  0.45910000  1
  Se  Se29  1  0.51287400  0.39316300  0.95910000  1
  Se  Se30  1  0.48712600  0.89316300  0.54090000  1
  Se  Se31  1  0.01287400  0.10683700  0.04090000  1
  Se  Se32  1  0.76101200  0.88205900  0.15450500  1
  Se  Se33  1  0.73898800  0.11794100  0.65450500  1
  Se  Se34  1  0.26101200  0.61794100  0.84549500  1
  Se  Se35  1  0.23898800  0.38205900  0.34549500  1
  Se  Se36  1  0.76447200  0.61433300  0.84986700  1
  Se  Se37  1  0.73552800  0.38566700  0.34986700  1
  Se  Se38  1  0.26447200  0.88566700  0.15013300  1
  Se  Se39  1  0.23552800  0.11433300  0.65013300  1
  Se  Se40  1  0.76425700  0.87626700  0.36034000  1
  Se  Se41  1  0.73574300  0.12373300  0.86034000  1
  Se  Se42  1  0.26425700  0.62373300  0.63966000  1
  Se  Se43  1  0.23574300  0.37626700  0.13966000  1
  Se  Se44  1  0.74011300  0.11437700  0.44474200  1
  Se  Se45  1  0.75988700  0.88562300  0.94474200  1
  Se  Se46  1  0.24011300  0.38562300  0.55525800  1
  Se  Se47  1  0.25988700  0.61437700  0.05525800  1
  Se  Se48  1  0.49668000  0.58805700  0.24002900  1
  Se  Se49  1  0.00332000  0.41194300  0.74002900  1
  Se  Se50  1  0.99668000  0.91194300  0.75997100  1
  Se  Se51  1  0.50332000  0.08805700  0.25997100  1
  Se  Se52  1  0.49485800  0.59455900  0.45142600  1
  Se  Se53  1  0.00514200  0.40544100  0.95142600  1
  Se  Se54  1  0.99485800  0.90544100  0.54857400  1
  Se  Se55  1  0.50514200  0.09455900  0.04857400  1
