# generated using pymatgen
data_FeF3
_symmetry_space_group_name_H-M   'P 1'
_cell_length_a   7.43733418
_cell_length_b   7.43733418
_cell_length_c   7.62287600
_cell_angle_alpha   90.00000000
_cell_angle_beta   90.00000000
_cell_angle_gamma   119.53621175
_symmetry_Int_Tables_number   1
_chemical_formula_structural   FeF3
_chemical_formula_sum   'Fe6 F18'
_cell_volume   366.85531427
_cell_formula_units_Z   6
loop_
 _symmetry_equiv_pos_site_id
 _symmetry_equiv_pos_as_xyz
  1  'x, y, z'
loop_
 _atom_site_type_symbol
 _atom_site_label
 _atom_site_symmetry_multiplicity
 _atom_site_fract_x
 _atom_site_fract_y
 _atom_site_fract_z
 _atom_site_occupancy
  Fe  Fe0  1  0.00000000  0.50000000  0.50000000  1
  Fe  Fe1  1  0.00000000  0.50000000  0.00000000  1
  Fe  Fe2  1  0.50000000  0.00000000  0.50000000  1
  Fe  Fe3  1  0.50000000  0.00000000  0.00000000  1
  Fe  Fe4  1  0.50000000  0.50000000  0.50000000  1
  Fe  Fe5  1  0.50000000  0.50000000  0.00000000  1
  F  F6  1  0.79009500  0.58328800  0.04437400  1
  F  F7  1  0.20990500  0.41671200  0.95562600  1
  F  F8  1  0.20990500  0.41671200  0.54437400  1
  F  F9  1  0.79009500  0.58328800  0.45562600  1
  F  F10  1  0.58328800  0.79009500  0.95562600  1
  F  F11  1  0.41671200  0.20990500  0.04437400  1
  F  F12  1  0.41671200  0.20990500  0.45562600  1
  F  F13  1  0.58328800  0.79009500  0.54437400  1
  F  F14  1  0.78504400  0.21495600  0.54777700  1
  F  F15  1  0.21495600  0.78504400  0.45222300  1
  F  F16  1  0.21495600  0.78504400  0.04777700  1
  F  F17  1  0.78504400  0.21495600  0.95222300  1
  F  F18  1  0.99433700  0.43019000  0.25000000  1
  F  F19  1  0.00566300  0.56981000  0.75000000  1
  F  F20  1  0.43019000  0.99433700  0.75000000  1
  F  F21  1  0.56981000  0.00566300  0.25000000  1
  F  F22  1  0.53830500  0.46169500  0.75000000  1
  F  F23  1  0.46169500  0.53830500  0.25000000  1
