# generated using pymatgen
data_B5Pb2IO9
_symmetry_space_group_name_H-M   'P 1'
_cell_length_a   6.58680900
_cell_length_b   11.69691100
_cell_length_c   11.83889700
_cell_angle_alpha   90.00000000
_cell_angle_beta   90.00000000
_cell_angle_gamma   90.00000000
_symmetry_Int_Tables_number   1
_chemical_formula_structural   B5Pb2IO9
_chemical_formula_sum   'B20 Pb8 I4 O36'
_cell_volume   912.13159179
_cell_formula_units_Z   4
loop_
 _symmetry_equiv_pos_site_id
 _symmetry_equiv_pos_as_xyz
  1  'x, y, z'
loop_
 _atom_site_type_symbol
 _atom_site_label
 _atom_site_symmetry_multiplicity
 _atom_site_fract_x
 _atom_site_fract_y
 _atom_site_fract_z
 _atom_site_occupancy
  B  B0  1  0.74467200  0.76683000  0.45585200  1
  B  B1  1  0.74467200  0.23317000  0.54414800  1
  B  B2  1  0.24467200  0.73317000  0.95585200  1
  B  B3  1  0.24467200  0.26683000  0.04414800  1
  B  B4  1  0.58258100  0.00853200  0.25157600  1
  B  B5  1  0.58258100  0.99146800  0.74842400  1
  B  B6  1  0.08258100  0.49146800  0.75157600  1
  B  B7  1  0.08258100  0.50853200  0.24842400  1
  B  B8  1  0.70929600  0.20237000  0.32102800  1
  B  B9  1  0.70929600  0.79763000  0.67897200  1
  B  B10  1  0.20929600  0.29763000  0.82102800  1
  B  B11  1  0.20929600  0.70237000  0.17897200  1
  B  B12  1  0.52481000  0.78496400  0.28715200  1
  B  B13  1  0.52481000  0.21503600  0.71284800  1
  B  B14  1  0.02481000  0.71503600  0.78715200  1
  B  B15  1  0.02481000  0.28496400  0.21284800  1
  B  B16  1  0.85794800  0.68010300  0.27016000  1
  B  B17  1  0.85794800  0.31989700  0.72984000  1
  B  B18  1  0.35794800  0.81989700  0.77016000  1
  B  B19  1  0.35794800  0.18010300  0.22984000  1
  Pb  Pb20  1  0.71376200  0.76852800  0.03529600  1
  Pb  Pb21  1  0.71376200  0.23147200  0.96470400  1
  Pb  Pb22  1  0.21376200  0.73147200  0.53529600  1
  Pb  Pb23  1  0.21376200  0.26852800  0.46470400  1
  Pb  Pb24  1  0.56034200  0.54962100  0.76215400  1
  Pb  Pb25  1  0.56034200  0.45037900  0.23784600  1
  Pb  Pb26  1  0.06034200  0.95037900  0.26215400  1
  Pb  Pb27  1  0.06034200  0.04962100  0.73784600  1
  I  I28  1  0.76120500  0.50000000  0.00000000  1
  I  I29  1  0.26120500  0.00000000  0.50000000  1
  I  I30  1  0.49901700  0.50000000  0.50000000  1
  I  I31  1  0.99901700  0.00000000  0.00000000  1
  O  O32  1  0.73456400  0.07792500  0.29235000  1
  O  O33  1  0.73456400  0.92207500  0.70765000  1
  O  O34  1  0.23456400  0.42207500  0.79235000  1
  O  O35  1  0.23456400  0.57792500  0.20765000  1
  O  O36  1  0.55239800  0.78617300  0.41370900  1
  O  O37  1  0.55239800  0.21382700  0.58629100  1
  O  O38  1  0.05239800  0.71382700  0.91370900  1
  O  O39  1  0.05239800  0.28617300  0.08629100  1
  O  O40  1  0.89951500  0.73728500  0.38068400  1
  O  O41  1  0.89951500  0.26271500  0.61931600  1
  O  O42  1  0.39951500  0.76271500  0.88068400  1
  O  O43  1  0.39951500  0.23728500  0.11931600  1
  O  O44  1  0.62256500  0.89324000  0.23873700  1
  O  O45  1  0.62256500  0.10676000  0.76126300  1
  O  O46  1  0.12256500  0.60676000  0.73873700  1
  O  O47  1  0.12256500  0.39324000  0.26126300  1
  O  O48  1  0.98867800  0.73081600  0.18069300  1
  O  O49  1  0.98867800  0.26918400  0.81930700  1
  O  O50  1  0.48867800  0.76918400  0.68069300  1
  O  O51  1  0.48867800  0.23081600  0.31930700  1
  O  O52  1  0.80224700  0.22387700  0.43339200  1
  O  O53  1  0.80224700  0.77612300  0.56660800  1
  O  O54  1  0.30224700  0.27612300  0.93339200  1
  O  O55  1  0.30224700  0.72387700  0.06660800  1
  O  O56  1  0.64382200  0.69054300  0.23684600  1
  O  O57  1  0.64382200  0.30945700  0.76315400  1
  O  O58  1  0.14382200  0.80945700  0.73684600  1
  O  O59  1  0.14382200  0.19054300  0.26315400  1
  O  O60  1  0.80938600  0.72327600  0.76351500  1
  O  O61  1  0.80938600  0.27672400  0.23648500  1
  O  O62  1  0.30938600  0.77672400  0.26351500  1
  O  O63  1  0.30938600  0.22327600  0.73648500  1
  O  O64  1  0.89885300  0.55462000  0.28128300  1
  O  O65  1  0.89885300  0.44538000  0.71871700  1
  O  O66  1  0.39885300  0.94538000  0.78128300  1
  O  O67  1  0.39885300  0.05462000  0.21871700  1
