# generated using pymatgen
data_Y15Ni32
_symmetry_space_group_name_H-M   'P 1'
_cell_length_a   10.17308304
_cell_length_b   10.17308304
_cell_length_c   10.17308304
_cell_angle_alpha   60.00000000
_cell_angle_beta   60.00000000
_cell_angle_gamma   60.00000000
_symmetry_Int_Tables_number   1
_chemical_formula_structural   Y15Ni32
_chemical_formula_sum   'Y15 Ni32'
_cell_volume   744.46240367
_cell_formula_units_Z   1
loop_
 _symmetry_equiv_pos_site_id
 _symmetry_equiv_pos_as_xyz
  1  'x, y, z'
loop_
 _atom_site_type_symbol
 _atom_site_label
 _atom_site_symmetry_multiplicity
 _atom_site_fract_x
 _atom_site_fract_y
 _atom_site_fract_z
 _atom_site_occupancy
  Y  Y0  1  0.50000000  0.50000000  0.50000000  1
  Y  Y1  1  0.09617900  0.09617900  0.71146300  1
  Y  Y2  1  0.09617900  0.71146300  0.09617900  1
  Y  Y3  1  0.71146300  0.09617900  0.09617900  1
  Y  Y4  1  0.09617900  0.09617900  0.09617900  1
  Y  Y5  1  0.62683900  0.62683900  0.11948300  1
  Y  Y6  1  0.62683900  0.11948300  0.62683900  1
  Y  Y7  1  0.11948300  0.62683900  0.62683900  1
  Y  Y8  1  0.62683900  0.62683900  0.62683900  1
  Y  Y9  1  0.01511300  0.01511300  0.48488700  1
  Y  Y10  1  0.48488700  0.01511300  0.48488700  1
  Y  Y11  1  0.01511300  0.48488700  0.48488700  1
  Y  Y12  1  0.48488700  0.48488700  0.01511300  1
  Y  Y13  1  0.01511300  0.48488700  0.01511300  1
  Y  Y14  1  0.48488700  0.01511300  0.01511300  1
  Ni  Ni15  1  0.31142300  0.31142300  0.06573100  1
  Ni  Ni16  1  0.31142300  0.06573100  0.31142300  1
  Ni  Ni17  1  0.06573100  0.31142300  0.31142300  1
  Ni  Ni18  1  0.31142300  0.31142300  0.31142300  1
  Ni  Ni19  1  0.81140600  0.81140600  0.56578200  1
  Ni  Ni20  1  0.81140600  0.56578200  0.81140600  1
  Ni  Ni21  1  0.56578200  0.81140600  0.81140600  1
  Ni  Ni22  1  0.81140600  0.81140600  0.81140600  1
  Ni  Ni23  1  0.80696000  0.32733400  0.05874500  1
  Ni  Ni24  1  0.80696000  0.80696000  0.05874500  1
  Ni  Ni25  1  0.32733400  0.80696000  0.05874500  1
  Ni  Ni26  1  0.80696000  0.05874500  0.32733400  1
  Ni  Ni27  1  0.32733400  0.05874500  0.80696000  1
  Ni  Ni28  1  0.80696000  0.05874500  0.80696000  1
  Ni  Ni29  1  0.05874500  0.80696000  0.80696000  1
  Ni  Ni30  1  0.05874500  0.32733400  0.80696000  1
  Ni  Ni31  1  0.05874500  0.80696000  0.32733400  1
  Ni  Ni32  1  0.32733400  0.80696000  0.80696000  1
  Ni  Ni33  1  0.80696000  0.80696000  0.32733400  1
  Ni  Ni34  1  0.80696000  0.32733400  0.80696000  1
  Ni  Ni35  1  0.31216000  0.81261000  0.56307000  1
  Ni  Ni36  1  0.31216000  0.31216000  0.56307000  1
  Ni  Ni37  1  0.81261000  0.31216000  0.56307000  1
  Ni  Ni38  1  0.31216000  0.56307000  0.81261000  1
  Ni  Ni39  1  0.81261000  0.56307000  0.31216000  1
  Ni  Ni40  1  0.31216000  0.56307000  0.31216000  1
  Ni  Ni41  1  0.56307000  0.31216000  0.31216000  1
  Ni  Ni42  1  0.56307000  0.81261000  0.31216000  1
  Ni  Ni43  1  0.56307000  0.31216000  0.81261000  1
  Ni  Ni44  1  0.81261000  0.31216000  0.31216000  1
  Ni  Ni45  1  0.31216000  0.31216000  0.81261000  1
  Ni  Ni46  1  0.31216000  0.81261000  0.31216000  1
