# generated using pymatgen
data_Li2Ti2(PO4)3
_symmetry_space_group_name_H-M   'P 1'
_cell_length_a   8.68036700
_cell_length_b   8.76773200
_cell_length_c   12.15972600
_cell_angle_alpha   90.00000000
_cell_angle_beta   90.00000000
_cell_angle_gamma   90.00000000
_symmetry_Int_Tables_number   1
_chemical_formula_structural   Li2Ti2(PO4)3
_chemical_formula_sum   'Li8 Ti8 P12 O48'
_cell_volume   925.44186590
_cell_formula_units_Z   4
loop_
 _symmetry_equiv_pos_site_id
 _symmetry_equiv_pos_as_xyz
  1  'x, y, z'
loop_
 _atom_site_type_symbol
 _atom_site_label
 _atom_site_symmetry_multiplicity
 _atom_site_fract_x
 _atom_site_fract_y
 _atom_site_fract_z
 _atom_site_occupancy
  Li  Li0  1  0.71426300  0.72005900  0.18121600  1
  Li  Li1  1  0.78573700  0.22005900  0.31878400  1
  Li  Li2  1  0.78573700  0.27994100  0.68121600  1
  Li  Li3  1  0.71426300  0.77994100  0.81878400  1
  Li  Li4  1  0.28573700  0.27994100  0.81878400  1
  Li  Li5  1  0.21426300  0.77994100  0.68121600  1
  Li  Li6  1  0.21426300  0.72005900  0.31878400  1
  Li  Li7  1  0.28573700  0.22005900  0.18121600  1
  Ti  Ti8  1  0.74741400  0.53835600  0.38806100  1
  Ti  Ti9  1  0.75258600  0.03835600  0.11193900  1
  Ti  Ti10  1  0.75258600  0.46164400  0.88806100  1
  Ti  Ti11  1  0.74741400  0.96164400  0.61193900  1
  Ti  Ti12  1  0.25258600  0.46164400  0.61193900  1
  Ti  Ti13  1  0.24741400  0.96164400  0.88806100  1
  Ti  Ti14  1  0.24741400  0.53835600  0.11193900  1
  Ti  Ti15  1  0.25258600  0.03835600  0.38806100  1
  P  P16  1  0.46055300  0.75000000  0.50000000  1
  P  P17  1  0.03944700  0.25000000  0.00000000  1
  P  P18  1  0.53944700  0.25000000  0.50000000  1
  P  P19  1  0.96055300  0.75000000  0.00000000  1
  P  P20  1  0.89552600  0.89402900  0.35255400  1
  P  P21  1  0.60447400  0.39402900  0.14744600  1
  P  P22  1  0.60447400  0.10597100  0.85255400  1
  P  P23  1  0.89552600  0.60597100  0.64744600  1
  P  P24  1  0.10447400  0.10597100  0.64744600  1
  P  P25  1  0.39552600  0.60597100  0.85255400  1
  P  P26  1  0.39552600  0.89402900  0.14744600  1
  P  P27  1  0.10447400  0.39402900  0.35255400  1
  O  O28  1  0.64651600  0.33727600  0.41968900  1
  O  O29  1  0.85348400  0.83727600  0.08031100  1
  O  O30  1  0.85348400  0.66272400  0.91968900  1
  O  O31  1  0.64651600  0.16272400  0.58031100  1
  O  O32  1  0.35348400  0.66272400  0.58031100  1
  O  O33  1  0.14651600  0.16272400  0.91968900  1
  O  O34  1  0.14651600  0.33727600  0.08031100  1
  O  O35  1  0.35348400  0.83727600  0.41968900  1
  O  O36  1  0.55886100  0.64074100  0.43064900  1
  O  O37  1  0.94113900  0.14074100  0.06935100  1
  O  O38  1  0.94113900  0.35925900  0.93064900  1
  O  O39  1  0.55886100  0.85925900  0.56935100  1
  O  O40  1  0.44113900  0.35925900  0.56935100  1
  O  O41  1  0.05886100  0.85925900  0.93064900  1
  O  O42  1  0.05886100  0.64074100  0.06935100  1
  O  O43  1  0.44113900  0.14074100  0.43064900  1
  O  O44  1  0.84401600  0.56144800  0.53035900  1
  O  O45  1  0.65598400  0.06144800  0.96964100  1
  O  O46  1  0.65598400  0.43855200  0.03035900  1
  O  O47  1  0.84401600  0.93855200  0.46964100  1
  O  O48  1  0.15598400  0.43855200  0.46964100  1
  O  O49  1  0.34401600  0.93855200  0.03035900  1
  O  O50  1  0.34401600  0.56144800  0.96964100  1
  O  O51  1  0.15598400  0.06144800  0.53035900  1
  O  O52  1  0.67301500  0.51323000  0.22777300  1
  O  O53  1  0.82698500  0.01323000  0.27222700  1
  O  O54  1  0.82698500  0.48677000  0.72777300  1
  O  O55  1  0.67301500  0.98677000  0.77222700  1
  O  O56  1  0.32698500  0.48677000  0.77222700  1
  O  O57  1  0.17301500  0.98677000  0.72777300  1
  O  O58  1  0.17301500  0.51323000  0.27222700  1
  O  O59  1  0.32698500  0.01323000  0.22777300  1
  O  O60  1  0.83705700  0.73189800  0.32230500  1
  O  O61  1  0.66294300  0.23189800  0.17769500  1
  O  O62  1  0.66294300  0.26810200  0.82230500  1
  O  O63  1  0.83705700  0.76810200  0.67769500  1
  O  O64  1  0.16294300  0.26810200  0.67769500  1
  O  O65  1  0.33705700  0.76810200  0.82230500  1
  O  O66  1  0.33705700  0.73189800  0.17769500  1
  O  O67  1  0.16294300  0.23189800  0.32230500  1
  O  O68  1  0.92690000  0.39522700  0.34410800  1
  O  O69  1  0.57310000  0.89522700  0.15589200  1
  O  O70  1  0.57310000  0.60477300  0.84410800  1
  O  O71  1  0.92690000  0.10477300  0.65589200  1
  O  O72  1  0.07310000  0.60477300  0.65589200  1
  O  O73  1  0.42690000  0.10477300  0.84410800  1
  O  O74  1  0.42690000  0.39522700  0.15589200  1
  O  O75  1  0.07310000  0.89522700  0.34410800  1
