# generated using pymatgen
data_Cs3ErCl6
_symmetry_space_group_name_H-M   'P 1'
_cell_length_a   14.12878174
_cell_length_b   14.12878174
_cell_length_c   13.22520703
_cell_angle_alpha   80.72538296
_cell_angle_beta   80.72538296
_cell_angle_gamma   34.81996500
_symmetry_Int_Tables_number   1
_chemical_formula_structural   Cs3ErCl6
_chemical_formula_sum   'Cs12 Er4 Cl24'
_cell_volume   1485.80820700
_cell_formula_units_Z   4
loop_
 _symmetry_equiv_pos_site_id
 _symmetry_equiv_pos_as_xyz
  1  'x, y, z'
loop_
 _atom_site_type_symbol
 _atom_site_label
 _atom_site_symmetry_multiplicity
 _atom_site_fract_x
 _atom_site_fract_y
 _atom_site_fract_z
 _atom_site_occupancy
  Cs  Cs0  1  0.30391900  0.79541800  0.06827100  1
  Cs  Cs1  1  0.69608100  0.20458200  0.93172900  1
  Cs  Cs2  1  0.20458200  0.69608100  0.43172900  1
  Cs  Cs3  1  0.79541800  0.30391900  0.56827100  1
  Cs  Cs4  1  0.46670500  0.84065400  0.35543000  1
  Cs  Cs5  1  0.53329500  0.15934600  0.64457000  1
  Cs  Cs6  1  0.15934600  0.53329500  0.14457000  1
  Cs  Cs7  1  0.84065400  0.46670500  0.85543000  1
  Cs  Cs8  1  0.65050700  0.02520700  0.29970600  1
  Cs  Cs9  1  0.34949300  0.97479300  0.70029400  1
  Cs  Cs10  1  0.97479300  0.34949300  0.20029400  1
  Cs  Cs11  1  0.02520700  0.65050700  0.79970600  1
  Er  Er12  1  0.78297100  0.21702900  0.25000000  1
  Er  Er13  1  0.21702900  0.78297100  0.75000000  1
  Er  Er14  1  0.50000000  0.00000000  0.00000000  1
  Er  Er15  1  0.00000000  0.50000000  0.50000000  1
  Cl  Cl16  1  0.61575800  0.73582800  0.07921900  1
  Cl  Cl17  1  0.38424200  0.26417200  0.92078100  1
  Cl  Cl18  1  0.26417200  0.38424200  0.42078100  1
  Cl  Cl19  1  0.73582800  0.61575800  0.57921900  1
  Cl  Cl20  1  0.50782700  0.38122800  0.18283300  1
  Cl  Cl21  1  0.49217300  0.61877200  0.81716700  1
  Cl  Cl22  1  0.61877200  0.49217300  0.31716700  1
  Cl  Cl23  1  0.38122800  0.50782700  0.68283300  1
  Cl  Cl24  1  0.76868000  0.87176100  0.03439300  1
  Cl  Cl25  1  0.23132000  0.12823900  0.96560700  1
  Cl  Cl26  1  0.12823900  0.23132000  0.46560700  1
  Cl  Cl27  1  0.87176100  0.76868000  0.53439300  1
  Cl  Cl28  1  0.92923000  0.95979400  0.69503200  1
  Cl  Cl29  1  0.07077000  0.04020600  0.30496800  1
  Cl  Cl30  1  0.04020600  0.07077000  0.80496800  1
  Cl  Cl31  1  0.95979400  0.92923000  0.19503200  1
  Cl  Cl32  1  0.71940900  0.16765600  0.43009000  1
  Cl  Cl33  1  0.28059100  0.83234400  0.56991000  1
  Cl  Cl34  1  0.83234400  0.28059100  0.06991000  1
  Cl  Cl35  1  0.16765600  0.71940900  0.93009000  1
  Cl  Cl36  1  0.36624400  0.13414800  0.17993200  1
  Cl  Cl37  1  0.63375600  0.86585200  0.82006800  1
  Cl  Cl38  1  0.86585200  0.63375600  0.32006800  1
  Cl  Cl39  1  0.13414800  0.36624400  0.67993200  1
