# generated using pymatgen
data_Nb3Te4ClO15
_symmetry_space_group_name_H-M   'P 1'
_cell_length_a   10.45851151
_cell_length_b   10.45851151
_cell_length_c   21.56382277
_cell_angle_alpha   65.59478135
_cell_angle_beta   65.59478135
_cell_angle_gamma   45.07489021
_symmetry_Int_Tables_number   1
_chemical_formula_structural   Nb3Te4ClO15
_chemical_formula_sum   'Nb12 Te16 Cl4 O60'
_cell_volume   1493.58112707
_cell_formula_units_Z   4
loop_
 _symmetry_equiv_pos_site_id
 _symmetry_equiv_pos_as_xyz
  1  'x, y, z'
loop_
 _atom_site_type_symbol
 _atom_site_label
 _atom_site_symmetry_multiplicity
 _atom_site_fract_x
 _atom_site_fract_y
 _atom_site_fract_z
 _atom_site_occupancy
  Nb  Nb0  1  0.13244800  0.37455100  0.25276700  1
  Nb  Nb1  1  0.62544900  0.86755200  0.24723300  1
  Nb  Nb2  1  0.86755200  0.62544900  0.74723300  1
  Nb  Nb3  1  0.37455100  0.13244800  0.75276700  1
  Nb  Nb4  1  0.74170400  0.01394500  0.48999700  1
  Nb  Nb5  1  0.98605500  0.25829600  0.01000300  1
  Nb  Nb6  1  0.25829600  0.98605500  0.51000300  1
  Nb  Nb7  1  0.01394500  0.74170400  0.98999700  1
  Nb  Nb8  1  0.48128900  0.76173300  0.00539900  1
  Nb  Nb9  1  0.23826700  0.51871100  0.49460100  1
  Nb  Nb10  1  0.51871100  0.23826700  0.99460100  1
  Nb  Nb11  1  0.76173300  0.48128900  0.50539900  1
  Te  Te12  1  0.22786900  0.12519800  0.14385800  1
  Te  Te13  1  0.87480200  0.77213100  0.35614200  1
  Te  Te14  1  0.77213100  0.87480200  0.85614200  1
  Te  Te15  1  0.12519800  0.22786900  0.64385800  1
  Te  Te16  1  0.39046800  0.26816100  0.37530700  1
  Te  Te17  1  0.73183900  0.60953200  0.12469300  1
  Te  Te18  1  0.60953200  0.73183900  0.62469300  1
  Te  Te19  1  0.26816100  0.39046800  0.87530700  1
  Te  Te20  1  0.12409900  0.01092700  0.36355600  1
  Te  Te21  1  0.98907300  0.87590100  0.13644400  1
  Te  Te22  1  0.87590100  0.98907300  0.63644400  1
  Te  Te23  1  0.01092700  0.12409900  0.86355600  1
  Te  Te24  1  0.50759600  0.39809300  0.12902500  1
  Te  Te25  1  0.60190700  0.49240400  0.37097500  1
  Te  Te26  1  0.49240400  0.60190700  0.87097500  1
  Te  Te27  1  0.39809300  0.50759600  0.62902500  1
  Cl  Cl28  1  0.45585800  0.54414200  0.25000000  1
  Cl  Cl29  1  0.54414200  0.45585800  0.75000000  1
  Cl  Cl30  1  0.95838400  0.04161600  0.25000000  1
  Cl  Cl31  1  0.04161600  0.95838400  0.75000000  1
  O  O32  1  0.36274300  0.19124500  0.07033900  1
  O  O33  1  0.80875500  0.63725700  0.42966100  1
  O  O34  1  0.63725700  0.80875500  0.92966100  1
  O  O35  1  0.19124500  0.36274300  0.57033900  1
  O  O36  1  0.07806000  0.34116300  0.18212100  1
  O  O37  1  0.65883700  0.92194000  0.31787900  1
  O  O38  1  0.92194000  0.65883700  0.81787900  1
  O  O39  1  0.34116300  0.07806000  0.68212100  1
  O  O40  1  0.05213300  0.23726000  0.09233500  1
  O  O41  1  0.76274000  0.94786700  0.40766500  1
  O  O42  1  0.94786700  0.76274000  0.90766500  1
  O  O43  1  0.23726000  0.05213300  0.59233500  1
  O  O44  1  0.22217900  0.34593700  0.32657700  1
  O  O45  1  0.65406300  0.77782100  0.17342300  1
  O  O46  1  0.77782100  0.65406300  0.67342300  1
  O  O47  1  0.34593700  0.22217900  0.82657700  1
  O  O48  1  0.36717800  0.09982700  0.44841600  1
  O  O49  1  0.90017300  0.63282200  0.05158400  1
  O  O50  1  0.63282200  0.90017300  0.55158400  1
  O  O51  1  0.09982700  0.36717800  0.94841600  1
  O  O52  1  0.19940900  0.47289600  0.42152400  1
  O  O53  1  0.52710400  0.80059100  0.07847600  1
  O  O54  1  0.80059100  0.52710400  0.57847600  1
  O  O55  1  0.47289600  0.19940900  0.92152400  1
  O  O56  1  0.01848500  0.26386400  0.32730000  1
  O  O57  1  0.73613600  0.98151500  0.17270000  1
  O  O58  1  0.98151500  0.73613600  0.67270000  1
  O  O59  1  0.26386400  0.01848500  0.82730000  1
  O  O60  1  0.23754500  0.96552400  0.42875600  1
  O  O61  1  0.03447600  0.76245500  0.07124400  1
  O  O62  1  0.76245500  0.03447600  0.57124400  1
  O  O63  1  0.96552400  0.23754500  0.92875600  1
  O  O64  1  0.90104800  0.08306500  0.42513800  1
  O  O65  1  0.91693500  0.09895200  0.07486200  1
  O  O66  1  0.09895200  0.91693500  0.57486200  1
  O  O67  1  0.08306500  0.90104800  0.92513800  1
  O  O68  1  0.29010600  0.42996000  0.18082600  1
  O  O69  1  0.57004000  0.70989400  0.31917400  1
  O  O70  1  0.70989400  0.57004000  0.81917400  1
  O  O71  1  0.42996000  0.29010600  0.68082600  1
  O  O72  1  0.52163400  0.33599400  0.05413400  1
  O  O73  1  0.66400600  0.47836600  0.44586600  1
  O  O74  1  0.47836600  0.66400600  0.94586600  1
  O  O75  1  0.33599400  0.52163400  0.55413400  1
  O  O76  1  0.36912900  0.65409000  0.08981200  1
  O  O77  1  0.34591000  0.63087100  0.41018800  1
  O  O78  1  0.63087100  0.34591000  0.91018800  1
  O  O79  1  0.65409000  0.36912900  0.58981200  1
  O  O80  1  0.00841000  0.74150400  0.49759700  1
  O  O81  1  0.25849600  0.99159000  0.00240300  1
  O  O82  1  0.99159000  0.25849600  0.50240300  1
  O  O83  1  0.74150400  0.00841000  0.99759700  1
  O  O84  1  0.92073800  0.61789900  0.25298800  1
  O  O85  1  0.38210100  0.07926200  0.24701200  1
  O  O86  1  0.07926200  0.38210100  0.74701200  1
  O  O87  1  0.61789900  0.92073800  0.75298800  1
  O  O88  1  0.52759700  0.25633100  0.46563800  1
  O  O89  1  0.74366900  0.47240300  0.03436200  1
  O  O90  1  0.47240300  0.74366900  0.53436200  1
  O  O91  1  0.25633100  0.52759700  0.96563800  1
