# generated using pymatgen
data_CaB4
_symmetry_space_group_name_H-M   'P 1'
_cell_length_a   7.15801300
_cell_length_b   7.15801300
_cell_length_c   4.10500400
_cell_angle_alpha   90.00000000
_cell_angle_beta   90.00000000
_cell_angle_gamma   90.00000000
_symmetry_Int_Tables_number   1
_chemical_formula_structural   CaB4
_chemical_formula_sum   'Ca4 B16'
_cell_volume   210.32870614
_cell_formula_units_Z   4
loop_
 _symmetry_equiv_pos_site_id
 _symmetry_equiv_pos_as_xyz
  1  'x, y, z'
loop_
 _atom_site_type_symbol
 _atom_site_label
 _atom_site_symmetry_multiplicity
 _atom_site_fract_x
 _atom_site_fract_y
 _atom_site_fract_z
 _atom_site_occupancy
  Ca  Ca0  1  0.68310200  0.18310200  0.50000000  1
  Ca  Ca1  1  0.31689800  0.81689800  0.50000000  1
  Ca  Ca2  1  0.18310200  0.31689800  0.50000000  1
  Ca  Ca3  1  0.81689800  0.68310200  0.50000000  1
  B  B4  1  0.00000000  0.00000000  0.29420000  1
  B  B5  1  0.00000000  0.00000000  0.70580000  1
  B  B6  1  0.50000000  0.50000000  0.70580000  1
  B  B7  1  0.50000000  0.50000000  0.29420000  1
  B  B8  1  0.17532900  0.03588900  0.00000000  1
  B  B9  1  0.82467100  0.96411100  0.00000000  1
  B  B10  1  0.03588900  0.82467100  0.00000000  1
  B  B11  1  0.67532900  0.46411100  0.00000000  1
  B  B12  1  0.96411100  0.17532900  0.00000000  1
  B  B13  1  0.32467100  0.53588900  0.00000000  1
  B  B14  1  0.53588900  0.67532900  0.00000000  1
  B  B15  1  0.46411100  0.32467100  0.00000000  1
  B  B16  1  0.08500200  0.58500200  0.00000000  1
  B  B17  1  0.91499800  0.41499800  0.00000000  1
  B  B18  1  0.58500200  0.91499800  0.00000000  1
  B  B19  1  0.41499800  0.08500200  0.00000000  1
