# generated using pymatgen
data_Rb2VAgSe4
_symmetry_space_group_name_H-M   'P 1'
_cell_length_a   14.16300263
_cell_length_b   12.63641405
_cell_length_c   7.69558378
_cell_angle_alpha   84.59784614
_cell_angle_beta   62.65417209
_cell_angle_gamma   32.74798177
_symmetry_Int_Tables_number   1
_chemical_formula_structural   Rb2VAgSe4
_chemical_formula_sum   'Rb4 V2 Ag2 Se8'
_cell_volume   525.34032611
_cell_formula_units_Z   2
loop_
 _symmetry_equiv_pos_site_id
 _symmetry_equiv_pos_as_xyz
  1  'x, y, z'
loop_
 _atom_site_type_symbol
 _atom_site_label
 _atom_site_symmetry_multiplicity
 _atom_site_fract_x
 _atom_site_fract_y
 _atom_site_fract_z
 _atom_site_occupancy
  Rb  Rb0  1  0.68091400  0.68091400  0.31908600  1
  Rb  Rb1  1  0.31908600  0.31908600  0.68091400  1
  Rb  Rb2  1  0.93091400  0.93091400  0.56908600  1
  Rb  Rb3  1  0.56908600  0.56908600  0.93091400  1
  V  V4  1  0.75000000  0.75000000  0.75000000  1
  V  V5  1  0.50000000  0.50000000  0.50000000  1
  Ag  Ag6  1  0.25000000  0.25000000  0.25000000  1
  Ag  Ag7  1  0.00000000  0.00000000  0.00000000  1
  Se  Se8  1  0.55336300  0.33438200  0.25036800  1
  Se  Se9  1  0.86188700  0.25036800  0.33438200  1
  Se  Se10  1  0.99963200  0.38811300  0.69663700  1
  Se  Se11  1  0.91561800  0.69663700  0.38811300  1
  Se  Se12  1  0.25036800  0.86188700  0.55336300  1
  Se  Se13  1  0.33438200  0.55336300  0.86188700  1
  Se  Se14  1  0.38811300  0.99963200  0.91561800  1
  Se  Se15  1  0.69663700  0.91561800  0.99963200  1
