# generated using pymatgen
data_TmCoGe
_symmetry_space_group_name_H-M   'P 1'
_cell_length_a   4.19021100
_cell_length_b   6.77676900
_cell_length_c   7.19831100
_cell_angle_alpha   90.00000000
_cell_angle_beta   90.00000000
_cell_angle_gamma   90.00000000
_symmetry_Int_Tables_number   1
_chemical_formula_structural   TmCoGe
_chemical_formula_sum   'Tm4 Co4 Ge4'
_cell_volume   204.40390146
_cell_formula_units_Z   4
loop_
 _symmetry_equiv_pos_site_id
 _symmetry_equiv_pos_as_xyz
  1  'x, y, z'
loop_
 _atom_site_type_symbol
 _atom_site_label
 _atom_site_symmetry_multiplicity
 _atom_site_fract_x
 _atom_site_fract_y
 _atom_site_fract_z
 _atom_site_occupancy
  Tm  Tm0  1  0.25000000  0.00646800  0.80219300  1
  Tm  Tm1  1  0.25000000  0.50646800  0.69780700  1
  Tm  Tm2  1  0.75000000  0.99353200  0.19780700  1
  Tm  Tm3  1  0.75000000  0.49353200  0.30219300  1
  Co  Co4  1  0.25000000  0.84106300  0.43130200  1
  Co  Co5  1  0.25000000  0.34106300  0.06869800  1
  Co  Co6  1  0.75000000  0.15893700  0.56869800  1
  Co  Co7  1  0.75000000  0.65893700  0.93130200  1
  Ge  Ge8  1  0.25000000  0.20344600  0.39933900  1
  Ge  Ge9  1  0.25000000  0.70344600  0.10066100  1
  Ge  Ge10  1  0.75000000  0.79655400  0.60066100  1
  Ge  Ge11  1  0.75000000  0.29655400  0.89933900  1
