# generated using pymatgen
data_NdMgRh
_symmetry_space_group_name_H-M   'P 1'
_cell_length_a   4.18855300
_cell_length_b   7.26357400
_cell_length_c   8.70521400
_cell_angle_alpha   90.00000000
_cell_angle_beta   90.00000000
_cell_angle_gamma   90.00000000
_symmetry_Int_Tables_number   1
_chemical_formula_structural   NdMgRh
_chemical_formula_sum   'Nd4 Mg4 Rh4'
_cell_volume   264.84625265
_cell_formula_units_Z   4
loop_
 _symmetry_equiv_pos_site_id
 _symmetry_equiv_pos_as_xyz
  1  'x, y, z'
loop_
 _atom_site_type_symbol
 _atom_site_label
 _atom_site_symmetry_multiplicity
 _atom_site_fract_x
 _atom_site_fract_y
 _atom_site_fract_z
 _atom_site_occupancy
  Nd  Nd0  1  0.75000000  0.96162300  0.32076700  1
  Nd  Nd1  1  0.25000000  0.03837700  0.67923300  1
  Nd  Nd2  1  0.25000000  0.53837700  0.82076700  1
  Nd  Nd3  1  0.75000000  0.46162300  0.17923300  1
  Mg  Mg4  1  0.75000000  0.86523900  0.94216300  1
  Mg  Mg5  1  0.25000000  0.13476100  0.05783700  1
  Mg  Mg6  1  0.25000000  0.63476100  0.44216300  1
  Mg  Mg7  1  0.75000000  0.36523900  0.55783700  1
  Rh  Rh8  1  0.75000000  0.74777200  0.62589200  1
  Rh  Rh9  1  0.25000000  0.25222800  0.37410800  1
  Rh  Rh10  1  0.25000000  0.75222800  0.12589200  1
  Rh  Rh11  1  0.75000000  0.24777200  0.87410800  1
