# generated using pymatgen
data_TbMnB4
_symmetry_space_group_name_H-M   'P 1'
_cell_length_a   3.41967700
_cell_length_b   5.91870400
_cell_length_c   11.44778700
_cell_angle_alpha   90.00000000
_cell_angle_beta   90.00000000
_cell_angle_gamma   90.00000000
_symmetry_Int_Tables_number   1
_chemical_formula_structural   TbMnB4
_chemical_formula_sum   'Tb4 Mn4 B16'
_cell_volume   231.70384925
_cell_formula_units_Z   4
loop_
 _symmetry_equiv_pos_site_id
 _symmetry_equiv_pos_as_xyz
  1  'x, y, z'
loop_
 _atom_site_type_symbol
 _atom_site_label
 _atom_site_symmetry_multiplicity
 _atom_site_fract_x
 _atom_site_fract_y
 _atom_site_fract_z
 _atom_site_occupancy
  Tb  Tb0  1  0.00000000  0.62636400  0.34935800  1
  Tb  Tb1  1  0.00000000  0.37363600  0.65064200  1
  Tb  Tb2  1  0.00000000  0.12636400  0.15064200  1
  Tb  Tb3  1  0.00000000  0.87363600  0.84935800  1
  Mn  Mn4  1  0.00000000  0.62778500  0.08376100  1
  Mn  Mn5  1  0.00000000  0.37221500  0.91623900  1
  Mn  Mn6  1  0.00000000  0.12778500  0.41623900  1
  Mn  Mn7  1  0.00000000  0.87221500  0.58376100  1
  B  B8  1  0.50000000  0.78108500  0.18354100  1
  B  B9  1  0.50000000  0.21891500  0.81645900  1
  B  B10  1  0.50000000  0.28108500  0.31645900  1
  B  B11  1  0.50000000  0.71891500  0.68354100  1
  B  B12  1  0.50000000  0.86178700  0.03232000  1
  B  B13  1  0.50000000  0.13821300  0.96768000  1
  B  B14  1  0.50000000  0.36178700  0.46768000  1
  B  B15  1  0.50000000  0.63821300  0.53232000  1
  B  B16  1  0.50000000  0.88807300  0.45395200  1
  B  B17  1  0.50000000  0.11192700  0.54604800  1
  B  B18  1  0.50000000  0.38807300  0.04604800  1
  B  B19  1  0.50000000  0.61192700  0.95395200  1
  B  B20  1  0.50000000  0.97585300  0.30963000  1
  B  B21  1  0.50000000  0.02414700  0.69037000  1
  B  B22  1  0.50000000  0.47585300  0.19037000  1
  B  B23  1  0.50000000  0.52414700  0.80963000  1
