# generated using pymatgen
data_Tl2Rh3S2
_symmetry_space_group_name_H-M   'P 1'
_cell_length_a   5.79913612
_cell_length_b   5.79913612
_cell_length_c   5.79913632
_cell_angle_alpha   59.51498186
_cell_angle_beta   59.51498186
_cell_angle_gamma   59.51497541
_symmetry_Int_Tables_number   1
_chemical_formula_structural   Tl2Rh3S2
_chemical_formula_sum   'Tl2 Rh3 S2'
_cell_volume   136.38235749
_cell_formula_units_Z   1
loop_
 _symmetry_equiv_pos_site_id
 _symmetry_equiv_pos_as_xyz
  1  'x, y, z'
loop_
 _atom_site_type_symbol
 _atom_site_label
 _atom_site_symmetry_multiplicity
 _atom_site_fract_x
 _atom_site_fract_y
 _atom_site_fract_z
 _atom_site_occupancy
  Tl  Tl0  1  0.00000000  0.00000000  0.00000000  1
  Tl  Tl1  1  0.50000000  0.50000000  0.50000000  1
  Rh  Rh2  1  0.00000000  0.00000000  0.50000000  1
  Rh  Rh3  1  0.50000000  0.00000000  0.00000000  1
  Rh  Rh4  1  0.00000000  0.50000000  0.00000000  1
  S  S5  1  0.72061400  0.72061400  0.72061400  1
  S  S6  1  0.27938600  0.27938600  0.27938600  1
