# generated using pymatgen
data_Ba3LuIrRuO9
_symmetry_space_group_name_H-M   'P 1'
_cell_length_a   5.91274219
_cell_length_b   5.91274219
_cell_length_c   14.57048900
_cell_angle_alpha   90.00000000
_cell_angle_beta   90.00000000
_cell_angle_gamma   120.00000215
_symmetry_Int_Tables_number   1
_chemical_formula_structural   Ba3LuIrRuO9
_chemical_formula_sum   'Ba6 Lu2 Ir2 Ru2 O18'
_cell_volume   441.14629508
_cell_formula_units_Z   2
loop_
 _symmetry_equiv_pos_site_id
 _symmetry_equiv_pos_as_xyz
  1  'x, y, z'
loop_
 _atom_site_type_symbol
 _atom_site_label
 _atom_site_symmetry_multiplicity
 _atom_site_fract_x
 _atom_site_fract_y
 _atom_site_fract_z
 _atom_site_occupancy
  Ba  Ba0  1  0.33333300  0.66666700  0.59162200  1
  Ba  Ba1  1  0.66666700  0.33333300  0.40670500  1
  Ba  Ba2  1  0.66666700  0.33333300  0.09162200  1
  Ba  Ba3  1  0.33333300  0.66666700  0.90670500  1
  Ba  Ba4  1  0.00000000  0.00000000  0.25014800  1
  Ba  Ba5  1  0.00000000  0.00000000  0.75014800  1
  Lu  Lu6  1  0.00000000  0.00000000  0.49894600  1
  Lu  Lu7  1  0.00000000  0.00000000  0.99894600  1
  Ir  Ir8  1  0.33333300  0.66666700  0.33667700  1
  Ir  Ir9  1  0.66666700  0.33333300  0.83667700  1
  Ru  Ru10  1  0.66666700  0.33333300  0.66197200  1
  Ru  Ru11  1  0.33333300  0.66666700  0.16197200  1
  O  O12  1  0.17405500  0.82594500  0.08686800  1
  O  O13  1  0.17405500  0.34811000  0.08686800  1
  O  O14  1  0.65189000  0.82594500  0.08686800  1
  O  O15  1  0.82624200  0.17375800  0.91523300  1
  O  O16  1  0.82624200  0.65248400  0.91523300  1
  O  O17  1  0.34751600  0.17375800  0.91523300  1
  O  O18  1  0.82594500  0.17405500  0.58686800  1
  O  O19  1  0.82594500  0.65189000  0.58686800  1
  O  O20  1  0.34811000  0.17405500  0.58686800  1
  O  O21  1  0.17375800  0.82624200  0.41523300  1
  O  O22  1  0.17375800  0.34751600  0.41523300  1
  O  O23  1  0.65248400  0.82624200  0.41523300  1
  O  O24  1  0.48977100  0.51022900  0.24921000  1
  O  O25  1  0.48977100  0.97954200  0.24921000  1
  O  O26  1  0.02045800  0.51022900  0.24921000  1
  O  O27  1  0.51022900  0.48977100  0.74921000  1
  O  O28  1  0.51022900  0.02045800  0.74921000  1
  O  O29  1  0.97954200  0.48977100  0.74921000  1
