# generated using pymatgen
data_Rb2Ni3Se4
_symmetry_space_group_name_H-M   'P 1'
_cell_length_a   15.05315891
_cell_length_b   14.40108468
_cell_length_c   6.15445695
_cell_angle_alpha   83.95381678
_cell_angle_beta   72.05638917
_cell_angle_gamma   23.98979405
_symmetry_Int_Tables_number   1
_chemical_formula_structural   Rb2Ni3Se4
_chemical_formula_sum   'Rb4 Ni6 Se8'
_cell_volume   459.44486032
_cell_formula_units_Z   2
loop_
 _symmetry_equiv_pos_site_id
 _symmetry_equiv_pos_as_xyz
  1  'x, y, z'
loop_
 _atom_site_type_symbol
 _atom_site_label
 _atom_site_symmetry_multiplicity
 _atom_site_fract_x
 _atom_site_fract_y
 _atom_site_fract_z
 _atom_site_occupancy
  Rb  Rb0  1  0.57585600  0.57585600  0.42414400  1
  Rb  Rb1  1  0.42414400  0.42414400  0.57585600  1
  Rb  Rb2  1  0.67414400  0.67414400  0.82585600  1
  Rb  Rb3  1  0.82585600  0.82585600  0.67414400  1
  Ni  Ni4  1  0.24950900  0.24950900  0.75049100  1
  Ni  Ni5  1  0.75049100  0.75049100  0.24950900  1
  Ni  Ni6  1  0.00049100  0.00049100  0.49950900  1
  Ni  Ni7  1  0.00000000  0.00000000  0.00000000  1
  Ni  Ni8  1  0.25000000  0.25000000  0.25000000  1
  Ni  Ni9  1  0.49950900  0.49950900  0.00049100  1
  Se  Se10  1  0.88524300  0.22361800  0.78224500  1
  Se  Se11  1  0.10889500  0.78224500  0.22361800  1
  Se  Se12  1  0.78224500  0.10889500  0.88524300  1
  Se  Se13  1  0.22361800  0.88524300  0.10889500  1
  Se  Se14  1  0.36475700  0.02638200  0.46775500  1
  Se  Se15  1  0.14110500  0.46775500  0.02638200  1
  Se  Se16  1  0.46775500  0.14110500  0.36475700  1
  Se  Se17  1  0.02638200  0.36475700  0.14110500  1
