# generated using pymatgen
data_Gd3BiO3
_symmetry_space_group_name_H-M   'P 1'
_cell_length_a   7.03994765
_cell_length_b   7.03994765
_cell_length_c   12.08592882
_cell_angle_alpha   62.71847741
_cell_angle_beta   62.71847741
_cell_angle_gamma   32.34039378
_symmetry_Int_Tables_number   1
_chemical_formula_structural   Gd3BiO3
_chemical_formula_sum   'Gd6 Bi2 O6'
_cell_volume   281.58296201
_cell_formula_units_Z   2
loop_
 _symmetry_equiv_pos_site_id
 _symmetry_equiv_pos_as_xyz
  1  'x, y, z'
loop_
 _atom_site_type_symbol
 _atom_site_label
 _atom_site_symmetry_multiplicity
 _atom_site_fract_x
 _atom_site_fract_y
 _atom_site_fract_z
 _atom_site_occupancy
  Gd  Gd0  1  0.12262900  0.12262900  0.55996500  1
  Gd  Gd1  1  0.87737100  0.87737100  0.44003500  1
  Gd  Gd2  1  0.34607500  0.34607500  0.20473000  1
  Gd  Gd3  1  0.65392500  0.65392500  0.79527000  1
  Gd  Gd4  1  0.87143600  0.87143600  0.90380100  1
  Gd  Gd5  1  0.12856400  0.12856400  0.09619900  1
  Bi  Bi6  1  0.38267400  0.38267400  0.67834700  1
  Bi  Bi7  1  0.61732600  0.61732600  0.32165300  1
  O  O8  1  0.30850200  0.30850200  0.40723600  1
  O  O9  1  0.69149800  0.69149800  0.59276400  1
  O  O10  1  0.33553000  0.33553000  0.01630400  1
  O  O11  1  0.66447000  0.66447000  0.98369600  1
  O  O12  1  0.93843300  0.93843300  0.19334300  1
  O  O13  1  0.06156700  0.06156700  0.80665700  1
