# generated using pymatgen
data_NaLa(GaS2)4
_symmetry_space_group_name_H-M   'P 1'
_cell_length_a   14.53486188
_cell_length_b   11.99484051
_cell_length_c   11.94628535
_cell_angle_alpha   74.76113889
_cell_angle_beta   52.77152290
_cell_angle_gamma   52.46733820
_symmetry_Int_Tables_number   1
_chemical_formula_structural   NaLa(GaS2)4
_chemical_formula_sum   'Na4 La4 Ga16 S32'
_cell_volume   1296.51535615
_cell_formula_units_Z   4
loop_
 _symmetry_equiv_pos_site_id
 _symmetry_equiv_pos_as_xyz
  1  'x, y, z'
loop_
 _atom_site_type_symbol
 _atom_site_label
 _atom_site_symmetry_multiplicity
 _atom_site_fract_x
 _atom_site_fract_y
 _atom_site_fract_z
 _atom_site_occupancy
  Na  Na0  1  0.49605100  0.49605100  0.00394900  1
  Na  Na1  1  0.00394900  0.00394900  0.49605100  1
  Na  Na2  1  0.75394900  0.75394900  0.24605100  1
  Na  Na3  1  0.24605100  0.24605100  0.75394900  1
  La  La4  1  0.25000000  0.25000000  0.25000000  1
  La  La5  1  0.00000000  0.00000000  0.00000000  1
  La  La6  1  0.75000000  0.75000000  0.75000000  1
  La  La7  1  0.50000000  0.50000000  0.50000000  1
  Ga  Ga8  1  0.48743800  0.75810200  0.74094000  1
  Ga  Ga9  1  0.75810200  0.48743800  0.01352000  1
  Ga  Ga10  1  0.74094000  0.01352000  0.48743800  1
  Ga  Ga11  1  0.01352000  0.74094000  0.75810200  1
  Ga  Ga12  1  0.76256200  0.49189800  0.50906000  1
  Ga  Ga13  1  0.49189800  0.76256200  0.23648000  1
  Ga  Ga14  1  0.50906000  0.23648000  0.76256200  1
  Ga  Ga15  1  0.23648000  0.50906000  0.49189800  1
  Ga  Ga16  1  0.98548300  0.26547000  0.65462700  1
  Ga  Ga17  1  0.26547000  0.98548300  0.09442000  1
  Ga  Ga18  1  0.65462700  0.09442000  0.98548300  1
  Ga  Ga19  1  0.09442000  0.65462700  0.26547000  1
  Ga  Ga20  1  0.26451700  0.98453000  0.59537300  1
  Ga  Ga21  1  0.98453000  0.26451700  0.15558000  1
  Ga  Ga22  1  0.59537300  0.15558000  0.26451700  1
  Ga  Ga23  1  0.15558000  0.59537300  0.98453000  1
  S  S24  1  0.46689100  0.27644800  0.96996100  1
  S  S25  1  0.27644800  0.46689100  0.28670100  1
  S  S26  1  0.96996100  0.28670100  0.46689100  1
  S  S27  1  0.28670100  0.96996100  0.27644800  1
  S  S28  1  0.78310900  0.97355200  0.28003900  1
  S  S29  1  0.97355200  0.78310900  0.96329900  1
  S  S30  1  0.28003900  0.96329900  0.78310900  1
  S  S31  1  0.96329900  0.28003900  0.97355200  1
  S  S32  1  0.47101800  0.77791200  0.94163000  1
  S  S33  1  0.77791200  0.47101800  0.80944000  1
  S  S34  1  0.94163000  0.80944000  0.47101800  1
  S  S35  1  0.80944000  0.94163000  0.77791200  1
  S  S36  1  0.77898200  0.47208800  0.30837000  1
  S  S37  1  0.47208800  0.77898200  0.44056000  1
  S  S38  1  0.30837000  0.44056000  0.77898200  1
  S  S39  1  0.44056000  0.30837000  0.47208800  1
  S  S40  1  0.03379900  0.54804100  0.71127300  1
  S  S41  1  0.54804100  0.03379900  0.70688800  1
  S  S42  1  0.71127300  0.70688800  0.03379900  1
  S  S43  1  0.70688800  0.71127300  0.54804100  1
  S  S44  1  0.21620100  0.70195900  0.53872700  1
  S  S45  1  0.70195900  0.21620100  0.54311200  1
  S  S46  1  0.53872700  0.54311200  0.21620100  1
  S  S47  1  0.54311200  0.53872700  0.70195900  1
  S  S48  1  0.20421300  0.71456700  0.04214800  1
  S  S49  1  0.71456700  0.20421300  0.03907200  1
  S  S50  1  0.04214800  0.03907200  0.20421300  1
  S  S51  1  0.03907200  0.04214800  0.71456700  1
  S  S52  1  0.04578700  0.53543300  0.20785200  1
  S  S53  1  0.53543300  0.04578700  0.21092800  1
  S  S54  1  0.20785200  0.21092800  0.04578700  1
  S  S55  1  0.21092800  0.20785200  0.53543300  1
