# generated using pymatgen
data_Ta2Mn4O9
_symmetry_space_group_name_H-M   'P 1'
_cell_length_a   5.38109900
_cell_length_b   5.38113769
_cell_length_c   14.53101300
_cell_angle_alpha   90.00012736
_cell_angle_beta   89.99978706
_cell_angle_gamma   120.00083998
_symmetry_Int_Tables_number   1
_chemical_formula_structural   Ta2Mn4O9
_chemical_formula_sum   'Ta4 Mn8 O18'
_cell_volume   364.39124528
_cell_formula_units_Z   2
loop_
 _symmetry_equiv_pos_site_id
 _symmetry_equiv_pos_as_xyz
  1  'x, y, z'
loop_
 _atom_site_type_symbol
 _atom_site_label
 _atom_site_symmetry_multiplicity
 _atom_site_fract_x
 _atom_site_fract_y
 _atom_site_fract_z
 _atom_site_occupancy
  Ta  Ta0  1  0.00000100  0.00000700  0.35629200  1
  Ta  Ta1  1  0.00000300  0.00000200  0.14366400  1
  Ta  Ta2  1  0.99999400  0.99999400  0.64366500  1
  Ta  Ta3  1  0.99999800  0.99999500  0.85629300  1
  Mn  Mn4  1  0.66666500  0.33330400  0.48150100  1
  Mn  Mn5  1  0.66670800  0.33335700  0.98149400  1
  Mn  Mn6  1  0.66666400  0.33333500  0.69540100  1
  Mn  Mn7  1  0.66666400  0.33334600  0.19540100  1
  Mn  Mn8  1  0.33337100  0.66669900  0.01850600  1
  Mn  Mn9  1  0.33330900  0.66665000  0.51850400  1
  Mn  Mn10  1  0.33328700  0.66663900  0.80471700  1
  Mn  Mn11  1  0.33333100  0.66671800  0.30472500  1
  O  O12  1  0.27659700  0.99998600  0.24999700  1
  O  O13  1  0.00003000  0.27662300  0.25000100  1
  O  O14  1  0.72337700  0.72340600  0.25000000  1
  O  O15  1  0.72337200  0.99996300  0.74999900  1
  O  O16  1  0.00001700  0.72340100  0.74999800  1
  O  O17  1  0.27659400  0.27661200  0.74999800  1
  O  O18  1  0.69346700  0.66547700  0.58613500  1
  O  O19  1  0.33451400  0.02797700  0.58613700  1
  O  O20  1  0.97201600  0.30652800  0.58613700  1
  O  O21  1  0.02799200  0.33452700  0.91383700  1
  O  O22  1  0.30654400  0.97201300  0.91383700  1
  O  O23  1  0.66547100  0.69345100  0.91383800  1
  O  O24  1  0.30654700  0.33452400  0.41383900  1
  O  O25  1  0.66546800  0.97200800  0.41384000  1
  O  O26  1  0.02798500  0.69345700  0.41383700  1
  O  O27  1  0.97202200  0.66548400  0.08613600  1
  O  O28  1  0.69347400  0.02798500  0.08613500  1
  O  O29  1  0.33451900  0.30653000  0.08613400  1
