# generated using pymatgen
data_Ba3(SnAs2)2
_symmetry_space_group_name_H-M   'P 1'
_cell_length_a   20.15552200
_cell_length_b   8.06699700
_cell_length_c   8.18103407
_cell_angle_alpha   67.76633028
_cell_angle_beta   90.00000000
_cell_angle_gamma   90.00000000
_symmetry_Int_Tables_number   1
_chemical_formula_structural   Ba3(SnAs2)2
_chemical_formula_sum   'Ba12 Sn8 As16'
_cell_volume   1231.28955730
_cell_formula_units_Z   4
loop_
 _symmetry_equiv_pos_site_id
 _symmetry_equiv_pos_as_xyz
  1  'x, y, z'
loop_
 _atom_site_type_symbol
 _atom_site_label
 _atom_site_symmetry_multiplicity
 _atom_site_fract_x
 _atom_site_fract_y
 _atom_site_fract_z
 _atom_site_occupancy
  Ba  Ba0  1  0.31704600  0.00935000  0.78690900  1
  Ba  Ba1  1  0.81704600  0.49065000  0.21309100  1
  Ba  Ba2  1  0.68295400  0.99065000  0.21309100  1
  Ba  Ba3  1  0.18295400  0.50935000  0.78690900  1
  Ba  Ba4  1  0.43928800  0.99490700  0.26167500  1
  Ba  Ba5  1  0.93928800  0.50509300  0.73832500  1
  Ba  Ba6  1  0.56071200  0.00509300  0.73832500  1
  Ba  Ba7  1  0.06071200  0.49490700  0.26167500  1
  Ba  Ba8  1  0.43680100  0.51119500  0.74259300  1
  Ba  Ba9  1  0.93680100  0.98880500  0.25740700  1
  Ba  Ba10  1  0.56319900  0.48880500  0.25740700  1
  Ba  Ba11  1  0.06319900  0.01119500  0.74259300  1
  Sn  Sn12  1  0.62329700  0.52571900  0.78994300  1
  Sn  Sn13  1  0.12329700  0.97428100  0.21005700  1
  Sn  Sn14  1  0.37670300  0.47428100  0.21005700  1
  Sn  Sn15  1  0.87670300  0.02571900  0.78994300  1
  Sn  Sn16  1  0.74190500  0.40065900  0.68338100  1
  Sn  Sn17  1  0.75809500  0.90065900  0.68338100  1
  Sn  Sn18  1  0.25809500  0.59934100  0.31661900  1
  Sn  Sn19  1  0.24190500  0.09934100  0.31661900  1
  As  As20  1  0.43579700  0.25385300  0.49815100  1
  As  As21  1  0.93579700  0.24614700  0.50184900  1
  As  As22  1  0.56420300  0.74614700  0.50184900  1
  As  As23  1  0.06420300  0.75385300  0.49815100  1
  As  As24  1  0.44518100  0.75058900  0.00101600  1
  As  As25  1  0.94518100  0.74941100  0.99898400  1
  As  As26  1  0.55481900  0.24941100  0.99898400  1
  As  As27  1  0.05481900  0.25058900  0.00101600  1
  As  As28  1  0.18287500  0.78411700  0.03537800  1
  As  As29  1  0.68287500  0.71588300  0.96462200  1
  As  As30  1  0.81712500  0.21588300  0.96462200  1
  As  As31  1  0.31712500  0.28411700  0.03537800  1
  As  As32  1  0.80093400  0.71545600  0.48765800  1
  As  As33  1  0.69906600  0.21545600  0.48765800  1
  As  As34  1  0.19906600  0.28454400  0.51234200  1
  As  As35  1  0.30093400  0.78454400  0.51234200  1
