# generated using pymatgen
data_Sb2XeF16
_symmetry_space_group_name_H-M   'P 1'
_cell_length_a   8.86938100
_cell_length_b   8.90145990
_cell_length_c   9.59622711
_cell_angle_alpha   68.81774401
_cell_angle_beta   75.59896831
_cell_angle_gamma   76.70210664
_symmetry_Int_Tables_number   1
_chemical_formula_structural   Sb2XeF16
_chemical_formula_sum   'Sb4 Xe2 F32'
_cell_volume   675.95214413
_cell_formula_units_Z   2
loop_
 _symmetry_equiv_pos_site_id
 _symmetry_equiv_pos_as_xyz
  1  'x, y, z'
loop_
 _atom_site_type_symbol
 _atom_site_label
 _atom_site_symmetry_multiplicity
 _atom_site_fract_x
 _atom_site_fract_y
 _atom_site_fract_z
 _atom_site_occupancy
  Sb  Sb0  1  0.89993000  0.29090300  0.75269600  1
  Sb  Sb1  1  0.10007000  0.70909700  0.24730400  1
  Sb  Sb2  1  0.73268500  0.92003400  0.74170700  1
  Sb  Sb3  1  0.26731500  0.07996600  0.25829300  1
  Xe  Xe4  1  0.73766800  0.37391900  0.29646200  1
  Xe  Xe5  1  0.26233200  0.62608100  0.70353800  1
  F  F6  1  0.57509000  0.46549500  0.17031700  1
  F  F7  1  0.42491000  0.53450500  0.82968300  1
  F  F8  1  0.87320900  0.45482000  0.09796600  1
  F  F9  1  0.12679100  0.54518000  0.90203400  1
  F  F10  1  0.69054700  0.59667500  0.30765400  1
  F  F11  1  0.30945300  0.40332500  0.69234600  1
  F  F12  1  0.55102700  0.32608300  0.45523900  1
  F  F13  1  0.44897300  0.67391700  0.54476100  1
  F  F14  1  0.73528700  0.17961900  0.24668500  1
  F  F15  1  0.26471300  0.82038100  0.75331500  1
  F  F16  1  0.06322600  0.19703200  0.62636000  1
  F  F17  1  0.93677400  0.80296800  0.37364000  1
  F  F18  1  0.71958500  0.36000200  0.88274800  1
  F  F19  1  0.28041500  0.63999800  0.11725200  1
  F  F20  1  0.00648800  0.19005600  0.91889400  1
  F  F21  1  0.99351200  0.80994400  0.08110600  1
  F  F22  1  0.98328700  0.49007600  0.69030400  1
  F  F23  1  0.01671300  0.50992400  0.30969600  1
  F  F24  1  0.77895300  0.37343800  0.59129700  1
  F  F25  1  0.22104700  0.62656200  0.40870300  1
  F  F26  1  0.80568300  0.07756200  0.81831200  1
  F  F27  1  0.19431700  0.92243800  0.18168800  1
  F  F28  1  0.53241300  0.04978600  0.76004300  1
  F  F29  1  0.46758700  0.95021400  0.23995700  1
  F  F30  1  0.69220900  0.79241600  0.94871700  1
  F  F31  1  0.30779100  0.20758400  0.05128300  1
  F  F32  1  0.66925800  0.77800500  0.66928600  1
  F  F33  1  0.33074200  0.22199500  0.33071400  1
  F  F34  1  0.94916900  0.81489800  0.72608300  1
  F  F35  1  0.05083100  0.18510200  0.27391700  1
  F  F36  1  0.79391400  0.06899100  0.54198000  1
  F  F37  1  0.20608600  0.93100900  0.45802000  1
