# generated using pymatgen
data_Zn4P6SN12
_symmetry_space_group_name_H-M   'P 1'
_cell_length_a   7.14230549
_cell_length_b   7.14230549
_cell_length_c   7.14230549
_cell_angle_alpha   109.47122063
_cell_angle_beta   109.47122063
_cell_angle_gamma   109.47122063
_symmetry_Int_Tables_number   1
_chemical_formula_structural   Zn4P6SN12
_chemical_formula_sum   'Zn4 P6 S1 N12'
_cell_volume   280.47449560
_cell_formula_units_Z   1
loop_
 _symmetry_equiv_pos_site_id
 _symmetry_equiv_pos_as_xyz
  1  'x, y, z'
loop_
 _atom_site_type_symbol
 _atom_site_label
 _atom_site_symmetry_multiplicity
 _atom_site_fract_x
 _atom_site_fract_y
 _atom_site_fract_z
 _atom_site_occupancy
  Zn  Zn0  1  0.00000000  0.33198300  0.00000000  1
  Zn  Zn1  1  0.66801700  0.66801700  0.66801700  1
  Zn  Zn2  1  0.33198300  0.00000000  0.00000000  1
  Zn  Zn3  1  0.00000000  0.00000000  0.33198300  1
  P  P4  1  0.75000000  0.25000000  0.50000000  1
  P  P5  1  0.25000000  0.75000000  0.50000000  1
  P  P6  1  0.50000000  0.75000000  0.25000000  1
  P  P7  1  0.50000000  0.25000000  0.75000000  1
  P  P8  1  0.75000000  0.50000000  0.25000000  1
  P  P9  1  0.25000000  0.50000000  0.75000000  1
  S  S10  1  0.00000000  0.00000000  0.00000000  1
  N  N11  1  0.55143500  0.27051400  0.00000000  1
  N  N12  1  0.44856500  0.44856500  0.71907900  1
  N  N13  1  0.00000000  0.27051400  0.55143500  1
  N  N14  1  0.27051400  0.00000000  0.55143500  1
  N  N15  1  0.71907900  0.44856500  0.44856500  1
  N  N16  1  0.00000000  0.55143500  0.27051400  1
  N  N17  1  0.55143500  0.00000000  0.27051400  1
  N  N18  1  0.44856500  0.71907900  0.44856500  1
  N  N19  1  0.27051400  0.55143500  0.00000000  1
  N  N20  1  0.72948600  0.28092100  0.72948600  1
  N  N21  1  0.72948600  0.72948600  0.28092100  1
  N  N22  1  0.28092100  0.72948600  0.72948600  1
