# generated using pymatgen
data_Cs2CdSn3Se8
_symmetry_space_group_name_H-M   'P 1'
_cell_length_a   8.24639000
_cell_length_b   13.69757800
_cell_length_c   18.98046400
_cell_angle_alpha   90.00000000
_cell_angle_beta   90.00000000
_cell_angle_gamma   90.00000000
_symmetry_Int_Tables_number   1
_chemical_formula_structural   Cs2CdSn3Se8
_chemical_formula_sum   'Cs8 Cd4 Sn12 Se32'
_cell_volume   2143.94913460
_cell_formula_units_Z   4
loop_
 _symmetry_equiv_pos_site_id
 _symmetry_equiv_pos_as_xyz
  1  'x, y, z'
loop_
 _atom_site_type_symbol
 _atom_site_label
 _atom_site_symmetry_multiplicity
 _atom_site_fract_x
 _atom_site_fract_y
 _atom_site_fract_z
 _atom_site_occupancy
  Cs  Cs0  1  0.74970600  0.36982500  0.55088800  1
  Cs  Cs1  1  0.75029400  0.63017500  0.05088800  1
  Cs  Cs2  1  0.24970600  0.13017500  0.44911200  1
  Cs  Cs3  1  0.25029400  0.86982500  0.94911200  1
  Cs  Cs4  1  0.25685700  0.19259200  0.84057200  1
  Cs  Cs5  1  0.24314300  0.80740800  0.34057200  1
  Cs  Cs6  1  0.75685700  0.30740800  0.15942800  1
  Cs  Cs7  1  0.74314300  0.69259200  0.65942800  1
  Cd  Cd8  1  0.51588000  0.49835300  0.84711700  1
  Cd  Cd9  1  0.98412000  0.50164700  0.34711700  1
  Cd  Cd10  1  0.01588000  0.00164700  0.15288300  1
  Cd  Cd11  1  0.48412000  0.99835300  0.65288300  1
  Sn  Sn12  1  0.48402300  0.48068200  0.34713300  1
  Sn  Sn13  1  0.01597700  0.51931800  0.84713300  1
  Sn  Sn14  1  0.98402300  0.01931800  0.65286700  1
  Sn  Sn15  1  0.51597700  0.98068200  0.15286700  1
  Sn  Sn16  1  0.26738700  0.43428300  0.01518200  1
  Sn  Sn17  1  0.23261300  0.56571700  0.51518200  1
  Sn  Sn18  1  0.76738700  0.06571700  0.98481800  1
  Sn  Sn19  1  0.73261300  0.93428300  0.48481800  1
  Sn  Sn20  1  0.26325000  0.45098500  0.67793400  1
  Sn  Sn21  1  0.23675000  0.54901500  0.17793400  1
  Sn  Sn22  1  0.76325000  0.04901500  0.32206600  1
  Sn  Sn23  1  0.73675000  0.95098500  0.82206600  1
  Se  Se24  1  0.51779000  0.38381600  0.73052600  1
  Se  Se25  1  0.98221000  0.61618400  0.23052600  1
  Se  Se26  1  0.01779000  0.11618400  0.26947400  1
  Se  Se27  1  0.48221000  0.88381600  0.76947400  1
  Se  Se28  1  0.00390100  0.90146900  0.76173900  1
  Se  Se29  1  0.49609900  0.09853100  0.26173900  1
  Se  Se30  1  0.50390100  0.59853100  0.23826100  1
  Se  Se31  1  0.99609900  0.40146900  0.73826100  1
  Se  Se32  1  0.73469300  0.12530200  0.65784200  1
  Se  Se33  1  0.76530700  0.87469800  0.15784200  1
  Se  Se34  1  0.23469300  0.37469800  0.34215800  1
  Se  Se35  1  0.26530700  0.62530200  0.84215800  1
  Se  Se36  1  0.23497500  0.12596600  0.64801700  1
  Se  Se37  1  0.26502500  0.87403400  0.14801700  1
  Se  Se38  1  0.73497500  0.37403400  0.35198300  1
  Se  Se39  1  0.76502500  0.62596600  0.85198300  1
  Se  Se40  1  0.02471300  0.12364400  0.04110000  1
  Se  Se41  1  0.47528700  0.87635600  0.54110000  1
  Se  Se42  1  0.52471300  0.37635600  0.95890000  1
  Se  Se43  1  0.97528700  0.62364400  0.45890000  1
  Se  Se44  1  0.99789500  0.89169300  0.54987700  1
  Se  Se45  1  0.50210500  0.10830700  0.04987700  1
  Se  Se46  1  0.49789500  0.60830700  0.45012300  1
  Se  Se47  1  0.00210500  0.39169300  0.95012300  1
  Se  Se48  1  0.23406600  0.38146100  0.54983400  1
  Se  Se49  1  0.26593400  0.61853900  0.04983400  1
  Se  Se50  1  0.73406600  0.11853900  0.45016600  1
  Se  Se51  1  0.76593400  0.88146100  0.95016600  1
  Se  Se52  1  0.23819900  0.36554700  0.14269200  1
  Se  Se53  1  0.26180100  0.63445300  0.64269200  1
  Se  Se54  1  0.73819900  0.13445300  0.85730800  1
  Se  Se55  1  0.76180100  0.86554700  0.35730800  1
