# generated using pymatgen
data_HPd
_symmetry_space_group_name_H-M   'P 1'
_cell_length_a   2.96813585
_cell_length_b   2.96813585
_cell_length_c   5.04079900
_cell_angle_alpha   90.00000000
_cell_angle_beta   90.00000000
_cell_angle_gamma   119.99999657
_symmetry_Int_Tables_number   1
_chemical_formula_structural   HPd
_chemical_formula_sum   'H2 Pd2'
_cell_volume   38.45896346
_cell_formula_units_Z   2
loop_
 _symmetry_equiv_pos_site_id
 _symmetry_equiv_pos_as_xyz
  1  'x, y, z'
loop_
 _atom_site_type_symbol
 _atom_site_label
 _atom_site_symmetry_multiplicity
 _atom_site_fract_x
 _atom_site_fract_y
 _atom_site_fract_z
 _atom_site_occupancy
  H  H0  1  0.66666700  0.33333300  0.50686600  1
  H  H1  1  0.33333300  0.66666700  0.00686600  1
  Pd  Pd2  1  0.66666700  0.33333300  0.86813500  1
  Pd  Pd3  1  0.33333300  0.66666700  0.36813500  1
