# generated using pymatgen
data_CsSrTa6Cl18
_symmetry_space_group_name_H-M   'P 1'
_cell_length_a   9.54344628
_cell_length_b   9.54344628
_cell_length_c   17.76178500
_cell_angle_alpha   90.00000000
_cell_angle_beta   90.00000000
_cell_angle_gamma   120.00000195
_symmetry_Int_Tables_number   1
_chemical_formula_structural   CsSrTa6Cl18
_chemical_formula_sum   'Cs2 Sr2 Ta12 Cl36'
_cell_volume   1400.96633198
_cell_formula_units_Z   2
loop_
 _symmetry_equiv_pos_site_id
 _symmetry_equiv_pos_as_xyz
  1  'x, y, z'
loop_
 _atom_site_type_symbol
 _atom_site_label
 _atom_site_symmetry_multiplicity
 _atom_site_fract_x
 _atom_site_fract_y
 _atom_site_fract_z
 _atom_site_occupancy
  Cs  Cs0  1  0.33333300  0.66666700  0.75000000  1
  Cs  Cs1  1  0.66666700  0.33333300  0.25000000  1
  Sr  Sr2  1  0.66666700  0.33333300  0.75000000  1
  Sr  Sr3  1  0.33333300  0.66666700  0.25000000  1
  Ta  Ta4  1  0.84295600  0.03631400  0.56748700  1
  Ta  Ta5  1  0.15704400  0.96368600  0.43251300  1
  Ta  Ta6  1  0.96368600  0.80664200  0.56748700  1
  Ta  Ta7  1  0.84295600  0.80664200  0.93251300  1
  Ta  Ta8  1  0.03631400  0.19335800  0.43251300  1
  Ta  Ta9  1  0.15704400  0.19335800  0.06748700  1
  Ta  Ta10  1  0.19335800  0.15704400  0.56748700  1
  Ta  Ta11  1  0.96368600  0.15704400  0.93251300  1
  Ta  Ta12  1  0.80664200  0.84295600  0.43251300  1
  Ta  Ta13  1  0.03631400  0.84295600  0.06748700  1
  Ta  Ta14  1  0.19335800  0.03631400  0.93251300  1
  Ta  Ta15  1  0.80664200  0.96368600  0.06748700  1
  Cl  Cl16  1  0.64143500  0.07132700  0.65391600  1
  Cl  Cl17  1  0.35856500  0.92867300  0.34608400  1
  Cl  Cl18  1  0.92867300  0.57010800  0.65391600  1
  Cl  Cl19  1  0.64143500  0.57010800  0.84608400  1
  Cl  Cl20  1  0.07132700  0.42989200  0.34608400  1
  Cl  Cl21  1  0.35856500  0.42989200  0.15391600  1
  Cl  Cl22  1  0.42989200  0.35856500  0.65391600  1
  Cl  Cl23  1  0.92867300  0.35856500  0.84608400  1
  Cl  Cl24  1  0.57010800  0.64143500  0.34608400  1
  Cl  Cl25  1  0.07132700  0.64143500  0.15391600  1
  Cl  Cl26  1  0.42989200  0.07132700  0.84608400  1
  Cl  Cl27  1  0.57010800  0.92867300  0.15391600  1
  Cl  Cl28  1  0.04206800  0.22639900  0.65748400  1
  Cl  Cl29  1  0.95793200  0.77360100  0.34251600  1
  Cl  Cl30  1  0.77360100  0.81566900  0.65748400  1
  Cl  Cl31  1  0.04206800  0.81566900  0.84251600  1
  Cl  Cl32  1  0.22639900  0.18433100  0.34251600  1
  Cl  Cl33  1  0.95793200  0.18433100  0.15748400  1
  Cl  Cl34  1  0.18433100  0.95793200  0.65748400  1
  Cl  Cl35  1  0.77360100  0.95793200  0.84251600  1
  Cl  Cl36  1  0.81566900  0.04206800  0.34251600  1
  Cl  Cl37  1  0.22639900  0.04206800  0.15748400  1
  Cl  Cl38  1  0.18433100  0.22639900  0.84251600  1
  Cl  Cl39  1  0.81566900  0.77360100  0.15748400  1
  Cl  Cl40  1  0.26965800  0.40900800  0.49953700  1
  Cl  Cl41  1  0.73034200  0.59099200  0.50046300  1
  Cl  Cl42  1  0.59099200  0.86065000  0.49953700  1
  Cl  Cl43  1  0.26965800  0.86065000  0.00046300  1
  Cl  Cl44  1  0.40900800  0.13935000  0.50046300  1
  Cl  Cl45  1  0.73034200  0.13935000  0.99953700  1
  Cl  Cl46  1  0.13935000  0.73034200  0.49953700  1
  Cl  Cl47  1  0.59099200  0.73034200  0.00046300  1
  Cl  Cl48  1  0.86065000  0.26965800  0.50046300  1
  Cl  Cl49  1  0.40900800  0.26965800  0.99953700  1
  Cl  Cl50  1  0.13935000  0.40900800  0.00046300  1
  Cl  Cl51  1  0.86065000  0.59099200  0.99953700  1
