# generated using pymatgen
data_DyNiGe
_symmetry_space_group_name_H-M   'P 1'
_cell_length_a   4.22515900
_cell_length_b   6.91572500
_cell_length_c   7.28816900
_cell_angle_alpha   90.00000000
_cell_angle_beta   90.00000000
_cell_angle_gamma   90.00000000
_symmetry_Int_Tables_number   1
_chemical_formula_structural   DyNiGe
_chemical_formula_sum   'Dy4 Ni4 Ge4'
_cell_volume   212.96057313
_cell_formula_units_Z   4
loop_
 _symmetry_equiv_pos_site_id
 _symmetry_equiv_pos_as_xyz
  1  'x, y, z'
loop_
 _atom_site_type_symbol
 _atom_site_label
 _atom_site_symmetry_multiplicity
 _atom_site_fract_x
 _atom_site_fract_y
 _atom_site_fract_z
 _atom_site_occupancy
  Dy  Dy0  1  0.25000000  0.99318900  0.29444300  1
  Dy  Dy1  1  0.25000000  0.49318900  0.20555700  1
  Dy  Dy2  1  0.75000000  0.00681100  0.70555700  1
  Dy  Dy3  1  0.75000000  0.50681100  0.79444300  1
  Ni  Ni4  1  0.25000000  0.19359400  0.91588400  1
  Ni  Ni5  1  0.25000000  0.69359400  0.58411600  1
  Ni  Ni6  1  0.75000000  0.80640600  0.08411600  1
  Ni  Ni7  1  0.75000000  0.30640600  0.41588400  1
  Ge  Ge8  1  0.25000000  0.30400400  0.58789700  1
  Ge  Ge9  1  0.25000000  0.80400400  0.91210300  1
  Ge  Ge10  1  0.75000000  0.69599600  0.41210300  1
  Ge  Ge11  1  0.75000000  0.19599600  0.08789700  1
