# generated using pymatgen
data_NpB4
_symmetry_space_group_name_H-M   'P 1'
_cell_length_a   7.06495100
_cell_length_b   7.06495100
_cell_length_c   3.99034800
_cell_angle_alpha   90.00000000
_cell_angle_beta   90.00000000
_cell_angle_gamma   90.00000000
_symmetry_Int_Tables_number   1
_chemical_formula_structural   NpB4
_chemical_formula_sum   'Np4 B16'
_cell_volume   199.17236511
_cell_formula_units_Z   4
loop_
 _symmetry_equiv_pos_site_id
 _symmetry_equiv_pos_as_xyz
  1  'x, y, z'
loop_
 _atom_site_type_symbol
 _atom_site_label
 _atom_site_symmetry_multiplicity
 _atom_site_fract_x
 _atom_site_fract_y
 _atom_site_fract_z
 _atom_site_occupancy
  Np  Np0  1  0.81201800  0.31201800  0.00000000  1
  Np  Np1  1  0.18798200  0.68798200  0.00000000  1
  Np  Np2  1  0.31201800  0.18798200  0.00000000  1
  Np  Np3  1  0.68798200  0.81201800  0.00000000  1
  B  B4  1  0.50000000  0.50000000  0.79893400  1
  B  B5  1  0.00000000  0.00000000  0.79893400  1
  B  B6  1  0.50000000  0.50000000  0.20106600  1
  B  B7  1  0.00000000  0.00000000  0.20106600  1
  B  B8  1  0.41283600  0.91283600  0.50000000  1
  B  B9  1  0.58716400  0.08716400  0.50000000  1
  B  B10  1  0.91283600  0.58716400  0.50000000  1
  B  B11  1  0.08716400  0.41283600  0.50000000  1
  B  B12  1  0.67788700  0.53947200  0.50000000  1
  B  B13  1  0.32211300  0.46052800  0.50000000  1
  B  B14  1  0.17788700  0.96052800  0.50000000  1
  B  B15  1  0.82211300  0.03947200  0.50000000  1
  B  B16  1  0.46052800  0.67788700  0.50000000  1
  B  B17  1  0.53947200  0.32211300  0.50000000  1
  B  B18  1  0.03947200  0.17788700  0.50000000  1
  B  B19  1  0.96052800  0.82211300  0.50000000  1
