# generated using pymatgen
data_RbZr6MnCl14
_symmetry_space_group_name_H-M   'P 1'
_cell_length_a   9.88963018
_cell_length_b   9.88963018
_cell_length_c   12.06904700
_cell_angle_alpha   90.00000000
_cell_angle_beta   90.00000000
_cell_angle_gamma   96.00903110
_symmetry_Int_Tables_number   1
_chemical_formula_structural   RbZr6MnCl14
_chemical_formula_sum   'Rb2 Zr12 Mn2 Cl28'
_cell_volume   1173.92467226
_cell_formula_units_Z   2
loop_
 _symmetry_equiv_pos_site_id
 _symmetry_equiv_pos_as_xyz
  1  'x, y, z'
loop_
 _atom_site_type_symbol
 _atom_site_label
 _atom_site_symmetry_multiplicity
 _atom_site_fract_x
 _atom_site_fract_y
 _atom_site_fract_z
 _atom_site_occupancy
  Rb  Rb0  1  0.50000000  0.50000000  0.00000000  1
  Rb  Rb1  1  0.00000000  0.00000000  0.50000000  1
  Zr  Zr2  1  0.34887700  0.34887700  0.38983900  1
  Zr  Zr3  1  0.65112300  0.65112300  0.61016100  1
  Zr  Zr4  1  0.15112300  0.15112300  0.88983900  1
  Zr  Zr5  1  0.84887700  0.84887700  0.11016100  1
  Zr  Zr6  1  0.95197800  0.19091300  0.11840500  1
  Zr  Zr7  1  0.04802200  0.80908700  0.88159500  1
  Zr  Zr8  1  0.54802200  0.30908700  0.61840500  1
  Zr  Zr9  1  0.69091300  0.45197800  0.38159500  1
  Zr  Zr10  1  0.45197800  0.69091300  0.38159500  1
  Zr  Zr11  1  0.30908700  0.54802200  0.61840500  1
  Zr  Zr12  1  0.80908700  0.04802200  0.88159500  1
  Zr  Zr13  1  0.19091300  0.95197800  0.11840500  1
  Mn  Mn14  1  0.00000000  0.00000000  0.00000000  1
  Mn  Mn15  1  0.50000000  0.50000000  0.50000000  1
  Cl  Cl16  1  0.11657700  0.36359500  0.00662100  1
  Cl  Cl17  1  0.88342300  0.63640500  0.99337900  1
  Cl  Cl18  1  0.38342300  0.13640500  0.50662100  1
  Cl  Cl19  1  0.86359500  0.61657700  0.49337900  1
  Cl  Cl20  1  0.61657700  0.86359500  0.49337900  1
  Cl  Cl21  1  0.13640500  0.38342300  0.50662100  1
  Cl  Cl22  1  0.63640500  0.88342300  0.99337900  1
  Cl  Cl23  1  0.36359500  0.11657700  0.00662100  1
  Cl  Cl24  1  0.75016000  0.24984000  0.00000000  1
  Cl  Cl25  1  0.24984000  0.75016000  0.00000000  1
  Cl  Cl26  1  0.74984000  0.25016000  0.50000000  1
  Cl  Cl27  1  0.25016000  0.74984000  0.50000000  1
  Cl  Cl28  1  0.89967200  0.39967200  0.25000000  1
  Cl  Cl29  1  0.10032800  0.60032800  0.75000000  1
  Cl  Cl30  1  0.60032800  0.10032800  0.75000000  1
  Cl  Cl31  1  0.39967200  0.89967200  0.25000000  1
  Cl  Cl32  1  0.15619600  0.15619600  0.25832400  1
  Cl  Cl33  1  0.84380400  0.84380400  0.74167600  1
  Cl  Cl34  1  0.34380400  0.34380400  0.75832400  1
  Cl  Cl35  1  0.65619600  0.65619600  0.24167600  1
  Cl  Cl36  1  0.28955400  0.53541800  0.25344600  1
  Cl  Cl37  1  0.71044600  0.46458200  0.74655400  1
  Cl  Cl38  1  0.21044600  0.96458200  0.75344600  1
  Cl  Cl39  1  0.03541800  0.78955400  0.24655400  1
  Cl  Cl40  1  0.78955400  0.03541800  0.24655400  1
  Cl  Cl41  1  0.96458200  0.21044600  0.75344600  1
  Cl  Cl42  1  0.46458200  0.71044600  0.74655400  1
  Cl  Cl43  1  0.53541800  0.28955400  0.25344600  1
