# generated using pymatgen
data_KSc(WO4)2
_symmetry_space_group_name_H-M   'P 1'
_cell_length_a   7.52239672
_cell_length_b   7.52239672
_cell_length_c   7.36747453
_cell_angle_alpha   61.27794726
_cell_angle_beta   61.27794726
_cell_angle_gamma   85.77429086
_symmetry_Int_Tables_number   1
_chemical_formula_structural   KSc(WO4)2
_chemical_formula_sum   'K2 Sc2 W4 O16'
_cell_volume   313.84687203
_cell_formula_units_Z   2
loop_
 _symmetry_equiv_pos_site_id
 _symmetry_equiv_pos_as_xyz
  1  'x, y, z'
loop_
 _atom_site_type_symbol
 _atom_site_label
 _atom_site_symmetry_multiplicity
 _atom_site_fract_x
 _atom_site_fract_y
 _atom_site_fract_z
 _atom_site_occupancy
  K  K0  1  0.20783000  0.79217000  0.75000000  1
  K  K1  1  0.79217000  0.20783000  0.25000000  1
  Sc  Sc2  1  0.77896500  0.22103500  0.75000000  1
  Sc  Sc3  1  0.22103500  0.77896500  0.25000000  1
  W  W4  1  0.70285400  0.69321800  0.79801600  1
  W  W5  1  0.29714600  0.30678200  0.20198400  1
  W  W6  1  0.30678200  0.29714600  0.70198400  1
  W  W7  1  0.69321800  0.70285400  0.29801600  1
  O  O8  1  0.62003400  0.75579700  0.56215300  1
  O  O9  1  0.37996600  0.24420300  0.43784700  1
  O  O10  1  0.24420300  0.37996600  0.93784700  1
  O  O11  1  0.75579700  0.62003400  0.06215300  1
  O  O12  1  0.33075700  0.03878200  0.89598200  1
  O  O13  1  0.66924300  0.96121800  0.10401800  1
  O  O14  1  0.96121800  0.66924300  0.60401800  1
  O  O15  1  0.03878200  0.33075700  0.39598200  1
  O  O16  1  0.60789400  0.37579200  0.94851300  1
  O  O17  1  0.39210600  0.62420800  0.05148700  1
  O  O18  1  0.62420800  0.39210600  0.55148700  1
  O  O19  1  0.37579200  0.60789400  0.44851300  1
  O  O20  1  0.74671300  0.96743400  0.70812800  1
  O  O21  1  0.25328700  0.03256600  0.29187200  1
  O  O22  1  0.03256600  0.25328700  0.79187200  1
  O  O23  1  0.96743400  0.74671300  0.20812800  1
