# generated using pymatgen
data_Mo(BrO)2
_symmetry_space_group_name_H-M   'P 1'
_cell_length_a   3.99281700
_cell_length_b   7.80242648
_cell_length_c   8.29218761
_cell_angle_alpha   103.46717026
_cell_angle_beta   103.93126461
_cell_angle_gamma   90.00000000
_symmetry_Int_Tables_number   1
_chemical_formula_structural   Mo(BrO)2
_chemical_formula_sum   'Mo2 Br4 O4'
_cell_volume   243.40836273
_cell_formula_units_Z   2
loop_
 _symmetry_equiv_pos_site_id
 _symmetry_equiv_pos_as_xyz
  1  'x, y, z'
loop_
 _atom_site_type_symbol
 _atom_site_label
 _atom_site_symmetry_multiplicity
 _atom_site_fract_x
 _atom_site_fract_y
 _atom_site_fract_z
 _atom_site_occupancy
  Mo  Mo0  1  0.93890500  0.49602500  0.00067500  1
  Mo  Mo1  1  0.06176900  0.99602500  0.00067500  1
  Br  Br2  1  0.81866000  0.87666500  0.68964500  1
  Br  Br3  1  0.87098400  0.37666500  0.68964500  1
  Br  Br4  1  0.13046900  0.03065400  0.31238100  1
  Br  Br5  1  0.18191200  0.53065400  0.31238100  1
  O  O6  1  0.49947100  0.97894800  0.00077200  1
  O  O7  1  0.50130100  0.47894800  0.00077200  1
  O  O8  1  0.98897700  0.72317800  0.00102800  1
  O  O9  1  0.01205000  0.22317800  0.00102800  1
