# generated using pymatgen
data_Ho(SiPt)2
_symmetry_space_group_name_H-M   'P 1'
_cell_length_a   4.19270400
_cell_length_b   4.19270400
_cell_length_c   9.86578300
_cell_angle_alpha   90.00000000
_cell_angle_beta   90.00000000
_cell_angle_gamma   90.00000000
_symmetry_Int_Tables_number   1
_chemical_formula_structural   Ho(SiPt)2
_chemical_formula_sum   'Ho2 Si4 Pt4'
_cell_volume   173.42829897
_cell_formula_units_Z   2
loop_
 _symmetry_equiv_pos_site_id
 _symmetry_equiv_pos_as_xyz
  1  'x, y, z'
loop_
 _atom_site_type_symbol
 _atom_site_label
 _atom_site_symmetry_multiplicity
 _atom_site_fract_x
 _atom_site_fract_y
 _atom_site_fract_z
 _atom_site_occupancy
  Ho  Ho0  1  0.00000000  0.50000000  0.74661500  1
  Ho  Ho1  1  0.50000000  0.00000000  0.25338500  1
  Si  Si2  1  0.00000000  0.50000000  0.13444800  1
  Si  Si3  1  0.50000000  0.50000000  0.50000000  1
  Si  Si4  1  0.50000000  0.00000000  0.86555200  1
  Si  Si5  1  0.00000000  0.00000000  0.50000000  1
  Pt  Pt6  1  0.50000000  0.00000000  0.62419900  1
  Pt  Pt7  1  0.00000000  0.00000000  0.00000000  1
  Pt  Pt8  1  0.50000000  0.50000000  0.00000000  1
  Pt  Pt9  1  0.00000000  0.50000000  0.37580100  1
