# generated using pymatgen
data_K4SnO3
_symmetry_space_group_name_H-M   'P 1'
_cell_length_a   6.58896600
_cell_length_b   11.50697700
_cell_length_c   19.11567400
_cell_angle_alpha   90.00000000
_cell_angle_beta   90.00000000
_cell_angle_gamma   90.00000000
_symmetry_Int_Tables_number   1
_chemical_formula_structural   K4SnO3
_chemical_formula_sum   'K32 Sn8 O24'
_cell_volume   1449.33282038
_cell_formula_units_Z   8
loop_
 _symmetry_equiv_pos_site_id
 _symmetry_equiv_pos_as_xyz
  1  'x, y, z'
loop_
 _atom_site_type_symbol
 _atom_site_label
 _atom_site_symmetry_multiplicity
 _atom_site_fract_x
 _atom_site_fract_y
 _atom_site_fract_z
 _atom_site_occupancy
  K  K0  1  0.87618300  0.32390900  0.34519200  1
  K  K1  1  0.37618300  0.17609100  0.65480800  1
  K  K2  1  0.12381700  0.82390900  0.15480800  1
  K  K3  1  0.62381700  0.67609100  0.84519200  1
  K  K4  1  0.12381700  0.67609100  0.65480800  1
  K  K5  1  0.62381700  0.82390900  0.34519200  1
  K  K6  1  0.87618300  0.17609100  0.84519200  1
  K  K7  1  0.37618300  0.32390900  0.15480800  1
  K  K8  1  0.74461500  0.05474400  0.46421000  1
  K  K9  1  0.24461500  0.44525600  0.53579000  1
  K  K10  1  0.25538500  0.55474400  0.03579000  1
  K  K11  1  0.75538500  0.94525600  0.96421000  1
  K  K12  1  0.25538500  0.94525600  0.53579000  1
  K  K13  1  0.75538500  0.55474400  0.46421000  1
  K  K14  1  0.74461500  0.44525600  0.96421000  1
  K  K15  1  0.24461500  0.05474400  0.03579000  1
  K  K16  1  0.73096300  0.18808300  0.05675900  1
  K  K17  1  0.23096300  0.31191700  0.94324100  1
  K  K18  1  0.26903700  0.68808300  0.44324100  1
  K  K19  1  0.76903700  0.81191700  0.55675900  1
  K  K20  1  0.26903700  0.81191700  0.94324100  1
  K  K21  1  0.76903700  0.68808300  0.05675900  1
  K  K22  1  0.73096300  0.31191700  0.55675900  1
  K  K23  1  0.23096300  0.18808300  0.44324100  1
  K  K24  1  0.54513300  0.11038200  0.29583900  1
  K  K25  1  0.04513300  0.38961800  0.70416100  1
  K  K26  1  0.45486700  0.61038200  0.20416100  1
  K  K27  1  0.95486700  0.88961800  0.79583900  1
  K  K28  1  0.45486700  0.88961800  0.70416100  1
  K  K29  1  0.95486700  0.61038200  0.29583900  1
  K  K30  1  0.54513300  0.38961800  0.79583900  1
  K  K31  1  0.04513300  0.11038200  0.20416100  1
  Sn  Sn32  1  0.89245100  0.43353800  0.14885200  1
  Sn  Sn33  1  0.39245100  0.06646200  0.85114800  1
  Sn  Sn34  1  0.10754900  0.93353800  0.35114800  1
  Sn  Sn35  1  0.60754900  0.56646200  0.64885200  1
  Sn  Sn36  1  0.10754900  0.56646200  0.85114800  1
  Sn  Sn37  1  0.60754900  0.93353800  0.14885200  1
  Sn  Sn38  1  0.89245100  0.06646200  0.64885200  1
  Sn  Sn39  1  0.39245100  0.43353800  0.35114800  1
  O  O40  1  0.95940800  0.09432900  0.34435300  1
  O  O41  1  0.45940800  0.40567100  0.65564700  1
  O  O42  1  0.04059200  0.59432900  0.15564700  1
  O  O43  1  0.54059200  0.90567100  0.84435300  1
  O  O44  1  0.04059200  0.90567100  0.65564700  1
  O  O45  1  0.54059200  0.59432900  0.34435300  1
  O  O46  1  0.95940800  0.40567100  0.84435300  1
  O  O47  1  0.45940800  0.09432900  0.15564700  1
  O  O48  1  0.62426100  0.48173000  0.09931700  1
  O  O49  1  0.12426100  0.01827000  0.90068300  1
  O  O50  1  0.37573900  0.98173000  0.40068300  1
  O  O51  1  0.87573900  0.51827000  0.59931700  1
  O  O52  1  0.37573900  0.51827000  0.90068300  1
  O  O53  1  0.87573900  0.98173000  0.09931700  1
  O  O54  1  0.62426100  0.01827000  0.59931700  1
  O  O55  1  0.12426100  0.48173000  0.40068300  1
  O  O56  1  0.54369600  0.35273800  0.43372300  1
  O  O57  1  0.04369600  0.14726200  0.56627700  1
  O  O58  1  0.45630400  0.85273800  0.06627700  1
  O  O59  1  0.95630400  0.64726200  0.93372300  1
  O  O60  1  0.45630400  0.64726200  0.56627700  1
  O  O61  1  0.95630400  0.85273800  0.43372300  1
  O  O62  1  0.54369600  0.14726200  0.93372300  1
  O  O63  1  0.04369600  0.35273800  0.06627700  1
