# generated using pymatgen
data_RbGd2Cl7
_symmetry_space_group_name_H-M   'P 1'
_cell_length_a   7.06761300
_cell_length_b   12.86110200
_cell_length_c   13.24968900
_cell_angle_alpha   90.00000000
_cell_angle_beta   90.00000000
_cell_angle_gamma   90.00000000
_symmetry_Int_Tables_number   1
_chemical_formula_structural   RbGd2Cl7
_chemical_formula_sum   'Rb4 Gd8 Cl28'
_cell_volume   1204.36084583
_cell_formula_units_Z   4
loop_
 _symmetry_equiv_pos_site_id
 _symmetry_equiv_pos_as_xyz
  1  'x, y, z'
loop_
 _atom_site_type_symbol
 _atom_site_label
 _atom_site_symmetry_multiplicity
 _atom_site_fract_x
 _atom_site_fract_y
 _atom_site_fract_z
 _atom_site_occupancy
  Rb  Rb0  1  0.25000000  0.80490900  0.04202100  1
  Rb  Rb1  1  0.75000000  0.19509100  0.95797900  1
  Rb  Rb2  1  0.75000000  0.30490900  0.45797900  1
  Rb  Rb3  1  0.25000000  0.69509100  0.54202100  1
  Gd  Gd4  1  0.25000000  0.45994200  0.23661100  1
  Gd  Gd5  1  0.75000000  0.54005800  0.76338900  1
  Gd  Gd6  1  0.75000000  0.95994200  0.26338900  1
  Gd  Gd7  1  0.25000000  0.04005800  0.73661100  1
  Gd  Gd8  1  0.25000000  0.15710400  0.24961500  1
  Gd  Gd9  1  0.75000000  0.84289600  0.75038500  1
  Gd  Gd10  1  0.75000000  0.65710400  0.25038500  1
  Gd  Gd11  1  0.25000000  0.34289600  0.74961500  1
  Cl  Cl12  1  0.00903800  0.30628200  0.17387800  1
  Cl  Cl13  1  0.99096200  0.69371800  0.82612200  1
  Cl  Cl14  1  0.99096200  0.80628200  0.32612200  1
  Cl  Cl15  1  0.50903800  0.69371800  0.82612200  1
  Cl  Cl16  1  0.00903800  0.19371800  0.67387800  1
  Cl  Cl17  1  0.49096200  0.30628200  0.17387800  1
  Cl  Cl18  1  0.49096200  0.19371800  0.67387800  1
  Cl  Cl19  1  0.50903800  0.80628200  0.32612200  1
  Cl  Cl20  1  0.00979700  0.57793700  0.11945600  1
  Cl  Cl21  1  0.99020300  0.42206300  0.88054400  1
  Cl  Cl22  1  0.99020300  0.07793700  0.38054400  1
  Cl  Cl23  1  0.50979700  0.42206300  0.88054400  1
  Cl  Cl24  1  0.00979700  0.92206300  0.61945600  1
  Cl  Cl25  1  0.49020300  0.57793700  0.11945600  1
  Cl  Cl26  1  0.49020300  0.92206300  0.61945600  1
  Cl  Cl27  1  0.50979700  0.07793700  0.38054400  1
  Cl  Cl28  1  0.01031900  0.03916400  0.13072500  1
  Cl  Cl29  1  0.98968100  0.96083600  0.86927500  1
  Cl  Cl30  1  0.98968100  0.53916400  0.36927500  1
  Cl  Cl31  1  0.51031900  0.96083600  0.86927500  1
  Cl  Cl32  1  0.01031900  0.46083600  0.63072500  1
  Cl  Cl33  1  0.48968100  0.03916400  0.13072500  1
  Cl  Cl34  1  0.48968100  0.46083600  0.63072500  1
  Cl  Cl35  1  0.51031900  0.53916400  0.36927500  1
  Cl  Cl36  1  0.25000000  0.31258700  0.39421700  1
  Cl  Cl37  1  0.75000000  0.68741300  0.60578300  1
  Cl  Cl38  1  0.75000000  0.81258700  0.10578300  1
  Cl  Cl39  1  0.25000000  0.18741300  0.89421700  1
