# generated using pymatgen
data_CsMgInF6
_symmetry_space_group_name_H-M   'P 1'
_cell_length_a   7.65087436
_cell_length_b   7.65087436
_cell_length_c   7.65087436
_cell_angle_alpha   121.15354197
_cell_angle_beta   118.36916265
_cell_angle_gamma   90.43064072
_symmetry_Int_Tables_number   1
_chemical_formula_structural   CsMgInF6
_chemical_formula_sum   'Cs2 Mg2 In2 F12'
_cell_volume   317.57839707
_cell_formula_units_Z   2
loop_
 _symmetry_equiv_pos_site_id
 _symmetry_equiv_pos_as_xyz
  1  'x, y, z'
loop_
 _atom_site_type_symbol
 _atom_site_label
 _atom_site_symmetry_multiplicity
 _atom_site_fract_x
 _atom_site_fract_y
 _atom_site_fract_z
 _atom_site_occupancy
  Cs  Cs0  1  0.85671800  0.60671800  0.25000000  1
  Cs  Cs1  1  0.14328200  0.39328200  0.75000000  1
  Mg  Mg2  1  0.50000000  0.00000000  0.00000000  1
  Mg  Mg3  1  0.50000000  0.50000000  0.50000000  1
  In  In4  1  0.50000000  0.00000000  0.50000000  1
  In  In5  1  0.00000000  0.00000000  0.00000000  1
  F  F6  1  0.55751700  0.32598300  0.63976000  1
  F  F7  1  0.81377700  0.67401700  0.73153500  1
  F  F8  1  0.44248300  0.08224200  0.76846500  1
  F  F9  1  0.18622300  0.91775800  0.86024000  1
  F  F10  1  0.44248300  0.67401700  0.36024000  1
  F  F11  1  0.18622300  0.32598300  0.26846500  1
  F  F12  1  0.55751700  0.91775800  0.23153500  1
  F  F13  1  0.81377700  0.08224200  0.13976000  1
  F  F14  1  0.83266100  0.08266100  0.75000000  1
  F  F15  1  0.16733900  0.91733900  0.25000000  1
  F  F16  1  0.55118700  0.30118700  0.25000000  1
  F  F17  1  0.44881300  0.69881300  0.75000000  1
