# generated using pymatgen
data_USnIr
_symmetry_space_group_name_H-M   'P 1'
_cell_length_a   7.38004076
_cell_length_b   7.38004076
_cell_length_c   4.06165500
_cell_angle_alpha   90.00000000
_cell_angle_beta   90.00000000
_cell_angle_gamma   120.00000682
_symmetry_Int_Tables_number   1
_chemical_formula_structural   USnIr
_chemical_formula_sum   'U3 Sn3 Ir3'
_cell_volume   191.58043463
_cell_formula_units_Z   3
loop_
 _symmetry_equiv_pos_site_id
 _symmetry_equiv_pos_as_xyz
  1  'x, y, z'
loop_
 _atom_site_type_symbol
 _atom_site_label
 _atom_site_symmetry_multiplicity
 _atom_site_fract_x
 _atom_site_fract_y
 _atom_site_fract_z
 _atom_site_occupancy
  U  U0  1  0.41625600  0.41625600  0.50000000  1
  U  U1  1  0.58374400  0.00000000  0.50000000  1
  U  U2  1  0.00000000  0.58374400  0.50000000  1
  Sn  Sn3  1  0.74709900  0.74709900  0.00000000  1
  Sn  Sn4  1  0.25290100  0.00000000  0.00000000  1
  Sn  Sn5  1  0.00000000  0.25290100  0.00000000  1
  Ir  Ir6  1  0.66666700  0.33333300  0.00000000  1
  Ir  Ir7  1  0.33333300  0.66666700  0.00000000  1
  Ir  Ir8  1  0.00000000  0.00000000  0.50000000  1
