# generated using pymatgen
data_MnAl12Fe
_symmetry_space_group_name_H-M   'P 1'
_cell_length_a   4.96915402
_cell_length_b   4.96915402
_cell_length_c   8.73123900
_cell_angle_alpha   90.00000000
_cell_angle_beta   90.00000000
_cell_angle_gamma   98.36287891
_symmetry_Int_Tables_number   1
_chemical_formula_structural   MnAl12Fe
_chemical_formula_sum   'Mn1 Al12 Fe1'
_cell_volume   213.30356385
_cell_formula_units_Z   1
loop_
 _symmetry_equiv_pos_site_id
 _symmetry_equiv_pos_as_xyz
  1  'x, y, z'
loop_
 _atom_site_type_symbol
 _atom_site_label
 _atom_site_symmetry_multiplicity
 _atom_site_fract_x
 _atom_site_fract_y
 _atom_site_fract_z
 _atom_site_occupancy
  Mn  Mn0  1  0.53948800  0.53948800  0.75000000  1
  Al  Al1  1  0.96805200  0.60518200  0.25000000  1
  Al  Al2  1  0.39219200  0.02982100  0.75000000  1
  Al  Al3  1  0.02982100  0.39219200  0.75000000  1
  Al  Al4  1  0.60518200  0.96805200  0.25000000  1
  Al  Al5  1  0.67606900  0.32690300  0.49803600  1
  Al  Al6  1  0.67606900  0.32690300  0.00196400  1
  Al  Al7  1  0.32690300  0.67606900  0.49803600  1
  Al  Al8  1  0.32690300  0.67606900  0.00196400  1
  Al  Al9  1  0.14373900  0.14373900  0.40086200  1
  Al  Al10  1  0.85719500  0.85719500  0.59939800  1
  Al  Al11  1  0.14373900  0.14373900  0.09913800  1
  Al  Al12  1  0.85719500  0.85719500  0.90060200  1
  Fe  Fe13  1  0.45745400  0.45745400  0.25000000  1
