# generated using pymatgen
data_La2Ru2I
_symmetry_space_group_name_H-M   'P 1'
_cell_length_a   4.35010127
_cell_length_b   4.35010127
_cell_length_c   17.77415200
_cell_angle_alpha   90.00000000
_cell_angle_beta   90.00000000
_cell_angle_gamma   119.99998892
_symmetry_Int_Tables_number   1
_chemical_formula_structural   La2Ru2I
_chemical_formula_sum   'La4 Ru4 I2'
_cell_volume   291.28512365
_cell_formula_units_Z   2
loop_
 _symmetry_equiv_pos_site_id
 _symmetry_equiv_pos_as_xyz
  1  'x, y, z'
loop_
 _atom_site_type_symbol
 _atom_site_label
 _atom_site_symmetry_multiplicity
 _atom_site_fract_x
 _atom_site_fract_y
 _atom_site_fract_z
 _atom_site_occupancy
  La  La0  1  0.00000000  0.00000000  0.10600100  1
  La  La1  1  0.00000000  0.00000000  0.89399900  1
  La  La2  1  0.00000000  0.00000000  0.60600100  1
  La  La3  1  0.00000000  0.00000000  0.39399900  1
  Ru  Ru4  1  0.33333300  0.66666700  0.50532500  1
  Ru  Ru5  1  0.66666700  0.33333300  0.49467500  1
  Ru  Ru6  1  0.66666700  0.33333300  0.00532500  1
  Ru  Ru7  1  0.33333300  0.66666700  0.99467500  1
  I  I8  1  0.33333300  0.66666700  0.25000000  1
  I  I9  1  0.66666700  0.33333300  0.75000000  1
