# generated using pymatgen
data_SrPr2Mn3O9
_symmetry_space_group_name_H-M   'P 1'
_cell_length_a   5.56732195
_cell_length_b   5.56732195
_cell_length_c   13.44592836
_cell_angle_alpha   89.69244445
_cell_angle_beta   89.69244445
_cell_angle_gamma   60.40974093
_symmetry_Int_Tables_number   1
_chemical_formula_structural   SrPr2Mn3O9
_chemical_formula_sum   'Sr2 Pr4 Mn6 O18'
_cell_volume   362.39656970
_cell_formula_units_Z   2
loop_
 _symmetry_equiv_pos_site_id
 _symmetry_equiv_pos_as_xyz
  1  'x, y, z'
loop_
 _atom_site_type_symbol
 _atom_site_label
 _atom_site_symmetry_multiplicity
 _atom_site_fract_x
 _atom_site_fract_y
 _atom_site_fract_z
 _atom_site_occupancy
  Sr  Sr0  1  0.50679800  0.49320200  0.75000000  1
  Sr  Sr1  1  0.49320200  0.50679800  0.25000000  1
  Pr  Pr2  1  0.17198700  0.16041900  0.41600000  1
  Pr  Pr3  1  0.83958100  0.82801300  0.08400000  1
  Pr  Pr4  1  0.82801300  0.83958100  0.58400000  1
  Pr  Pr5  1  0.16041900  0.17198700  0.91600000  1
  Mn  Mn6  1  0.16462500  0.16912800  0.16711400  1
  Mn  Mn7  1  0.83537500  0.83087200  0.83288600  1
  Mn  Mn8  1  0.50000000  0.50000000  0.50000000  1
  Mn  Mn9  1  0.83087200  0.83537500  0.33288600  1
  Mn  Mn10  1  0.50000000  0.50000000  0.00000000  1
  Mn  Mn11  1  0.16912800  0.16462500  0.66711400  1
  O  O12  1  0.14709200  0.61643100  0.92798900  1
  O  O13  1  0.82536600  0.27881400  0.58671500  1
  O  O14  1  0.47693900  0.97751700  0.25948600  1
  O  O15  1  0.02248300  0.52306100  0.24051400  1
  O  O16  1  0.72118600  0.17463400  0.91328500  1
  O  O17  1  0.38356900  0.85290800  0.57201100  1
  O  O18  1  0.17463400  0.72118600  0.41328500  1
  O  O19  1  0.85290800  0.38356900  0.07201100  1
  O  O20  1  0.52306100  0.02248300  0.74051400  1
  O  O21  1  0.27881400  0.82536600  0.08671500  1
  O  O22  1  0.97751700  0.47693900  0.75948600  1
  O  O23  1  0.61643100  0.14709200  0.42798900  1
  O  O24  1  0.59285300  0.74421100  0.91977200  1
  O  O25  1  0.25578900  0.40714700  0.58022800  1
  O  O26  1  0.94204400  0.05795600  0.25000000  1
  O  O27  1  0.40714700  0.25578900  0.08022800  1
  O  O28  1  0.05795600  0.94204400  0.75000000  1
  O  O29  1  0.74421100  0.59285300  0.41977200  1
