# generated using pymatgen
data_Pr9Al5S21
_symmetry_space_group_name_H-M   'P 1'
_cell_length_a   11.77399804
_cell_length_b   11.77399804
_cell_length_c   11.77399851
_cell_angle_alpha   96.06866502
_cell_angle_beta   96.06866502
_cell_angle_gamma   96.06866541
_symmetry_Int_Tables_number   1
_chemical_formula_structural   Pr9Al5S21
_chemical_formula_sum   'Pr18 Al10 S42'
_cell_volume   1602.63414539
_cell_formula_units_Z   2
loop_
 _symmetry_equiv_pos_site_id
 _symmetry_equiv_pos_as_xyz
  1  'x, y, z'
loop_
 _atom_site_type_symbol
 _atom_site_label
 _atom_site_symmetry_multiplicity
 _atom_site_fract_x
 _atom_site_fract_y
 _atom_site_fract_z
 _atom_site_occupancy
  Pr  Pr0  1  0.11647900  0.88361000  0.74394400  1
  Pr  Pr1  1  0.45511200  0.22091600  0.07780500  1
  Pr  Pr2  1  0.77884900  0.54914900  0.40676500  1
  Pr  Pr3  1  0.40676500  0.77884900  0.54914900  1
  Pr  Pr4  1  0.74394400  0.11647900  0.88361000  1
  Pr  Pr5  1  0.07780500  0.45511200  0.22091600  1
  Pr  Pr6  1  0.22091600  0.07780500  0.45511200  1
  Pr  Pr7  1  0.54914900  0.40676500  0.77884900  1
  Pr  Pr8  1  0.88361000  0.74394400  0.11647900  1
  Pr  Pr9  1  0.21278800  0.44447200  0.58550800  1
  Pr  Pr10  1  0.54728800  0.78169400  0.92500000  1
  Pr  Pr11  1  0.87793000  0.10835500  0.24946200  1
  Pr  Pr12  1  0.92500000  0.54728800  0.78169400  1
  Pr  Pr13  1  0.24946200  0.87793000  0.10835500  1
  Pr  Pr14  1  0.58550800  0.21278800  0.44447200  1
  Pr  Pr15  1  0.10835500  0.24946200  0.87793000  1
  Pr  Pr16  1  0.44447200  0.58550800  0.21278800  1
  Pr  Pr17  1  0.78169400  0.92500000  0.54728800  1
  Al  Al18  1  0.72143100  0.38833800  0.05439800  1
  Al  Al19  1  0.05439800  0.72143100  0.38833800  1
  Al  Al20  1  0.38833800  0.05439800  0.72143100  1
  Al  Al21  1  0.88765500  0.22211000  0.55442500  1
  Al  Al22  1  0.22211000  0.55442500  0.88765500  1
  Al  Al23  1  0.55442500  0.88765500  0.22211000  1
  Al  Al24  1  0.85128000  0.85128000  0.85128000  1
  Al  Al25  1  0.16580800  0.16580800  0.16580800  1
  Al  Al26  1  0.66574000  0.66574000  0.66574000  1
  Al  Al27  1  0.35126800  0.35126800  0.35126800  1
  S  S28  1  0.84255000  0.51261200  0.17705000  1
  S  S29  1  0.17705000  0.84255000  0.51261200  1
  S  S30  1  0.51261200  0.17705000  0.84255000  1
  S  S31  1  0.67667100  0.01281300  0.34275900  1
  S  S32  1  0.01281300  0.34275900  0.67667100  1
  S  S33  1  0.34275900  0.67667100  0.01281300  1
  S  S34  1  0.54581000  0.44760700  0.02225300  1
  S  S35  1  0.87897800  0.77972600  0.36012400  1
  S  S36  1  0.21084400  0.11082300  0.69707000  1
  S  S37  1  0.69707000  0.21084400  0.11082300  1
  S  S38  1  0.02225300  0.54581000  0.44760700  1
  S  S39  1  0.36012400  0.87897800  0.77972600  1
  S  S40  1  0.77972600  0.36012400  0.87897800  1
  S  S41  1  0.11082300  0.69707000  0.21084400  1
  S  S42  1  0.44760700  0.02225300  0.54581000  1
  S  S43  1  0.96715400  0.06880000  0.48162200  1
  S  S44  1  0.29971500  0.39827000  0.81839100  1
  S  S45  1  0.63311200  0.73055900  0.15580700  1
  S  S46  1  0.81839100  0.29971500  0.39827000  1
  S  S47  1  0.15580700  0.63311200  0.73055900  1
  S  S48  1  0.48162200  0.96715400  0.06880000  1
  S  S49  1  0.73055900  0.15580700  0.63311200  1
  S  S50  1  0.06880000  0.48162200  0.96715400  1
  S  S51  1  0.39827000  0.81839100  0.29971500  1
  S  S52  1  0.54707100  0.39871400  0.30995700  1
  S  S53  1  0.88239600  0.74696300  0.66205300  1
  S  S54  1  0.22915200  0.08708500  0.99496500  1
  S  S55  1  0.99496500  0.22915200  0.08708500  1
  S  S56  1  0.30995700  0.54707100  0.39871400  1
  S  S57  1  0.66205300  0.88239600  0.74696300  1
  S  S58  1  0.74696300  0.66205300  0.88239600  1
  S  S59  1  0.08708500  0.99496500  0.22915200  1
  S  S60  1  0.39871400  0.30995700  0.54707100  1
  S  S61  1  0.14516400  0.28093300  0.36528100  1
  S  S62  1  0.47813500  0.62029400  0.71265200  1
  S  S63  1  0.79015300  0.93855000  0.02720700  1
  S  S64  1  0.71265200  0.47813500  0.62029400  1
  S  S65  1  0.02720700  0.79015300  0.93855000  1
  S  S66  1  0.36528100  0.14516400  0.28093300  1
  S  S67  1  0.93855000  0.02720700  0.79015300  1
  S  S68  1  0.28093300  0.36528100  0.14516400  1
  S  S69  1  0.62029400  0.71265200  0.47813500  1
