# generated using pymatgen
data_Pr2CdRh2
_symmetry_space_group_name_H-M   'P 1'
_cell_length_a   7.58526800
_cell_length_b   7.58526800
_cell_length_c   4.04880700
_cell_angle_alpha   90.00000000
_cell_angle_beta   90.00000000
_cell_angle_gamma   90.00000000
_symmetry_Int_Tables_number   1
_chemical_formula_structural   Pr2CdRh2
_chemical_formula_sum   'Pr4 Cd2 Rh4'
_cell_volume   232.95333626
_cell_formula_units_Z   2
loop_
 _symmetry_equiv_pos_site_id
 _symmetry_equiv_pos_as_xyz
  1  'x, y, z'
loop_
 _atom_site_type_symbol
 _atom_site_label
 _atom_site_symmetry_multiplicity
 _atom_site_fract_x
 _atom_site_fract_y
 _atom_site_fract_z
 _atom_site_occupancy
  Pr  Pr0  1  0.67345600  0.17345600  0.50000000  1
  Pr  Pr1  1  0.32654400  0.82654400  0.50000000  1
  Pr  Pr2  1  0.17345600  0.32654400  0.50000000  1
  Pr  Pr3  1  0.82654400  0.67345600  0.50000000  1
  Cd  Cd4  1  0.00000000  0.00000000  0.00000000  1
  Cd  Cd5  1  0.50000000  0.50000000  0.00000000  1
  Rh  Rh6  1  0.12764400  0.62764400  0.00000000  1
  Rh  Rh7  1  0.87235600  0.37235600  0.00000000  1
  Rh  Rh8  1  0.62764400  0.87235600  0.00000000  1
  Rh  Rh9  1  0.37235600  0.12764400  0.00000000  1
