# generated using pymatgen
data_Na2CaMnAl2P2H2(O5F2)2
_symmetry_space_group_name_H-M   'P 1'
_cell_length_a   7.34664372
_cell_length_b   9.09342202
_cell_length_c   9.09343555
_cell_angle_alpha   74.93255919
_cell_angle_beta   74.72218802
_cell_angle_gamma   106.19723152
_symmetry_Int_Tables_number   1
_chemical_formula_structural   Na2CaMnAl2P2H2(O5F2)2
_chemical_formula_sum   'Na4 Ca2 Mn2 Al4 P4 H4 O20 F8'
_cell_volume   525.04297459
_cell_formula_units_Z   2
loop_
 _symmetry_equiv_pos_site_id
 _symmetry_equiv_pos_as_xyz
  1  'x, y, z'
loop_
 _atom_site_type_symbol
 _atom_site_label
 _atom_site_symmetry_multiplicity
 _atom_site_fract_x
 _atom_site_fract_y
 _atom_site_fract_z
 _atom_site_occupancy
  Na  Na0  1  0.96264000  0.62108000  0.13262000  1
  Na  Na1  1  0.96264000  0.12108000  0.63262000  1
  Na  Na2  1  0.03736000  0.87892000  0.36738000  1
  Na  Na3  1  0.03736000  0.37892000  0.86738000  1
  Ca  Ca4  1  0.50000000  0.25000000  0.25000000  1
  Ca  Ca5  1  0.50000000  0.75000000  0.75000000  1
  Mn  Mn6  1  0.50000000  0.00000000  0.00000000  1
  Mn  Mn7  1  0.50000000  0.50000000  0.50000000  1
  Al  Al8  1  0.00000000  0.25000000  0.25000000  1
  Al  Al9  1  0.00000000  0.75000000  0.75000000  1
  Al  Al10  1  0.00000000  0.00000000  0.00000000  1
  Al  Al11  1  0.00000000  0.50000000  0.50000000  1
  P  P12  1  0.36237000  0.07953000  0.67875800  1
  P  P13  1  0.36237000  0.57953000  0.17875800  1
  P  P14  1  0.63763000  0.42047000  0.82124200  1
  P  P15  1  0.63763000  0.92047000  0.32124200  1
  H  H16  1  0.76929100  0.27154000  0.47869400  1
  H  H17  1  0.76929100  0.77154000  0.97869400  1
  H  H18  1  0.23070900  0.22846000  0.02130600  1
  H  H19  1  0.23070900  0.72846000  0.52130600  1
  O  O20  1  0.91930800  0.81792800  0.93110000  1
  O  O21  1  0.91930800  0.31792800  0.43110000  1
  O  O22  1  0.08069200  0.68207200  0.56890000  1
  O  O23  1  0.08069200  0.18207200  0.06890000  1
  O  O24  1  0.50510600  0.51265500  0.25373100  1
  O  O25  1  0.50510600  0.01265500  0.75373100  1
  O  O26  1  0.49489400  0.98734500  0.24626900  1
  O  O27  1  0.49489400  0.48734500  0.74626900  1
  O  O28  1  0.23276600  0.94567800  0.63158300  1
  O  O29  1  0.23276600  0.44567800  0.13158300  1
  O  O30  1  0.78209300  0.37835400  0.69615800  1
  O  O31  1  0.78209300  0.87835400  0.19615800  1
  O  O32  1  0.76723400  0.55432200  0.86841700  1
  O  O33  1  0.76723400  0.05432200  0.36841700  1
  O  O34  1  0.21790700  0.12164600  0.80384200  1
  O  O35  1  0.21790700  0.62164600  0.30384200  1
  O  O36  1  0.48553400  0.23695500  0.52312600  1
  O  O37  1  0.48553400  0.73695500  0.02312600  1
  O  O38  1  0.51446600  0.26304500  0.97687400  1
  O  O39  1  0.51446600  0.76304500  0.47687400  1
  F  F40  1  0.15210800  0.15172800  0.34650900  1
  F  F41  1  0.15210800  0.65172800  0.84650900  1
  F  F42  1  0.83479200  0.08906200  0.90802200  1
  F  F43  1  0.83479200  0.58906200  0.40802200  1
  F  F44  1  0.84789200  0.34827200  0.15349100  1
  F  F45  1  0.84789200  0.84827200  0.65349100  1
  F  F46  1  0.16520800  0.41093800  0.59197800  1
  F  F47  1  0.16520800  0.91093800  0.09197800  1
