# generated using pymatgen
data_TmTaO4
_symmetry_space_group_name_H-M   'P 1'
_cell_length_a   5.48378700
_cell_length_b   5.10296400
_cell_length_c   5.28599458
_cell_angle_alpha   83.81984307
_cell_angle_beta   90.00000000
_cell_angle_gamma   90.00000000
_symmetry_Int_Tables_number   1
_chemical_formula_structural   TmTaO4
_chemical_formula_sum   'Tm2 Ta2 O8'
_cell_volume   147.06131547
_cell_formula_units_Z   2
loop_
 _symmetry_equiv_pos_site_id
 _symmetry_equiv_pos_as_xyz
  1  'x, y, z'
loop_
 _atom_site_type_symbol
 _atom_site_label
 _atom_site_symmetry_multiplicity
 _atom_site_fract_x
 _atom_site_fract_y
 _atom_site_fract_z
 _atom_site_occupancy
  Tm  Tm0  1  0.76933600  0.00000000  0.75000000  1
  Tm  Tm1  1  0.23066400  0.00000000  0.25000000  1
  Ta  Ta2  1  0.69535800  0.50000000  0.25000000  1
  Ta  Ta3  1  0.30464200  0.50000000  0.75000000  1
  O  O4  1  0.56711300  0.26705000  0.00060800  1
  O  O5  1  0.56711300  0.73295000  0.49939200  1
  O  O6  1  0.43288700  0.73295000  0.99939200  1
  O  O7  1  0.43288700  0.26705000  0.50060800  1
  O  O8  1  0.08421800  0.75299700  0.59612400  1
  O  O9  1  0.08421800  0.24700300  0.90387600  1
  O  O10  1  0.91578200  0.24700300  0.40387600  1
  O  O11  1  0.91578200  0.75299700  0.09612400  1
