# generated using pymatgen
data_Ce2CdSb4
_symmetry_space_group_name_H-M   'P 1'
_cell_length_a   4.39230300
_cell_length_b   4.39230300
_cell_length_c   10.76409600
_cell_angle_alpha   90.00000000
_cell_angle_beta   90.00000000
_cell_angle_gamma   90.00000000
_symmetry_Int_Tables_number   1
_chemical_formula_structural   Ce2CdSb4
_chemical_formula_sum   'Ce2 Cd1 Sb4'
_cell_volume   207.66444529
_cell_formula_units_Z   1
loop_
 _symmetry_equiv_pos_site_id
 _symmetry_equiv_pos_as_xyz
  1  'x, y, z'
loop_
 _atom_site_type_symbol
 _atom_site_label
 _atom_site_symmetry_multiplicity
 _atom_site_fract_x
 _atom_site_fract_y
 _atom_site_fract_z
 _atom_site_occupancy
  Ce  Ce0  1  0.50000000  0.00000000  0.76852000  1
  Ce  Ce1  1  0.00000000  0.50000000  0.23148000  1
  Cd  Cd2  1  0.50000000  0.50000000  0.50000000  1
  Sb  Sb3  1  0.50000000  0.00000000  0.32147500  1
  Sb  Sb4  1  0.00000000  0.50000000  0.67852500  1
  Sb  Sb5  1  0.50000000  0.50000000  0.00000000  1
  Sb  Sb6  1  0.00000000  0.00000000  0.00000000  1
