# generated using pymatgen
data_K2ErF5
_symmetry_space_group_name_H-M   'P 1'
_cell_length_a   6.68240100
_cell_length_b   7.26395400
_cell_length_c   10.97209600
_cell_angle_alpha   90.00000000
_cell_angle_beta   90.00000000
_cell_angle_gamma   90.00000000
_symmetry_Int_Tables_number   1
_chemical_formula_structural   K2ErF5
_chemical_formula_sum   'K8 Er4 F20'
_cell_volume   532.59270981
_cell_formula_units_Z   4
loop_
 _symmetry_equiv_pos_site_id
 _symmetry_equiv_pos_as_xyz
  1  'x, y, z'
loop_
 _atom_site_type_symbol
 _atom_site_label
 _atom_site_symmetry_multiplicity
 _atom_site_fract_x
 _atom_site_fract_y
 _atom_site_fract_z
 _atom_site_occupancy
  K  K0  1  0.53466400  0.99696100  0.82904800  1
  K  K1  1  0.46533600  0.49696100  0.17095200  1
  K  K2  1  0.96533600  0.99696100  0.32904800  1
  K  K3  1  0.03466400  0.49696100  0.67095200  1
  K  K4  1  0.53466400  0.50303900  0.82904800  1
  K  K5  1  0.46533600  0.00303900  0.17095200  1
  K  K6  1  0.96533600  0.50303900  0.32904800  1
  K  K7  1  0.03466400  0.00303900  0.67095200  1
  Er  Er8  1  0.56371500  0.25000000  0.50251900  1
  Er  Er9  1  0.43628500  0.75000000  0.49748100  1
  Er  Er10  1  0.93628500  0.25000000  0.00251900  1
  Er  Er11  1  0.06371500  0.75000000  0.99748100  1
  F  F12  1  0.87761900  0.75000000  0.83392000  1
  F  F13  1  0.12238100  0.25000000  0.16608000  1
  F  F14  1  0.62238100  0.75000000  0.33392000  1
  F  F15  1  0.37761900  0.25000000  0.66608000  1
  F  F16  1  0.84310600  0.25000000  0.81097100  1
  F  F17  1  0.15689400  0.75000000  0.18902900  1
  F  F18  1  0.65689400  0.25000000  0.31097100  1
  F  F19  1  0.34310600  0.75000000  0.68902900  1
  F  F20  1  0.64687800  0.96423000  0.57291000  1
  F  F21  1  0.35312200  0.46423000  0.42709000  1
  F  F22  1  0.85312200  0.96423000  0.07291000  1
  F  F23  1  0.14687800  0.46423000  0.92709000  1
  F  F24  1  0.38982400  0.75000000  0.98606500  1
  F  F25  1  0.61017600  0.25000000  0.01393500  1
  F  F26  1  0.11017600  0.75000000  0.48606500  1
  F  F27  1  0.88982400  0.25000000  0.51393500  1
  F  F28  1  0.14687800  0.03577000  0.92709000  1
  F  F29  1  0.85312200  0.53577000  0.07291000  1
  F  F30  1  0.35312200  0.03577000  0.42709000  1
  F  F31  1  0.64687800  0.53577000  0.57291000  1
