# generated using pymatgen
data_Ta2Tl4S11
_symmetry_space_group_name_H-M   'P 1'
_cell_length_a   8.21035600
_cell_length_b   9.19632063
_cell_length_c   13.49371737
_cell_angle_alpha   107.74607616
_cell_angle_beta   89.19912825
_cell_angle_gamma   95.10476352
_symmetry_Int_Tables_number   1
_chemical_formula_structural   Ta2Tl4S11
_chemical_formula_sum   'Ta4 Tl8 S22'
_cell_volume   966.42249424
_cell_formula_units_Z   2
loop_
 _symmetry_equiv_pos_site_id
 _symmetry_equiv_pos_as_xyz
  1  'x, y, z'
loop_
 _atom_site_type_symbol
 _atom_site_label
 _atom_site_symmetry_multiplicity
 _atom_site_fract_x
 _atom_site_fract_y
 _atom_site_fract_z
 _atom_site_occupancy
  Ta  Ta0  1  0.33359200  0.88771200  0.19167800  1
  Ta  Ta1  1  0.66640800  0.11228800  0.80832200  1
  Ta  Ta2  1  0.12596500  0.64130000  0.30655800  1
  Ta  Ta3  1  0.87403500  0.35870000  0.69344200  1
  Tl  Tl4  1  0.23092400  0.57782200  0.58511200  1
  Tl  Tl5  1  0.76907600  0.42217800  0.41488800  1
  Tl  Tl6  1  0.49839200  0.73905000  0.89088900  1
  Tl  Tl7  1  0.50160800  0.26095000  0.10911100  1
  Tl  Tl8  1  0.21248100  0.03407000  0.57534900  1
  Tl  Tl9  1  0.78751900  0.96593000  0.42465100  1
  Tl  Tl10  1  0.04637100  0.24066200  0.97610000  1
  Tl  Tl11  1  0.95362900  0.75933800  0.02390000  1
  S  S12  1  0.00405700  0.28855700  0.53438800  1
  S  S13  1  0.99594300  0.71144300  0.46561200  1
  S  S14  1  0.38521100  0.81138200  0.37188900  1
  S  S15  1  0.61478900  0.18861800  0.62811100  1
  S  S16  1  0.04830100  0.36400300  0.24897100  1
  S  S17  1  0.95169900  0.63599700  0.75102900  1
  S  S18  1  0.09699300  0.50622600  0.81168300  1
  S  S19  1  0.90300700  0.49377400  0.18831700  1
  S  S20  1  0.38959000  0.57803000  0.35419800  1
  S  S21  1  0.61041000  0.42197000  0.64580200  1
  S  S22  1  0.36265000  0.12953300  0.33212500  1
  S  S23  1  0.63735000  0.87046700  0.66787500  1
  S  S24  1  0.72701300  0.04369900  0.95386700  1
  S  S25  1  0.27298700  0.95630100  0.04613300  1
  S  S26  1  0.51481000  0.68538500  0.11992500  1
  S  S27  1  0.48519000  0.31461500  0.88007500  1
  S  S28  1  0.73061000  0.39592800  0.88514700  1
  S  S29  1  0.26939000  0.60407200  0.11485300  1
  S  S30  1  0.95282600  0.13517000  0.74663900  1
  S  S31  1  0.04717400  0.86483000  0.25336100  1
  S  S32  1  0.58055200  0.06848500  0.25460400  1
  S  S33  1  0.41944800  0.93151500  0.74539600  1
