# generated using pymatgen
data_Ba2Ge5Ir4
_symmetry_space_group_name_H-M   'P 1'
_cell_length_a   6.68056481
_cell_length_b   6.68056481
_cell_length_c   11.73884300
_cell_angle_alpha   90.00000000
_cell_angle_beta   90.00000000
_cell_angle_gamma   118.01423223
_symmetry_Int_Tables_number   1
_chemical_formula_structural   Ba2Ge5Ir4
_chemical_formula_sum   'Ba4 Ge10 Ir8'
_cell_volume   462.51860488
_cell_formula_units_Z   2
loop_
 _symmetry_equiv_pos_site_id
 _symmetry_equiv_pos_as_xyz
  1  'x, y, z'
loop_
 _atom_site_type_symbol
 _atom_site_label
 _atom_site_symmetry_multiplicity
 _atom_site_fract_x
 _atom_site_fract_y
 _atom_site_fract_z
 _atom_site_occupancy
  Ba  Ba0  1  0.20204800  0.79795200  0.50000000  1
  Ba  Ba1  1  0.20204800  0.79795200  0.00000000  1
  Ba  Ba2  1  0.79795200  0.20204800  0.50000000  1
  Ba  Ba3  1  0.79795200  0.20204800  0.00000000  1
  Ge  Ge4  1  0.50687300  0.88955800  0.25000000  1
  Ge  Ge5  1  0.11044200  0.49312700  0.75000000  1
  Ge  Ge6  1  0.49312700  0.11044200  0.75000000  1
  Ge  Ge7  1  0.88955800  0.50687300  0.25000000  1
  Ge  Ge8  1  0.34089500  0.34089500  0.42857700  1
  Ge  Ge9  1  0.65910500  0.65910500  0.57142300  1
  Ge  Ge10  1  0.34089500  0.34089500  0.07142300  1
  Ge  Ge11  1  0.65910500  0.65910500  0.92857700  1
  Ge  Ge12  1  0.02189900  0.02189900  0.25000000  1
  Ge  Ge13  1  0.97810100  0.97810000  0.75000000  1
  Ir  Ir14  1  0.47475000  0.23148300  0.25000000  1
  Ir  Ir15  1  0.76851700  0.52525000  0.75000000  1
  Ir  Ir16  1  0.52525000  0.76851700  0.75000000  1
  Ir  Ir17  1  0.23148300  0.47475000  0.25000000  1
  Ir  Ir18  1  0.69431500  0.69431500  0.36503900  1
  Ir  Ir19  1  0.30568500  0.30568500  0.63496100  1
  Ir  Ir20  1  0.69431500  0.69431500  0.13496100  1
  Ir  Ir21  1  0.30568500  0.30568500  0.86503900  1
