# generated using pymatgen
data_Sc2Mn12GaGe11
_symmetry_space_group_name_H-M   'P 1'
_cell_length_a   5.12651816
_cell_length_b   5.12651816
_cell_length_c   16.23052400
_cell_angle_alpha   90.00000000
_cell_angle_beta   90.00000000
_cell_angle_gamma   120.00000200
_symmetry_Int_Tables_number   1
_chemical_formula_structural   Sc2Mn12GaGe11
_chemical_formula_sum   'Sc2 Mn12 Ga1 Ge11'
_cell_volume   369.40958820
_cell_formula_units_Z   1
loop_
 _symmetry_equiv_pos_site_id
 _symmetry_equiv_pos_as_xyz
  1  'x, y, z'
loop_
 _atom_site_type_symbol
 _atom_site_label
 _atom_site_symmetry_multiplicity
 _atom_site_fract_x
 _atom_site_fract_y
 _atom_site_fract_z
 _atom_site_occupancy
  Sc  Sc0  1  0.66666700  0.33333300  0.74966800  1
  Sc  Sc1  1  0.66666700  0.33333300  0.25033200  1
  Mn  Mn2  1  0.16688900  0.33377700  0.62661400  1
  Mn  Mn3  1  0.16656500  0.33313000  0.12518200  1
  Mn  Mn4  1  0.66622300  0.83311100  0.62661400  1
  Mn  Mn5  1  0.66687000  0.83343500  0.12518200  1
  Mn  Mn6  1  0.16688900  0.83311100  0.62661400  1
  Mn  Mn7  1  0.16656500  0.83343500  0.12518200  1
  Mn  Mn8  1  0.16688900  0.33377700  0.37338600  1
  Mn  Mn9  1  0.16656500  0.33313000  0.87481800  1
  Mn  Mn10  1  0.66622300  0.83311100  0.37338600  1
  Mn  Mn11  1  0.66687000  0.83343500  0.87481800  1
  Mn  Mn12  1  0.16688900  0.83311100  0.37338600  1
  Mn  Mn13  1  0.16656500  0.83343500  0.87481800  1
  Ga  Ga14  1  0.00000000  0.00000000  0.50000000  1
  Ge  Ge15  1  0.00000000  0.00000000  0.24986400  1
  Ge  Ge16  1  0.00000000  0.00000000  0.75013600  1
  Ge  Ge17  1  0.33333300  0.66666700  0.75045800  1
  Ge  Ge18  1  0.33333300  0.66666700  0.24954200  1
  Ge  Ge19  1  0.66666700  0.33333300  0.58083700  1
  Ge  Ge20  1  0.66666700  0.33333300  0.08095200  1
  Ge  Ge21  1  0.66666700  0.33333300  0.41916300  1
  Ge  Ge22  1  0.66666700  0.33333300  0.91904800  1
  Ge  Ge23  1  0.00000000  0.00000000  0.00000000  1
  Ge  Ge24  1  0.33333300  0.66666700  0.50000000  1
  Ge  Ge25  1  0.33333300  0.66666700  0.00000000  1
