# generated using pymatgen
data_K3DyCl6
_symmetry_space_group_name_H-M   'P 1'
_cell_length_a   7.80179800
_cell_length_b   13.23678449
_cell_length_c   12.75064875
_cell_angle_alpha   108.78208747
_cell_angle_beta   90.00000000
_cell_angle_gamma   90.00000000
_symmetry_Int_Tables_number   1
_chemical_formula_structural   K3DyCl6
_chemical_formula_sum   'K12 Dy4 Cl24'
_cell_volume   1246.65068326
_cell_formula_units_Z   4
loop_
 _symmetry_equiv_pos_site_id
 _symmetry_equiv_pos_as_xyz
  1  'x, y, z'
loop_
 _atom_site_type_symbol
 _atom_site_label
 _atom_site_symmetry_multiplicity
 _atom_site_fract_x
 _atom_site_fract_y
 _atom_site_fract_z
 _atom_site_occupancy
  K  K0  1  0.43455400  0.68538700  0.73338900  1
  K  K1  1  0.56544600  0.31461300  0.26661100  1
  K  K2  1  0.93455400  0.31461300  0.76661100  1
  K  K3  1  0.06544600  0.68538700  0.23338900  1
  K  K4  1  0.96689300  0.90217200  0.64175300  1
  K  K5  1  0.03310700  0.09782800  0.35824700  1
  K  K6  1  0.46689300  0.09782800  0.85824700  1
  K  K7  1  0.53310700  0.90217200  0.14175300  1
  K  K8  1  0.93478000  0.67940300  0.88769200  1
  K  K9  1  0.06522000  0.32059700  0.11230800  1
  K  K10  1  0.43478000  0.32059700  0.61230800  1
  K  K11  1  0.56522000  0.67940300  0.38769200  1
  Dy  Dy12  1  0.00000000  0.50000000  0.50000000  1
  Dy  Dy13  1  0.50000000  0.50000000  0.00000000  1
  Dy  Dy14  1  0.00000000  0.00000000  0.00000000  1
  Dy  Dy15  1  0.50000000  0.00000000  0.50000000  1
  Cl  Cl16  1  0.49852400  0.88081100  0.62984600  1
  Cl  Cl17  1  0.50147600  0.11918900  0.37015400  1
  Cl  Cl18  1  0.99852400  0.11918900  0.87015400  1
  Cl  Cl19  1  0.00147600  0.88081100  0.12984600  1
  Cl  Cl20  1  0.29082100  0.65437600  0.99506600  1
  Cl  Cl21  1  0.70917900  0.34562400  0.00493400  1
  Cl  Cl22  1  0.79082100  0.34562400  0.50493400  1
  Cl  Cl23  1  0.20917900  0.65437600  0.49506600  1
  Cl  Cl24  1  0.78474700  0.65242100  0.60662100  1
  Cl  Cl25  1  0.21525300  0.34757900  0.39337900  1
  Cl  Cl26  1  0.28474700  0.34757900  0.89337900  1
  Cl  Cl27  1  0.71525300  0.65242100  0.10662100  1
  Cl  Cl28  1  0.64222400  0.50058000  0.80929100  1
  Cl  Cl29  1  0.35777600  0.49942000  0.19070900  1
  Cl  Cl30  1  0.14222400  0.49942000  0.69070900  1
  Cl  Cl31  1  0.85777600  0.50058000  0.30929100  1
  Cl  Cl32  1  0.17949100  0.86113500  0.84570600  1
  Cl  Cl33  1  0.82050900  0.13886500  0.15429400  1
  Cl  Cl34  1  0.67949100  0.13886500  0.65429400  1
  Cl  Cl35  1  0.32050900  0.86113500  0.34570600  1
  Cl  Cl36  1  0.71613700  0.89865900  0.90583300  1
  Cl  Cl37  1  0.28386300  0.10134100  0.09416700  1
  Cl  Cl38  1  0.21613700  0.10134100  0.59416700  1
  Cl  Cl39  1  0.78386300  0.89865900  0.40583300  1
