# generated using pymatgen
data_Na5Pr4Si4O16F
_symmetry_space_group_name_H-M   'P 1'
_cell_length_a   9.00863423
_cell_length_b   9.00863423
_cell_length_c   9.00863423
_cell_angle_alpha   95.39187478
_cell_angle_beta   95.39187478
_cell_angle_gamma   144.29825364
_symmetry_Int_Tables_number   1
_chemical_formula_structural   Na5Pr4Si4O16F
_chemical_formula_sum   'Na5 Pr4 Si4 O16 F1'
_cell_volume   406.10542576
_cell_formula_units_Z   1
loop_
 _symmetry_equiv_pos_site_id
 _symmetry_equiv_pos_as_xyz
  1  'x, y, z'
loop_
 _atom_site_type_symbol
 _atom_site_label
 _atom_site_symmetry_multiplicity
 _atom_site_fract_x
 _atom_site_fract_y
 _atom_site_fract_z
 _atom_site_occupancy
  Na  Na0  1  0.58119700  0.09677100  0.69401900  1
  Na  Na1  1  0.40275200  0.88717800  0.30598100  1
  Na  Na2  1  0.11282200  0.41880300  0.51557400  1
  Na  Na3  1  0.90322900  0.59724800  0.48442600  1
  Na  Na4  1  0.00000000  0.00000000  0.00000000  1
  Pr  Pr5  1  0.60166300  0.66895700  0.30256200  1
  Pr  Pr6  1  0.36639500  0.29910100  0.69743800  1
  Pr  Pr7  1  0.70089900  0.39833700  0.06729400  1
  Pr  Pr8  1  0.33104300  0.63360500  0.93270600  1
  Si  Si9  1  0.76009000  0.90642600  0.65119100  1
  Si  Si10  1  0.25523500  0.10889900  0.34880900  1
  Si  Si11  1  0.89110100  0.23991000  0.14633600  1
  Si  Si12  1  0.09357400  0.74476500  0.85366400  1
  O  O13  1  0.60081000  0.87901200  0.51127800  1
  O  O14  1  0.36773400  0.08953200  0.48872200  1
  O  O15  1  0.91046800  0.39919000  0.27820100  1
  O  O16  1  0.12098800  0.63226600  0.72179900  1
  O  O17  1  0.57754400  0.72291100  0.76382700  1
  O  O18  1  0.95908300  0.81371600  0.23617300  1
  O  O19  1  0.18628400  0.42245600  0.14536700  1
  O  O20  1  0.27708900  0.04091700  0.85463300  1
  O  O21  1  0.04535600  0.21777000  0.75375500  1
  O  O22  1  0.46401500  0.29160100  0.24624500  1
  O  O23  1  0.70839900  0.95464400  0.17241400  1
  O  O24  1  0.78223000  0.53598500  0.82758600  1
  O  O25  1  0.84043400  0.81248600  0.56928800  1
  O  O26  1  0.24319800  0.27114600  0.43071200  1
  O  O27  1  0.72885400  0.15956600  0.97205200  1
  O  O28  1  0.18751400  0.75680200  0.02794800  1
  F  F29  1  0.50000000  0.50000000  0.00000000  1
