# generated using pymatgen
data_Ca4Be3AlSi9H3O28
_symmetry_space_group_name_H-M   'P 1'
_cell_length_a   5.03461979
_cell_length_b   12.01695940
_cell_length_c   19.68722695
_cell_angle_alpha   89.90123903
_cell_angle_beta   89.52853658
_cell_angle_gamma   77.90813524
_symmetry_Int_Tables_number   1
_chemical_formula_structural   Ca4Be3AlSi9H3O28
_chemical_formula_sum   'Ca8 Be6 Al2 Si18 H6 O56'
_cell_volume   1164.62717370
_cell_formula_units_Z   2
loop_
 _symmetry_equiv_pos_site_id
 _symmetry_equiv_pos_as_xyz
  1  'x, y, z'
loop_
 _atom_site_type_symbol
 _atom_site_label
 _atom_site_symmetry_multiplicity
 _atom_site_fract_x
 _atom_site_fract_y
 _atom_site_fract_z
 _atom_site_occupancy
  Ca  Ca0  1  0.67450300  0.16564300  0.65210400  1
  Ca  Ca1  1  0.15985400  0.16564300  0.34789600  1
  Ca  Ca2  1  0.65694900  0.16228300  0.84344200  1
  Ca  Ca3  1  0.18076800  0.16228300  0.15655800  1
  Ca  Ca4  1  0.32549700  0.83435700  0.34789600  1
  Ca  Ca5  1  0.84014600  0.83435700  0.65210400  1
  Ca  Ca6  1  0.34305100  0.83771700  0.15655800  1
  Ca  Ca7  1  0.81923200  0.83771700  0.84344200  1
  Be  Be8  1  0.05277300  0.24751700  0.74992200  1
  Be  Be9  1  0.69971000  0.24751700  0.25007800  1
  Be  Be10  1  0.94722700  0.75248300  0.25007800  1
  Be  Be11  1  0.30029000  0.75248300  0.74992200  1
  Be  Be12  1  0.30215100  0.00000000  0.89697700  1
  Be  Be13  1  0.69784900  0.00000000  0.10302300  1
  Al  Al14  1  0.40530400  0.18939100  0.50000000  1
  Al  Al15  1  0.59469600  0.81060900  0.50000000  1
  Si  Si16  1  0.91879300  0.42731400  0.64346500  1
  Si  Si17  1  0.65389400  0.42731400  0.35653500  1
  Si  Si18  1  0.91677300  0.42663800  0.85567800  1
  Si  Si19  1  0.65658900  0.42663800  0.14432200  1
  Si  Si20  1  0.08120700  0.57268600  0.35653500  1
  Si  Si21  1  0.34610600  0.57268600  0.64346500  1
  Si  Si22  1  0.08322700  0.57336200  0.14432200  1
  Si  Si23  1  0.34341100  0.57336200  0.85567800  1
  Si  Si24  1  0.22603900  0.00000000  0.75339500  1
  Si  Si25  1  0.77396100  0.00000000  0.24660500  1
  Si  Si26  1  0.83028300  0.33943300  0.50000000  1
  Si  Si27  1  0.83150400  0.33699200  0.00000000  1
  Si  Si28  1  0.16971700  0.66056600  0.50000000  1
  Si  Si29  1  0.16849600  0.66300800  0.00000000  1
  Si  Si30  1  0.40939300  0.18121400  0.00000000  1
  Si  Si31  1  0.59060700  0.81878600  0.00000000  1
  Si  Si32  1  0.27651700  0.00000000  0.60572300  1
  Si  Si33  1  0.72348300  0.00000000  0.39427700  1
  H  H34  1  0.72430800  0.68014400  0.74917500  1
  H  H35  1  0.59554800  0.68014400  0.25082500  1
  H  H36  1  0.27569200  0.31985600  0.25082500  1
  H  H37  1  0.40445200  0.31985600  0.74917500  1
  H  H38  1  0.89167900  0.00000000  0.93583900  1
  H  H39  1  0.10832100  0.00000000  0.06416100  1
  O  O40  1  0.19738200  0.46808500  0.66539200  1
  O  O41  1  0.33453300  0.46808500  0.33460800  1
  O  O42  1  0.19855700  0.46723300  0.83555200  1
  O  O43  1  0.33421000  0.46723300  0.16444800  1
  O  O44  1  0.80261800  0.53191500  0.33460800  1
  O  O45  1  0.66546700  0.53191500  0.66539200  1
  O  O46  1  0.80144300  0.53276700  0.16444800  1
  O  O47  1  0.66579000  0.53276700  0.83555200  1
  O  O48  1  0.42190600  0.00000000  0.68368900  1
  O  O49  1  0.57809400  0.00000000  0.31631100  1
  O  O50  1  0.42861600  0.00000000  0.81821900  1
  O  O51  1  0.57138400  0.00000000  0.18178100  1
  O  O52  1  0.91975800  0.41618000  0.56049000  1
  O  O53  1  0.66406200  0.41618000  0.43951000  1
  O  O54  1  0.90919900  0.41365200  0.93869700  1
  O  O55  1  0.67714900  0.41365200  0.06130300  1
  O  O56  1  0.08024200  0.58382000  0.43951000  1
  O  O57  1  0.33593800  0.58382000  0.56049000  1
  O  O58  1  0.09080100  0.58634800  0.06130300  1
  O  O59  1  0.32285100  0.58634800  0.93869700  1
  O  O60  1  0.63770400  0.26200900  0.53640800  1
  O  O61  1  0.10028700  0.26200900  0.46359200  1
  O  O62  1  0.62466400  0.25911900  0.96984500  1
  O  O63  1  0.11621700  0.25911900  0.03015500  1
  O  O64  1  0.36229600  0.73799100  0.46359200  1
  O  O65  1  0.89971300  0.73799100  0.53640800  1
  O  O66  1  0.37533600  0.74088100  0.03015500  1
  O  O67  1  0.88378300  0.74088100  0.96984500  1
  O  O68  1  0.98509100  0.11601700  0.75091000  1
  O  O69  1  0.89889200  0.11601700  0.24909000  1
  O  O70  1  0.01490900  0.88398300  0.24909000  1
  O  O71  1  0.10110800  0.88398300  0.75091000  1
  O  O72  1  0.90735400  0.30832600  0.68088500  1
  O  O73  1  0.78432000  0.30832600  0.31911500  1
  O  O74  1  0.90407500  0.30766600  0.81950400  1
  O  O75  1  0.78825900  0.30766600  0.18049600  1
  O  O76  1  0.09264600  0.69167400  0.31911500  1
  O  O77  1  0.21568000  0.69167400  0.68088500  1
  O  O78  1  0.09592500  0.69233400  0.18049600  1
  O  O79  1  0.21174100  0.69233400  0.81950400  1
  O  O80  1  0.34629400  0.11469300  0.57279200  1
  O  O81  1  0.53901400  0.11469300  0.42720800  1
  O  O82  1  0.35925400  0.11395700  0.93237500  1
  O  O83  1  0.52678800  0.11395700  0.06762500  1
  O  O84  1  0.65370600  0.88530700  0.42720800  1
  O  O85  1  0.46098600  0.88530700  0.57279200  1
  O  O86  1  0.64074600  0.88604300  0.06762500  1
  O  O87  1  0.47321200  0.88604300  0.93237500  1
  O  O88  1  0.95995100  0.00000000  0.61272600  1
  O  O89  1  0.04004900  0.00000000  0.38727400  1
  O  O90  1  0.97351700  0.00000000  0.89106000  1
  O  O91  1  0.02648300  0.00000000  0.10894000  1
  O  O92  1  0.38275800  0.24098100  0.74963700  1
  O  O93  1  0.37626100  0.24098100  0.25036300  1
  O  O94  1  0.61724200  0.75901900  0.25036300  1
  O  O95  1  0.62373900  0.75901900  0.74963700  1
