# generated using pymatgen
data_CuAg2(NO3)4
_symmetry_space_group_name_H-M   'P 1'
_cell_length_a   7.73557800
_cell_length_b   8.36669856
_cell_length_c   8.75110075
_cell_angle_alpha   65.55066640
_cell_angle_beta   86.82142712
_cell_angle_gamma   86.01054693
_symmetry_Int_Tables_number   1
_chemical_formula_structural   CuAg2(NO3)4
_chemical_formula_sum   'Cu2 Ag4 N8 O24'
_cell_volume   514.12242171
_cell_formula_units_Z   2
loop_
 _symmetry_equiv_pos_site_id
 _symmetry_equiv_pos_as_xyz
  1  'x, y, z'
loop_
 _atom_site_type_symbol
 _atom_site_label
 _atom_site_symmetry_multiplicity
 _atom_site_fract_x
 _atom_site_fract_y
 _atom_site_fract_z
 _atom_site_occupancy
  Cu  Cu0  1  0.50000000  0.50000000  0.00000000  1
  Cu  Cu1  1  0.00000000  0.00000000  0.50000000  1
  Ag  Ag2  1  0.93065300  0.76841500  0.00131600  1
  Ag  Ag3  1  0.06934700  0.23158500  0.99868400  1
  Ag  Ag4  1  0.54422500  0.27872200  0.53833700  1
  Ag  Ag5  1  0.45577500  0.72127800  0.46166300  1
  N  N6  1  0.72097800  0.35826100  0.82222000  1
  N  N7  1  0.27902200  0.64173900  0.17778000  1
  N  N8  1  0.59142000  0.84236100  0.79110000  1
  N  N9  1  0.40858000  0.15763900  0.20890000  1
  N  N10  1  0.19794600  0.08997300  0.70530700  1
  N  N11  1  0.80205400  0.91002700  0.29469300  1
  N  N12  1  0.89425900  0.36215100  0.31627400  1
  N  N13  1  0.10574100  0.63784900  0.68372600  1
  O  O14  1  0.71643100  0.36776000  0.96680900  1
  O  O15  1  0.28356900  0.63224000  0.03319100  1
  O  O16  1  0.59095400  0.41913600  0.73019300  1
  O  O17  1  0.40904600  0.58086400  0.26980700  1
  O  O18  1  0.85250400  0.28867000  0.78126600  1
  O  O19  1  0.14749600  0.71133000  0.21873400  1
  O  O20  1  0.64077100  0.71071100  0.93142900  1
  O  O21  1  0.35922900  0.28928900  0.06857100  1
  O  O22  1  0.67281700  0.97910000  0.74593300  1
  O  O23  1  0.32718300  0.02090000  0.25406700  1
  O  O24  1  0.46992600  0.82309400  0.71410800  1
  O  O25  1  0.53007400  0.17690600  0.28589200  1
  O  O26  1  0.06422200  0.99610100  0.72107400  1
  O  O27  1  0.93577800  0.00389900  0.27892600  1
  O  O28  1  0.25679600  0.17551400  0.55842500  1
  O  O29  1  0.74320400  0.82448600  0.44157500  1
  O  O30  1  0.25983400  0.09040100  0.83319200  1
  O  O31  1  0.74016600  0.90959900  0.16680800  1
  O  O32  1  0.84991400  0.22076900  0.44854200  1
  O  O33  1  0.15008600  0.77923100  0.55145800  1
  O  O34  1  0.03059400  0.35636800  0.23532500  1
  O  O35  1  0.96940600  0.64363200  0.76467500  1
  O  O36  1  0.79446000  0.49590800  0.28004500  1
  O  O37  1  0.20554000  0.50409200  0.71995500  1
