# generated using pymatgen
data_NaNi2H3(SeO5)2
_symmetry_space_group_name_H-M   'P 1'
_cell_length_a   6.38634304
_cell_length_b   7.70870599
_cell_length_c   8.98162651
_cell_angle_alpha   99.49178933
_cell_angle_beta   90.01179264
_cell_angle_gamma   114.47483752
_symmetry_Int_Tables_number   1
_chemical_formula_structural   NaNi2H3(SeO5)2
_chemical_formula_sum   'Na2 Ni4 H6 Se4 O20'
_cell_volume   395.76970077
_cell_formula_units_Z   2
loop_
 _symmetry_equiv_pos_site_id
 _symmetry_equiv_pos_as_xyz
  1  'x, y, z'
loop_
 _atom_site_type_symbol
 _atom_site_label
 _atom_site_symmetry_multiplicity
 _atom_site_fract_x
 _atom_site_fract_y
 _atom_site_fract_z
 _atom_site_occupancy
  Na  Na0  1  0.25071600  0.50144300  0.74949800  1
  Na  Na1  1  0.75072300  0.50145500  0.24949700  1
  Ni  Ni2  1  0.75173900  0.99978200  0.74683500  1
  Ni  Ni3  1  0.74796000  0.00005800  0.24700700  1
  Ni  Ni4  1  0.25174700  0.99993800  0.24687400  1
  Ni  Ni5  1  0.24794600  0.00001100  0.74700400  1
  H  H6  1  0.39128600  0.78256000  0.07449800  1
  H  H7  1  0.89136800  0.78254400  0.57447700  1
  H  H8  1  0.11329800  0.22648500  0.42028700  1
  H  H9  1  0.61330600  0.22646500  0.92027000  1
  H  H10  1  0.00605300  0.01209300  0.49001100  1
  H  H11  1  0.50607600  0.01209000  0.99001800  1
  Se  Se12  1  0.14693300  0.29375400  0.05785300  1
  Se  Se13  1  0.64693300  0.29375800  0.55786800  1
  Se  Se14  1  0.35396100  0.70795700  0.43973300  1
  Se  Se15  1  0.85399000  0.70795800  0.93974900  1
  O  O16  1  0.46195700  0.92401400  0.10905400  1
  O  O17  1  0.96199500  0.92399200  0.60904400  1
  O  O18  1  0.04193600  0.08395500  0.38743000  1
  O  O19  1  0.54202200  0.08393200  0.88741700  1
  O  O20  1  0.25743700  0.51482900  0.02123900  1
  O  O21  1  0.75744100  0.51483800  0.52124100  1
  O  O22  1  0.24323300  0.48643200  0.47625400  1
  O  O23  1  0.74323500  0.48643100  0.97625700  1
  O  O24  1  0.07018600  0.14054500  0.88542200  1
  O  O25  1  0.57032000  0.14057100  0.38543000  1
  O  O26  1  0.42981300  0.85951200  0.61310500  1
  O  O27  1  0.92967100  0.85953400  0.11311000  1
  O  O28  1  0.40996600  0.25135900  0.65394000  1
  O  O29  1  0.90989900  0.25128800  0.15390100  1
  O  O30  1  0.84150200  0.25120800  0.65393100  1
  O  O31  1  0.34153600  0.25133600  0.15396400  1
  O  O32  1  0.09158900  0.75095900  0.84443600  1
  O  O33  1  0.59164700  0.75104300  0.34446200  1
  O  O34  1  0.65928800  0.75094200  0.84445700  1
  O  O35  1  0.15929500  0.75092300  0.34442600  1
