# generated using pymatgen
data_DyMoBrO4
_symmetry_space_group_name_H-M   'P 1'
_cell_length_a   6.93232600
_cell_length_b   7.28732403
_cell_length_c   11.06111886
_cell_angle_alpha   105.47948260
_cell_angle_beta   107.32328266
_cell_angle_gamma   92.97116823
_symmetry_Int_Tables_number   1
_chemical_formula_structural   DyMoBrO4
_chemical_formula_sum   'Dy4 Mo4 Br4 O16'
_cell_volume   508.82746465
_cell_formula_units_Z   4
loop_
 _symmetry_equiv_pos_site_id
 _symmetry_equiv_pos_as_xyz
  1  'x, y, z'
loop_
 _atom_site_type_symbol
 _atom_site_label
 _atom_site_symmetry_multiplicity
 _atom_site_fract_x
 _atom_site_fract_y
 _atom_site_fract_z
 _atom_site_occupancy
  Dy  Dy0  1  0.64548100  0.12101600  0.73072800  1
  Dy  Dy1  1  0.35451900  0.87898400  0.26927200  1
  Dy  Dy2  1  0.39110800  0.65280300  0.76856600  1
  Dy  Dy3  1  0.60889200  0.34719700  0.23143400  1
  Mo  Mo4  1  0.73270200  0.81295900  0.13391400  1
  Mo  Mo5  1  0.26729800  0.18704100  0.86608600  1
  Mo  Mo6  1  0.77399800  0.59220700  0.62930100  1
  Mo  Mo7  1  0.22600200  0.40779300  0.37069900  1
  Br  Br8  1  0.25959200  0.98884100  0.51739100  1
  Br  Br9  1  0.74040800  0.01115900  0.48260900  1
  Br  Br10  1  0.19399100  0.71652400  0.98091700  1
  Br  Br11  1  0.80600900  0.28347600  0.01908300  1
  O  O12  1  0.66815200  0.72637400  0.95849400  1
  O  O13  1  0.33184800  0.27362600  0.04150600  1
  O  O14  1  0.00176700  0.86636500  0.20660800  1
  O  O15  1  0.99823300  0.13363500  0.79339200  1
  O  O16  1  0.62270300  0.64748800  0.20122400  1
  O  O17  1  0.37729700  0.35251200  0.79877600  1
  O  O18  1  0.39515400  0.97992800  0.81804700  1
  O  O19  1  0.60484600  0.02007200  0.18195300  1
  O  O20  1  0.04236900  0.64540700  0.67397500  1
  O  O21  1  0.95763100  0.35459300  0.32602500  1
  O  O22  1  0.70993100  0.41499000  0.70172000  1
  O  O23  1  0.29006900  0.58501000  0.29828000  1
  O  O24  1  0.67280000  0.50593200  0.45216000  1
  O  O25  1  0.32720000  0.49406800  0.54784000  1
  O  O26  1  0.65624900  0.79611600  0.70265300  1
  O  O27  1  0.34375100  0.20388400  0.29734700  1
