# generated using pymatgen
data_Lu2(MoO4)3
_symmetry_space_group_name_H-M   'P 1'
_cell_length_a   9.95537100
_cell_length_b   10.04984900
_cell_length_c   13.81864100
_cell_angle_alpha   90.00000000
_cell_angle_beta   90.00000000
_cell_angle_gamma   90.00000000
_symmetry_Int_Tables_number   1
_chemical_formula_structural   Lu2(MoO4)3
_chemical_formula_sum   'Lu8 Mo12 O48'
_cell_volume   1382.55469058
_cell_formula_units_Z   4
loop_
 _symmetry_equiv_pos_site_id
 _symmetry_equiv_pos_as_xyz
  1  'x, y, z'
loop_
 _atom_site_type_symbol
 _atom_site_label
 _atom_site_symmetry_multiplicity
 _atom_site_fract_x
 _atom_site_fract_y
 _atom_site_fract_z
 _atom_site_occupancy
  Lu  Lu0  1  0.25096700  0.46660000  0.11912800  1
  Lu  Lu1  1  0.74903300  0.53340000  0.88087200  1
  Lu  Lu2  1  0.24903300  0.96660000  0.38087200  1
  Lu  Lu3  1  0.25096700  0.03340000  0.88087200  1
  Lu  Lu4  1  0.75096700  0.03340000  0.61912800  1
  Lu  Lu5  1  0.74903300  0.96660000  0.11912800  1
  Lu  Lu6  1  0.24903300  0.53340000  0.61912800  1
  Lu  Lu7  1  0.75096700  0.46660000  0.38087200  1
  Mo  Mo8  1  0.52578500  0.25000000  0.00000000  1
  Mo  Mo9  1  0.47421500  0.75000000  0.00000000  1
  Mo  Mo10  1  0.97421500  0.75000000  0.50000000  1
  Mo  Mo11  1  0.02578500  0.25000000  0.50000000  1
  Mo  Mo12  1  0.10466000  0.11770300  0.14409200  1
  Mo  Mo13  1  0.89534000  0.88229700  0.85590800  1
  Mo  Mo14  1  0.39534000  0.61770300  0.35590800  1
  Mo  Mo15  1  0.10466000  0.38229700  0.85590800  1
  Mo  Mo16  1  0.60466000  0.38229700  0.64409200  1
  Mo  Mo17  1  0.89534000  0.61770300  0.14409200  1
  Mo  Mo18  1  0.39534000  0.88229700  0.64409200  1
  Mo  Mo19  1  0.60466000  0.11770300  0.35590800  1
  O  O20  1  0.17611300  0.07396700  0.02916400  1
  O  O21  1  0.82388700  0.92603300  0.97083600  1
  O  O22  1  0.32388700  0.57396700  0.47083600  1
  O  O23  1  0.17611300  0.42603300  0.97083600  1
  O  O24  1  0.67611300  0.42603300  0.52916400  1
  O  O25  1  0.82388700  0.57396700  0.02916400  1
  O  O26  1  0.32388700  0.92603300  0.52916400  1
  O  O27  1  0.67611300  0.07396700  0.47083600  1
  O  O28  1  0.17781600  0.01323000  0.23550700  1
  O  O29  1  0.82218400  0.98677000  0.76449300  1
  O  O30  1  0.32218400  0.51323000  0.26449300  1
  O  O31  1  0.17781600  0.48677000  0.76449300  1
  O  O32  1  0.67781600  0.48677000  0.73550700  1
  O  O33  1  0.82218400  0.51323000  0.23550700  1
  O  O34  1  0.32218400  0.98677000  0.73550700  1
  O  O35  1  0.67781600  0.01323000  0.26449300  1
  O  O36  1  0.12962800  0.13171000  0.43794300  1
  O  O37  1  0.87037200  0.86829000  0.56205700  1
  O  O38  1  0.37037200  0.63171000  0.06205700  1
  O  O39  1  0.12962800  0.36829000  0.56205700  1
  O  O40  1  0.62962800  0.36829000  0.93794300  1
  O  O41  1  0.87037200  0.63171000  0.43794300  1
  O  O42  1  0.37037200  0.86829000  0.93794300  1
  O  O43  1  0.62962800  0.13171000  0.06205700  1
  O  O44  1  0.13852500  0.29011300  0.16865300  1
  O  O45  1  0.86147500  0.70988700  0.83134700  1
  O  O46  1  0.36147500  0.79011300  0.33134700  1
  O  O47  1  0.13852500  0.20988700  0.83134700  1
  O  O48  1  0.63852500  0.20988700  0.66865300  1
  O  O49  1  0.86147500  0.79011300  0.16865300  1
  O  O50  1  0.36147500  0.70988700  0.66865300  1
  O  O51  1  0.63852500  0.29011300  0.33134700  1
  O  O52  1  0.42268200  0.33389700  0.08770500  1
  O  O53  1  0.57731800  0.66610300  0.91229500  1
  O  O54  1  0.07731800  0.83389700  0.41229500  1
  O  O55  1  0.42268200  0.16610300  0.91229500  1
  O  O56  1  0.92268200  0.16610300  0.58770500  1
  O  O57  1  0.57731800  0.83389700  0.08770500  1
  O  O58  1  0.07731800  0.66610300  0.58770500  1
  O  O59  1  0.92268200  0.33389700  0.41229500  1
  O  O60  1  0.42591400  0.09294100  0.35811000  1
  O  O61  1  0.57408600  0.90705900  0.64189000  1
  O  O62  1  0.07408600  0.59294100  0.14189000  1
  O  O63  1  0.42591400  0.40705900  0.64189000  1
  O  O64  1  0.92591400  0.40705900  0.85811000  1
  O  O65  1  0.57408600  0.59294100  0.35811000  1
  O  O66  1  0.07408600  0.90705900  0.85811000  1
  O  O67  1  0.92591400  0.09294100  0.14189000  1
