# generated using pymatgen
data_Ba3MgSb2O9
_symmetry_space_group_name_H-M   'P 1'
_cell_length_a   5.93388598
_cell_length_b   5.93388598
_cell_length_c   14.65841800
_cell_angle_alpha   90.00000000
_cell_angle_beta   90.00000000
_cell_angle_gamma   119.99999981
_symmetry_Int_Tables_number   1
_chemical_formula_structural   Ba3MgSb2O9
_chemical_formula_sum   'Ba6 Mg2 Sb4 O18'
_cell_volume   446.98827271
_cell_formula_units_Z   2
loop_
 _symmetry_equiv_pos_site_id
 _symmetry_equiv_pos_as_xyz
  1  'x, y, z'
loop_
 _atom_site_type_symbol
 _atom_site_label
 _atom_site_symmetry_multiplicity
 _atom_site_fract_x
 _atom_site_fract_y
 _atom_site_fract_z
 _atom_site_occupancy
  Ba  Ba0  1  0.33333300  0.66666700  0.58790900  1
  Ba  Ba1  1  0.66666700  0.33333300  0.08790900  1
  Ba  Ba2  1  0.66666700  0.33333300  0.41209100  1
  Ba  Ba3  1  0.33333300  0.66666700  0.91209100  1
  Ba  Ba4  1  0.00000000  0.00000000  0.75000000  1
  Ba  Ba5  1  0.00000000  0.00000000  0.25000000  1
  Mg  Mg6  1  0.00000000  0.00000000  0.00000000  1
  Mg  Mg7  1  0.00000000  0.00000000  0.50000000  1
  Sb  Sb8  1  0.66666700  0.33333300  0.65149700  1
  Sb  Sb9  1  0.33333300  0.66666700  0.15149700  1
  Sb  Sb10  1  0.66666700  0.33333300  0.84850300  1
  Sb  Sb11  1  0.33333300  0.66666700  0.34850300  1
  O  O12  1  0.16909100  0.83090900  0.08369400  1
  O  O13  1  0.16909100  0.33818100  0.08369400  1
  O  O14  1  0.66181900  0.83090900  0.08369400  1
  O  O15  1  0.33818100  0.16909100  0.58369400  1
  O  O16  1  0.83090900  0.66181900  0.91630600  1
  O  O17  1  0.83090900  0.16909100  0.58369400  1
  O  O18  1  0.83090900  0.66181900  0.58369400  1
  O  O19  1  0.16909100  0.83090900  0.41630600  1
  O  O20  1  0.66181900  0.83090900  0.41630600  1
  O  O21  1  0.33818100  0.16909100  0.91630600  1
  O  O22  1  0.83090900  0.16909100  0.91630600  1
  O  O23  1  0.16909100  0.33818100  0.41630600  1
  O  O24  1  0.48167400  0.96334900  0.25000000  1
  O  O25  1  0.51832600  0.48167400  0.75000000  1
  O  O26  1  0.96334900  0.48167400  0.75000000  1
  O  O27  1  0.03665100  0.51832600  0.25000000  1
  O  O28  1  0.48167400  0.51832600  0.25000000  1
  O  O29  1  0.51832600  0.03665100  0.75000000  1
