# generated using pymatgen
data_Cs3Tb7Te12
_symmetry_space_group_name_H-M   'P 1'
_cell_length_a   4.46416600
_cell_length_b   13.82181500
_cell_length_c   28.46244600
_cell_angle_alpha   90.00000000
_cell_angle_beta   90.00000000
_cell_angle_gamma   90.00000000
_symmetry_Int_Tables_number   1
_chemical_formula_structural   Cs3Tb7Te12
_chemical_formula_sum   'Cs6 Tb14 Te24'
_cell_volume   1756.21479274
_cell_formula_units_Z   2
loop_
 _symmetry_equiv_pos_site_id
 _symmetry_equiv_pos_as_xyz
  1  'x, y, z'
loop_
 _atom_site_type_symbol
 _atom_site_label
 _atom_site_symmetry_multiplicity
 _atom_site_fract_x
 _atom_site_fract_y
 _atom_site_fract_z
 _atom_site_occupancy
  Cs  Cs0  1  0.50000000  0.02797300  0.37073100  1
  Cs  Cs1  1  0.50000000  0.46615000  0.63176500  1
  Cs  Cs2  1  0.00000000  0.53385000  0.13176500  1
  Cs  Cs3  1  0.00000000  0.97202700  0.87073100  1
  Cs  Cs4  1  0.50000000  0.31049900  0.02853200  1
  Cs  Cs5  1  0.00000000  0.68950100  0.52853200  1
  Tb  Tb6  1  0.50000000  0.66458100  0.31701600  1
  Tb  Tb7  1  0.50000000  0.83704100  0.68347000  1
  Tb  Tb8  1  0.00000000  0.16295900  0.18347000  1
  Tb  Tb9  1  0.00000000  0.33541900  0.81701600  1
  Tb  Tb10  1  0.50000000  0.24953200  0.50007800  1
  Tb  Tb11  1  0.00000000  0.75046800  0.00007800  1
  Tb  Tb12  1  0.50000000  0.53680600  0.91367500  1
  Tb  Tb13  1  0.50000000  0.96316600  0.08524600  1
  Tb  Tb14  1  0.00000000  0.03683400  0.58524600  1
  Tb  Tb15  1  0.00000000  0.46319400  0.41367500  1
  Tb  Tb16  1  0.50000000  0.33497400  0.28821100  1
  Tb  Tb17  1  0.50000000  0.16543300  0.71212100  1
  Tb  Tb18  1  0.00000000  0.83456700  0.21212100  1
  Tb  Tb19  1  0.00000000  0.66502600  0.78821100  1
  Te  Te20  1  0.50000000  0.61809700  0.42242900  1
  Te  Te21  1  0.50000000  0.88279700  0.57792300  1
  Te  Te22  1  0.00000000  0.11720300  0.07792300  1
  Te  Te23  1  0.00000000  0.38190300  0.92242900  1
  Te  Te24  1  0.50000000  0.50220500  0.80192700  1
  Te  Te25  1  0.50000000  0.99777600  0.19781600  1
  Te  Te26  1  0.00000000  0.00222400  0.69781600  1
  Te  Te27  1  0.00000000  0.49779500  0.30192700  1
  Te  Te28  1  0.50000000  0.31713700  0.17802600  1
  Te  Te29  1  0.50000000  0.18374800  0.82062600  1
  Te  Te30  1  0.00000000  0.81625200  0.32062600  1
  Te  Te31  1  0.00000000  0.68286300  0.67802600  1
  Te  Te32  1  0.50000000  0.31065100  0.39591800  1
  Te  Te33  1  0.50000000  0.18849200  0.60414200  1
  Te  Te34  1  0.00000000  0.81150800  0.10414200  1
  Te  Te35  1  0.00000000  0.68934900  0.89591800  1
  Te  Te36  1  0.50000000  0.59449000  0.01832100  1
  Te  Te37  1  0.50000000  0.90252700  0.98226400  1
  Te  Te38  1  0.00000000  0.09747300  0.48226400  1
  Te  Te39  1  0.00000000  0.40551000  0.51832100  1
  Te  Te40  1  0.50000000  0.68408600  0.21011900  1
  Te  Te41  1  0.50000000  0.81521600  0.78984300  1
  Te  Te42  1  0.00000000  0.18478400  0.28984300  1
  Te  Te43  1  0.00000000  0.31591400  0.71011900  1
