# generated using pymatgen
data_Y5(SiSb)2
_symmetry_space_group_name_H-M   'P 1'
_cell_length_a   8.55883199
_cell_length_b   8.55883199
_cell_length_c   7.89445400
_cell_angle_alpha   90.00000000
_cell_angle_beta   90.00000000
_cell_angle_gamma   125.26920316
_symmetry_Int_Tables_number   1
_chemical_formula_structural   Y5(SiSb)2
_chemical_formula_sum   'Y10 Si4 Sb4'
_cell_volume   472.14964727
_cell_formula_units_Z   2
loop_
 _symmetry_equiv_pos_site_id
 _symmetry_equiv_pos_as_xyz
  1  'x, y, z'
loop_
 _atom_site_type_symbol
 _atom_site_label
 _atom_site_symmetry_multiplicity
 _atom_site_fract_x
 _atom_site_fract_y
 _atom_site_fract_z
 _atom_site_occupancy
  Y  Y0  1  0.03897900  0.29111700  0.33597400  1
  Y  Y1  1  0.96102100  0.70888300  0.66402600  1
  Y  Y2  1  0.46102100  0.20888300  0.83597400  1
  Y  Y3  1  0.79111700  0.53897900  0.16402600  1
  Y  Y4  1  0.53897900  0.79111700  0.16402600  1
  Y  Y5  1  0.20888300  0.46102100  0.83597400  1
  Y  Y6  1  0.70888300  0.96102100  0.66402600  1
  Y  Y7  1  0.29111700  0.03897900  0.33597400  1
  Y  Y8  1  0.00000000  0.00000000  0.00000000  1
  Y  Y9  1  0.50000000  0.50000000  0.50000000  1
  Si  Si10  1  0.36528400  0.36528400  0.13343500  1
  Si  Si11  1  0.63471600  0.63471600  0.86656500  1
  Si  Si12  1  0.13471600  0.13471600  0.63343500  1
  Si  Si13  1  0.86528400  0.86528400  0.36656500  1
  Sb  Sb14  1  0.79469000  0.20531000  0.00000000  1
  Sb  Sb15  1  0.20531000  0.79469000  0.00000000  1
  Sb  Sb16  1  0.70531000  0.29469000  0.50000000  1
  Sb  Sb17  1  0.29469000  0.70531000  0.50000000  1
