# generated using pymatgen
data_Mg(InS2)2
_symmetry_space_group_name_H-M   'P 1'
_cell_length_a   6.84475700
_cell_length_b   7.91033450
_cell_length_c   12.97315827
_cell_angle_alpha   99.03145006
_cell_angle_beta   95.14775293
_cell_angle_gamma   89.83077068
_symmetry_Int_Tables_number   1
_chemical_formula_structural   Mg(InS2)2
_chemical_formula_sum   'Mg4 In8 S16'
_cell_volume   690.87214249
_cell_formula_units_Z   4
loop_
 _symmetry_equiv_pos_site_id
 _symmetry_equiv_pos_as_xyz
  1  'x, y, z'
loop_
 _atom_site_type_symbol
 _atom_site_label
 _atom_site_symmetry_multiplicity
 _atom_site_fract_x
 _atom_site_fract_y
 _atom_site_fract_z
 _atom_site_occupancy
  Mg  Mg0  1  0.86720300  0.80063900  0.70141100  1
  Mg  Mg1  1  0.13279700  0.19936100  0.29858900  1
  Mg  Mg2  1  0.75155100  0.62502500  0.99867400  1
  Mg  Mg3  1  0.24844900  0.37497500  0.00132600  1
  In  In4  1  0.86129100  0.30069400  0.70224200  1
  In  In5  1  0.13870900  0.69930600  0.29775800  1
  In  In6  1  0.75902300  0.12484200  0.99995000  1
  In  In7  1  0.24097700  0.87515800  0.00005000  1
  In  In8  1  0.63021200  0.44510900  0.29706500  1
  In  In9  1  0.36978800  0.55489100  0.70293500  1
  In  In10  1  0.63021100  0.95340100  0.29969800  1
  In  In11  1  0.36978900  0.04659900  0.70030200  1
  S  S12  1  0.90073600  0.35214400  0.89547700  1
  S  S13  1  0.09926400  0.64785600  0.10452300  1
  S  S14  1  0.89547500  0.84502400  0.89312100  1
  S  S15  1  0.10452500  0.15497600  0.10687900  1
  S  S16  1  0.81600200  0.21943900  0.37728600  1
  S  S17  1  0.18399800  0.78056100  0.62271400  1
  S  S18  1  0.81372000  0.71915600  0.37807000  1
  S  S19  1  0.18628000  0.28084400  0.62193000  1
  S  S20  1  0.68958000  0.02829900  0.62250200  1
  S  S21  1  0.31042000  0.97170100  0.37749800  1
  S  S22  1  0.68870800  0.53290500  0.62292700  1
  S  S23  1  0.31129200  0.46709500  0.37707300  1
  S  S24  1  0.60057300  0.89842500  0.10486500  1
  S  S25  1  0.39942700  0.10157500  0.89513500  1
  S  S26  1  0.60046300  0.40343100  0.10333100  1
  S  S27  1  0.39953700  0.59656900  0.89666900  1
