# generated using pymatgen
data_Dy2TeS2
_symmetry_space_group_name_H-M   'P 1'
_cell_length_a   7.59688087
_cell_length_b   7.59688087
_cell_length_c   7.59688087
_cell_angle_alpha   147.84887646
_cell_angle_beta   138.82886092
_cell_angle_gamma   53.17348885
_symmetry_Int_Tables_number   1
_chemical_formula_structural   Dy2TeS2
_chemical_formula_sum   'Dy2 Te1 S2'
_cell_volume   152.69166826
_cell_formula_units_Z   1
loop_
 _symmetry_equiv_pos_site_id
 _symmetry_equiv_pos_as_xyz
  1  'x, y, z'
loop_
 _atom_site_type_symbol
 _atom_site_label
 _atom_site_symmetry_multiplicity
 _atom_site_fract_x
 _atom_site_fract_y
 _atom_site_fract_z
 _atom_site_occupancy
  Dy  Dy0  1  0.83398900  0.33398900  0.50000000  1
  Dy  Dy1  1  0.16601100  0.66601100  0.50000000  1
  Te  Te2  1  0.00000000  0.00000000  0.00000000  1
  S  S3  1  0.70646500  0.70646500  0.00000000  1
  S  S4  1  0.29353500  0.29353500  0.00000000  1
