# generated using pymatgen
data_Zr3(V2Fe)2
_symmetry_space_group_name_H-M   'P 1'
_cell_length_a   5.06430695
_cell_length_b   5.15137788
_cell_length_c   12.56207717
_cell_angle_alpha   90.79035666
_cell_angle_beta   88.63305000
_cell_angle_gamma   119.40056609
_symmetry_Int_Tables_number   1
_chemical_formula_structural   Zr3(V2Fe)2
_chemical_formula_sum   'Zr6 V8 Fe4'
_cell_volume   285.43180735
_cell_formula_units_Z   2
loop_
 _symmetry_equiv_pos_site_id
 _symmetry_equiv_pos_as_xyz
  1  'x, y, z'
loop_
 _atom_site_type_symbol
 _atom_site_label
 _atom_site_symmetry_multiplicity
 _atom_site_fract_x
 _atom_site_fract_y
 _atom_site_fract_z
 _atom_site_occupancy
  Zr  Zr0  1  0.33715100  0.66619400  0.91970000  1
  Zr  Zr1  1  0.00345600  0.00059400  0.24554100  1
  Zr  Zr2  1  0.66839100  0.33152100  0.58259400  1
  Zr  Zr3  1  0.33160900  0.66847900  0.66740600  1
  Zr  Zr4  1  0.99654400  0.99940600  0.00445800  1
  Zr  Zr5  1  0.66284900  0.33380600  0.33030000  1
  V  V6  1  0.16737800  0.33440500  0.45692900  1
  V  V7  1  0.83262200  0.66559500  0.79307100  1
  V  V8  1  0.33735300  0.67309900  0.28696600  1
  V  V9  1  0.00000000  0.00000000  0.62500000  1
  V  V10  1  0.66264700  0.32690100  0.96303400  1
  V  V11  1  0.00000000  0.50000000  0.12500000  1
  V  V12  1  0.66552300  0.83183000  0.45765900  1
  V  V13  1  0.33447700  0.16817000  0.79234100  1
  Fe  Fe14  1  0.50000000  0.50000000  0.12500000  1
  Fe  Fe15  1  0.16588900  0.83279500  0.45726300  1
  Fe  Fe16  1  0.83411100  0.16720500  0.79273700  1
  Fe  Fe17  1  0.50000000  0.00000000  0.12500000  1
