# generated using pymatgen
data_Er
_symmetry_space_group_name_H-M   'P 1'
_cell_length_a   8.75926620
_cell_length_b   8.75926620
_cell_length_c   8.75926530
_cell_angle_alpha   23.28405842
_cell_angle_beta   23.28405842
_cell_angle_gamma   23.28406283
_symmetry_Int_Tables_number   1
_chemical_formula_structural   Er
_chemical_formula_sum   Er3
_cell_volume   92.19310639
_cell_formula_units_Z   3
loop_
 _symmetry_equiv_pos_site_id
 _symmetry_equiv_pos_as_xyz
  1  'x, y, z'
loop_
 _atom_site_type_symbol
 _atom_site_label
 _atom_site_symmetry_multiplicity
 _atom_site_fract_x
 _atom_site_fract_y
 _atom_site_fract_z
 _atom_site_occupancy
  Er  Er0  1  0.00000000  0.00000000  0.00000000  1
  Er  Er1  1  0.22203000  0.22203000  0.22203000  1
  Er  Er2  1  0.77797000  0.77797000  0.77797000  1
