# generated using pymatgen
data_PaSb2
_symmetry_space_group_name_H-M   'P 1'
_cell_length_a   4.33435200
_cell_length_b   4.33435200
_cell_length_c   8.75410700
_cell_angle_alpha   90.00000000
_cell_angle_beta   90.00000000
_cell_angle_gamma   90.00000000
_symmetry_Int_Tables_number   1
_chemical_formula_structural   PaSb2
_chemical_formula_sum   'Pa2 Sb4'
_cell_volume   164.45997012
_cell_formula_units_Z   2
loop_
 _symmetry_equiv_pos_site_id
 _symmetry_equiv_pos_as_xyz
  1  'x, y, z'
loop_
 _atom_site_type_symbol
 _atom_site_label
 _atom_site_symmetry_multiplicity
 _atom_site_fract_x
 _atom_site_fract_y
 _atom_site_fract_z
 _atom_site_occupancy
  Pa  Pa0  1  0.00000000  0.50000000  0.72133800  1
  Pa  Pa1  1  0.50000000  0.00000000  0.27866200  1
  Sb  Sb2  1  0.00000000  0.50000000  0.36001900  1
  Sb  Sb3  1  0.50000000  0.00000000  0.63998100  1
  Sb  Sb4  1  0.00000000  0.00000000  0.00000000  1
  Sb  Sb5  1  0.50000000  0.50000000  0.00000000  1
