# generated using pymatgen
data_ThCu5Sn
_symmetry_space_group_name_H-M   'P 1'
_cell_length_a   5.10382700
_cell_length_b   8.35653400
_cell_length_c   10.60911100
_cell_angle_alpha   90.00000000
_cell_angle_beta   90.00000000
_cell_angle_gamma   90.00000000
_symmetry_Int_Tables_number   1
_chemical_formula_structural   ThCu5Sn
_chemical_formula_sum   'Th4 Cu20 Sn4'
_cell_volume   452.48180779
_cell_formula_units_Z   4
loop_
 _symmetry_equiv_pos_site_id
 _symmetry_equiv_pos_as_xyz
  1  'x, y, z'
loop_
 _atom_site_type_symbol
 _atom_site_label
 _atom_site_symmetry_multiplicity
 _atom_site_fract_x
 _atom_site_fract_y
 _atom_site_fract_z
 _atom_site_occupancy
  Th  Th0  1  0.75000000  0.24968700  0.94296500  1
  Th  Th1  1  0.25000000  0.75031300  0.05703500  1
  Th  Th2  1  0.75000000  0.74968700  0.55703500  1
  Th  Th3  1  0.25000000  0.25031300  0.44296500  1
  Cu  Cu4  1  0.00167500  0.42820600  0.18691800  1
  Cu  Cu5  1  0.50167500  0.57179400  0.81308200  1
  Cu  Cu6  1  0.49832500  0.92820600  0.31308200  1
  Cu  Cu7  1  0.99832500  0.07179400  0.68691800  1
  Cu  Cu8  1  0.99832500  0.57179400  0.81308200  1
  Cu  Cu9  1  0.49832500  0.42820600  0.18691800  1
  Cu  Cu10  1  0.50167500  0.07179400  0.68691800  1
  Cu  Cu11  1  0.00167500  0.92820600  0.31308200  1
  Cu  Cu12  1  0.75000000  0.43265700  0.39441100  1
  Cu  Cu13  1  0.25000000  0.56734300  0.60558900  1
  Cu  Cu14  1  0.75000000  0.93265700  0.10558900  1
  Cu  Cu15  1  0.25000000  0.06734300  0.89441100  1
  Cu  Cu16  1  0.75000000  0.17998000  0.25517000  1
  Cu  Cu17  1  0.25000000  0.82002000  0.74483000  1
  Cu  Cu18  1  0.75000000  0.67998000  0.24483000  1
  Cu  Cu19  1  0.25000000  0.32002000  0.75517000  1
  Cu  Cu20  1  0.75000000  0.08069300  0.48171700  1
  Cu  Cu21  1  0.25000000  0.91930700  0.51828300  1
  Cu  Cu22  1  0.75000000  0.58069300  0.01828300  1
  Cu  Cu23  1  0.25000000  0.41930700  0.98171700  1
  Sn  Sn24  1  0.75000000  0.36451900  0.64126200  1
  Sn  Sn25  1  0.25000000  0.63548100  0.35873800  1
  Sn  Sn26  1  0.75000000  0.86451900  0.85873800  1
  Sn  Sn27  1  0.25000000  0.13548100  0.14126200  1
