# generated using pymatgen
data_KSm2Cl7
_symmetry_space_group_name_H-M   'P 1'
_cell_length_a   12.94343100
_cell_length_b   7.10105600
_cell_length_c   13.59006566
_cell_angle_alpha   89.46943775
_cell_angle_beta   90.00000000
_cell_angle_gamma   90.00000000
_symmetry_Int_Tables_number   1
_chemical_formula_structural   KSm2Cl7
_chemical_formula_sum   'K4 Sm8 Cl28'
_cell_volume   1249.03694694
_cell_formula_units_Z   4
loop_
 _symmetry_equiv_pos_site_id
 _symmetry_equiv_pos_as_xyz
  1  'x, y, z'
loop_
 _atom_site_type_symbol
 _atom_site_label
 _atom_site_symmetry_multiplicity
 _atom_site_fract_x
 _atom_site_fract_y
 _atom_site_fract_z
 _atom_site_occupancy
  K  K0  1  0.20156700  0.73936300  0.03660700  1
  K  K1  1  0.79843300  0.26063700  0.96339300  1
  K  K2  1  0.70156700  0.26063700  0.46339300  1
  K  K3  1  0.29843300  0.73936300  0.53660700  1
  Sm  Sm4  1  0.53739700  0.77850000  0.23668900  1
  Sm  Sm5  1  0.46260300  0.22150000  0.76331100  1
  Sm  Sm6  1  0.03739700  0.22150000  0.26331100  1
  Sm  Sm7  1  0.96260300  0.77850000  0.73668900  1
  Sm  Sm8  1  0.84084400  0.72677700  0.24745400  1
  Sm  Sm9  1  0.15915600  0.27322300  0.75254600  1
  Sm  Sm10  1  0.34084400  0.27322300  0.25254600  1
  Sm  Sm11  1  0.65915600  0.72677700  0.74745400  1
  Cl  Cl12  1  0.97522900  0.94374100  0.13368900  1
  Cl  Cl13  1  0.02477100  0.05625900  0.86631100  1
  Cl  Cl14  1  0.47522900  0.05625900  0.36631100  1
  Cl  Cl15  1  0.52477100  0.94374100  0.63368900  1
  Cl  Cl16  1  0.68513800  0.74342600  0.38942200  1
  Cl  Cl17  1  0.31486200  0.25657400  0.61057800  1
  Cl  Cl18  1  0.18513800  0.25657400  0.11057800  1
  Cl  Cl19  1  0.81486200  0.74342600  0.88942200  1
  Cl  Cl20  1  0.67829100  0.51622100  0.17237000  1
  Cl  Cl21  1  0.32170900  0.48377900  0.82763000  1
  Cl  Cl22  1  0.17829100  0.48377900  0.32763000  1
  Cl  Cl23  1  0.82170900  0.51622100  0.67237000  1
  Cl  Cl24  1  0.92419300  0.97587700  0.37976800  1
  Cl  Cl25  1  0.07580700  0.02412300  0.62023200  1
  Cl  Cl26  1  0.42419300  0.02412300  0.12023200  1
  Cl  Cl27  1  0.57580700  0.97587700  0.87976800  1
  Cl  Cl28  1  0.94205000  0.46248400  0.12968200  1
  Cl  Cl29  1  0.05795000  0.53751600  0.87031800  1
  Cl  Cl30  1  0.44205000  0.53751600  0.37031800  1
  Cl  Cl31  1  0.55795000  0.46248400  0.62968200  1
  Cl  Cl32  1  0.70378400  0.99916500  0.17475800  1
  Cl  Cl33  1  0.29621600  0.00083500  0.82524200  1
  Cl  Cl34  1  0.20378400  0.00083500  0.32524200  1
  Cl  Cl35  1  0.79621600  0.99916500  0.67475800  1
  Cl  Cl36  1  0.91183500  0.45393700  0.37722100  1
  Cl  Cl37  1  0.08816500  0.54606300  0.62277900  1
  Cl  Cl38  1  0.41183500  0.54606300  0.12277900  1
  Cl  Cl39  1  0.58816500  0.45393700  0.87722100  1
