# generated using pymatgen
data_SmGdCo17
_symmetry_space_group_name_H-M   'P 1'
_cell_length_a   6.29863383
_cell_length_b   6.29863393
_cell_length_c   6.29863383
_cell_angle_alpha   83.24448011
_cell_angle_beta   83.24447827
_cell_angle_gamma   83.24448011
_symmetry_Int_Tables_number   1
_chemical_formula_structural   SmGdCo17
_chemical_formula_sum   'Sm1 Gd1 Co17'
_cell_volume   245.05782886
_cell_formula_units_Z   1
loop_
 _symmetry_equiv_pos_site_id
 _symmetry_equiv_pos_as_xyz
  1  'x, y, z'
loop_
 _atom_site_type_symbol
 _atom_site_label
 _atom_site_symmetry_multiplicity
 _atom_site_fract_x
 _atom_site_fract_y
 _atom_site_fract_z
 _atom_site_occupancy
  Sm  Sm0  1  0.34464800  0.34464800  0.34464800  1
  Gd  Gd1  1  0.65562700  0.65562700  0.65562700  1
  Co  Co2  1  0.71301000  0.99968300  0.28705500  1
  Co  Co3  1  0.99968300  0.28705500  0.71301000  1
  Co  Co4  1  0.28705500  0.71301000  0.99968300  1
  Co  Co5  1  0.99968300  0.71301000  0.28705500  1
  Co  Co6  1  0.71301000  0.28705500  0.99968300  1
  Co  Co7  1  0.28705500  0.99968300  0.71301000  1
  Co  Co8  1  0.34492300  0.85026600  0.34492300  1
  Co  Co9  1  0.85026600  0.34492300  0.34492300  1
  Co  Co10  1  0.34492300  0.34492300  0.85026600  1
  Co  Co11  1  0.65561700  0.14979800  0.65561700  1
  Co  Co12  1  0.14979800  0.65561700  0.65561700  1
  Co  Co13  1  0.65561700  0.65561700  0.14979800  1
  Co  Co14  1  0.99952800  0.50037200  0.99952800  1
  Co  Co15  1  0.50037200  0.99952800  0.99952800  1
  Co  Co16  1  0.99952800  0.99952800  0.50037200  1
  Co  Co17  1  0.90357200  0.90357200  0.90357200  1
  Co  Co18  1  0.09608600  0.09608600  0.09608600  1
