# generated using pymatgen
data_Y(VSn)6
_symmetry_space_group_name_H-M   'P 1'
_cell_length_a   5.51848458
_cell_length_b   5.51848458
_cell_length_c   9.23082400
_cell_angle_alpha   90.00000000
_cell_angle_beta   90.00000000
_cell_angle_gamma   120.00000691
_symmetry_Int_Tables_number   1
_chemical_formula_structural   Y(VSn)6
_chemical_formula_sum   'Y1 V6 Sn6'
_cell_volume   243.45053774
_cell_formula_units_Z   1
loop_
 _symmetry_equiv_pos_site_id
 _symmetry_equiv_pos_as_xyz
  1  'x, y, z'
loop_
 _atom_site_type_symbol
 _atom_site_label
 _atom_site_symmetry_multiplicity
 _atom_site_fract_x
 _atom_site_fract_y
 _atom_site_fract_z
 _atom_site_occupancy
  Y  Y0  1  0.00000000  0.00000000  0.00000000  1
  V  V1  1  0.50000000  0.50000000  0.75115900  1
  V  V2  1  0.50000000  0.00000000  0.75115900  1
  V  V3  1  0.00000000  0.50000000  0.75115900  1
  V  V4  1  0.50000000  0.50000000  0.24884100  1
  V  V5  1  0.50000000  0.00000000  0.24884100  1
  V  V6  1  0.00000000  0.50000000  0.24884100  1
  Sn  Sn7  1  0.00000000  0.00000000  0.66827300  1
  Sn  Sn8  1  0.00000000  0.00000000  0.33172700  1
  Sn  Sn9  1  0.66666700  0.33333300  0.50000000  1
  Sn  Sn10  1  0.33333300  0.66666700  0.50000000  1
  Sn  Sn11  1  0.66666700  0.33333300  0.00000000  1
  Sn  Sn12  1  0.33333300  0.66666700  0.00000000  1
