# generated using pymatgen
data_Ho6InCo2
_symmetry_space_group_name_H-M   'P 1'
_cell_length_a   8.33947179
_cell_length_b   8.33947179
_cell_length_c   8.33947179
_cell_angle_alpha   111.69428083
_cell_angle_beta   110.00695303
_cell_angle_gamma   106.75093015
_symmetry_Int_Tables_number   1
_chemical_formula_structural   Ho6InCo2
_chemical_formula_sum   'Ho12 In2 Co4'
_cell_volume   445.61948954
_cell_formula_units_Z   2
loop_
 _symmetry_equiv_pos_site_id
 _symmetry_equiv_pos_as_xyz
  1  'x, y, z'
loop_
 _atom_site_type_symbol
 _atom_site_label
 _atom_site_symmetry_multiplicity
 _atom_site_fract_x
 _atom_site_fract_y
 _atom_site_fract_z
 _atom_site_occupancy
  Ho  Ho0  1  0.31532200  0.61946700  0.30414500  1
  Ho  Ho1  1  0.68467800  0.38053300  0.69585500  1
  Ho  Ho2  1  0.31532200  0.01117600  0.69585500  1
  Ho  Ho3  1  0.68467800  0.98882400  0.30414500  1
  Ho  Ho4  1  0.18680800  0.28785700  0.47466500  1
  Ho  Ho5  1  0.81319200  0.71214300  0.52533500  1
  Ho  Ho6  1  0.18680800  0.71214300  0.89895100  1
  Ho  Ho7  1  0.81319200  0.28785700  0.10104900  1
  Ho  Ho8  1  0.44261200  0.23180500  0.21080700  1
  Ho  Ho9  1  0.55738800  0.76819500  0.78919300  1
  Ho  Ho10  1  0.02099800  0.23180500  0.78919300  1
  Ho  Ho11  1  0.97900200  0.76819500  0.21080700  1
  In  In12  1  0.50000000  0.50000000  0.00000000  1
  In  In13  1  0.00000000  0.00000000  0.00000000  1
  Co  Co14  1  0.11257700  0.61257700  0.50000000  1
  Co  Co15  1  0.88742300  0.38742300  0.50000000  1
  Co  Co16  1  0.37621800  0.00000000  0.37621800  1
  Co  Co17  1  0.62378200  0.00000000  0.62378200  1
