# generated using pymatgen
data_TmGa2Pd
_symmetry_space_group_name_H-M   'P 1'
_cell_length_a   5.49704940
_cell_length_b   5.49704940
_cell_length_c   6.62556400
_cell_angle_alpha   90.00000000
_cell_angle_beta   90.00000000
_cell_angle_gamma   132.85646536
_symmetry_Int_Tables_number   1
_chemical_formula_structural   TmGa2Pd
_chemical_formula_sum   'Tm2 Ga4 Pd2'
_cell_volume   146.76469780
_cell_formula_units_Z   2
loop_
 _symmetry_equiv_pos_site_id
 _symmetry_equiv_pos_as_xyz
  1  'x, y, z'
loop_
 _atom_site_type_symbol
 _atom_site_label
 _atom_site_symmetry_multiplicity
 _atom_site_fract_x
 _atom_site_fract_y
 _atom_site_fract_z
 _atom_site_occupancy
  Tm  Tm0  1  0.91302900  0.08697100  0.75000000  1
  Tm  Tm1  1  0.08697100  0.91302900  0.25000000  1
  Ga  Ga2  1  0.62800900  0.37199100  0.94780900  1
  Ga  Ga3  1  0.37199100  0.62800900  0.05219100  1
  Ga  Ga4  1  0.37199100  0.62800900  0.44780900  1
  Ga  Ga5  1  0.62800900  0.37199100  0.55219100  1
  Pd  Pd6  1  0.20064800  0.79935200  0.75000000  1
  Pd  Pd7  1  0.79935200  0.20064800  0.25000000  1
