# generated using pymatgen
data_Lu2Ga3Cu
_symmetry_space_group_name_H-M   'P 1'
_cell_length_a   4.33201162
_cell_length_b   4.33201162
_cell_length_c   7.00744900
_cell_angle_alpha   90.00000000
_cell_angle_beta   90.00000000
_cell_angle_gamma   119.99999416
_symmetry_Int_Tables_number   1
_chemical_formula_structural   Lu2Ga3Cu
_chemical_formula_sum   'Lu2 Ga3 Cu1'
_cell_volume   113.88586591
_cell_formula_units_Z   1
loop_
 _symmetry_equiv_pos_site_id
 _symmetry_equiv_pos_as_xyz
  1  'x, y, z'
loop_
 _atom_site_type_symbol
 _atom_site_label
 _atom_site_symmetry_multiplicity
 _atom_site_fract_x
 _atom_site_fract_y
 _atom_site_fract_z
 _atom_site_occupancy
  Lu  Lu0  1  0.66666700  0.33333300  0.73033300  1
  Lu  Lu1  1  0.66666700  0.33333300  0.26090000  1
  Ga  Ga2  1  0.00000000  0.00000000  0.47486200  1
  Ga  Ga3  1  0.00000000  0.00000000  0.04742900  1
  Ga  Ga4  1  0.33333300  0.66666700  0.94834700  1
  Cu  Cu5  1  0.33333300  0.66666700  0.53812900  1
