# generated using pymatgen
data_Ge3(SbO3)4
_symmetry_space_group_name_H-M   'P 1'
_cell_length_a   9.22293846
_cell_length_b   9.22293846
_cell_length_c   9.22293846
_cell_angle_alpha   109.47122063
_cell_angle_beta   109.47122063
_cell_angle_gamma   109.47122063
_symmetry_Int_Tables_number   1
_chemical_formula_structural   Ge3(SbO3)4
_chemical_formula_sum   'Ge6 Sb8 O24'
_cell_volume   603.92921780
_cell_formula_units_Z   2
loop_
 _symmetry_equiv_pos_site_id
 _symmetry_equiv_pos_as_xyz
  1  'x, y, z'
loop_
 _atom_site_type_symbol
 _atom_site_label
 _atom_site_symmetry_multiplicity
 _atom_site_fract_x
 _atom_site_fract_y
 _atom_site_fract_z
 _atom_site_occupancy
  Ge  Ge0  1  0.37500000  0.62500000  0.75000000  1
  Ge  Ge1  1  0.12500000  0.87500000  0.25000000  1
  Ge  Ge2  1  0.25000000  0.12500000  0.87500000  1
  Ge  Ge3  1  0.75000000  0.37500000  0.62500000  1
  Ge  Ge4  1  0.62500000  0.75000000  0.37500000  1
  Ge  Ge5  1  0.87500000  0.25000000  0.12500000  1
  Sb  Sb6  1  0.50000000  0.00000000  0.69480300  1
  Sb  Sb7  1  0.69480300  0.50000000  0.00000000  1
  Sb  Sb8  1  0.80519700  0.80519700  0.80519700  1
  Sb  Sb9  1  0.00000000  0.69480300  0.50000000  1
  Sb  Sb10  1  0.19480300  0.50000000  0.00000000  1
  Sb  Sb11  1  0.50000000  0.00000000  0.19480300  1
  Sb  Sb12  1  0.30519700  0.30519700  0.30519700  1
  Sb  Sb13  1  0.00000000  0.19480300  0.50000000  1
  O  O14  1  0.21401900  0.41438500  0.55877300  1
  O  O15  1  0.14438800  0.08561500  0.29963400  1
  O  O16  1  0.35561200  0.65524600  0.94122700  1
  O  O17  1  0.28598100  0.84475400  0.20036600  1
  O  O18  1  0.05877300  0.91438500  0.71401900  1
  O  O19  1  0.79963400  0.58561500  0.64438800  1
  O  O20  1  0.44122700  0.15524600  0.85561200  1
  O  O21  1  0.70036600  0.34475400  0.78598100  1
  O  O22  1  0.41438500  0.55877300  0.21401900  1
  O  O23  1  0.08561500  0.29963400  0.14438800  1
  O  O24  1  0.65524600  0.94122700  0.35561200  1
  O  O25  1  0.84475400  0.20036600  0.28598100  1
  O  O26  1  0.91438500  0.71401900  0.05877300  1
  O  O27  1  0.58561500  0.64438800  0.79963400  1
  O  O28  1  0.15524600  0.85561200  0.44122700  1
  O  O29  1  0.34475400  0.78598100  0.70036600  1
  O  O30  1  0.55877300  0.21401900  0.41438500  1
  O  O31  1  0.29963400  0.14438800  0.08561500  1
  O  O32  1  0.94122700  0.35561200  0.65524600  1
  O  O33  1  0.20036600  0.28598100  0.84475400  1
  O  O34  1  0.71401900  0.05877300  0.91438500  1
  O  O35  1  0.64438800  0.79963400  0.58561500  1
  O  O36  1  0.85561200  0.44122700  0.15524600  1
  O  O37  1  0.78598100  0.70036600  0.34475400  1
