# generated using pymatgen
data_YAg(WO4)2
_symmetry_space_group_name_H-M   'P 1'
_cell_length_a   7.40704042
_cell_length_b   7.40704042
_cell_length_c   7.32978113
_cell_angle_alpha   65.73447350
_cell_angle_beta   65.73447350
_cell_angle_gamma   94.08186645
_symmetry_Int_Tables_number   1
_chemical_formula_structural   YAg(WO4)2
_chemical_formula_sum   'Y2 Ag2 W4 O16'
_cell_volume   319.97615702
_cell_formula_units_Z   2
loop_
 _symmetry_equiv_pos_site_id
 _symmetry_equiv_pos_as_xyz
  1  'x, y, z'
loop_
 _atom_site_type_symbol
 _atom_site_label
 _atom_site_symmetry_multiplicity
 _atom_site_fract_x
 _atom_site_fract_y
 _atom_site_fract_z
 _atom_site_occupancy
  Y  Y0  1  0.69874200  0.30125800  0.00000000  1
  Y  Y1  1  0.30125800  0.69874200  0.00000000  1
  Ag  Ag2  1  0.68310500  0.68310500  0.48258500  1
  Ag  Ag3  1  0.31689500  0.31689500  0.51741500  1
  W  W4  1  0.21148800  0.21148800  0.03122300  1
  W  W5  1  0.78851200  0.78851200  0.96877700  1
  W  W6  1  0.83550700  0.16449300  0.50000000  1
  W  W7  1  0.16449300  0.83550700  0.50000000  1
  O  O8  1  0.35286000  0.10199700  0.24330200  1
  O  O9  1  0.64714000  0.89800300  0.75669800  1
  O  O10  1  0.89800300  0.64714000  0.75669800  1
  O  O11  1  0.10199700  0.35286000  0.24330200  1
  O  O12  1  0.68525500  0.21876900  0.35188100  1
  O  O13  1  0.31474500  0.78123100  0.64811900  1
  O  O14  1  0.78123100  0.31474500  0.64811900  1
  O  O15  1  0.21876900  0.68525500  0.35188100  1
  O  O16  1  0.69855900  0.95878800  0.08672500  1
  O  O17  1  0.30144100  0.04121200  0.91327500  1
  O  O18  1  0.04121200  0.30144100  0.91327500  1
  O  O19  1  0.95878800  0.69855900  0.08672500  1
  O  O20  1  0.97824700  0.97824700  0.34171200  1
  O  O21  1  0.02175300  0.02175300  0.65828800  1
  O  O22  1  0.55598300  0.55598300  0.13588600  1
  O  O23  1  0.44401700  0.44401700  0.86411400  1
