# generated using pymatgen
data_Be3N2
_symmetry_space_group_name_H-M   'P 1'
_cell_length_a   7.05733628
_cell_length_b   7.05733628
_cell_length_c   7.05733628
_cell_angle_alpha   109.47122063
_cell_angle_beta   109.47122063
_cell_angle_gamma   109.47122063
_symmetry_Int_Tables_number   1
_chemical_formula_structural   Be3N2
_chemical_formula_sum   'Be24 N16'
_cell_volume   270.58302315
_cell_formula_units_Z   8
loop_
 _symmetry_equiv_pos_site_id
 _symmetry_equiv_pos_as_xyz
  1  'x, y, z'
loop_
 _atom_site_type_symbol
 _atom_site_label
 _atom_site_symmetry_multiplicity
 _atom_site_fract_x
 _atom_site_fract_y
 _atom_site_fract_z
 _atom_site_occupancy
  Be  Be0  1  0.76632300  0.53187600  0.52591700  1
  Be  Be1  1  0.96812400  0.73444700  0.99404100  1
  Be  Be2  1  0.76555300  0.73367700  0.25959500  1
  Be  Be3  1  0.24040500  0.97408300  0.50595900  1
  Be  Be4  1  0.73444700  0.99404100  0.96812400  1
  Be  Be5  1  0.25959500  0.76555300  0.73367700  1
  Be  Be6  1  0.97408300  0.50595900  0.24040500  1
  Be  Be7  1  0.52591700  0.76632300  0.53187600  1
  Be  Be8  1  0.53187600  0.52591700  0.76632300  1
  Be  Be9  1  0.99404100  0.96812400  0.73444700  1
  Be  Be10  1  0.73367700  0.25959500  0.76555300  1
  Be  Be11  1  0.50595900  0.24040500  0.97408300  1
  Be  Be12  1  0.23367700  0.46812400  0.47408300  1
  Be  Be13  1  0.03187600  0.26555300  0.00595900  1
  Be  Be14  1  0.23444700  0.26632300  0.74040500  1
  Be  Be15  1  0.75959500  0.02591700  0.49404100  1
  Be  Be16  1  0.26555300  0.00595900  0.03187600  1
  Be  Be17  1  0.74040500  0.23444700  0.26632300  1
  Be  Be18  1  0.02591700  0.49404100  0.75959500  1
  Be  Be19  1  0.47408300  0.23367700  0.46812400  1
  Be  Be20  1  0.46812400  0.47408300  0.23367700  1
  Be  Be21  1  0.00595900  0.03187600  0.26555300  1
  Be  Be22  1  0.26632300  0.74040500  0.23444700  1
  Be  Be23  1  0.49404100  0.75959500  0.02591700  1
  N  N24  1  0.22912400  0.97912400  0.25000000  1
  N  N25  1  0.52087600  0.75000000  0.27087600  1
  N  N26  1  0.75000000  0.27087600  0.52087600  1
  N  N27  1  0.97912400  0.25000000  0.22912400  1
  N  N28  1  0.25000000  0.22912400  0.97912400  1
  N  N29  1  0.27087600  0.52087600  0.75000000  1
  N  N30  1  0.77087600  0.02087600  0.75000000  1
  N  N31  1  0.47912400  0.25000000  0.72912400  1
  N  N32  1  0.25000000  0.72912400  0.47912400  1
  N  N33  1  0.02087600  0.75000000  0.77087600  1
  N  N34  1  0.75000000  0.77087600  0.02087600  1
  N  N35  1  0.72912400  0.47912400  0.25000000  1
  N  N36  1  0.50000000  0.50000000  0.50000000  1
  N  N37  1  0.00000000  0.50000000  0.00000000  1
  N  N38  1  0.00000000  0.00000000  0.50000000  1
  N  N39  1  0.50000000  0.00000000  0.00000000  1
