# generated using pymatgen
data_Na8Zr3Si16Sn(H4O13)4
_symmetry_space_group_name_H-M   'P 1'
_cell_length_a   7.62482100
_cell_length_b   8.92465076
_cell_length_c   16.97876733
_cell_angle_alpha   90.34248732
_cell_angle_beta   91.48266135
_cell_angle_gamma   90.05261789
_symmetry_Int_Tables_number   1
_chemical_formula_structural   Na8Zr3Si16Sn(H4O13)4
_chemical_formula_sum   'Na8 Zr3 Si16 Sn1 H16 O52'
_cell_volume   1154.97771622
_cell_formula_units_Z   1
loop_
 _symmetry_equiv_pos_site_id
 _symmetry_equiv_pos_as_xyz
  1  'x, y, z'
loop_
 _atom_site_type_symbol
 _atom_site_label
 _atom_site_symmetry_multiplicity
 _atom_site_fract_x
 _atom_site_fract_y
 _atom_site_fract_z
 _atom_site_occupancy
  Na  Na0  1  0.39434600  0.81206100  0.60459100  1
  Na  Na1  1  0.89273300  0.81116100  0.10430000  1
  Na  Na2  1  0.60464000  0.31195100  0.89589000  1
  Na  Na3  1  0.10514600  0.31165700  0.39548900  1
  Na  Na4  1  0.10726700  0.18883900  0.89570000  1
  Na  Na5  1  0.60565400  0.18793900  0.39540900  1
  Na  Na6  1  0.89485400  0.68834300  0.60451100  1
  Na  Na7  1  0.39536000  0.68804900  0.10411000  1
  Zr  Zr8  1  0.00000000  0.00000000  0.50000000  1
  Zr  Zr9  1  0.50000000  0.50000000  0.50000000  1
  Zr  Zr10  1  0.00000000  0.50000000  0.00000000  1
  Si  Si11  1  0.88517200  0.34219000  0.58453300  1
  Si  Si12  1  0.38668100  0.33891800  0.08277200  1
  Si  Si13  1  0.11835800  0.84420200  0.91734600  1
  Si  Si14  1  0.61342000  0.84257600  0.41579900  1
  Si  Si15  1  0.61331900  0.66108200  0.91722800  1
  Si  Si16  1  0.11482800  0.65781000  0.41546700  1
  Si  Si17  1  0.38658000  0.15742400  0.58420100  1
  Si  Si18  1  0.88164200  0.15579800  0.08265400  1
  Si  Si19  1  0.74810500  0.05906700  0.66085000  1
  Si  Si20  1  0.24760900  0.05721000  0.15706300  1
  Si  Si21  1  0.25219600  0.56008800  0.84101700  1
  Si  Si22  1  0.75188100  0.55874100  0.34042600  1
  Si  Si23  1  0.75239100  0.94279000  0.84293700  1
  Si  Si24  1  0.25189500  0.94093300  0.33915000  1
  Si  Si25  1  0.24811900  0.44125900  0.65957400  1
  Si  Si26  1  0.74780400  0.43991200  0.15898300  1
  Sn  Sn27  1  0.50000000  0.00000000  0.00000000  1
  H  H28  1  0.07785100  0.89940400  0.67485900  1
  H  H29  1  0.57852300  0.89890200  0.17425400  1
  H  H30  1  0.92247600  0.39946000  0.82557000  1
  H  H31  1  0.42224200  0.39935900  0.32544600  1
  H  H32  1  0.42147700  0.10109800  0.82574600  1
  H  H33  1  0.92214900  0.10059600  0.32514100  1
  H  H34  1  0.57775800  0.60064100  0.67455400  1
  H  H35  1  0.07752400  0.60054000  0.17443000  1
  H  H36  1  0.16309200  0.80226100  0.74435000  1
  H  H37  1  0.66282000  0.80257500  0.24446100  1
  H  H38  1  0.83659900  0.30200300  0.75579500  1
  H  H39  1  0.33671600  0.30177200  0.25554500  1
  H  H40  1  0.33718000  0.19742500  0.75553900  1
  H  H41  1  0.83690800  0.19773900  0.25565000  1
  H  H42  1  0.66328400  0.69822800  0.74445500  1
  H  H43  1  0.16340100  0.69799700  0.24420500  1
  O  O44  1  0.87979900  0.95768800  0.60969500  1
  O  O45  1  0.38144800  0.95517700  0.10692600  1
  O  O46  1  0.12004100  0.45814100  0.89100000  1
  O  O47  1  0.62053900  0.45727300  0.39112200  1
  O  O48  1  0.61855200  0.04482300  0.89307400  1
  O  O49  1  0.12020100  0.04231200  0.39030500  1
  O  O50  1  0.37946100  0.54272700  0.60887800  1
  O  O51  1  0.87995900  0.54185900  0.10900000  1
  O  O52  1  0.74131800  0.46598700  0.55805200  1
  O  O53  1  0.24250600  0.46257100  0.05628300  1
  O  O54  1  0.26073000  0.97163100  0.94242900  1
  O  O55  1  0.75785200  0.96665800  0.44241900  1
  O  O56  1  0.75749400  0.53742900  0.94371700  1
  O  O57  1  0.25868200  0.53401300  0.44194800  1
  O  O58  1  0.24214800  0.03334200  0.55758100  1
  O  O59  1  0.73927000  0.02836900  0.05757100  1
  O  O60  1  0.81234500  0.23684300  0.65843100  1
  O  O61  1  0.31331800  0.23427800  0.15656300  1
  O  O62  1  0.18901300  0.73801500  0.84269500  1
  O  O63  1  0.68725700  0.73614400  0.34208900  1
  O  O64  1  0.68668200  0.76572200  0.84343700  1
  O  O65  1  0.18765500  0.76315700  0.34156900  1
  O  O66  1  0.31274300  0.26385600  0.65791100  1
  O  O67  1  0.81098700  0.26198500  0.15730500  1
  O  O68  1  0.15651000  0.81496600  0.68664300  1
  O  O69  1  0.65664200  0.81446900  0.18674500  1
  O  O70  1  0.84314800  0.31522400  0.81358700  1
  O  O71  1  0.34329200  0.31485600  0.31325900  1
  O  O72  1  0.34335800  0.18553100  0.81325500  1
  O  O73  1  0.84349000  0.18503400  0.31335700  1
  O  O74  1  0.65670800  0.68514400  0.68674100  1
  O  O75  1  0.15685200  0.68477600  0.18641300  1
  O  O76  1  0.04552300  0.44600800  0.62467300  1
  O  O77  1  0.54575300  0.44368100  0.12344900  1
  O  O78  1  0.95590000  0.94667300  0.87757000  1
  O  O79  1  0.45402800  0.94579800  0.37494200  1
  O  O80  1  0.45424700  0.55631900  0.87655100  1
  O  O81  1  0.95447700  0.55399200  0.37532700  1
  O  O82  1  0.54597200  0.05420200  0.62505800  1
  O  O83  1  0.04410000  0.05332700  0.12243000  1
  O  O84  1  0.94759400  0.23282600  0.51363500  1
  O  O85  1  0.44876100  0.23083500  0.01101400  1
  O  O86  1  0.05635900  0.73360200  0.98724800  1
  O  O87  1  0.55193500  0.73350700  0.48641200  1
  O  O88  1  0.55123900  0.76916500  0.98898600  1
  O  O89  1  0.05240600  0.76717400  0.48636500  1
  O  O90  1  0.44806500  0.26649300  0.51358800  1
  O  O91  1  0.94364100  0.26639800  0.01275200  1
  O  O92  1  0.25048400  0.50061900  0.75029600  1
  O  O93  1  0.74951600  0.49938100  0.24970400  1
  O  O94  1  0.74879400  0.00256500  0.75213000  1
  O  O95  1  0.25120600  0.99743500  0.24787000  1
