# generated using pymatgen
data_HoZrF7
_symmetry_space_group_name_H-M   'P 1'
_cell_length_a   5.70059500
_cell_length_b   6.11337753
_cell_length_c   8.28304982
_cell_angle_alpha   102.24204576
_cell_angle_beta   90.00000000
_cell_angle_gamma   90.00000000
_symmetry_Int_Tables_number   1
_chemical_formula_structural   HoZrF7
_chemical_formula_sum   'Ho2 Zr2 F14'
_cell_volume   282.09932464
_cell_formula_units_Z   2
loop_
 _symmetry_equiv_pos_site_id
 _symmetry_equiv_pos_as_xyz
  1  'x, y, z'
loop_
 _atom_site_type_symbol
 _atom_site_label
 _atom_site_symmetry_multiplicity
 _atom_site_fract_x
 _atom_site_fract_y
 _atom_site_fract_z
 _atom_site_occupancy
  Ho  Ho0  1  0.69948500  0.65386400  0.68334200  1
  Ho  Ho1  1  0.19948500  0.34613600  0.31665800  1
  Zr  Zr2  1  0.70920100  0.81234200  0.22403200  1
  Zr  Zr3  1  0.20920100  0.18765800  0.77596800  1
  F  F4  1  0.88617800  0.44994100  0.47547900  1
  F  F5  1  0.38617800  0.55005900  0.52452100  1
  F  F6  1  0.42634300  0.91907700  0.76425200  1
  F  F7  1  0.92634300  0.08092300  0.23574800  1
  F  F8  1  0.93940600  0.96198800  0.76223800  1
  F  F9  1  0.43940600  0.03801200  0.23776200  1
  F  F10  1  0.99374500  0.45690100  0.78630500  1
  F  F11  1  0.49374500  0.54309900  0.21369500  1
  F  F12  1  0.70353300  0.75556100  0.97329700  1
  F  F13  1  0.20353300  0.24443900  0.02670300  1
  F  F14  1  0.71194200  0.85959600  0.47611800  1
  F  F15  1  0.21194200  0.14040400  0.52388200  1
  F  F16  1  0.50652600  0.38037400  0.78041700  1
  F  F17  1  0.00652600  0.61962600  0.21958300  1
