# generated using pymatgen
data_SrS3
_symmetry_space_group_name_H-M   'P 1'
_cell_length_a   5.43903323
_cell_length_b   5.43903323
_cell_length_c   7.00896300
_cell_angle_alpha   90.00000000
_cell_angle_beta   90.00000000
_cell_angle_gamma   95.99145501
_symmetry_Int_Tables_number   1
_chemical_formula_structural   SrS3
_chemical_formula_sum   'Sr2 S6'
_cell_volume   206.21409343
_cell_formula_units_Z   2
loop_
 _symmetry_equiv_pos_site_id
 _symmetry_equiv_pos_as_xyz
  1  'x, y, z'
loop_
 _atom_site_type_symbol
 _atom_site_label
 _atom_site_symmetry_multiplicity
 _atom_site_fract_x
 _atom_site_fract_y
 _atom_site_fract_z
 _atom_site_occupancy
  Sr  Sr0  1  0.99742500  0.99742500  0.00000000  1
  Sr  Sr1  1  0.49742500  0.49742500  0.50000000  1
  S  S2  1  0.46683300  0.46683300  0.00000000  1
  S  S3  1  0.96683300  0.96683300  0.50000000  1
  S  S4  1  0.80433700  0.47530500  0.14241900  1
  S  S5  1  0.47530500  0.80433700  0.85758100  1
  S  S6  1  0.30433700  0.97530500  0.35758100  1
  S  S7  1  0.97530500  0.30433700  0.64241900  1
