# generated using pymatgen
data_Nd12Ni6Pb
_symmetry_space_group_name_H-M   'P 1'
_cell_length_a   8.75115726
_cell_length_b   8.75115726
_cell_length_c   8.75115726
_cell_angle_alpha   109.47122063
_cell_angle_beta   109.47122063
_cell_angle_gamma   109.47122063
_symmetry_Int_Tables_number   1
_chemical_formula_structural   Nd12Ni6Pb
_chemical_formula_sum   'Nd12 Ni6 Pb1'
_cell_volume   515.91074617
_cell_formula_units_Z   1
loop_
 _symmetry_equiv_pos_site_id
 _symmetry_equiv_pos_as_xyz
  1  'x, y, z'
loop_
 _atom_site_type_symbol
 _atom_site_label
 _atom_site_symmetry_multiplicity
 _atom_site_fract_x
 _atom_site_fract_y
 _atom_site_fract_z
 _atom_site_occupancy
  Nd  Nd0  1  0.81372200  0.69226400  0.50598600  1
  Nd  Nd1  1  0.18627800  0.30773600  0.49401400  1
  Nd  Nd2  1  0.18627800  0.69226400  0.87854300  1
  Nd  Nd3  1  0.81372200  0.30773600  0.12145700  1
  Nd  Nd4  1  0.69226400  0.50598600  0.81372200  1
  Nd  Nd5  1  0.30773600  0.49401400  0.18627800  1
  Nd  Nd6  1  0.69226400  0.87854300  0.18627800  1
  Nd  Nd7  1  0.30773600  0.12145700  0.81372200  1
  Nd  Nd8  1  0.50598600  0.81372200  0.69226400  1
  Nd  Nd9  1  0.49401400  0.18627800  0.30773600  1
  Nd  Nd10  1  0.12145700  0.81372200  0.30773600  1
  Nd  Nd11  1  0.87854300  0.18627800  0.69226400  1
  Ni  Ni12  1  0.87869100  0.37869100  0.50000000  1
  Ni  Ni13  1  0.12130900  0.62130900  0.50000000  1
  Ni  Ni14  1  0.37869100  0.50000000  0.87869100  1
  Ni  Ni15  1  0.62130900  0.50000000  0.12130900  1
  Ni  Ni16  1  0.50000000  0.87869100  0.37869100  1
  Ni  Ni17  1  0.50000000  0.12130900  0.62130900  1
  Pb  Pb18  1  0.00000000  0.00000000  0.00000000  1
