# generated using pymatgen
data_Tm3(Al3Os)4
_symmetry_space_group_name_H-M   'P 1'
_cell_length_a   8.81112827
_cell_length_b   8.81112827
_cell_length_c   9.53163800
_cell_angle_alpha   90.00000000
_cell_angle_beta   90.00000000
_cell_angle_gamma   120.00000205
_symmetry_Int_Tables_number   1
_chemical_formula_structural   Tm3(Al3Os)4
_chemical_formula_sum   'Tm6 Al24 Os8'
_cell_volume   640.85711497
_cell_formula_units_Z   2
loop_
 _symmetry_equiv_pos_site_id
 _symmetry_equiv_pos_as_xyz
  1  'x, y, z'
loop_
 _atom_site_type_symbol
 _atom_site_label
 _atom_site_symmetry_multiplicity
 _atom_site_fract_x
 _atom_site_fract_y
 _atom_site_fract_z
 _atom_site_occupancy
  Tm  Tm0  1  0.19405100  0.38810200  0.25000000  1
  Tm  Tm1  1  0.80594900  0.61189800  0.75000000  1
  Tm  Tm2  1  0.61189800  0.80594900  0.25000000  1
  Tm  Tm3  1  0.38810200  0.19405100  0.75000000  1
  Tm  Tm4  1  0.19405100  0.80594900  0.25000000  1
  Tm  Tm5  1  0.80594900  0.19405100  0.75000000  1
  Al  Al6  1  0.33333300  0.66666700  0.01549100  1
  Al  Al7  1  0.66666700  0.33333300  0.98450900  1
  Al  Al8  1  0.66666700  0.33333300  0.51549100  1
  Al  Al9  1  0.33333300  0.66666700  0.48450900  1
  Al  Al10  1  0.16266500  0.32533000  0.57625700  1
  Al  Al11  1  0.83733500  0.67467000  0.42374300  1
  Al  Al12  1  0.67467000  0.83733500  0.57625700  1
  Al  Al13  1  0.83733500  0.67467000  0.07625700  1
  Al  Al14  1  0.32533000  0.16266500  0.42374300  1
  Al  Al15  1  0.16266500  0.32533000  0.92374300  1
  Al  Al16  1  0.16266500  0.83733500  0.57625700  1
  Al  Al17  1  0.32533000  0.16266500  0.07625700  1
  Al  Al18  1  0.83733500  0.16266500  0.42374300  1
  Al  Al19  1  0.67467000  0.83733500  0.92374300  1
  Al  Al20  1  0.83733500  0.16266500  0.07625700  1
  Al  Al21  1  0.16266500  0.83733500  0.92374300  1
  Al  Al22  1  0.55976500  0.11953000  0.25000000  1
  Al  Al23  1  0.44023500  0.88047000  0.75000000  1
  Al  Al24  1  0.88047000  0.44023500  0.25000000  1
  Al  Al25  1  0.11953000  0.55976500  0.75000000  1
  Al  Al26  1  0.55976500  0.44023500  0.25000000  1
  Al  Al27  1  0.44023500  0.55976500  0.75000000  1
  Al  Al28  1  0.00000000  0.00000000  0.25000000  1
  Al  Al29  1  0.00000000  0.00000000  0.75000000  1
  Os  Os30  1  0.50000000  0.00000000  0.00000000  1
  Os  Os31  1  0.00000000  0.50000000  0.00000000  1
  Os  Os32  1  0.50000000  0.00000000  0.50000000  1
  Os  Os33  1  0.50000000  0.50000000  0.00000000  1
  Os  Os34  1  0.00000000  0.50000000  0.50000000  1
  Os  Os35  1  0.50000000  0.50000000  0.50000000  1
  Os  Os36  1  0.00000000  0.00000000  0.00000000  1
  Os  Os37  1  0.00000000  0.00000000  0.50000000  1
