# generated using pymatgen
data_Ti2VS4
_symmetry_space_group_name_H-M   'P 1'
_cell_length_a   6.71552067
_cell_length_b   6.71552067
_cell_length_c   6.01060901
_cell_angle_alpha   64.07738331
_cell_angle_beta   64.07738331
_cell_angle_gamma   28.95604356
_symmetry_Int_Tables_number   1
_chemical_formula_structural   Ti2VS4
_chemical_formula_sum   'Ti2 V1 S4'
_cell_volume   117.09695704
_cell_formula_units_Z   1
loop_
 _symmetry_equiv_pos_site_id
 _symmetry_equiv_pos_as_xyz
  1  'x, y, z'
loop_
 _atom_site_type_symbol
 _atom_site_label
 _atom_site_symmetry_multiplicity
 _atom_site_fract_x
 _atom_site_fract_y
 _atom_site_fract_z
 _atom_site_occupancy
  Ti  Ti0  1  0.74472300  0.74472300  0.28059700  1
  Ti  Ti1  1  0.25527700  0.25527700  0.71940300  1
  V  V2  1  0.00000000  0.00000000  0.00000000  1
  S  S3  1  0.88369400  0.88369400  0.44458400  1
  S  S4  1  0.11630600  0.11630600  0.55541600  1
  S  S5  1  0.62844400  0.62844400  0.03452800  1
  S  S6  1  0.37155600  0.37155600  0.96547200  1
