# generated using pymatgen
data_Ba5Nb3O3F20
_symmetry_space_group_name_H-M   'P 1'
_cell_length_a   12.09968647
_cell_length_b   12.09968647
_cell_length_c   8.02794800
_cell_angle_alpha   90.00000000
_cell_angle_beta   90.00000000
_cell_angle_gamma   120.00000259
_symmetry_Int_Tables_number   1
_chemical_formula_structural   Ba5Nb3O3F20
_chemical_formula_sum   'Ba10 Nb6 O6 F40'
_cell_volume   1017.84911923
_cell_formula_units_Z   2
loop_
 _symmetry_equiv_pos_site_id
 _symmetry_equiv_pos_as_xyz
  1  'x, y, z'
loop_
 _atom_site_type_symbol
 _atom_site_label
 _atom_site_symmetry_multiplicity
 _atom_site_fract_x
 _atom_site_fract_y
 _atom_site_fract_z
 _atom_site_occupancy
  Ba  Ba0  1  0.08689200  0.44606100  0.75000000  1
  Ba  Ba1  1  0.55393900  0.64083200  0.75000000  1
  Ba  Ba2  1  0.35916800  0.91310800  0.75000000  1
  Ba  Ba3  1  0.91310800  0.55393900  0.25000000  1
  Ba  Ba4  1  0.44606100  0.35916800  0.25000000  1
  Ba  Ba5  1  0.64083200  0.08689200  0.25000000  1
  Ba  Ba6  1  0.66666700  0.33333300  0.75000000  1
  Ba  Ba7  1  0.33333300  0.66666700  0.25000000  1
  Ba  Ba8  1  0.00000000  0.00000000  0.50000000  1
  Ba  Ba9  1  0.00000000  0.00000000  0.00000000  1
  Nb  Nb10  1  0.95425000  0.67112100  0.75000000  1
  Nb  Nb11  1  0.32887900  0.28312900  0.75000000  1
  Nb  Nb12  1  0.71687100  0.04575000  0.75000000  1
  Nb  Nb13  1  0.04575000  0.32887900  0.25000000  1
  Nb  Nb14  1  0.67112100  0.71687100  0.25000000  1
  Nb  Nb15  1  0.28312900  0.95425000  0.25000000  1
  O  O16  1  0.58663200  0.88594800  0.75000000  1
  O  O17  1  0.11405200  0.70068400  0.75000000  1
  O  O18  1  0.29931600  0.41336800  0.75000000  1
  O  O19  1  0.41336800  0.11405200  0.25000000  1
  O  O20  1  0.88594800  0.29931600  0.25000000  1
  O  O21  1  0.70068400  0.58663200  0.25000000  1
  F  F22  1  0.41038900  0.16184600  0.75000000  1
  F  F23  1  0.83815400  0.24854300  0.75000000  1
  F  F24  1  0.75145700  0.58961100  0.75000000  1
  F  F25  1  0.58961100  0.83815400  0.25000000  1
  F  F26  1  0.16184600  0.75145700  0.25000000  1
  F  F27  1  0.24854300  0.41038900  0.25000000  1
  F  F28  1  0.89993400  0.50761800  0.59835500  1
  F  F29  1  0.49238200  0.39231500  0.59835500  1
  F  F30  1  0.60768500  0.10006600  0.59835500  1
  F  F31  1  0.10006600  0.49238200  0.09835500  1
  F  F32  1  0.50761800  0.60768500  0.09835500  1
  F  F33  1  0.39231500  0.89993400  0.09835500  1
  F  F34  1  0.10006600  0.49238200  0.40164500  1
  F  F35  1  0.50761800  0.60768500  0.40164500  1
  F  F36  1  0.39231500  0.89993400  0.40164500  1
  F  F37  1  0.89993400  0.50761800  0.90164500  1
  F  F38  1  0.49238200  0.39231500  0.90164500  1
  F  F39  1  0.60768500  0.10006600  0.90164500  1
  F  F40  1  0.66666700  0.33333300  0.37391900  1
  F  F41  1  0.33333300  0.66666700  0.87391900  1
  F  F42  1  0.33333300  0.66666700  0.62608100  1
  F  F43  1  0.66666700  0.33333300  0.12608100  1
  F  F44  1  0.94755600  0.72181900  0.98990700  1
  F  F45  1  0.27818100  0.22573800  0.98990700  1
  F  F46  1  0.77426200  0.05244400  0.98990700  1
  F  F47  1  0.05244400  0.27818100  0.48990700  1
  F  F48  1  0.72181900  0.77426200  0.48990700  1
  F  F49  1  0.22573800  0.94755600  0.48990700  1
  F  F50  1  0.05244400  0.27818100  0.01009300  1
  F  F51  1  0.72181900  0.77426200  0.01009300  1
  F  F52  1  0.22573800  0.94755600  0.01009300  1
  F  F53  1  0.94755600  0.72181900  0.51009300  1
  F  F54  1  0.27818100  0.22573800  0.51009300  1
  F  F55  1  0.77426200  0.05244400  0.51009300  1
  F  F56  1  0.99915400  0.85822000  0.75000000  1
  F  F57  1  0.14178000  0.14093500  0.75000000  1
  F  F58  1  0.85906500  0.00084600  0.75000000  1
  F  F59  1  0.00084600  0.14178000  0.25000000  1
  F  F60  1  0.85822000  0.85906500  0.25000000  1
  F  F61  1  0.14093500  0.99915400  0.25000000  1
