# generated using pymatgen
data_Dy5B2C5
_symmetry_space_group_name_H-M   'P 1'
_cell_length_a   8.15992800
_cell_length_b   8.15992800
_cell_length_c   10.76677100
_cell_angle_alpha   90.00000000
_cell_angle_beta   90.00000000
_cell_angle_gamma   90.00000000
_symmetry_Int_Tables_number   1
_chemical_formula_structural   Dy5B2C5
_chemical_formula_sum   'Dy20 B8 C20'
_cell_volume   716.89925577
_cell_formula_units_Z   4
loop_
 _symmetry_equiv_pos_site_id
 _symmetry_equiv_pos_as_xyz
  1  'x, y, z'
loop_
 _atom_site_type_symbol
 _atom_site_label
 _atom_site_symmetry_multiplicity
 _atom_site_fract_x
 _atom_site_fract_y
 _atom_site_fract_z
 _atom_site_occupancy
  Dy  Dy0  1  0.50000000  0.00000000  0.63894900  1
  Dy  Dy1  1  0.00000000  0.50000000  0.86105100  1
  Dy  Dy2  1  0.00000000  0.50000000  0.36105100  1
  Dy  Dy3  1  0.50000000  0.00000000  0.13894900  1
  Dy  Dy4  1  0.28667300  0.40659900  0.60026200  1
  Dy  Dy5  1  0.71332700  0.59340100  0.60026200  1
  Dy  Dy6  1  0.40659900  0.28667300  0.89973800  1
  Dy  Dy7  1  0.90659900  0.21332700  0.60026200  1
  Dy  Dy8  1  0.09340100  0.78667300  0.60026200  1
  Dy  Dy9  1  0.21332700  0.90659900  0.89973800  1
  Dy  Dy10  1  0.78667300  0.09340100  0.89973800  1
  Dy  Dy11  1  0.59340100  0.71332700  0.89973800  1
  Dy  Dy12  1  0.21332700  0.09340100  0.39973800  1
  Dy  Dy13  1  0.78667300  0.90659900  0.39973800  1
  Dy  Dy14  1  0.09340100  0.21332700  0.10026200  1
  Dy  Dy15  1  0.59340100  0.28667300  0.39973800  1
  Dy  Dy16  1  0.40659900  0.71332700  0.39973800  1
  Dy  Dy17  1  0.28667300  0.59340100  0.10026200  1
  Dy  Dy18  1  0.71332700  0.40659900  0.10026200  1
  Dy  Dy19  1  0.90659900  0.78667300  0.10026200  1
  B  B20  1  0.34391700  0.34391700  0.25000000  1
  B  B21  1  0.84391700  0.84391700  0.75000000  1
  B  B22  1  0.65608300  0.34391700  0.75000000  1
  B  B23  1  0.34391700  0.65608300  0.75000000  1
  B  B24  1  0.15608300  0.15608300  0.75000000  1
  B  B25  1  0.15608300  0.84391700  0.25000000  1
  B  B26  1  0.84391700  0.15608300  0.25000000  1
  B  B27  1  0.65608300  0.65608300  0.25000000  1
  C  C28  1  0.00000000  0.50000000  0.59700500  1
  C  C29  1  0.00000000  0.50000000  0.09700500  1
  C  C30  1  0.50000000  0.00000000  0.40299500  1
  C  C31  1  0.50000000  0.00000000  0.90299500  1
  C  C32  1  0.30216300  0.39812800  0.37581500  1
  C  C33  1  0.69783700  0.60187200  0.37581500  1
  C  C34  1  0.39812800  0.30216300  0.12418500  1
  C  C35  1  0.89812800  0.19783700  0.37581500  1
  C  C36  1  0.10187200  0.80216300  0.37581500  1
  C  C37  1  0.19783700  0.89812800  0.12418500  1
  C  C38  1  0.80216300  0.10187200  0.12418500  1
  C  C39  1  0.60187200  0.69783700  0.12418500  1
  C  C40  1  0.89812800  0.80216300  0.87581500  1
  C  C41  1  0.69783700  0.39812800  0.87581500  1
  C  C42  1  0.30216300  0.60187200  0.87581500  1
  C  C43  1  0.39812800  0.69783700  0.62418500  1
  C  C44  1  0.60187200  0.30216300  0.62418500  1
  C  C45  1  0.10187200  0.19783700  0.87581500  1
  C  C46  1  0.80216300  0.89812800  0.62418500  1
  C  C47  1  0.19783700  0.10187200  0.62418500  1
