# generated using pymatgen
data_AgAuF7
_symmetry_space_group_name_H-M   'P 1'
_cell_length_a   7.38170100
_cell_length_b   7.87178500
_cell_length_c   10.33547200
_cell_angle_alpha   90.00000000
_cell_angle_beta   90.00000000
_cell_angle_gamma   90.00000000
_symmetry_Int_Tables_number   1
_chemical_formula_structural   AgAuF7
_chemical_formula_sum   'Ag4 Au4 F28'
_cell_volume   600.56495832
_cell_formula_units_Z   4
loop_
 _symmetry_equiv_pos_site_id
 _symmetry_equiv_pos_as_xyz
  1  'x, y, z'
loop_
 _atom_site_type_symbol
 _atom_site_label
 _atom_site_symmetry_multiplicity
 _atom_site_fract_x
 _atom_site_fract_y
 _atom_site_fract_z
 _atom_site_occupancy
  Ag  Ag0  1  0.75000000  0.86693300  0.74215100  1
  Ag  Ag1  1  0.75000000  0.36693300  0.75784900  1
  Ag  Ag2  1  0.25000000  0.13306700  0.25784900  1
  Ag  Ag3  1  0.25000000  0.63306700  0.24215100  1
  Au  Au4  1  0.25000000  0.80440400  0.55642200  1
  Au  Au5  1  0.25000000  0.30440400  0.94357800  1
  Au  Au6  1  0.75000000  0.19559600  0.44357800  1
  Au  Au7  1  0.75000000  0.69559600  0.05642200  1
  F  F8  1  0.75000000  0.61333500  0.69549400  1
  F  F9  1  0.75000000  0.11333500  0.80450600  1
  F  F10  1  0.25000000  0.38666500  0.30450600  1
  F  F11  1  0.25000000  0.88666500  0.19549400  1
  F  F12  1  0.75000000  0.96701900  0.52553600  1
  F  F13  1  0.75000000  0.46701900  0.97446400  1
  F  F14  1  0.25000000  0.03298100  0.47446400  1
  F  F15  1  0.25000000  0.53298100  0.02553600  1
  F  F16  1  0.92895900  0.77403500  0.93005300  1
  F  F17  1  0.57104100  0.27403500  0.56994700  1
  F  F18  1  0.42895900  0.22596500  0.06994700  1
  F  F19  1  0.07104100  0.72596500  0.43005300  1
  F  F20  1  0.07104100  0.22596500  0.06994700  1
  F  F21  1  0.42895900  0.72596500  0.43005300  1
  F  F22  1  0.57104100  0.77403500  0.93005300  1
  F  F23  1  0.92895900  0.27403500  0.56994700  1
  F  F24  1  0.43471200  0.88054200  0.67994800  1
  F  F25  1  0.06528800  0.38054200  0.82005200  1
  F  F26  1  0.93471200  0.11945800  0.32005200  1
  F  F27  1  0.56528800  0.61945800  0.17994800  1
  F  F28  1  0.56528800  0.11945800  0.32005200  1
  F  F29  1  0.93471200  0.61945800  0.17994800  1
  F  F30  1  0.06528800  0.88054200  0.67994800  1
  F  F31  1  0.43471200  0.38054200  0.82005200  1
  F  F32  1  0.25000000  0.58221300  0.63630000  1
  F  F33  1  0.25000000  0.08221300  0.86370000  1
  F  F34  1  0.75000000  0.41778700  0.36370000  1
  F  F35  1  0.75000000  0.91778700  0.13630000  1
