# generated using pymatgen
data_YGeAu
_symmetry_space_group_name_H-M   'P 1'
_cell_length_a   4.48212155
_cell_length_b   4.48212155
_cell_length_c   7.36955900
_cell_angle_alpha   90.00000000
_cell_angle_beta   90.00000000
_cell_angle_gamma   119.99999342
_symmetry_Int_Tables_number   1
_chemical_formula_structural   YGeAu
_chemical_formula_sum   'Y2 Ge2 Au2'
_cell_volume   128.21517258
_cell_formula_units_Z   2
loop_
 _symmetry_equiv_pos_site_id
 _symmetry_equiv_pos_as_xyz
  1  'x, y, z'
loop_
 _atom_site_type_symbol
 _atom_site_label
 _atom_site_symmetry_multiplicity
 _atom_site_fract_x
 _atom_site_fract_y
 _atom_site_fract_z
 _atom_site_occupancy
  Y  Y0  1  0.00000000  0.00000000  0.53421300  1
  Y  Y1  1  0.00000000  0.00000000  0.03421300  1
  Ge  Ge2  1  0.66666700  0.33333300  0.32740500  1
  Ge  Ge3  1  0.33333300  0.66666700  0.82740500  1
  Au  Au4  1  0.33333300  0.66666700  0.24748200  1
  Au  Au5  1  0.66666700  0.33333300  0.74748200  1
