# generated using pymatgen
data_Sr(GaS2)2
_symmetry_space_group_name_H-M   'P 1'
_cell_length_a   14.84754475
_cell_length_b   12.28191346
_cell_length_c   12.07438046
_cell_angle_alpha   75.11545336
_cell_angle_beta   53.07715763
_cell_angle_gamma   51.80738901
_symmetry_Int_Tables_number   1
_chemical_formula_structural   Sr(GaS2)2
_chemical_formula_sum   'Sr8 Ga16 S32'
_cell_volume   1360.25095131
_cell_formula_units_Z   8
loop_
 _symmetry_equiv_pos_site_id
 _symmetry_equiv_pos_as_xyz
  1  'x, y, z'
loop_
 _atom_site_type_symbol
 _atom_site_label
 _atom_site_symmetry_multiplicity
 _atom_site_fract_x
 _atom_site_fract_y
 _atom_site_fract_z
 _atom_site_occupancy
  Sr  Sr0  1  0.49833700  0.49833700  0.00166300  1
  Sr  Sr1  1  0.00166300  0.00166300  0.49833700  1
  Sr  Sr2  1  0.75166300  0.75166300  0.24833700  1
  Sr  Sr3  1  0.24833700  0.24833700  0.75166300  1
  Sr  Sr4  1  0.25000000  0.25000000  0.25000000  1
  Sr  Sr5  1  0.00000000  0.00000000  0.00000000  1
  Sr  Sr6  1  0.75000000  0.75000000  0.75000000  1
  Sr  Sr7  1  0.50000000  0.50000000  0.50000000  1
  Ga  Ga8  1  0.23473200  0.51434300  0.48895100  1
  Ga  Ga9  1  0.76197400  0.48895100  0.51434300  1
  Ga  Ga10  1  0.48895100  0.76197400  0.23473200  1
  Ga  Ga11  1  0.51434300  0.23473200  0.76197400  1
  Ga  Ga12  1  0.01526800  0.73565700  0.76104900  1
  Ga  Ga13  1  0.48802600  0.76104900  0.73565700  1
  Ga  Ga14  1  0.76104900  0.48802600  0.01526800  1
  Ga  Ga15  1  0.73565700  0.01526800  0.48802600  1
  Ga  Ga16  1  0.59208900  0.15744100  0.26492700  1
  Ga  Ga17  1  0.98554300  0.26492700  0.15744100  1
  Ga  Ga18  1  0.26492700  0.98554300  0.59208900  1
  Ga  Ga19  1  0.15744100  0.59208900  0.98554300  1
  Ga  Ga20  1  0.65791100  0.09255900  0.98507300  1
  Ga  Ga21  1  0.26445700  0.98507300  0.09255900  1
  Ga  Ga22  1  0.98507300  0.26445700  0.65791100  1
  Ga  Ga23  1  0.09255900  0.65791100  0.26445700  1
  S  S24  1  0.31238100  0.43556700  0.78287600  1
  S  S25  1  0.46917500  0.78287600  0.43556700  1
  S  S26  1  0.78287600  0.46917500  0.31238100  1
  S  S27  1  0.43556700  0.31238100  0.46917500  1
  S  S28  1  0.93761900  0.81443300  0.46712400  1
  S  S29  1  0.78082500  0.46712400  0.81443300  1
  S  S30  1  0.46712400  0.78082500  0.93761900  1
  S  S31  1  0.81443300  0.93761900  0.78082500  1
  S  S32  1  0.97684500  0.77491700  0.96405600  1
  S  S33  1  0.28418200  0.96405600  0.77491700  1
  S  S34  1  0.96405600  0.28418200  0.97684500  1
  S  S35  1  0.77491700  0.97684500  0.28418200  1
  S  S36  1  0.27315500  0.47508300  0.28594400  1
  S  S37  1  0.96581800  0.28594400  0.47508300  1
  S  S38  1  0.28594400  0.96581800  0.27315500  1
  S  S39  1  0.47508300  0.27315500  0.96581800  1
  S  S40  1  0.20797200  0.20570500  0.04211700  1
  S  S41  1  0.54420600  0.04211700  0.20570500  1
  S  S42  1  0.04211700  0.54420600  0.20797200  1
  S  S43  1  0.20570500  0.20797200  0.54420600  1
  S  S44  1  0.04202800  0.04429500  0.20788300  1
  S  S45  1  0.70579400  0.20788300  0.04429500  1
  S  S46  1  0.20788300  0.70579400  0.04202800  1
  S  S47  1  0.04429500  0.04202800  0.70579400  1
  S  S48  1  0.54481300  0.54209400  0.70569300  1
  S  S49  1  0.20740000  0.70569300  0.54209400  1
  S  S50  1  0.70569300  0.20740000  0.54481300  1
  S  S51  1  0.54209400  0.54481300  0.20740000  1
  S  S52  1  0.70518700  0.70790600  0.54430700  1
  S  S53  1  0.04260000  0.54430700  0.70790600  1
  S  S54  1  0.54430700  0.04260000  0.70518700  1
  S  S55  1  0.70790600  0.70518700  0.04260000  1
