# generated using pymatgen
data_ZnSi(AgS2)2
_symmetry_space_group_name_H-M   'P 1'
_cell_length_a   6.62267200
_cell_length_b   6.46665000
_cell_length_c   10.24319719
_cell_angle_alpha   51.20365605
_cell_angle_beta   90.00000000
_cell_angle_gamma   90.00000000
_symmetry_Int_Tables_number   1
_chemical_formula_structural   ZnSi(AgS2)2
_chemical_formula_sum   'Zn2 Si2 Ag4 S8'
_cell_volume   341.89775471
_cell_formula_units_Z   2
loop_
 _symmetry_equiv_pos_site_id
 _symmetry_equiv_pos_as_xyz
  1  'x, y, z'
loop_
 _atom_site_type_symbol
 _atom_site_label
 _atom_site_symmetry_multiplicity
 _atom_site_fract_x
 _atom_site_fract_y
 _atom_site_fract_z
 _atom_site_occupancy
  Zn  Zn0  1  0.68614400  0.59852800  0.67921900  1
  Zn  Zn1  1  0.31385600  0.59852800  0.17921900  1
  Si  Si2  1  0.81560600  0.35521000  0.42565900  1
  Si  Si3  1  0.18439400  0.35521000  0.92565900  1
  Ag  Ag4  1  0.68121700  0.09306800  0.17246900  1
  Ag  Ag5  1  0.31878300  0.09306800  0.67246900  1
  Ag  Ag6  1  0.84745400  0.85880700  0.92113800  1
  Ag  Ag7  1  0.15254600  0.85880700  0.42113800  1
  S  S8  1  0.87480300  0.46961300  0.91418300  1
  S  S9  1  0.12519700  0.46961300  0.41418300  1
  S  S10  1  0.68353900  0.26420900  0.64793500  1
  S  S11  1  0.31646100  0.26420900  0.14793500  1
  S  S12  1  0.80060400  0.01036400  0.43872000  1
  S  S13  1  0.19939600  0.01036400  0.93872000  1
  S  S14  1  0.66024200  0.67354200  0.20262800  1
  S  S15  1  0.33975800  0.67354200  0.70262800  1
