# generated using pymatgen
data_AsPO5
_symmetry_space_group_name_H-M   'P 1'
_cell_length_a   4.61144700
_cell_length_b   8.35200500
_cell_length_c   8.56061800
_cell_angle_alpha   90.00000000
_cell_angle_beta   90.00000000
_cell_angle_gamma   90.00000000
_symmetry_Int_Tables_number   1
_chemical_formula_structural   AsPO5
_chemical_formula_sum   'As4 P4 O20'
_cell_volume   329.71073328
_cell_formula_units_Z   4
loop_
 _symmetry_equiv_pos_site_id
 _symmetry_equiv_pos_as_xyz
  1  'x, y, z'
loop_
 _atom_site_type_symbol
 _atom_site_label
 _atom_site_symmetry_multiplicity
 _atom_site_fract_x
 _atom_site_fract_y
 _atom_site_fract_z
 _atom_site_occupancy
  As  As0  1  0.62353900  0.34930200  0.59884100  1
  As  As1  1  0.12353900  0.15069800  0.40115900  1
  As  As2  1  0.37646100  0.84930200  0.90115900  1
  As  As3  1  0.87646100  0.65069800  0.09884100  1
  P  P4  1  0.61529800  0.96640900  0.21588900  1
  P  P5  1  0.11529800  0.53359100  0.78411100  1
  P  P6  1  0.38470200  0.46640900  0.28411100  1
  P  P7  1  0.88470200  0.03359100  0.71588900  1
  O  O8  1  0.04545200  0.50325200  0.96068100  1
  O  O9  1  0.54545200  0.99674800  0.03931900  1
  O  O10  1  0.95454800  0.00325200  0.53931900  1
  O  O11  1  0.45454800  0.49674800  0.46068100  1
  O  O12  1  0.21013900  0.71025500  0.75192000  1
  O  O13  1  0.71013900  0.78974500  0.24808000  1
  O  O14  1  0.78986100  0.21025500  0.74808000  1
  O  O15  1  0.28986100  0.28974500  0.25192000  1
  O  O16  1  0.90517300  0.31977900  0.45535300  1
  O  O17  1  0.40517300  0.18022100  0.54464700  1
  O  O18  1  0.09482700  0.81977900  0.04464700  1
  O  O19  1  0.59482700  0.68022100  0.95535300  1
  O  O20  1  0.15049900  0.59413700  0.25153500  1
  O  O21  1  0.65049900  0.90586300  0.74846500  1
  O  O22  1  0.84950100  0.09413700  0.24846500  1
  O  O23  1  0.34950100  0.40586300  0.75153500  1
  O  O24  1  0.65568200  0.48136900  0.17741100  1
  O  O25  1  0.15568200  0.01863100  0.82258900  1
  O  O26  1  0.34431800  0.98136900  0.32258900  1
  O  O27  1  0.84431800  0.51863100  0.67741100  1
