# generated using pymatgen
data_SnTe3O8
_symmetry_space_group_name_H-M   'P 1'
_cell_length_a   9.90689761
_cell_length_b   9.90689761
_cell_length_c   9.90689761
_cell_angle_alpha   109.47122063
_cell_angle_beta   109.47122063
_cell_angle_gamma   109.47122063
_symmetry_Int_Tables_number   1
_chemical_formula_structural   SnTe3O8
_chemical_formula_sum   'Sn4 Te12 O32'
_cell_volume   748.49884109
_cell_formula_units_Z   4
loop_
 _symmetry_equiv_pos_site_id
 _symmetry_equiv_pos_as_xyz
  1  'x, y, z'
loop_
 _atom_site_type_symbol
 _atom_site_label
 _atom_site_symmetry_multiplicity
 _atom_site_fract_x
 _atom_site_fract_y
 _atom_site_fract_z
 _atom_site_occupancy
  Sn  Sn0  1  0.00000000  0.00000000  0.00000000  1
  Sn  Sn1  1  0.50000000  0.50000000  0.00000000  1
  Sn  Sn2  1  0.00000000  0.50000000  0.50000000  1
  Sn  Sn3  1  0.50000000  0.00000000  0.50000000  1
  Te  Te4  1  0.69851100  0.25000000  0.94851100  1
  Te  Te5  1  0.55148900  0.80148900  0.75000000  1
  Te  Te6  1  0.05148900  0.30148900  0.75000000  1
  Te  Te7  1  0.25000000  0.44851100  0.19851100  1
  Te  Te8  1  0.19851100  0.25000000  0.44851100  1
  Te  Te9  1  0.75000000  0.05148900  0.30148900  1
  Te  Te10  1  0.30148900  0.75000000  0.05148900  1
  Te  Te11  1  0.44851100  0.19851100  0.25000000  1
  Te  Te12  1  0.25000000  0.94851100  0.69851100  1
  Te  Te13  1  0.80148900  0.75000000  0.55148900  1
  Te  Te14  1  0.75000000  0.55148900  0.80148900  1
  Te  Te15  1  0.94851100  0.69851100  0.25000000  1
  O  O16  1  0.50000000  0.00000000  0.82978500  1
  O  O17  1  0.00000000  0.82978500  0.50000000  1
  O  O18  1  0.82978500  0.50000000  0.00000000  1
  O  O19  1  0.67021500  0.67021500  0.67021500  1
  O  O20  1  0.50000000  0.00000000  0.17021500  1
  O  O21  1  0.00000000  0.17021500  0.50000000  1
  O  O22  1  0.17021500  0.50000000  0.00000000  1
  O  O23  1  0.32978500  0.32978500  0.32978500  1
  O  O24  1  0.47635300  0.71005000  0.04785000  1
  O  O25  1  0.33780000  0.78995000  0.26630300  1
  O  O26  1  0.02364700  0.07149700  0.23369700  1
  O  O27  1  0.42850300  0.45215000  0.16220000  1
  O  O28  1  0.45215000  0.16220000  0.42850300  1
  O  O29  1  0.04785000  0.47635300  0.71005000  1
  O  O30  1  0.78995000  0.26630300  0.33780000  1
  O  O31  1  0.23369700  0.02364700  0.07149700  1
  O  O32  1  0.83780000  0.57149700  0.54785000  1
  O  O33  1  0.92850300  0.76630300  0.97635300  1
  O  O34  1  0.73369700  0.66220000  0.21005000  1
  O  O35  1  0.28995000  0.95215000  0.52364700  1
  O  O36  1  0.76630300  0.97635300  0.92850300  1
  O  O37  1  0.21005000  0.73369700  0.66220000  1
  O  O38  1  0.95215000  0.52364700  0.28995000  1
  O  O39  1  0.54785000  0.83780000  0.57149700  1
  O  O40  1  0.57149700  0.54785000  0.83780000  1
  O  O41  1  0.97635300  0.92850300  0.76630300  1
  O  O42  1  0.66220000  0.21005000  0.73369700  1
  O  O43  1  0.52364700  0.28995000  0.95215000  1
  O  O44  1  0.16220000  0.42850300  0.45215000  1
  O  O45  1  0.07149700  0.23369700  0.02364700  1
  O  O46  1  0.26630300  0.33780000  0.78995000  1
  O  O47  1  0.71005000  0.04785000  0.47635300  1
