# generated using pymatgen
data_ThPt
_symmetry_space_group_name_H-M   'P 1'
_cell_length_a   5.97347620
_cell_length_b   5.97347620
_cell_length_c   4.48305800
_cell_angle_alpha   90.00000000
_cell_angle_beta   90.00000000
_cell_angle_gamma   141.55063677
_symmetry_Int_Tables_number   1
_chemical_formula_structural   ThPt
_chemical_formula_sum   'Th2 Pt2'
_cell_volume   99.47071376
_cell_formula_units_Z   2
loop_
 _symmetry_equiv_pos_site_id
 _symmetry_equiv_pos_as_xyz
  1  'x, y, z'
loop_
 _atom_site_type_symbol
 _atom_site_label
 _atom_site_symmetry_multiplicity
 _atom_site_fract_x
 _atom_site_fract_y
 _atom_site_fract_z
 _atom_site_occupancy
  Th  Th0  1  0.86356000  0.13644000  0.25000000  1
  Th  Th1  1  0.13644000  0.86356000  0.75000000  1
  Pt  Pt2  1  0.59615500  0.40384500  0.25000000  1
  Pt  Pt3  1  0.40384500  0.59615500  0.75000000  1
