# generated using pymatgen
data_Rb2PdSe2
_symmetry_space_group_name_H-M   'P 1'
_cell_length_a   6.70870679
_cell_length_b   6.70870679
_cell_length_c   6.70870679
_cell_angle_alpha   146.43250021
_cell_angle_beta   109.86046369
_cell_angle_gamma   80.03970715
_symmetry_Int_Tables_number   1
_chemical_formula_structural   Rb2PdSe2
_chemical_formula_sum   'Rb2 Pd1 Se2'
_cell_volume   153.45713698
_cell_formula_units_Z   1
loop_
 _symmetry_equiv_pos_site_id
 _symmetry_equiv_pos_as_xyz
  1  'x, y, z'
loop_
 _atom_site_type_symbol
 _atom_site_label
 _atom_site_symmetry_multiplicity
 _atom_site_fract_x
 _atom_site_fract_y
 _atom_site_fract_z
 _atom_site_occupancy
  Rb  Rb0  1  0.69319200  0.19319200  0.50000000  1
  Rb  Rb1  1  0.30680800  0.80680800  0.50000000  1
  Pd  Pd2  1  0.00000000  0.00000000  0.00000000  1
  Se  Se3  1  0.21058600  0.50000000  0.71058600  1
  Se  Se4  1  0.78941400  0.50000000  0.28941400  1
