# generated using pymatgen
data_Cs3ZnI5
_symmetry_space_group_name_H-M   'P 1'
_cell_length_a   10.26211300
_cell_length_b   11.76553400
_cell_length_c   15.33408400
_cell_angle_alpha   90.00000000
_cell_angle_beta   90.00000000
_cell_angle_gamma   90.00000000
_symmetry_Int_Tables_number   1
_chemical_formula_structural   Cs3ZnI5
_chemical_formula_sum   'Cs12 Zn4 I20'
_cell_volume   1851.42563926
_cell_formula_units_Z   4
loop_
 _symmetry_equiv_pos_site_id
 _symmetry_equiv_pos_as_xyz
  1  'x, y, z'
loop_
 _atom_site_type_symbol
 _atom_site_label
 _atom_site_symmetry_multiplicity
 _atom_site_fract_x
 _atom_site_fract_y
 _atom_site_fract_z
 _atom_site_occupancy
  Cs  Cs0  1  0.08147300  0.98275200  0.17236600  1
  Cs  Cs1  1  0.58147300  0.51724800  0.32763400  1
  Cs  Cs2  1  0.91852700  0.48275200  0.82763400  1
  Cs  Cs3  1  0.41852700  0.01724800  0.67236600  1
  Cs  Cs4  1  0.91852700  0.01724800  0.82763400  1
  Cs  Cs5  1  0.41852700  0.48275200  0.67236600  1
  Cs  Cs6  1  0.08147300  0.51724800  0.17236600  1
  Cs  Cs7  1  0.58147300  0.98275200  0.32763400  1
  Cs  Cs8  1  0.08549300  0.75000000  0.45197400  1
  Cs  Cs9  1  0.58549300  0.75000000  0.04802600  1
  Cs  Cs10  1  0.91450700  0.25000000  0.54802600  1
  Cs  Cs11  1  0.41450700  0.25000000  0.95197400  1
  Zn  Zn12  1  0.18675200  0.75000000  0.89297600  1
  Zn  Zn13  1  0.68675200  0.75000000  0.60702400  1
  Zn  Zn14  1  0.81324800  0.25000000  0.10702400  1
  Zn  Zn15  1  0.31324800  0.25000000  0.39297600  1
  I  I16  1  0.13744100  0.75000000  0.72478500  1
  I  I17  1  0.63744100  0.75000000  0.77521500  1
  I  I18  1  0.86255900  0.25000000  0.27521500  1
  I  I19  1  0.36255900  0.25000000  0.22478500  1
  I  I20  1  0.46812300  0.75000000  0.51394100  1
  I  I21  1  0.96812300  0.75000000  0.98605900  1
  I  I22  1  0.53187700  0.25000000  0.48605900  1
  I  I23  1  0.03187700  0.25000000  0.01394100  1
  I  I24  1  0.33251100  0.75000000  0.23654000  1
  I  I25  1  0.83251100  0.75000000  0.26346000  1
  I  I26  1  0.66748900  0.25000000  0.76346000  1
  I  I27  1  0.16748900  0.25000000  0.73654000  1
  I  I28  1  0.31171900  0.93800200  0.93610900  1
  I  I29  1  0.81171900  0.56199800  0.56389100  1
  I  I30  1  0.68828100  0.43800200  0.06389100  1
  I  I31  1  0.18828100  0.06199800  0.43610900  1
  I  I32  1  0.68828100  0.06199800  0.06389100  1
  I  I33  1  0.18828100  0.43800200  0.43610900  1
  I  I34  1  0.31171900  0.56199800  0.93610900  1
  I  I35  1  0.81171900  0.93800200  0.56389100  1
