# generated using pymatgen
data_Mn2InSbO6
_symmetry_space_group_name_H-M   'P 1'
_cell_length_a   6.35986500
_cell_length_b   6.38229834
_cell_length_c   6.38780687
_cell_angle_alpha   90.94661916
_cell_angle_beta   90.96465833
_cell_angle_gamma   90.75106207
_symmetry_Int_Tables_number   1
_chemical_formula_structural   Mn2InSbO6
_chemical_formula_sum   'Mn4 In2 Sb2 O12'
_cell_volume   259.18926273
_cell_formula_units_Z   2
loop_
 _symmetry_equiv_pos_site_id
 _symmetry_equiv_pos_as_xyz
  1  'x, y, z'
loop_
 _atom_site_type_symbol
 _atom_site_label
 _atom_site_symmetry_multiplicity
 _atom_site_fract_x
 _atom_site_fract_y
 _atom_site_fract_z
 _atom_site_occupancy
  Mn  Mn0  1  0.56107500  0.05500500  0.74763100  1
  Mn  Mn1  1  0.94270900  0.24797800  0.43737500  1
  Mn  Mn2  1  0.25292400  0.43152700  0.94571500  1
  Mn  Mn3  1  0.43776000  0.95084700  0.25099700  1
  In  In4  1  0.06039800  0.75052500  0.56458800  1
  In  In5  1  0.74641900  0.56551700  0.05624200  1
  Sb  Sb6  1  0.49824400  0.49769700  0.49979800  1
  Sb  Sb7  1  0.00124700  0.00332300  0.00045800  1
  O  O8  1  0.04168600  0.69684400  0.91073000  1
  O  O9  1  0.70179300  0.90799900  0.04412600  1
  O  O10  1  0.91305500  0.03769700  0.69802900  1
  O  O11  1  0.95509900  0.30310800  0.09208200  1
  O  O12  1  0.29929600  0.08916200  0.95702300  1
  O  O13  1  0.09000500  0.95699500  0.30045300  1
  O  O14  1  0.80048500  0.57545400  0.41882800  1
  O  O15  1  0.57333800  0.42303400  0.79867400  1
  O  O16  1  0.41767700  0.79693000  0.57164200  1
  O  O17  1  0.19697200  0.43206400  0.57537200  1
  O  O18  1  0.43246000  0.57506400  0.19962400  1
  O  O19  1  0.57735800  0.20322900  0.43061300  1
