# generated using pymatgen
data_Cs3Li4(BO2)7
_symmetry_space_group_name_H-M   'P 1'
_cell_length_a   7.02895064
_cell_length_b   7.02895064
_cell_length_c   27.18276600
_cell_angle_alpha   90.00000000
_cell_angle_beta   90.00000000
_cell_angle_gamma   120.00000602
_symmetry_Int_Tables_number   1
_chemical_formula_structural   Cs3Li4(BO2)7
_chemical_formula_sum   'Cs9 Li12 B21 O42'
_cell_volume   1163.06835340
_cell_formula_units_Z   3
loop_
 _symmetry_equiv_pos_site_id
 _symmetry_equiv_pos_as_xyz
  1  'x, y, z'
loop_
 _atom_site_type_symbol
 _atom_site_label
 _atom_site_symmetry_multiplicity
 _atom_site_fract_x
 _atom_site_fract_y
 _atom_site_fract_z
 _atom_site_occupancy
  Cs  Cs0  1  0.52771100  0.99538400  0.05799000  1
  Cs  Cs1  1  0.46767300  0.47228900  0.72465700  1
  Cs  Cs2  1  0.00461600  0.53232700  0.39132300  1
  Cs  Cs3  1  0.47228900  0.46767300  0.27534300  1
  Cs  Cs4  1  0.99538400  0.52771100  0.94201000  1
  Cs  Cs5  1  0.53232700  0.00461600  0.60867700  1
  Cs  Cs6  1  0.00000000  0.92218400  0.16666700  1
  Cs  Cs7  1  0.92218400  0.00000000  0.83333300  1
  Cs  Cs8  1  0.07781600  0.07781600  0.50000000  1
  Li  Li9  1  0.63967400  0.39174800  0.14462800  1
  Li  Li10  1  0.75207300  0.36032600  0.81129500  1
  Li  Li11  1  0.60825200  0.24792700  0.47796100  1
  Li  Li12  1  0.36032600  0.75207300  0.18870500  1
  Li  Li13  1  0.39174800  0.63967400  0.85537200  1
  Li  Li14  1  0.24792700  0.60825200  0.52203900  1
  Li  Li15  1  0.65496100  0.53738700  0.04441000  1
  Li  Li16  1  0.88242600  0.34503900  0.71107600  1
  Li  Li17  1  0.46261300  0.11757400  0.37774300  1
  Li  Li18  1  0.34503900  0.88242600  0.28892400  1
  Li  Li19  1  0.53738700  0.65496100  0.95559000  1
  Li  Li20  1  0.11757400  0.46261300  0.62225700  1
  B  B21  1  0.02972900  0.48887100  0.08460800  1
  B  B22  1  0.45914200  0.97027100  0.75127500  1
  B  B23  1  0.51112900  0.54085800  0.41794100  1
  B  B24  1  0.97027100  0.45914200  0.24872500  1
  B  B25  1  0.48887100  0.02972900  0.91539200  1
  B  B26  1  0.54085800  0.51112900  0.58205900  1
  B  B27  1  0.35482100  0.50414600  0.12550300  1
  B  B28  1  0.14932500  0.64517900  0.79216900  1
  B  B29  1  0.49585400  0.85067500  0.45883600  1
  B  B30  1  0.64517900  0.14932500  0.20783100  1
  B  B31  1  0.50414600  0.35482100  0.87449700  1
  B  B32  1  0.85067500  0.49585400  0.54116400  1
  B  B33  1  0.22211400  0.30868900  0.04256800  1
  B  B34  1  0.08657500  0.77788600  0.70923400  1
  B  B35  1  0.69131100  0.91342500  0.37590100  1
  B  B36  1  0.77788600  0.08657500  0.29076600  1
  B  B37  1  0.30868900  0.22211400  0.95743200  1
  B  B38  1  0.91342500  0.69131100  0.62409900  1
  B  B39  1  0.96653300  0.96653300  0.00000000  1
  B  B40  1  0.00000000  0.03346700  0.66666700  1
  B  B41  1  0.03346700  0.00000000  0.33333300  1
  O  O42  1  0.06963400  0.07046600  0.04439100  1
  O  O43  1  0.00083200  0.93036600  0.71105800  1
  O  O44  1  0.92953400  0.99916800  0.37772400  1
  O  O45  1  0.93036600  0.00083200  0.28894200  1
  O  O46  1  0.07046600  0.06963400  0.95560900  1
  O  O47  1  0.99916800  0.92953400  0.62227600  1
  O  O48  1  0.84264000  0.49327400  0.08925100  1
  O  O49  1  0.65063400  0.15736000  0.75591700  1
  O  O50  1  0.50672600  0.34936600  0.42258400  1
  O  O51  1  0.15736000  0.65063400  0.24408300  1
  O  O52  1  0.49327400  0.84264000  0.91074900  1
  O  O53  1  0.34936600  0.50672600  0.57741600  1
  O  O54  1  0.77537300  0.77537300  0.00000000  1
  O  O55  1  0.00000000  0.22462700  0.66666700  1
  O  O56  1  0.22462700  0.00000000  0.33333300  1
  O  O57  1  0.36968400  0.38060400  0.08711000  1
  O  O58  1  0.01092000  0.63031600  0.75377700  1
  O  O59  1  0.61939600  0.98908000  0.42044400  1
  O  O60  1  0.63031600  0.01092000  0.24622300  1
  O  O61  1  0.38060400  0.36968400  0.91289000  1
  O  O62  1  0.98908000  0.61939600  0.57955600  1
  O  O63  1  0.09027000  0.42237400  0.04202500  1
  O  O64  1  0.33210400  0.90973000  0.70869200  1
  O  O65  1  0.57762600  0.66789600  0.37535900  1
  O  O66  1  0.90973000  0.33210400  0.29130800  1
  O  O67  1  0.42237400  0.09027000  0.95797500  1
  O  O68  1  0.66789600  0.57762600  0.62464100  1
  O  O69  1  0.50277200  0.07697600  0.17019000  1
  O  O70  1  0.57420300  0.49722800  0.83685700  1
  O  O71  1  0.92302400  0.42579700  0.50352300  1
  O  O72  1  0.49722800  0.57420300  0.16314300  1
  O  O73  1  0.07697600  0.50277200  0.82981000  1
  O  O74  1  0.42579700  0.92302400  0.49647700  1
  O  O75  1  0.18552900  0.55843700  0.12426300  1
  O  O76  1  0.37290800  0.81447100  0.79093000  1
  O  O77  1  0.44156300  0.62709200  0.45759700  1
  O  O78  1  0.81447100  0.37290800  0.20907000  1
  O  O79  1  0.55843700  0.18552900  0.87573700  1
  O  O80  1  0.62709200  0.44156300  0.54240300  1
  O  O81  1  0.37113400  0.37113400  0.00000000  1
  O  O82  1  0.00000000  0.62886600  0.66666700  1
  O  O83  1  0.62886600  0.00000000  0.33333300  1
