# generated using pymatgen
data_Co(BMo)3
_symmetry_space_group_name_H-M   'P 1'
_cell_length_a   3.16269700
_cell_length_b   4.52843121
_cell_length_c   10.79061200
_cell_angle_alpha   90.00000000
_cell_angle_beta   90.00000000
_cell_angle_gamma   110.43865900
_symmetry_Int_Tables_number   1
_chemical_formula_structural   Co(BMo)3
_chemical_formula_sum   'Co2 B6 Mo6'
_cell_volume   144.81469053
_cell_formula_units_Z   2
loop_
 _symmetry_equiv_pos_site_id
 _symmetry_equiv_pos_as_xyz
  1  'x, y, z'
loop_
 _atom_site_type_symbol
 _atom_site_label
 _atom_site_symmetry_multiplicity
 _atom_site_fract_x
 _atom_site_fract_y
 _atom_site_fract_z
 _atom_site_occupancy
  Co  Co0  1  0.50000000  0.00000000  0.50000000  1
  Co  Co1  1  0.50000000  0.00000000  0.00000000  1
  B  B2  1  0.91343600  0.82687200  0.39701800  1
  B  B3  1  0.08656400  0.17312800  0.60298200  1
  B  B4  1  0.91343600  0.82687200  0.10298200  1
  B  B5  1  0.08656400  0.17312800  0.89701800  1
  B  B6  1  0.79142900  0.58285900  0.25000000  1
  B  B7  1  0.20857100  0.41714100  0.75000000  1
  Mo  Mo8  1  0.21207500  0.42415000  0.39276900  1
  Mo  Mo9  1  0.78792500  0.57585000  0.60723100  1
  Mo  Mo10  1  0.21207500  0.42415000  0.10723100  1
  Mo  Mo11  1  0.78792500  0.57585000  0.89276900  1
  Mo  Mo12  1  0.49713700  0.99427300  0.25000000  1
  Mo  Mo13  1  0.50286300  0.00572700  0.75000000  1
