# generated using pymatgen
data_ScCuSe2
_symmetry_space_group_name_H-M   'P 1'
_cell_length_a   7.42913626
_cell_length_b   7.42913626
_cell_length_c   6.72261139
_cell_angle_alpha   63.55014419
_cell_angle_beta   63.55014419
_cell_angle_gamma   30.55650819
_symmetry_Int_Tables_number   1
_chemical_formula_structural   ScCuSe2
_chemical_formula_sum   'Sc2 Cu2 Se4'
_cell_volume   167.31801683
_cell_formula_units_Z   2
loop_
 _symmetry_equiv_pos_site_id
 _symmetry_equiv_pos_as_xyz
  1  'x, y, z'
loop_
 _atom_site_type_symbol
 _atom_site_label
 _atom_site_symmetry_multiplicity
 _atom_site_fract_x
 _atom_site_fract_y
 _atom_site_fract_z
 _atom_site_occupancy
  Sc  Sc0  1  0.24288900  0.24288900  0.76734800  1
  Sc  Sc1  1  0.75711100  0.75711100  0.23265200  1
  Cu  Cu2  1  0.56024700  0.56024700  0.10687700  1
  Cu  Cu3  1  0.43975300  0.43975300  0.89312300  1
  Se  Se4  1  0.63183400  0.63183400  0.69521700  1
  Se  Se5  1  0.12737700  0.12737700  0.21377600  1
  Se  Se6  1  0.36816600  0.36816600  0.30478300  1
  Se  Se7  1  0.87262300  0.87262300  0.78622400  1
