# generated using pymatgen
data_ZrTc2
_symmetry_space_group_name_H-M   'P 1'
_cell_length_a   5.22158366
_cell_length_b   5.22158366
_cell_length_c   8.78922500
_cell_angle_alpha   90.00000000
_cell_angle_beta   90.00000000
_cell_angle_gamma   119.99999570
_symmetry_Int_Tables_number   1
_chemical_formula_structural   ZrTc2
_chemical_formula_sum   'Zr4 Tc8'
_cell_volume   207.53230718
_cell_formula_units_Z   4
loop_
 _symmetry_equiv_pos_site_id
 _symmetry_equiv_pos_as_xyz
  1  'x, y, z'
loop_
 _atom_site_type_symbol
 _atom_site_label
 _atom_site_symmetry_multiplicity
 _atom_site_fract_x
 _atom_site_fract_y
 _atom_site_fract_z
 _atom_site_occupancy
  Zr  Zr0  1  0.33333300  0.66666700  0.43735100  1
  Zr  Zr1  1  0.66666700  0.33333300  0.56264900  1
  Zr  Zr2  1  0.66666700  0.33333300  0.93735100  1
  Zr  Zr3  1  0.33333300  0.66666700  0.06264900  1
  Tc  Tc4  1  0.00000000  0.00000000  0.50000000  1
  Tc  Tc5  1  0.00000000  0.00000000  0.00000000  1
  Tc  Tc6  1  0.82861600  0.17138400  0.25000000  1
  Tc  Tc7  1  0.82861600  0.65723200  0.25000000  1
  Tc  Tc8  1  0.34276800  0.17138400  0.25000000  1
  Tc  Tc9  1  0.17138400  0.82861600  0.75000000  1
  Tc  Tc10  1  0.17138400  0.34276800  0.75000000  1
  Tc  Tc11  1  0.65723200  0.82861600  0.75000000  1
