# generated using pymatgen
data_Sr10P6O25
_symmetry_space_group_name_H-M   'P 1'
_cell_length_a   9.90917674
_cell_length_b   9.90917674
_cell_length_c   7.34283100
_cell_angle_alpha   90.00000000
_cell_angle_beta   90.00000000
_cell_angle_gamma   120.00000493
_symmetry_Int_Tables_number   1
_chemical_formula_structural   Sr10P6O25
_chemical_formula_sum   'Sr10 P6 O25'
_cell_volume   624.40919796
_cell_formula_units_Z   1
loop_
 _symmetry_equiv_pos_site_id
 _symmetry_equiv_pos_as_xyz
  1  'x, y, z'
loop_
 _atom_site_type_symbol
 _atom_site_label
 _atom_site_symmetry_multiplicity
 _atom_site_fract_x
 _atom_site_fract_y
 _atom_site_fract_z
 _atom_site_occupancy
  Sr  Sr0  1  0.00000000  0.00000000  0.50922300  1
  Sr  Sr1  1  0.66666700  0.33333300  0.98977200  1
  Sr  Sr2  1  0.66666700  0.33333300  0.50208700  1
  Sr  Sr3  1  0.00000000  0.00000000  0.99853500  1
  Sr  Sr4  1  0.10616000  0.43086700  0.75536000  1
  Sr  Sr5  1  0.56913300  0.67529300  0.75536000  1
  Sr  Sr6  1  0.32470700  0.89384000  0.75536000  1
  Sr  Sr7  1  0.60134000  0.94626900  0.24837400  1
  Sr  Sr8  1  0.05373100  0.65507100  0.24837400  1
  Sr  Sr9  1  0.34492900  0.39866000  0.24837400  1
  P  P10  1  0.36426000  0.29084400  0.74895900  1
  P  P11  1  0.70915600  0.07341700  0.74895900  1
  P  P12  1  0.92658300  0.63574000  0.74895900  1
  P  P13  1  0.30198400  0.02429900  0.25260100  1
  P  P14  1  0.97570100  0.27768500  0.25260100  1
  P  P15  1  0.72231500  0.69801600  0.25260100  1
  O  O16  1  0.41309800  0.39925900  0.57898200  1
  O  O17  1  0.60074100  0.01383900  0.57898200  1
  O  O18  1  0.98616100  0.58690200  0.57898200  1
  O  O19  1  0.24782200  0.91911000  0.08084200  1
  O  O20  1  0.08089000  0.32871200  0.08084200  1
  O  O21  1  0.67128800  0.75217800  0.08084200  1
  O  O22  1  0.25379600  0.91405000  0.41979100  1
  O  O23  1  0.08595000  0.33974600  0.41979100  1
  O  O24  1  0.66025400  0.74620400  0.41979100  1
  O  O25  1  0.42116200  0.39125100  0.92555900  1
  O  O26  1  0.60874900  0.02991100  0.92555900  1
  O  O27  1  0.97008900  0.57883800  0.92555900  1
  O  O28  1  0.44988500  0.19557600  0.73971900  1
  O  O29  1  0.80442400  0.25430900  0.73971900  1
  O  O30  1  0.74569100  0.55011500  0.73971900  1
  O  O31  1  0.21083400  0.11627500  0.25828600  1
  O  O32  1  0.88372500  0.09455900  0.25828600  1
  O  O33  1  0.90544100  0.78916600  0.25828600  1
  O  O34  1  0.18350500  0.18265500  0.75278100  1
  O  O35  1  0.81734500  0.00085100  0.75278100  1
  O  O36  1  0.99914900  0.81649500  0.75278100  1
  O  O37  1  0.48100400  0.14229900  0.24971600  1
  O  O38  1  0.85770100  0.33870600  0.24971600  1
  O  O39  1  0.66129400  0.51899600  0.24971600  1
  O  O40  1  0.33333300  0.66666700  0.79350500  1
