# generated using pymatgen
data_Pr3(Sn3Pd2)2
_symmetry_space_group_name_H-M   'P 1'
_cell_length_a   4.64135500
_cell_length_b   15.84374000
_cell_length_c   16.95857500
_cell_angle_alpha   90.00000000
_cell_angle_beta   90.00000000
_cell_angle_gamma   90.00000000
_symmetry_Int_Tables_number   1
_chemical_formula_structural   Pr3(Sn3Pd2)2
_chemical_formula_sum   'Pr12 Sn24 Pd16'
_cell_volume   1247.07292548
_cell_formula_units_Z   4
loop_
 _symmetry_equiv_pos_site_id
 _symmetry_equiv_pos_as_xyz
  1  'x, y, z'
loop_
 _atom_site_type_symbol
 _atom_site_label
 _atom_site_symmetry_multiplicity
 _atom_site_fract_x
 _atom_site_fract_y
 _atom_site_fract_z
 _atom_site_occupancy
  Pr  Pr0  1  0.25000000  0.75268400  0.38466800  1
  Pr  Pr1  1  0.75000000  0.24731600  0.61533200  1
  Pr  Pr2  1  0.75000000  0.25268400  0.11533200  1
  Pr  Pr3  1  0.25000000  0.74731600  0.88466800  1
  Pr  Pr4  1  0.25000000  0.61883200  0.64282300  1
  Pr  Pr5  1  0.75000000  0.38116800  0.35717700  1
  Pr  Pr6  1  0.75000000  0.11883200  0.85717700  1
  Pr  Pr7  1  0.25000000  0.88116800  0.14282300  1
  Pr  Pr8  1  0.25000000  0.01625100  0.35010900  1
  Pr  Pr9  1  0.75000000  0.98374900  0.64989100  1
  Pr  Pr10  1  0.75000000  0.51625100  0.14989100  1
  Pr  Pr11  1  0.25000000  0.48374900  0.85010900  1
  Sn  Sn12  1  0.25000000  0.53922400  0.44960500  1
  Sn  Sn13  1  0.75000000  0.46077600  0.55039500  1
  Sn  Sn14  1  0.75000000  0.03922400  0.05039500  1
  Sn  Sn15  1  0.25000000  0.96077600  0.94960500  1
  Sn  Sn16  1  0.25000000  0.10601900  0.17033100  1
  Sn  Sn17  1  0.75000000  0.89398100  0.82966900  1
  Sn  Sn18  1  0.75000000  0.60601900  0.32966900  1
  Sn  Sn19  1  0.25000000  0.39398100  0.67033100  1
  Sn  Sn20  1  0.25000000  0.37928800  0.20652000  1
  Sn  Sn21  1  0.75000000  0.62071200  0.79348000  1
  Sn  Sn22  1  0.75000000  0.87928800  0.29348000  1
  Sn  Sn23  1  0.25000000  0.12071200  0.70652000  1
  Sn  Sn24  1  0.25000000  0.22999300  0.44288500  1
  Sn  Sn25  1  0.75000000  0.77000700  0.55711500  1
  Sn  Sn26  1  0.75000000  0.72999300  0.05711500  1
  Sn  Sn27  1  0.25000000  0.27000700  0.94288500  1
  Sn  Sn28  1  0.25000000  0.58011000  0.02563400  1
  Sn  Sn29  1  0.75000000  0.41989000  0.97436600  1
  Sn  Sn30  1  0.75000000  0.08011000  0.47436600  1
  Sn  Sn31  1  0.25000000  0.91989000  0.52563400  1
  Sn  Sn32  1  0.25000000  0.66232400  0.18956900  1
  Sn  Sn33  1  0.75000000  0.33767600  0.81043100  1
  Sn  Sn34  1  0.75000000  0.16232400  0.31043100  1
  Sn  Sn35  1  0.25000000  0.83767600  0.68956900  1
  Pd  Pd36  1  0.25000000  0.39995900  0.04765700  1
  Pd  Pd37  1  0.75000000  0.60004100  0.95234300  1
  Pd  Pd38  1  0.75000000  0.89995900  0.45234300  1
  Pd  Pd39  1  0.25000000  0.10004100  0.54765700  1
  Pd  Pd40  1  0.25000000  0.23314300  0.28221100  1
  Pd  Pd41  1  0.75000000  0.76685700  0.71778900  1
  Pd  Pd42  1  0.75000000  0.73314300  0.21778900  1
  Pd  Pd43  1  0.25000000  0.26685700  0.78221100  1
  Pd  Pd44  1  0.25000000  0.12183900  0.00954000  1
  Pd  Pd45  1  0.75000000  0.87816100  0.99046000  1
  Pd  Pd46  1  0.75000000  0.62183900  0.49046000  1
  Pd  Pd47  1  0.25000000  0.37816100  0.50954000  1
  Pd  Pd48  1  0.25000000  0.52520000  0.29204000  1
  Pd  Pd49  1  0.75000000  0.47480000  0.70796000  1
  Pd  Pd50  1  0.75000000  0.02520000  0.20796000  1
  Pd  Pd51  1  0.25000000  0.97480000  0.79204000  1
