# generated using pymatgen
data_Ho2(MoO4)3
_symmetry_space_group_name_H-M   'P 1'
_cell_length_a   7.43689300
_cell_length_b   7.43689300
_cell_length_c   10.68210400
_cell_angle_alpha   90.00000000
_cell_angle_beta   90.00000000
_cell_angle_gamma   90.00000000
_symmetry_Int_Tables_number   1
_chemical_formula_structural   Ho2(MoO4)3
_chemical_formula_sum   'Ho4 Mo6 O24'
_cell_volume   590.79915835
_cell_formula_units_Z   2
loop_
 _symmetry_equiv_pos_site_id
 _symmetry_equiv_pos_as_xyz
  1  'x, y, z'
loop_
 _atom_site_type_symbol
 _atom_site_label
 _atom_site_symmetry_multiplicity
 _atom_site_fract_x
 _atom_site_fract_y
 _atom_site_fract_z
 _atom_site_occupancy
  Ho  Ho0  1  0.18790000  0.68790000  0.73793800  1
  Ho  Ho1  1  0.81210000  0.31210000  0.73793800  1
  Ho  Ho2  1  0.68790000  0.81210000  0.26206200  1
  Ho  Ho3  1  0.31210000  0.18790000  0.26206200  1
  Mo  Mo4  1  0.20723200  0.70723200  0.35684500  1
  Mo  Mo5  1  0.79276800  0.29276800  0.35684500  1
  Mo  Mo6  1  0.70723200  0.79276800  0.64315500  1
  Mo  Mo7  1  0.29276800  0.20723200  0.64315500  1
  Mo  Mo8  1  0.00000000  0.00000000  0.00000000  1
  Mo  Mo9  1  0.50000000  0.50000000  0.00000000  1
  O  O10  1  0.00655800  0.22443000  0.29841900  1
  O  O11  1  0.99344200  0.77557000  0.29841900  1
  O  O12  1  0.22443000  0.99344200  0.70158100  1
  O  O13  1  0.49344200  0.72443000  0.70158100  1
  O  O14  1  0.77557000  0.00655800  0.70158100  1
  O  O15  1  0.50655800  0.27557000  0.70158100  1
  O  O16  1  0.27557000  0.49344200  0.29841900  1
  O  O17  1  0.72443000  0.50655800  0.29841900  1
  O  O18  1  0.18974100  0.04337300  0.09871900  1
  O  O19  1  0.81025900  0.95662700  0.09871900  1
  O  O20  1  0.04337300  0.81025900  0.90128100  1
  O  O21  1  0.31025900  0.54337300  0.90128100  1
  O  O22  1  0.95662700  0.18974100  0.90128100  1
  O  O23  1  0.68974100  0.45662700  0.90128100  1
  O  O24  1  0.45662700  0.31025900  0.09871900  1
  O  O25  1  0.54337300  0.68974100  0.09871900  1
  O  O26  1  0.62524000  0.12524000  0.30947400  1
  O  O27  1  0.37476000  0.87476000  0.30947400  1
  O  O28  1  0.12524000  0.37476000  0.69052600  1
  O  O29  1  0.87476000  0.62524000  0.69052600  1
  O  O30  1  0.19513800  0.69513800  0.52333600  1
  O  O31  1  0.80486200  0.30486200  0.52333600  1
  O  O32  1  0.69513800  0.80486200  0.47666400  1
  O  O33  1  0.30486200  0.19513800  0.47666400  1
