# generated using pymatgen
data_K2BiH4Cl5O2
_symmetry_space_group_name_H-M   'P 1'
_cell_length_a   8.57024200
_cell_length_b   12.58095000
_cell_length_c   22.09504600
_cell_angle_alpha   90.00000000
_cell_angle_beta   90.00000000
_cell_angle_gamma   90.00000000
_symmetry_Int_Tables_number   1
_chemical_formula_structural   K2BiH4Cl5O2
_chemical_formula_sum   'K16 Bi8 H32 Cl40 O16'
_cell_volume   2382.32732346
_cell_formula_units_Z   8
loop_
 _symmetry_equiv_pos_site_id
 _symmetry_equiv_pos_as_xyz
  1  'x, y, z'
loop_
 _atom_site_type_symbol
 _atom_site_label
 _atom_site_symmetry_multiplicity
 _atom_site_fract_x
 _atom_site_fract_y
 _atom_site_fract_z
 _atom_site_occupancy
  K  K0  1  0.94537200  0.15752300  0.25000000  1
  K  K1  1  0.44537200  0.34247700  0.25000000  1
  K  K2  1  0.05462800  0.84247700  0.75000000  1
  K  K3  1  0.55462800  0.65752300  0.75000000  1
  K  K4  1  0.78730300  0.83526100  0.25000000  1
  K  K5  1  0.28730300  0.66473900  0.25000000  1
  K  K6  1  0.21269700  0.16473900  0.75000000  1
  K  K7  1  0.71269700  0.33526100  0.75000000  1
  K  K8  1  0.52017900  0.69353500  0.95216700  1
  K  K9  1  0.02017900  0.80646500  0.54783300  1
  K  K10  1  0.47982100  0.30646500  0.45216700  1
  K  K11  1  0.97982100  0.19353500  0.04783300  1
  K  K12  1  0.47982100  0.30646500  0.04783300  1
  K  K13  1  0.97982100  0.19353500  0.45216700  1
  K  K14  1  0.52017900  0.69353500  0.54783300  1
  K  K15  1  0.02017900  0.80646500  0.95216700  1
  Bi  Bi16  1  0.86602200  0.50336800  0.15206000  1
  Bi  Bi17  1  0.36602200  0.99663200  0.34794000  1
  Bi  Bi18  1  0.13397800  0.49663200  0.65206000  1
  Bi  Bi19  1  0.63397800  0.00336800  0.84794000  1
  Bi  Bi20  1  0.13397800  0.49663200  0.84794000  1
  Bi  Bi21  1  0.63397800  0.00336800  0.65206000  1
  Bi  Bi22  1  0.86602200  0.50336800  0.34794000  1
  Bi  Bi23  1  0.36602200  0.99663200  0.15206000  1
  H  H24  1  0.77424400  0.01403700  0.36113100  1
  H  H25  1  0.27424400  0.48596300  0.13886900  1
  H  H26  1  0.22575600  0.98596300  0.86113100  1
  H  H27  1  0.72575600  0.51403700  0.63886900  1
  H  H28  1  0.22575600  0.98596300  0.63886900  1
  H  H29  1  0.72575600  0.51403700  0.86113100  1
  H  H30  1  0.77424400  0.01403700  0.13886900  1
  H  H31  1  0.27424400  0.48596300  0.36113100  1
  H  H32  1  0.69949100  0.88472400  0.01881400  1
  H  H33  1  0.19949100  0.61527600  0.48118600  1
  H  H34  1  0.30050900  0.11527600  0.51881400  1
  H  H35  1  0.80050900  0.38472400  0.98118600  1
  H  H36  1  0.30050900  0.11527600  0.98118600  1
  H  H37  1  0.80050900  0.38472400  0.51881400  1
  H  H38  1  0.69949100  0.88472400  0.48118600  1
  H  H39  1  0.19949100  0.61527600  0.01881400  1
  H  H40  1  0.94373100  0.96816300  0.36249600  1
  H  H41  1  0.44373100  0.53183700  0.13750400  1
  H  H42  1  0.05626900  0.03183700  0.86249600  1
  H  H43  1  0.55626900  0.46816300  0.63750400  1
  H  H44  1  0.05626900  0.03183700  0.63750400  1
  H  H45  1  0.55626900  0.46816300  0.86249600  1
  H  H46  1  0.94373100  0.96816300  0.13750400  1
  H  H47  1  0.44373100  0.53183700  0.36249600  1
  H  H48  1  0.72757900  0.78565500  0.05885600  1
  H  H49  1  0.22757900  0.71434500  0.44114400  1
  H  H50  1  0.27242100  0.21434500  0.55885600  1
  H  H51  1  0.77242100  0.28565500  0.94114400  1
  H  H52  1  0.27242100  0.21434500  0.94114400  1
  H  H53  1  0.77242100  0.28565500  0.55885600  1
  H  H54  1  0.72757900  0.78565500  0.44114400  1
  H  H55  1  0.22757900  0.71434500  0.05885600  1
  Cl  Cl56  1  0.99458000  0.69793200  0.15130700  1
  Cl  Cl57  1  0.49458000  0.80206800  0.34869300  1
  Cl  Cl58  1  0.00542000  0.30206800  0.65130700  1
  Cl  Cl59  1  0.50542000  0.19793200  0.84869300  1
  Cl  Cl60  1  0.00542000  0.30206800  0.84869300  1
  Cl  Cl61  1  0.50542000  0.19793200  0.65130700  1
  Cl  Cl62  1  0.99458000  0.69793200  0.34869300  1
  Cl  Cl63  1  0.49458000  0.80206800  0.15130700  1
  Cl  Cl64  1  0.67108300  0.57028800  0.25000000  1
  Cl  Cl65  1  0.17108300  0.92971200  0.25000000  1
  Cl  Cl66  1  0.32891700  0.42971200  0.75000000  1
  Cl  Cl67  1  0.82891700  0.07028800  0.75000000  1
  Cl  Cl68  1  0.64797200  0.54718500  0.06813800  1
  Cl  Cl69  1  0.14797200  0.95281500  0.43186200  1
  Cl  Cl70  1  0.35202800  0.45281500  0.56813800  1
  Cl  Cl71  1  0.85202800  0.04718500  0.93186200  1
  Cl  Cl72  1  0.35202800  0.45281500  0.93186200  1
  Cl  Cl73  1  0.85202800  0.04718500  0.56813800  1
  Cl  Cl74  1  0.64797200  0.54718500  0.43186200  1
  Cl  Cl75  1  0.14797200  0.95281500  0.06813800  1
  Cl  Cl76  1  0.05884600  0.43911400  0.25000000  1
  Cl  Cl77  1  0.55884600  0.06088600  0.25000000  1
  Cl  Cl78  1  0.94115400  0.56088600  0.75000000  1
  Cl  Cl79  1  0.44115400  0.93911400  0.75000000  1
  Cl  Cl80  1  0.74475000  0.30042000  0.15445300  1
  Cl  Cl81  1  0.24475000  0.19958000  0.34554700  1
  Cl  Cl82  1  0.25525000  0.69958000  0.65445300  1
  Cl  Cl83  1  0.75525000  0.80042000  0.84554700  1
  Cl  Cl84  1  0.25525000  0.69958000  0.84554700  1
  Cl  Cl85  1  0.75525000  0.80042000  0.65445300  1
  Cl  Cl86  1  0.74475000  0.30042000  0.34554700  1
  Cl  Cl87  1  0.24475000  0.19958000  0.15445300  1
  Cl  Cl88  1  0.08578700  0.44191400  0.07419300  1
  Cl  Cl89  1  0.58578700  0.05808600  0.42580700  1
  Cl  Cl90  1  0.91421300  0.55808600  0.57419300  1
  Cl  Cl91  1  0.41421300  0.94191400  0.92580700  1
  Cl  Cl92  1  0.91421300  0.55808600  0.92580700  1
  Cl  Cl93  1  0.41421300  0.94191400  0.57419300  1
  Cl  Cl94  1  0.08578700  0.44191400  0.42580700  1
  Cl  Cl95  1  0.58578700  0.05808600  0.07419300  1
  O  O96  1  0.86451100  0.99782700  0.33512300  1
  O  O97  1  0.36451100  0.50217300  0.16487700  1
  O  O98  1  0.13548900  0.00217300  0.83512300  1
  O  O99  1  0.63548900  0.49782700  0.66487700  1
  O  O100  1  0.13548900  0.00217300  0.66487700  1
  O  O101  1  0.63548900  0.49782700  0.83512300  1
  O  O102  1  0.86451100  0.99782700  0.16487700  1
  O  O103  1  0.36451100  0.50217300  0.33512300  1
  O  O104  1  0.73910900  0.81190300  0.01736100  1
  O  O105  1  0.23910900  0.68809700  0.48263900  1
  O  O106  1  0.26089100  0.18809700  0.51736100  1
  O  O107  1  0.76089100  0.31190300  0.98263900  1
  O  O108  1  0.26089100  0.18809700  0.98263900  1
  O  O109  1  0.76089100  0.31190300  0.51736100  1
  O  O110  1  0.73910900  0.81190300  0.48263900  1
  O  O111  1  0.23910900  0.68809700  0.01736100  1
