# generated using pymatgen
data_CuPbF6
_symmetry_space_group_name_H-M   'P 1'
_cell_length_a   5.33831559
_cell_length_b   5.39752690
_cell_length_c   5.64824452
_cell_angle_alpha   62.43248450
_cell_angle_beta   89.78553662
_cell_angle_gamma   62.64608588
_symmetry_Int_Tables_number   1
_chemical_formula_structural   CuPbF6
_chemical_formula_sum   'Cu1 Pb1 F6'
_cell_volume   123.54544248
_cell_formula_units_Z   1
loop_
 _symmetry_equiv_pos_site_id
 _symmetry_equiv_pos_as_xyz
  1  'x, y, z'
loop_
 _atom_site_type_symbol
 _atom_site_label
 _atom_site_symmetry_multiplicity
 _atom_site_fract_x
 _atom_site_fract_y
 _atom_site_fract_z
 _atom_site_occupancy
  Cu  Cu0  1  0.00000000  0.00000000  0.00000000  1
  Pb  Pb1  1  0.50000000  0.00000000  0.50000000  1
  F  F2  1  0.12619800  0.10815800  0.23859500  1
  F  F3  1  0.87380200  0.89184200  0.76140500  1
  F  F4  1  0.23436600  0.12045300  0.76306300  1
  F  F5  1  0.76563400  0.87954700  0.23693700  1
  F  F6  1  0.37852500  0.48505400  0.25800500  1
  F  F7  1  0.62147500  0.51494600  0.74199500  1
