# generated using pymatgen
data_Ca5(Si2Au3)2
_symmetry_space_group_name_H-M   'P 1'
_cell_length_a   5.77013578
_cell_length_b   5.77013578
_cell_length_c   26.70213601
_cell_angle_alpha   83.30763190
_cell_angle_beta   83.30763190
_cell_angle_gamma   45.70533073
_symmetry_Int_Tables_number   1
_chemical_formula_structural   Ca5(Si2Au3)2
_chemical_formula_sum   'Ca10 Si8 Au12'
_cell_volume   631.22342086
_cell_formula_units_Z   2
loop_
 _symmetry_equiv_pos_site_id
 _symmetry_equiv_pos_as_xyz
  1  'x, y, z'
loop_
 _atom_site_type_symbol
 _atom_site_label
 _atom_site_symmetry_multiplicity
 _atom_site_fract_x
 _atom_site_fract_y
 _atom_site_fract_z
 _atom_site_occupancy
  Ca  Ca0  1  0.02466400  0.02466400  0.15358200  1
  Ca  Ca1  1  0.82270700  0.82270700  0.55959400  1
  Ca  Ca2  1  0.42105000  0.42105000  0.35652700  1
  Ca  Ca3  1  0.62467700  0.62467700  0.95653000  1
  Ca  Ca4  1  0.22287800  0.22287800  0.75855200  1
  Ca  Ca5  1  0.77487200  0.77487200  0.07517800  1
  Ca  Ca6  1  0.57325800  0.57325800  0.47686800  1
  Ca  Ca7  1  0.17150200  0.17150200  0.27860800  1
  Ca  Ca8  1  0.37567000  0.37567000  0.87337400  1
  Ca  Ca9  1  0.97818500  0.97818500  0.67407100  1
  Si  Si10  1  0.33425900  0.33425900  0.99050500  1
  Si  Si11  1  0.93032900  0.93032900  0.79643200  1
  Si  Si12  1  0.53079500  0.53079500  0.59775200  1
  Si  Si13  1  0.12764700  0.12764700  0.40146400  1
  Si  Si14  1  0.73590000  0.73590000  0.19446300  1
  Si  Si15  1  0.07193600  0.07193600  0.86695500  1
  Si  Si16  1  0.67302100  0.67302100  0.66803200  1
  Si  Si17  1  0.27244700  0.27244700  0.46993200  1
  Au  Au18  1  0.86887100  0.86887100  0.27163200  1
  Au  Au19  1  0.46833000  0.46833000  0.06824600  1
  Au  Au20  1  0.68976200  0.68976200  0.84118000  1
  Au  Au21  1  0.29137400  0.29137400  0.64380700  1
  Au  Au22  1  0.88986600  0.88986600  0.44516500  1
  Au  Au23  1  0.51349900  0.51349900  0.23628400  1
  Au  Au24  1  0.11162500  0.11162500  0.03528700  1
  Au  Au25  1  0.91680100  0.91680100  0.95323200  1
  Au  Au26  1  0.51358400  0.51358400  0.75448600  1
  Au  Au27  1  0.11365200  0.11365200  0.55592200  1
  Au  Au28  1  0.70200500  0.70200500  0.36444200  1
  Au  Au29  1  0.30703200  0.30703200  0.16449800  1
