# generated using pymatgen
data_Tm(AlFe)6
_symmetry_space_group_name_H-M   'P 1'
_cell_length_a   6.55406743
_cell_length_b   6.55406743
_cell_length_c   6.55406743
_cell_angle_alpha   135.20408363
_cell_angle_beta   99.21054993
_cell_angle_gamma   97.48785871
_symmetry_Int_Tables_number   1
_chemical_formula_structural   Tm(AlFe)6
_chemical_formula_sum   'Tm1 Al6 Fe6'
_cell_volume   183.37259654
_cell_formula_units_Z   1
loop_
 _symmetry_equiv_pos_site_id
 _symmetry_equiv_pos_as_xyz
  1  'x, y, z'
loop_
 _atom_site_type_symbol
 _atom_site_label
 _atom_site_symmetry_multiplicity
 _atom_site_fract_x
 _atom_site_fract_y
 _atom_site_fract_z
 _atom_site_occupancy
  Tm  Tm0  1  0.00000000  0.00000000  0.00000000  1
  Al  Al1  1  0.65406500  0.65406500  0.00000000  1
  Al  Al2  1  0.34593500  0.34593500  0.00000000  1
  Al  Al3  1  0.33597900  0.00000000  0.33597900  1
  Al  Al4  1  0.66402100  0.00000000  0.66402100  1
  Al  Al5  1  0.18912700  0.68912700  0.50000000  1
  Al  Al6  1  0.81087300  0.31087300  0.50000000  1
  Fe  Fe7  1  0.50000000  0.50000000  0.50000000  1
  Fe  Fe8  1  0.50000000  0.00000000  0.00000000  1
  Fe  Fe9  1  0.00000000  0.50000000  0.00000000  1
  Fe  Fe10  1  0.00000000  0.00000000  0.50000000  1
  Fe  Fe11  1  0.75931400  0.50000000  0.25931400  1
  Fe  Fe12  1  0.24068600  0.50000000  0.74068600  1
