# generated using pymatgen
data_Sr(SnAu)2
_symmetry_space_group_name_H-M   'P 1'
_cell_length_a   4.78457600
_cell_length_b   4.78457600
_cell_length_c   11.36558500
_cell_angle_alpha   90.00000000
_cell_angle_beta   90.00000000
_cell_angle_gamma   90.00000000
_symmetry_Int_Tables_number   1
_chemical_formula_structural   Sr(SnAu)2
_chemical_formula_sum   'Sr2 Sn4 Au4'
_cell_volume   260.18287555
_cell_formula_units_Z   2
loop_
 _symmetry_equiv_pos_site_id
 _symmetry_equiv_pos_as_xyz
  1  'x, y, z'
loop_
 _atom_site_type_symbol
 _atom_site_label
 _atom_site_symmetry_multiplicity
 _atom_site_fract_x
 _atom_site_fract_y
 _atom_site_fract_z
 _atom_site_occupancy
  Sr  Sr0  1  0.00000000  0.50000000  0.25967800  1
  Sr  Sr1  1  0.50000000  0.00000000  0.74032200  1
  Sn  Sn2  1  0.00000000  0.00000000  0.00000000  1
  Sn  Sn3  1  0.50000000  0.50000000  0.00000000  1
  Sn  Sn4  1  0.00000000  0.50000000  0.62791100  1
  Sn  Sn5  1  0.50000000  0.00000000  0.37208900  1
  Au  Au6  1  0.00000000  0.00000000  0.50000000  1
  Au  Au7  1  0.50000000  0.50000000  0.50000000  1
  Au  Au8  1  0.00000000  0.50000000  0.86298200  1
  Au  Au9  1  0.50000000  0.00000000  0.13701800  1
