# generated using pymatgen
data_Li6Ca17Hg9
_symmetry_space_group_name_H-M   'P 1'
_cell_length_a   13.56943335
_cell_length_b   13.56943335
_cell_length_c   13.56943335
_cell_angle_alpha   109.47122063
_cell_angle_beta   109.47122063
_cell_angle_gamma   109.47122063
_symmetry_Int_Tables_number   1
_chemical_formula_structural   Li6Ca17Hg9
_chemical_formula_sum   'Li12 Ca34 Hg18'
_cell_volume   1923.37180914
_cell_formula_units_Z   2
loop_
 _symmetry_equiv_pos_site_id
 _symmetry_equiv_pos_as_xyz
  1  'x, y, z'
loop_
 _atom_site_type_symbol
 _atom_site_label
 _atom_site_symmetry_multiplicity
 _atom_site_fract_x
 _atom_site_fract_y
 _atom_site_fract_z
 _atom_site_occupancy
  Li  Li0  1  0.15265600  0.15265600  0.30531200  1
  Li  Li1  1  0.84734400  0.00000000  0.15265600  1
  Li  Li2  1  0.00000000  0.84734400  0.15265600  1
  Li  Li3  1  0.84734400  0.15265600  0.00000000  1
  Li  Li4  1  0.15265600  0.30531200  0.15265600  1
  Li  Li5  1  0.00000000  0.15265600  0.84734400  1
  Li  Li6  1  0.15265600  0.84734400  0.00000000  1
  Li  Li7  1  0.15265600  0.00000000  0.84734400  1
  Li  Li8  1  0.30531200  0.15265600  0.15265600  1
  Li  Li9  1  0.84734400  0.84734400  0.69468800  1
  Li  Li10  1  0.84734400  0.69468800  0.84734400  1
  Li  Li11  1  0.69468800  0.84734400  0.84734400  1
  Ca  Ca12  1  0.00000000  0.19131900  0.45426400  1
  Ca  Ca13  1  0.80868100  0.80868100  0.26294500  1
  Ca  Ca14  1  0.19131900  0.00000000  0.45426400  1
  Ca  Ca15  1  0.00000000  0.45426400  0.19131900  1
  Ca  Ca16  1  0.19131900  0.45426400  0.00000000  1
  Ca  Ca17  1  0.80868100  0.26294500  0.80868100  1
  Ca  Ca18  1  0.26294500  0.80868100  0.80868100  1
  Ca  Ca19  1  0.45426400  0.19131900  0.00000000  1
  Ca  Ca20  1  0.45426400  0.00000000  0.19131900  1
  Ca  Ca21  1  0.73705500  0.54573600  0.54573600  1
  Ca  Ca22  1  0.54573600  0.54573600  0.73705500  1
  Ca  Ca23  1  0.54573600  0.73705500  0.54573600  1
  Ca  Ca24  1  0.00000000  0.80868100  0.54573600  1
  Ca  Ca25  1  0.19131900  0.19131900  0.73705500  1
  Ca  Ca26  1  0.80868100  0.00000000  0.54573600  1
  Ca  Ca27  1  0.00000000  0.54573600  0.80868100  1
  Ca  Ca28  1  0.80868100  0.54573600  0.00000000  1
  Ca  Ca29  1  0.19131900  0.73705500  0.19131900  1
  Ca  Ca30  1  0.73705500  0.19131900  0.19131900  1
  Ca  Ca31  1  0.54573600  0.80868100  0.00000000  1
  Ca  Ca32  1  0.54573600  0.00000000  0.80868100  1
  Ca  Ca33  1  0.26294500  0.45426400  0.45426400  1
  Ca  Ca34  1  0.45426400  0.45426400  0.26294500  1
  Ca  Ca35  1  0.45426400  0.26294500  0.45426400  1
  Ca  Ca36  1  0.75000000  0.25000000  0.50000000  1
  Ca  Ca37  1  0.75000000  0.50000000  0.25000000  1
  Ca  Ca38  1  0.50000000  0.25000000  0.75000000  1
  Ca  Ca39  1  0.25000000  0.50000000  0.75000000  1
  Ca  Ca40  1  0.25000000  0.75000000  0.50000000  1
  Ca  Ca41  1  0.50000000  0.75000000  0.25000000  1
  Ca  Ca42  1  0.50000000  0.50000000  0.00000000  1
  Ca  Ca43  1  0.50000000  0.00000000  0.50000000  1
  Ca  Ca44  1  0.00000000  0.50000000  0.50000000  1
  Ca  Ca45  1  0.00000000  0.00000000  0.00000000  1
  Hg  Hg46  1  0.29331000  0.29331000  0.58662000  1
  Hg  Hg47  1  0.70669000  0.00000000  0.29331000  1
  Hg  Hg48  1  0.00000000  0.70669000  0.29331000  1
  Hg  Hg49  1  0.70669000  0.29331000  0.00000000  1
  Hg  Hg50  1  0.29331000  0.58662000  0.29331000  1
  Hg  Hg51  1  0.00000000  0.29331000  0.70669000  1
  Hg  Hg52  1  0.29331000  0.70669000  0.00000000  1
  Hg  Hg53  1  0.29331000  0.00000000  0.70669000  1
  Hg  Hg54  1  0.58662000  0.29331000  0.29331000  1
  Hg  Hg55  1  0.70669000  0.70669000  0.41338000  1
  Hg  Hg56  1  0.70669000  0.41338000  0.70669000  1
  Hg  Hg57  1  0.41338000  0.70669000  0.70669000  1
  Hg  Hg58  1  0.75628700  0.75628700  0.00000000  1
  Hg  Hg59  1  0.24371300  0.00000000  0.24371300  1
  Hg  Hg60  1  0.00000000  0.24371300  0.24371300  1
  Hg  Hg61  1  0.24371300  0.24371300  0.00000000  1
  Hg  Hg62  1  0.75628700  0.00000000  0.75628700  1
  Hg  Hg63  1  0.00000000  0.75628700  0.75628700  1
