# generated using pymatgen
data_Ca(FeAs)2
_symmetry_space_group_name_H-M   'P 1'
_cell_length_a   5.45987200
_cell_length_b   6.43873396
_cell_length_c   5.59028600
_cell_angle_alpha   64.27417308
_cell_angle_beta   89.99991703
_cell_angle_gamma   89.99994563
_symmetry_Int_Tables_number   1
_chemical_formula_structural   Ca(FeAs)2
_chemical_formula_sum   'Ca2 Fe4 As4'
_cell_volume   177.04538661
_cell_formula_units_Z   2
loop_
 _symmetry_equiv_pos_site_id
 _symmetry_equiv_pos_as_xyz
  1  'x, y, z'
loop_
 _atom_site_type_symbol
 _atom_site_label
 _atom_site_symmetry_multiplicity
 _atom_site_fract_x
 _atom_site_fract_y
 _atom_site_fract_z
 _atom_site_occupancy
  Ca  Ca0  1  0.50003100  0.00000000  0.50000000  1
  Ca  Ca1  1  0.99995900  0.00000000  0.99999900  1
  Fe  Fe2  1  0.24998500  0.50000100  0.00000000  1
  Fe  Fe3  1  0.75005000  0.50000000  0.00000000  1
  Fe  Fe4  1  0.74997800  0.50000100  0.50000000  1
  Fe  Fe5  1  0.25001800  0.49999900  0.50000100  1
  As  As6  1  0.50007500  0.73019700  0.13477200  1
  As  As7  1  0.99991400  0.73019600  0.63492400  1
  As  As8  1  0.99991400  0.26980300  0.36507600  1
  As  As9  1  0.50007500  0.26980300  0.86522800  1
