# generated using pymatgen
data_Na3MnS2(O4F)2
_symmetry_space_group_name_H-M   'P 1'
_cell_length_a   6.78824600
_cell_length_b   9.19340400
_cell_length_c   13.91790100
_cell_angle_alpha   90.00000000
_cell_angle_beta   90.00000000
_cell_angle_gamma   90.00000000
_symmetry_Int_Tables_number   1
_chemical_formula_structural   Na3MnS2(O4F)2
_chemical_formula_sum   'Na12 Mn4 S8 O32 F8'
_cell_volume   868.57567150
_cell_formula_units_Z   4
loop_
 _symmetry_equiv_pos_site_id
 _symmetry_equiv_pos_as_xyz
  1  'x, y, z'
loop_
 _atom_site_type_symbol
 _atom_site_label
 _atom_site_symmetry_multiplicity
 _atom_site_fract_x
 _atom_site_fract_y
 _atom_site_fract_z
 _atom_site_occupancy
  Na  Na0  1  0.53120500  0.66369600  0.90603300  1
  Na  Na1  1  0.03120500  0.83630400  0.59396700  1
  Na  Na2  1  0.46879500  0.16369600  0.59396700  1
  Na  Na3  1  0.96879500  0.33630400  0.90603300  1
  Na  Na4  1  0.46879500  0.33630400  0.09396700  1
  Na  Na5  1  0.96879500  0.16369600  0.40603300  1
  Na  Na6  1  0.53120500  0.83630400  0.40603300  1
  Na  Na7  1  0.03120500  0.66369600  0.09396700  1
  Na  Na8  1  0.75000000  0.00000000  0.06109500  1
  Na  Na9  1  0.25000000  0.50000000  0.43890500  1
  Na  Na10  1  0.25000000  0.00000000  0.93890500  1
  Na  Na11  1  0.75000000  0.50000000  0.56109500  1
  Mn  Mn12  1  0.75000000  0.00000000  0.80691800  1
  Mn  Mn13  1  0.25000000  0.50000000  0.69308200  1
  Mn  Mn14  1  0.25000000  0.00000000  0.19308200  1
  Mn  Mn15  1  0.75000000  0.50000000  0.30691800  1
  S  S16  1  0.01867700  0.69099900  0.85427400  1
  S  S17  1  0.51867700  0.80900100  0.64572600  1
  S  S18  1  0.98132300  0.19099900  0.64572600  1
  S  S19  1  0.48132300  0.30900100  0.85427400  1
  S  S20  1  0.98132300  0.30900100  0.14572600  1
  S  S21  1  0.48132300  0.19099900  0.35427400  1
  S  S22  1  0.01867700  0.80900100  0.35427400  1
  S  S23  1  0.51867700  0.69099900  0.14572600  1
  O  O24  1  0.43710500  0.44570700  0.79499800  1
  O  O25  1  0.93710500  0.05429300  0.70500200  1
  O  O26  1  0.56289500  0.94570700  0.70500200  1
  O  O27  1  0.06289500  0.55429300  0.79499800  1
  O  O28  1  0.56289500  0.55429300  0.20500200  1
  O  O29  1  0.06289500  0.94570700  0.29499800  1
  O  O30  1  0.43710500  0.05429300  0.29499800  1
  O  O31  1  0.93710500  0.44570700  0.20500200  1
  O  O32  1  0.20016500  0.75308500  0.89435100  1
  O  O33  1  0.70016500  0.74691500  0.60564900  1
  O  O34  1  0.79983500  0.25308500  0.60564900  1
  O  O35  1  0.29983500  0.24691500  0.89435100  1
  O  O36  1  0.79983500  0.24691500  0.10564900  1
  O  O37  1  0.29983500  0.25308500  0.39435100  1
  O  O38  1  0.20016500  0.74691500  0.39435100  1
  O  O39  1  0.70016500  0.75308500  0.10564900  1
  O  O40  1  0.88480200  0.63812600  0.93060000  1
  O  O41  1  0.38480200  0.86187400  0.56940000  1
  O  O42  1  0.11519800  0.13812600  0.56940000  1
  O  O43  1  0.61519800  0.36187400  0.93060000  1
  O  O44  1  0.11519800  0.36187400  0.06940000  1
  O  O45  1  0.61519800  0.13812600  0.43060000  1
  O  O46  1  0.88480200  0.86187400  0.43060000  1
  O  O47  1  0.38480200  0.63812600  0.06940000  1
  O  O48  1  0.41923400  0.70384500  0.71042100  1
  O  O49  1  0.91923400  0.79615500  0.78957900  1
  O  O50  1  0.58076600  0.20384500  0.78957900  1
  O  O51  1  0.08076600  0.29615500  0.71042100  1
  O  O52  1  0.58076600  0.29615500  0.28957900  1
  O  O53  1  0.08076600  0.20384500  0.21042100  1
  O  O54  1  0.41923400  0.79615500  0.21042100  1
  O  O55  1  0.91923400  0.70384500  0.28957900  1
  F  F56  1  0.58372600  0.92447300  0.90638400  1
  F  F57  1  0.08372600  0.57552700  0.59361600  1
  F  F58  1  0.41627400  0.42447300  0.59361600  1
  F  F59  1  0.91627400  0.07552700  0.90638400  1
  F  F60  1  0.41627400  0.07552700  0.09361600  1
  F  F61  1  0.91627400  0.42447300  0.40638400  1
  F  F62  1  0.58372600  0.57552700  0.40638400  1
  F  F63  1  0.08372600  0.92447300  0.09361600  1
