# generated using pymatgen
data_CaNb2O6
_symmetry_space_group_name_H-M   'P 1'
_cell_length_a   5.27429000
_cell_length_b   5.94337400
_cell_length_c   15.18019800
_cell_angle_alpha   90.00000000
_cell_angle_beta   90.00000000
_cell_angle_gamma   90.00000000
_symmetry_Int_Tables_number   1
_chemical_formula_structural   CaNb2O6
_chemical_formula_sum   'Ca4 Nb8 O24'
_cell_volume   475.85485159
_cell_formula_units_Z   4
loop_
 _symmetry_equiv_pos_site_id
 _symmetry_equiv_pos_as_xyz
  1  'x, y, z'
loop_
 _atom_site_type_symbol
 _atom_site_label
 _atom_site_symmetry_multiplicity
 _atom_site_fract_x
 _atom_site_fract_y
 _atom_site_fract_z
 _atom_site_occupancy
  Ca  Ca0  1  0.25000000  0.78586000  0.00000000  1
  Ca  Ca1  1  0.75000000  0.71414000  0.50000000  1
  Ca  Ca2  1  0.75000000  0.21414000  0.00000000  1
  Ca  Ca3  1  0.25000000  0.28586000  0.50000000  1
  Nb  Nb4  1  0.29018300  0.81521600  0.66531400  1
  Nb  Nb5  1  0.79018300  0.68478400  0.83468600  1
  Nb  Nb6  1  0.20981700  0.81521600  0.33468600  1
  Nb  Nb7  1  0.70981700  0.68478400  0.16531400  1
  Nb  Nb8  1  0.29018300  0.31521600  0.83468600  1
  Nb  Nb9  1  0.79018300  0.18478400  0.66531400  1
  Nb  Nb10  1  0.20981700  0.31521600  0.16531400  1
  Nb  Nb11  1  0.70981700  0.18478400  0.33468600  1
  O  O12  1  0.88561200  0.35913200  0.24363200  1
  O  O13  1  0.38561200  0.14086800  0.25636800  1
  O  O14  1  0.61438800  0.35913200  0.75636800  1
  O  O15  1  0.11438800  0.14086800  0.74363200  1
  O  O16  1  0.11438800  0.64086800  0.75636800  1
  O  O17  1  0.61438800  0.85913200  0.74363200  1
  O  O18  1  0.38561200  0.64086800  0.24363200  1
  O  O19  1  0.88561200  0.85913200  0.25636800  1
  O  O20  1  0.00666700  0.07471600  0.39863200  1
  O  O21  1  0.50666700  0.42528400  0.10136800  1
  O  O22  1  0.49333300  0.07471600  0.60136800  1
  O  O23  1  0.99333300  0.42528400  0.89863200  1
  O  O24  1  0.60076300  0.89494500  0.08707700  1
  O  O25  1  0.10076300  0.60505500  0.41292300  1
  O  O26  1  0.89923700  0.89494500  0.91292300  1
  O  O27  1  0.39923700  0.60505500  0.58707700  1
  O  O28  1  0.39923700  0.10505500  0.91292300  1
  O  O29  1  0.89923700  0.39494500  0.58707700  1
  O  O30  1  0.10076300  0.10505500  0.08707700  1
  O  O31  1  0.60076300  0.39494500  0.41292300  1
  O  O32  1  0.00666700  0.57471600  0.10136800  1
  O  O33  1  0.50666700  0.92528400  0.39863200  1
  O  O34  1  0.49333300  0.57471600  0.89863200  1
  O  O35  1  0.99333300  0.92528400  0.60136800  1
