# generated using pymatgen
data_GdAsS
_symmetry_space_group_name_H-M   'P 1'
_cell_length_a   3.86059500
_cell_length_b   3.87474000
_cell_length_c   17.13010000
_cell_angle_alpha   90.00000000
_cell_angle_beta   90.00000000
_cell_angle_gamma   90.00000000
_symmetry_Int_Tables_number   1
_chemical_formula_structural   GdAsS
_chemical_formula_sum   'Gd4 As4 S4'
_cell_volume   256.24577192
_cell_formula_units_Z   4
loop_
 _symmetry_equiv_pos_site_id
 _symmetry_equiv_pos_as_xyz
  1  'x, y, z'
loop_
 _atom_site_type_symbol
 _atom_site_label
 _atom_site_symmetry_multiplicity
 _atom_site_fract_x
 _atom_site_fract_y
 _atom_site_fract_z
 _atom_site_occupancy
  Gd  Gd0  1  0.25000000  0.21665800  0.85388100  1
  Gd  Gd1  1  0.25000000  0.28334200  0.35388100  1
  Gd  Gd2  1  0.75000000  0.78334200  0.14611900  1
  Gd  Gd3  1  0.75000000  0.71665800  0.64611900  1
  As  As4  1  0.75000000  0.21501500  0.50205300  1
  As  As5  1  0.75000000  0.28498500  0.00205300  1
  As  As6  1  0.25000000  0.78498500  0.49794700  1
  As  As7  1  0.25000000  0.71501500  0.99794700  1
  S  S8  1  0.25000000  0.21745500  0.68588300  1
  S  S9  1  0.25000000  0.28254500  0.18588300  1
  S  S10  1  0.75000000  0.78254500  0.31411700  1
  S  S11  1  0.75000000  0.71745500  0.81411700  1
