# generated using pymatgen
data_Gd(BO2)3
_symmetry_space_group_name_H-M   'P 1'
_cell_length_a   7.48137639
_cell_length_b   12.41524079
_cell_length_c   16.17156441
_cell_angle_alpha   90.00000000
_cell_angle_beta   90.00000000
_cell_angle_gamma   90.00000000
_symmetry_Int_Tables_number   1
_chemical_formula_structural   Gd(BO2)3
_chemical_formula_sum   'Gd16 B48 O96'
_cell_volume   1502.06486158
_cell_formula_units_Z   16
loop_
 _symmetry_equiv_pos_site_id
 _symmetry_equiv_pos_as_xyz
  1  'x, y, z'
loop_
 _atom_site_type_symbol
 _atom_site_label
 _atom_site_symmetry_multiplicity
 _atom_site_fract_x
 _atom_site_fract_y
 _atom_site_fract_z
 _atom_site_occupancy
  Gd  Gd0  1  0.25000000  0.56698834  0.67165191  1
  Gd  Gd1  1  0.25000000  0.93301166  0.17165191  1
  Gd  Gd2  1  0.75000000  0.43301166  0.32834809  1
  Gd  Gd3  1  0.75000000  0.06698834  0.82834809  1
  Gd  Gd4  1  0.75000000  0.49268563  0.62038170  1
  Gd  Gd5  1  0.75000000  0.00731437  0.12038170  1
  Gd  Gd6  1  0.25000000  0.50731437  0.37961830  1
  Gd  Gd7  1  0.25000000  0.99268563  0.87961830  1
  Gd  Gd8  1  0.25000000  0.91240740  0.54803674  1
  Gd  Gd9  1  0.25000000  0.58759260  0.04803674  1
  Gd  Gd10  1  0.75000000  0.08759260  0.45196326  1
  Gd  Gd11  1  0.75000000  0.41240740  0.95196326  1
  Gd  Gd12  1  0.75000000  0.77062094  0.62751579  1
  Gd  Gd13  1  0.75000000  0.72937906  0.12751579  1
  Gd  Gd14  1  0.25000000  0.22937906  0.37248421  1
  Gd  Gd15  1  0.25000000  0.27062094  0.87248421  1
  B  B16  1  0.92947198  0.68624993  0.78279779  1
  B  B17  1  0.57052802  0.81375007  0.28279779  1
  B  B18  1  0.42947198  0.31375007  0.21720221  1
  B  B19  1  0.07052802  0.18624993  0.71720221  1
  B  B20  1  0.07052802  0.31375007  0.21720221  1
  B  B21  1  0.42947198  0.18624993  0.71720221  1
  B  B22  1  0.57052802  0.68624993  0.78279779  1
  B  B23  1  0.92947198  0.81375007  0.28279779  1
  B  B24  1  0.92672909  0.84550915  0.44186035  1
  B  B25  1  0.57327091  0.65449085  0.94186035  1
  B  B26  1  0.42672909  0.15449085  0.55813965  1
  B  B27  1  0.07327091  0.34550915  0.05813965  1
  B  B28  1  0.07327091  0.15449085  0.55813965  1
  B  B29  1  0.42672909  0.34550915  0.05813965  1
  B  B30  1  0.57327091  0.84550915  0.44186035  1
  B  B31  1  0.92672909  0.65449085  0.94186035  1
  B  B32  1  0.06127849  0.67918482  0.53006870  1
  B  B33  1  0.43872151  0.82081518  0.03006870  1
  B  B34  1  0.56127849  0.32081518  0.46993130  1
  B  B35  1  0.93872151  0.17918482  0.96993130  1
  B  B36  1  0.93872151  0.32081518  0.46993130  1
  B  B37  1  0.56127849  0.17918482  0.96993130  1
  B  B38  1  0.43872151  0.67918482  0.53006870  1
  B  B39  1  0.06127849  0.82081518  0.03006870  1
  B  B40  1  0.92363096  0.01754491  0.65383357  1
  B  B41  1  0.57636904  0.48245509  0.15383357  1
  B  B42  1  0.42363096  0.98245509  0.34616643  1
  B  B43  1  0.07636904  0.51754491  0.84616643  1
  B  B44  1  0.07636904  0.98245509  0.34616643  1
  B  B45  1  0.42363096  0.51754491  0.84616643  1
  B  B46  1  0.57636904  0.01754491  0.65383357  1
  B  B47  1  0.92363096  0.48245509  0.15383357  1
  B  B48  1  0.07707083  0.35549634  0.61026166  1
  B  B49  1  0.42292917  0.14450366  0.11026166  1
  B  B50  1  0.57707083  0.64450366  0.38973834  1
  B  B51  1  0.92292917  0.85549634  0.88973834  1
  B  B52  1  0.92292917  0.64450366  0.38973834  1
  B  B53  1  0.57707083  0.85549634  0.88973834  1
  B  B54  1  0.42292917  0.35549634  0.61026166  1
  B  B55  1  0.07707083  0.14450366  0.11026166  1
  B  B56  1  0.93113092  0.37066792  0.75719636  1
  B  B57  1  0.56886908  0.12933208  0.25719636  1
  B  B58  1  0.43113092  0.62933208  0.24280364  1
  B  B59  1  0.06886908  0.87066792  0.74280364  1
  B  B60  1  0.06886908  0.62933208  0.24280364  1
  B  B61  1  0.43113092  0.87066792  0.74280364  1
  B  B62  1  0.56886908  0.37066792  0.75719636  1
  B  B63  1  0.93113092  0.12933208  0.25719636  1
  O  O64  1  0.75000000  0.96222354  0.66000307  1
  O  O65  1  0.75000000  0.53777646  0.16000307  1
  O  O66  1  0.25000000  0.03777646  0.33999693  1
  O  O67  1  0.25000000  0.46222354  0.83999693  1
  O  O68  1  0.06123905  0.60079106  0.78193997  1
  O  O69  1  0.43876095  0.89920894  0.28193997  1
  O  O70  1  0.56123905  0.39920894  0.21806003  1
  O  O71  1  0.93876095  0.10079106  0.71806003  1
  O  O72  1  0.93876095  0.39920894  0.21806003  1
  O  O73  1  0.56123905  0.10079106  0.71806003  1
  O  O74  1  0.43876095  0.60079106  0.78193997  1
  O  O75  1  0.06123905  0.89920894  0.28193997  1
  O  O76  1  0.05486752  0.93263139  0.42880362  1
  O  O77  1  0.44513248  0.56736861  0.92880362  1
  O  O78  1  0.55486752  0.06736861  0.57119638  1
  O  O79  1  0.94513248  0.43263139  0.07119638  1
  O  O80  1  0.94513248  0.06736861  0.57119638  1
  O  O81  1  0.55486752  0.43263139  0.07119638  1
  O  O82  1  0.44513248  0.93263139  0.42880362  1
  O  O83  1  0.05486752  0.56736861  0.92880362  1
  O  O84  1  0.93720938  0.37626609  0.54906669  1
  O  O85  1  0.56279062  0.12373391  0.04906669  1
  O  O86  1  0.43720938  0.62373391  0.45093331  1
  O  O87  1  0.06279062  0.87626609  0.95093331  1
  O  O88  1  0.06279062  0.62373391  0.45093331  1
  O  O89  1  0.43720938  0.87626609  0.95093331  1
  O  O90  1  0.56279062  0.37626609  0.54906669  1
  O  O91  1  0.93720938  0.12373391  0.04906669  1
  O  O92  1  0.92681297  0.73417121  0.87063088  1
  O  O93  1  0.57318703  0.76582879  0.37063088  1
  O  O94  1  0.42681297  0.26582879  0.12936912  1
  O  O95  1  0.07318703  0.23417121  0.62936912  1
  O  O96  1  0.07318703  0.26582879  0.12936912  1
  O  O97  1  0.42681297  0.23417121  0.62936912  1
  O  O98  1  0.57318703  0.73417121  0.87063088  1
  O  O99  1  0.92681297  0.76582879  0.37063088  1
  O  O100  1  0.03372594  0.42047279  0.68496712  1
  O  O101  1  0.46627406  0.07952721  0.18496712  1
  O  O102  1  0.53372594  0.57952721  0.31503288  1
  O  O103  1  0.96627406  0.92047279  0.81503288  1
  O  O104  1  0.96627406  0.57952721  0.31503288  1
  O  O105  1  0.53372594  0.92047279  0.81503288  1
  O  O106  1  0.46627406  0.42047279  0.68496712  1
  O  O107  1  0.03372594  0.07952721  0.18496712  1
  O  O108  1  0.25000000  0.69754688  0.56266736  1
  O  O109  1  0.25000000  0.80245312  0.06266736  1
  O  O110  1  0.75000000  0.30245312  0.43733264  1
  O  O111  1  0.75000000  0.19754688  0.93733264  1
  O  O112  1  0.75000000  0.36180219  0.72503802  1
  O  O113  1  0.75000000  0.13819781  0.22503802  1
  O  O114  1  0.25000000  0.63819781  0.27496198  1
  O  O115  1  0.25000000  0.86180219  0.77496198  1
  O  O116  1  0.96107045  0.62464556  0.59461634  1
  O  O117  1  0.53892955  0.87535444  0.09461634  1
  O  O118  1  0.46107045  0.37535444  0.40538366  1
  O  O119  1  0.03892955  0.12464556  0.90538366  1
  O  O120  1  0.03892955  0.37535444  0.40538366  1
  O  O121  1  0.46107045  0.12464556  0.90538366  1
  O  O122  1  0.53892955  0.62464556  0.59461634  1
  O  O123  1  0.96107045  0.87535444  0.09461634  1
  O  O124  1  0.06241650  0.93420060  0.66564143  1
  O  O125  1  0.43758350  0.56579940  0.16564143  1
  O  O126  1  0.56241650  0.06579940  0.33435857  1
  O  O127  1  0.93758350  0.43420060  0.83435857  1
  O  O128  1  0.93758350  0.06579940  0.33435857  1
  O  O129  1  0.56241650  0.43420060  0.83435857  1
  O  O130  1  0.43758350  0.93420060  0.66564143  1
  O  O131  1  0.06241650  0.56579940  0.16564143  1
  O  O132  1  0.25000000  0.39208279  0.57933609  1
  O  O133  1  0.25000000  0.10791721  0.07933609  1
  O  O134  1  0.75000000  0.60791721  0.42066391  1
  O  O135  1  0.75000000  0.89208279  0.92066391  1
  O  O136  1  0.75000000  0.64692578  0.75506868  1
  O  O137  1  0.75000000  0.85307422  0.25506868  1
  O  O138  1  0.25000000  0.35307422  0.24493132  1
  O  O139  1  0.25000000  0.14692578  0.74493132  1
  O  O140  1  0.25000000  0.10451944  0.54833917  1
  O  O141  1  0.25000000  0.39548056  0.04833917  1
  O  O142  1  0.75000000  0.89548056  0.45166083  1
  O  O143  1  0.75000000  0.60451944  0.95166083  1
  O  O144  1  0.98049117  0.79125913  0.51947319  1
  O  O145  1  0.51950883  0.70874087  0.01947319  1
  O  O146  1  0.48049117  0.20874087  0.48052681  1
  O  O147  1  0.01950883  0.29125913  0.98052681  1
  O  O148  1  0.01950883  0.20874087  0.48052681  1
  O  O149  1  0.48049117  0.29125913  0.98052681  1
  O  O150  1  0.51950883  0.79125913  0.51947319  1
  O  O151  1  0.98049117  0.70874087  0.01947319  1
  O  O152  1  0.98261042  0.76876686  0.72436409  1
  O  O153  1  0.51738958  0.73123314  0.22436409  1
  O  O154  1  0.48261042  0.23123314  0.27563591  1
  O  O155  1  0.01738958  0.26876686  0.77563591  1
  O  O156  1  0.01738958  0.23123314  0.27563591  1
  O  O157  1  0.48261042  0.26876686  0.77563591  1
  O  O158  1  0.51738958  0.76876686  0.72436409  1
  O  O159  1  0.98261042  0.73123314  0.22436409  1
