# generated using pymatgen
data_Rb2Cu2Si8O19
_symmetry_space_group_name_H-M   'P 1'
_cell_length_a   8.50315200
_cell_length_b   9.98427700
_cell_length_c   11.69013904
_cell_angle_alpha   84.98010228
_cell_angle_beta   90.00000000
_cell_angle_gamma   90.00000000
_symmetry_Int_Tables_number   1
_chemical_formula_structural   Rb2Cu2Si8O19
_chemical_formula_sum   'Rb4 Cu4 Si16 O38'
_cell_volume   988.66064079
_cell_formula_units_Z   2
loop_
 _symmetry_equiv_pos_site_id
 _symmetry_equiv_pos_as_xyz
  1  'x, y, z'
loop_
 _atom_site_type_symbol
 _atom_site_label
 _atom_site_symmetry_multiplicity
 _atom_site_fract_x
 _atom_site_fract_y
 _atom_site_fract_z
 _atom_site_occupancy
  Rb  Rb0  1  0.75000000  0.53131600  0.43941800  1
  Rb  Rb1  1  0.25000000  0.46868400  0.56058200  1
  Rb  Rb2  1  0.25000000  0.10411400  0.02694700  1
  Rb  Rb3  1  0.75000000  0.89588600  0.97305300  1
  Cu  Cu4  1  0.49262500  0.15467600  0.51866400  1
  Cu  Cu5  1  0.99262500  0.84532400  0.48133600  1
  Cu  Cu6  1  0.50737500  0.84532400  0.48133600  1
  Cu  Cu7  1  0.00737500  0.15467600  0.51866400  1
  Si  Si8  1  0.43809600  0.80683200  0.22626800  1
  Si  Si9  1  0.93809600  0.19316800  0.77373200  1
  Si  Si10  1  0.56190400  0.19316800  0.77373200  1
  Si  Si11  1  0.06190400  0.80683200  0.22626800  1
  Si  Si12  1  0.43543500  0.43441900  0.88781300  1
  Si  Si13  1  0.93543500  0.56558100  0.11218700  1
  Si  Si14  1  0.56456500  0.56558100  0.11218700  1
  Si  Si15  1  0.06456500  0.43441900  0.88781300  1
  Si  Si16  1  0.06396000  0.92778300  0.73581600  1
  Si  Si17  1  0.56396000  0.07221700  0.26418400  1
  Si  Si18  1  0.93604000  0.07221700  0.26418400  1
  Si  Si19  1  0.43604000  0.92778300  0.73581600  1
  Si  Si20  1  0.43276200  0.34011700  0.28501700  1
  Si  Si21  1  0.93276200  0.65988300  0.71498300  1
  Si  Si22  1  0.56723800  0.65988300  0.71498300  1
  Si  Si23  1  0.06723800  0.34011700  0.28501700  1
  O  O24  1  0.75000000  0.15889300  0.78022700  1
  O  O25  1  0.25000000  0.84110700  0.21977300  1
  O  O26  1  0.25000000  0.38753900  0.25969100  1
  O  O27  1  0.75000000  0.61246100  0.74030900  1
  O  O28  1  0.25000000  0.39653900  0.90698300  1
  O  O29  1  0.75000000  0.60346100  0.09301700  1
  O  O30  1  0.97735500  0.95306600  0.17911700  1
  O  O31  1  0.47735500  0.04693400  0.82088300  1
  O  O32  1  0.02264500  0.04693400  0.82088300  1
  O  O33  1  0.52264500  0.95306600  0.17911700  1
  O  O34  1  0.99357600  0.74736100  0.34761900  1
  O  O35  1  0.49357600  0.25263900  0.65238100  1
  O  O36  1  0.00642400  0.25263900  0.65238100  1
  O  O37  1  0.50642400  0.74736100  0.34761900  1
  O  O38  1  0.53740400  0.79481100  0.78613800  1
  O  O39  1  0.03740400  0.20518900  0.21386200  1
  O  O40  1  0.46259600  0.20518900  0.21386200  1
  O  O41  1  0.96259600  0.79481100  0.78613800  1
  O  O42  1  0.52555000  0.29220100  0.87668400  1
  O  O43  1  0.02555000  0.70779900  0.12331600  1
  O  O44  1  0.47445000  0.70779900  0.12331600  1
  O  O45  1  0.97445000  0.29220100  0.87668400  1
  O  O46  1  0.50000000  0.50000000  0.00000000  1
  O  O47  1  0.00000000  0.50000000  0.00000000  1
  O  O48  1  0.25000000  0.89086300  0.75155800  1
  O  O49  1  0.75000000  0.10913700  0.24844200  1
  O  O50  1  0.97898600  0.68355900  0.58197600  1
  O  O51  1  0.47898600  0.31644100  0.41802400  1
  O  O52  1  0.02101400  0.31644100  0.41802400  1
  O  O53  1  0.52101400  0.68355900  0.58197600  1
  O  O54  1  0.01231400  0.97276500  0.60270600  1
  O  O55  1  0.51231400  0.02723500  0.39729400  1
  O  O56  1  0.98768600  0.02723500  0.39729400  1
  O  O57  1  0.48768600  0.97276500  0.60270600  1
  O  O58  1  0.04468100  0.53782200  0.77411100  1
  O  O59  1  0.54468100  0.46217800  0.22588900  1
  O  O60  1  0.95531900  0.46217800  0.22588900  1
  O  O61  1  0.45531900  0.53782200  0.77411100  1
