# generated using pymatgen
data_CsEuCl3
_symmetry_space_group_name_H-M   'P 1'
_cell_length_a   7.88130000
_cell_length_b   8.19368300
_cell_length_c   11.19117800
_cell_angle_alpha   90.00000000
_cell_angle_beta   90.00000000
_cell_angle_gamma   90.00000000
_symmetry_Int_Tables_number   1
_chemical_formula_structural   CsEuCl3
_chemical_formula_sum   'Cs4 Eu4 Cl12'
_cell_volume   722.69128969
_cell_formula_units_Z   4
loop_
 _symmetry_equiv_pos_site_id
 _symmetry_equiv_pos_as_xyz
  1  'x, y, z'
loop_
 _atom_site_type_symbol
 _atom_site_label
 _atom_site_symmetry_multiplicity
 _atom_site_fract_x
 _atom_site_fract_y
 _atom_site_fract_z
 _atom_site_occupancy
  Cs  Cs0  1  0.01750200  0.44187300  0.25000000  1
  Cs  Cs1  1  0.98249800  0.55812700  0.75000000  1
  Cs  Cs2  1  0.51750200  0.05812700  0.75000000  1
  Cs  Cs3  1  0.48249800  0.94187300  0.25000000  1
  Eu  Eu4  1  0.00000000  0.00000000  0.00000000  1
  Eu  Eu5  1  0.50000000  0.50000000  0.00000000  1
  Eu  Eu6  1  0.00000000  0.00000000  0.50000000  1
  Eu  Eu7  1  0.50000000  0.50000000  0.50000000  1
  Cl  Cl8  1  0.29475300  0.20801800  0.04116000  1
  Cl  Cl9  1  0.70524700  0.79198200  0.95884000  1
  Cl  Cl10  1  0.79475300  0.29198200  0.95884000  1
  Cl  Cl11  1  0.70524700  0.79198200  0.54116000  1
  Cl  Cl12  1  0.20524700  0.70801800  0.04116000  1
  Cl  Cl13  1  0.29475300  0.20801800  0.45884000  1
  Cl  Cl14  1  0.20524700  0.70801800  0.45884000  1
  Cl  Cl15  1  0.79475300  0.29198200  0.54116000  1
  Cl  Cl16  1  0.58057600  0.52005400  0.25000000  1
  Cl  Cl17  1  0.41942400  0.47994600  0.75000000  1
  Cl  Cl18  1  0.08057600  0.97994600  0.75000000  1
  Cl  Cl19  1  0.91942400  0.02005400  0.25000000  1
