# generated using pymatgen
data_Ba4Mg(SiN3)2
_symmetry_space_group_name_H-M   'P 1'
_cell_length_a   11.79488210
_cell_length_b   11.04630064
_cell_length_c   6.99150172
_cell_angle_alpha   78.12569447
_cell_angle_beta   66.41862566
_cell_angle_gamma   35.45567987
_symmetry_Int_Tables_number   1
_chemical_formula_structural   Ba4Mg(SiN3)2
_chemical_formula_sum   'Ba8 Mg2 Si4 N12'
_cell_volume   471.75610038
_cell_formula_units_Z   2
loop_
 _symmetry_equiv_pos_site_id
 _symmetry_equiv_pos_as_xyz
  1  'x, y, z'
loop_
 _atom_site_type_symbol
 _atom_site_label
 _atom_site_symmetry_multiplicity
 _atom_site_fract_x
 _atom_site_fract_y
 _atom_site_fract_z
 _atom_site_occupancy
  Ba  Ba0  1  0.85004400  0.85004400  0.14995600  1
  Ba  Ba1  1  0.14995600  0.14995600  0.85004400  1
  Ba  Ba2  1  0.39995600  0.39995600  0.10004400  1
  Ba  Ba3  1  0.10004400  0.10004400  0.39995600  1
  Ba  Ba4  1  0.66856500  0.66856500  0.33143500  1
  Ba  Ba5  1  0.33143500  0.33143500  0.66856500  1
  Ba  Ba6  1  0.58143500  0.58143500  0.91856500  1
  Ba  Ba7  1  0.91856500  0.91856500  0.58143500  1
  Mg  Mg8  1  0.50000000  0.50000000  0.50000000  1
  Mg  Mg9  1  0.75000000  0.75000000  0.75000000  1
  Si  Si10  1  0.84216900  0.15783100  0.15783100  1
  Si  Si11  1  0.15783100  0.84216900  0.84216900  1
  Si  Si12  1  0.40783100  0.09216900  0.09216900  1
  Si  Si13  1  0.09216900  0.40783100  0.40783100  1
  N  N14  1  0.78330600  0.35288700  0.22535600  1
  N  N15  1  0.63845100  0.22535600  0.35288700  1
  N  N16  1  0.22535600  0.63845100  0.78330600  1
  N  N17  1  0.35288700  0.78330600  0.63845100  1
  N  N18  1  0.46669400  0.89711300  0.02464400  1
  N  N19  1  0.61154900  0.02464400  0.89711300  1
  N  N20  1  0.02464400  0.61154900  0.46669400  1
  N  N21  1  0.89711300  0.46669400  0.61154900  1
  N  N22  1  0.88503200  0.11496800  0.88503200  1
  N  N23  1  0.11496800  0.88503200  0.11496800  1
  N  N24  1  0.36496800  0.13503200  0.36496800  1
  N  N25  1  0.13503200  0.36496800  0.13503200  1
