# generated using pymatgen
data_Mg2NiB2Ir5
_symmetry_space_group_name_H-M   'P 1'
_cell_length_a   2.94345000
_cell_length_b   9.35831300
_cell_length_c   9.35831300
_cell_angle_alpha   90.00000000
_cell_angle_beta   90.00000000
_cell_angle_gamma   90.00000000
_symmetry_Int_Tables_number   1
_chemical_formula_structural   Mg2NiB2Ir5
_chemical_formula_sum   'Mg4 Ni2 B4 Ir10'
_cell_volume   257.78152946
_cell_formula_units_Z   2
loop_
 _symmetry_equiv_pos_site_id
 _symmetry_equiv_pos_as_xyz
  1  'x, y, z'
loop_
 _atom_site_type_symbol
 _atom_site_label
 _atom_site_symmetry_multiplicity
 _atom_site_fract_x
 _atom_site_fract_y
 _atom_site_fract_z
 _atom_site_occupancy
  Mg  Mg0  1  0.00000000  0.32511300  0.82511300  1
  Mg  Mg1  1  0.00000000  0.67488700  0.17488700  1
  Mg  Mg2  1  0.00000000  0.17488700  0.32511300  1
  Mg  Mg3  1  0.00000000  0.82511300  0.67488700  1
  Ni  Ni4  1  0.00000000  0.50000000  0.50000000  1
  Ni  Ni5  1  0.00000000  0.00000000  0.00000000  1
  B  B6  1  0.00000000  0.12750300  0.62750300  1
  B  B7  1  0.00000000  0.87249700  0.37249700  1
  B  B8  1  0.00000000  0.37249700  0.12750300  1
  B  B9  1  0.00000000  0.62750300  0.87249700  1
  Ir  Ir10  1  0.50000000  0.00000000  0.50000000  1
  Ir  Ir11  1  0.50000000  0.50000000  0.00000000  1
  Ir  Ir12  1  0.50000000  0.57240100  0.71231400  1
  Ir  Ir13  1  0.50000000  0.42759900  0.28768600  1
  Ir  Ir14  1  0.50000000  0.92759900  0.21231400  1
  Ir  Ir15  1  0.50000000  0.07240100  0.78768600  1
  Ir  Ir16  1  0.50000000  0.71231400  0.42759900  1
  Ir  Ir17  1  0.50000000  0.28768600  0.57240100  1
  Ir  Ir18  1  0.50000000  0.21231400  0.07240100  1
  Ir  Ir19  1  0.50000000  0.78768600  0.92759900  1
