# generated using pymatgen
data_BaCuS2
_symmetry_space_group_name_H-M   'P 1'
_cell_length_a   4.51910100
_cell_length_b   4.51910100
_cell_length_c   9.15314100
_cell_angle_alpha   90.00000000
_cell_angle_beta   90.00000000
_cell_angle_gamma   90.00000000
_symmetry_Int_Tables_number   1
_chemical_formula_structural   BaCuS2
_chemical_formula_sum   'Ba2 Cu2 S4'
_cell_volume   186.92795207
_cell_formula_units_Z   2
loop_
 _symmetry_equiv_pos_site_id
 _symmetry_equiv_pos_as_xyz
  1  'x, y, z'
loop_
 _atom_site_type_symbol
 _atom_site_label
 _atom_site_symmetry_multiplicity
 _atom_site_fract_x
 _atom_site_fract_y
 _atom_site_fract_z
 _atom_site_occupancy
  Ba  Ba0  1  0.00000000  0.50000000  0.19494100  1
  Ba  Ba1  1  0.50000000  0.00000000  0.80505900  1
  Cu  Cu2  1  0.50000000  0.00000000  0.40870800  1
  Cu  Cu3  1  0.00000000  0.50000000  0.59129200  1
  S  S4  1  0.50000000  0.50000000  0.50000000  1
  S  S5  1  0.00000000  0.00000000  0.50000000  1
  S  S6  1  0.50000000  0.00000000  0.15240500  1
  S  S7  1  0.00000000  0.50000000  0.84759500  1
