# generated using pymatgen
data_SrHfS3
_symmetry_space_group_name_H-M   'P 1'
_cell_length_a   6.78380900
_cell_length_b   7.11407100
_cell_length_c   9.77817300
_cell_angle_alpha   90.00000000
_cell_angle_beta   90.00000000
_cell_angle_gamma   90.00000000
_symmetry_Int_Tables_number   1
_chemical_formula_structural   SrHfS3
_chemical_formula_sum   'Sr4 Hf4 S12'
_cell_volume   471.89950708
_cell_formula_units_Z   4
loop_
 _symmetry_equiv_pos_site_id
 _symmetry_equiv_pos_as_xyz
  1  'x, y, z'
loop_
 _atom_site_type_symbol
 _atom_site_label
 _atom_site_symmetry_multiplicity
 _atom_site_fract_x
 _atom_site_fract_y
 _atom_site_fract_z
 _atom_site_occupancy
  Sr  Sr0  1  0.02255400  0.42639700  0.25000000  1
  Sr  Sr1  1  0.97744600  0.57360300  0.75000000  1
  Sr  Sr2  1  0.52255400  0.07360300  0.75000000  1
  Sr  Sr3  1  0.47744600  0.92639700  0.25000000  1
  Hf  Hf4  1  0.00000000  0.00000000  0.00000000  1
  Hf  Hf5  1  0.50000000  0.50000000  0.00000000  1
  Hf  Hf6  1  0.00000000  0.00000000  0.50000000  1
  Hf  Hf7  1  0.50000000  0.50000000  0.50000000  1
  S  S8  1  0.30218500  0.20128800  0.04804700  1
  S  S9  1  0.69781500  0.79871200  0.95195200  1
  S  S10  1  0.80218500  0.29871200  0.95195200  1
  S  S11  1  0.69781500  0.79871200  0.54804800  1
  S  S12  1  0.19781500  0.70128800  0.04804700  1
  S  S13  1  0.30218500  0.20128800  0.45195200  1
  S  S14  1  0.19781500  0.70128800  0.45195200  1
  S  S15  1  0.80218500  0.29871200  0.54804800  1
  S  S16  1  0.59337900  0.52007300  0.25000000  1
  S  S17  1  0.40662100  0.47992700  0.75000000  1
  S  S18  1  0.09337900  0.97992700  0.75000000  1
  S  S19  1  0.90662100  0.02007300  0.25000000  1
