# generated using pymatgen
data_CeIr3
_symmetry_space_group_name_H-M   'P 1'
_cell_length_a   5.33504072
_cell_length_b   5.33504072
_cell_length_c   17.68668600
_cell_angle_alpha   90.00000000
_cell_angle_beta   90.00000000
_cell_angle_gamma   120.00000891
_symmetry_Int_Tables_number   1
_chemical_formula_structural   CeIr3
_chemical_formula_sum   'Ce6 Ir18'
_cell_volume   435.96591395
_cell_formula_units_Z   6
loop_
 _symmetry_equiv_pos_site_id
 _symmetry_equiv_pos_as_xyz
  1  'x, y, z'
loop_
 _atom_site_type_symbol
 _atom_site_label
 _atom_site_symmetry_multiplicity
 _atom_site_fract_x
 _atom_site_fract_y
 _atom_site_fract_z
 _atom_site_occupancy
  Ce  Ce0  1  0.33333300  0.66666700  0.95787700  1
  Ce  Ce1  1  0.66666700  0.33333300  0.04212300  1
  Ce  Ce2  1  0.66666700  0.33333300  0.45787700  1
  Ce  Ce3  1  0.33333300  0.66666700  0.54212300  1
  Ce  Ce4  1  0.33333300  0.66666700  0.75000000  1
  Ce  Ce5  1  0.66666700  0.33333300  0.25000000  1
  Ir  Ir6  1  0.16737900  0.83262100  0.37348000  1
  Ir  Ir7  1  0.16737900  0.33475900  0.37348000  1
  Ir  Ir8  1  0.66524100  0.83262100  0.37348000  1
  Ir  Ir9  1  0.83262100  0.16737900  0.62652000  1
  Ir  Ir10  1  0.83262100  0.66524100  0.62652000  1
  Ir  Ir11  1  0.33475900  0.16737900  0.62652000  1
  Ir  Ir12  1  0.83262100  0.16737900  0.87348000  1
  Ir  Ir13  1  0.83262100  0.66524100  0.87348000  1
  Ir  Ir14  1  0.33475900  0.16737900  0.87348000  1
  Ir  Ir15  1  0.16737900  0.83262100  0.12652000  1
  Ir  Ir16  1  0.16737900  0.33475900  0.12652000  1
  Ir  Ir17  1  0.66524100  0.83262100  0.12652000  1
  Ir  Ir18  1  0.33333300  0.66666700  0.25000000  1
  Ir  Ir19  1  0.66666700  0.33333300  0.75000000  1
  Ir  Ir20  1  0.00000000  0.00000000  0.25000000  1
  Ir  Ir21  1  0.00000000  0.00000000  0.75000000  1
  Ir  Ir22  1  0.00000000  0.00000000  0.50000000  1
  Ir  Ir23  1  0.00000000  0.00000000  0.00000000  1
