# generated using pymatgen
data_La2Mn2Se2O3
_symmetry_space_group_name_H-M   'P 1'
_cell_length_a   4.16577000
_cell_length_b   4.16575100
_cell_length_c   10.03563588
_cell_angle_alpha   78.01714310
_cell_angle_beta   78.01761620
_cell_angle_gamma   89.99953230
_symmetry_Int_Tables_number   1
_chemical_formula_structural   La2Mn2Se2O3
_chemical_formula_sum   'La2 Mn2 Se2 O3'
_cell_volume   166.47818963
_cell_formula_units_Z   1
loop_
 _symmetry_equiv_pos_site_id
 _symmetry_equiv_pos_as_xyz
  1  'x, y, z'
loop_
 _atom_site_type_symbol
 _atom_site_label
 _atom_site_symmetry_multiplicity
 _atom_site_fract_x
 _atom_site_fract_y
 _atom_site_fract_z
 _atom_site_occupancy
  La  La0  1  0.68783200  0.68782500  0.62432400  1
  La  La1  1  0.31216700  0.31216300  0.37568000  1
  Mn  Mn2  1  0.49999800  0.00000900  0.99999500  1
  Mn  Mn3  1  0.00000500  0.50001900  0.99999500  1
  Se  Se4  1  0.10045600  0.10045200  0.79860700  1
  Se  Se5  1  0.89954300  0.89954900  0.20139300  1
  O  O6  1  0.49999900  0.49999400  0.00000200  1
  O  O7  1  0.24999500  0.75000000  0.50000100  1
  O  O8  1  0.75000500  0.24998800  0.50000200  1
