# generated using pymatgen
data_Li8Be6P7O29
_symmetry_space_group_name_H-M   'P 1'
_cell_length_a   11.68723576
_cell_length_b   11.68723576
_cell_length_c   9.35023400
_cell_angle_alpha   90.00000000
_cell_angle_beta   90.00000000
_cell_angle_gamma   119.99999865
_symmetry_Int_Tables_number   1
_chemical_formula_structural   Li8Be6P7O29
_chemical_formula_sum   'Li16 Be12 P14 O58'
_cell_volume   1106.05500982
_cell_formula_units_Z   2
loop_
 _symmetry_equiv_pos_site_id
 _symmetry_equiv_pos_as_xyz
  1  'x, y, z'
loop_
 _atom_site_type_symbol
 _atom_site_label
 _atom_site_symmetry_multiplicity
 _atom_site_fract_x
 _atom_site_fract_y
 _atom_site_fract_z
 _atom_site_occupancy
  Li  Li0  1  0.00000000  0.00000000  0.55227400  1
  Li  Li1  1  0.00000000  0.00000000  0.05227400  1
  Li  Li2  1  0.66666700  0.33333300  0.38121200  1
  Li  Li3  1  0.33333300  0.66666700  0.88121200  1
  Li  Li4  1  0.45556700  0.55437500  0.45670000  1
  Li  Li5  1  0.09880800  0.54443300  0.45670000  1
  Li  Li6  1  0.44562500  0.90119200  0.45670000  1
  Li  Li7  1  0.90119200  0.44562500  0.95670000  1
  Li  Li8  1  0.55437500  0.45556700  0.95670000  1
  Li  Li9  1  0.54443300  0.09880800  0.95670000  1
  Li  Li10  1  0.65160500  0.82458900  0.25882400  1
  Li  Li11  1  0.17298400  0.34839500  0.25882400  1
  Li  Li12  1  0.17541100  0.82701600  0.25882400  1
  Li  Li13  1  0.82701600  0.17541100  0.75882400  1
  Li  Li14  1  0.82458900  0.65160500  0.75882400  1
  Li  Li15  1  0.34839500  0.17298400  0.75882400  1
  Be  Be16  1  0.00107300  0.74628000  0.00759700  1
  Be  Be17  1  0.74520700  0.99892700  0.00759700  1
  Be  Be18  1  0.25372000  0.25479300  0.00759700  1
  Be  Be19  1  0.25479300  0.25372000  0.50759700  1
  Be  Be20  1  0.74628000  0.00107300  0.50759700  1
  Be  Be21  1  0.99892700  0.74520700  0.50759700  1
  Be  Be22  1  0.67145500  0.58229200  0.25611000  1
  Be  Be23  1  0.91083700  0.32854500  0.25611000  1
  Be  Be24  1  0.41770800  0.08916300  0.25611000  1
  Be  Be25  1  0.08916300  0.41770800  0.75611000  1
  Be  Be26  1  0.58229200  0.67145500  0.75611000  1
  Be  Be27  1  0.32854500  0.91083700  0.75611000  1
  P  P28  1  0.91481700  0.57808700  0.25583400  1
  P  P29  1  0.66327000  0.08518300  0.25583400  1
  P  P30  1  0.42191300  0.33673000  0.25583400  1
  P  P31  1  0.33673000  0.42191300  0.75583400  1
  P  P32  1  0.57808700  0.91481700  0.75583400  1
  P  P33  1  0.08518300  0.66327000  0.75583400  1
  P  P34  1  0.25091600  0.99979500  0.00722800  1
  P  P35  1  0.74887800  0.74908400  0.00722800  1
  P  P36  1  0.00020500  0.25112200  0.00722800  1
  P  P37  1  0.25112200  0.00020500  0.50722800  1
  P  P38  1  0.99979500  0.25091600  0.50722800  1
  P  P39  1  0.74908400  0.74887800  0.50722800  1
  P  P40  1  0.33333300  0.66666700  0.26290500  1
  P  P41  1  0.66666700  0.33333300  0.76290500  1
  O  O42  1  0.94880200  0.60640400  0.09442600  1
  O  O43  1  0.65760300  0.05119800  0.09442600  1
  O  O44  1  0.39359600  0.34239700  0.09442600  1
  O  O45  1  0.34239700  0.39359600  0.59442600  1
  O  O46  1  0.60640400  0.94880200  0.59442600  1
  O  O47  1  0.05119800  0.65760300  0.59442600  1
  O  O48  1  0.95510900  0.47820200  0.31031400  1
  O  O49  1  0.52309300  0.04489100  0.31031400  1
  O  O50  1  0.52179800  0.47690700  0.31031400  1
  O  O51  1  0.47690700  0.52179800  0.81031400  1
  O  O52  1  0.47820200  0.95510900  0.81031400  1
  O  O53  1  0.04489100  0.52309300  0.81031400  1
  O  O54  1  0.00488800  0.71439900  0.83849100  1
  O  O55  1  0.70951000  0.99511200  0.83849100  1
  O  O56  1  0.28560100  0.29049000  0.83849100  1
  O  O57  1  0.29049000  0.28560100  0.33849100  1
  O  O58  1  0.71439900  0.00488800  0.33849100  1
  O  O59  1  0.99511200  0.70951000  0.33849100  1
  O  O60  1  0.76415400  0.51617300  0.28178900  1
  O  O61  1  0.75201900  0.23584600  0.28178900  1
  O  O62  1  0.48382700  0.24798100  0.28178900  1
  O  O63  1  0.24798100  0.48382700  0.78178900  1
  O  O64  1  0.51617300  0.76415400  0.78178900  1
  O  O65  1  0.23584600  0.75201900  0.78178900  1
  O  O66  1  0.14709600  0.86180000  0.06437000  1
  O  O67  1  0.71470400  0.85290400  0.06437000  1
  O  O68  1  0.13820000  0.28529600  0.06437000  1
  O  O69  1  0.28529600  0.13820000  0.56437000  1
  O  O70  1  0.86180000  0.14709600  0.56437000  1
  O  O71  1  0.85290400  0.71470400  0.56437000  1
  O  O72  1  0.66684000  0.61699400  0.08706100  1
  O  O73  1  0.95015300  0.33316000  0.08706100  1
  O  O74  1  0.38300600  0.04984700  0.08706100  1
  O  O75  1  0.04984700  0.38300600  0.58706100  1
  O  O76  1  0.61699400  0.66684000  0.58706100  1
  O  O77  1  0.33316000  0.95015300  0.58706100  1
  O  O78  1  0.89994800  0.80528600  0.02879300  1
  O  O79  1  0.90533900  0.10005200  0.02879300  1
  O  O80  1  0.19471400  0.09466100  0.02879300  1
  O  O81  1  0.09466100  0.19471400  0.52879300  1
  O  O82  1  0.80528600  0.89994800  0.52879300  1
  O  O83  1  0.10005200  0.90533900  0.52879300  1
  O  O84  1  0.72429700  0.71943800  0.34548900  1
  O  O85  1  0.99514100  0.27570300  0.34548900  1
  O  O86  1  0.28056200  0.00485900  0.34548900  1
  O  O87  1  0.00485900  0.28056200  0.84548900  1
  O  O88  1  0.71943800  0.72429700  0.84548900  1
  O  O89  1  0.27570300  0.99514100  0.84548900  1
  O  O90  1  0.27474100  0.74965300  0.32367500  1
  O  O91  1  0.47491200  0.72525900  0.32367500  1
  O  O92  1  0.25034700  0.52508800  0.32367500  1
  O  O93  1  0.52508800  0.25034700  0.82367500  1
  O  O94  1  0.74965300  0.27474100  0.82367500  1
  O  O95  1  0.72525900  0.47491200  0.82367500  1
  O  O96  1  0.33333300  0.66666700  0.09797500  1
  O  O97  1  0.66666700  0.33333300  0.59797500  1
  O  O98  1  0.00000000  0.00000000  0.28067400  1
  O  O99  1  0.00000000  0.00000000  0.78067400  1
