# generated using pymatgen
data_LuRhO3
_symmetry_space_group_name_H-M   'P 1'
_cell_length_a   5.23108500
_cell_length_b   5.72116400
_cell_length_c   7.59416600
_cell_angle_alpha   90.00000000
_cell_angle_beta   90.00000000
_cell_angle_gamma   90.00000000
_symmetry_Int_Tables_number   1
_chemical_formula_structural   LuRhO3
_chemical_formula_sum   'Lu4 Rh4 O12'
_cell_volume   227.27740405
_cell_formula_units_Z   4
loop_
 _symmetry_equiv_pos_site_id
 _symmetry_equiv_pos_as_xyz
  1  'x, y, z'
loop_
 _atom_site_type_symbol
 _atom_site_label
 _atom_site_symmetry_multiplicity
 _atom_site_fract_x
 _atom_site_fract_y
 _atom_site_fract_z
 _atom_site_occupancy
  Lu  Lu0  1  0.52988600  0.58421300  0.25000000  1
  Lu  Lu1  1  0.97011400  0.08421300  0.25000000  1
  Lu  Lu2  1  0.47011400  0.41578700  0.75000000  1
  Lu  Lu3  1  0.02988600  0.91578700  0.75000000  1
  Rh  Rh4  1  0.00000000  0.50000000  0.00000000  1
  Rh  Rh5  1  0.50000000  0.00000000  0.50000000  1
  Rh  Rh6  1  0.00000000  0.50000000  0.50000000  1
  Rh  Rh7  1  0.50000000  0.00000000  0.00000000  1
  O  O8  1  0.35610400  0.93991000  0.25000000  1
  O  O9  1  0.14389600  0.43991000  0.25000000  1
  O  O10  1  0.64389600  0.06009000  0.75000000  1
  O  O11  1  0.85610400  0.56009000  0.75000000  1
  O  O12  1  0.82580300  0.81323500  0.06758500  1
  O  O13  1  0.67419700  0.31323500  0.43241500  1
  O  O14  1  0.17419700  0.18676500  0.56758500  1
  O  O15  1  0.32580300  0.68676500  0.93241500  1
  O  O16  1  0.17419700  0.18676500  0.93241500  1
  O  O17  1  0.32580300  0.68676500  0.56758500  1
  O  O18  1  0.82580300  0.81323500  0.43241500  1
  O  O19  1  0.67419700  0.31323500  0.06758500  1
