# generated using pymatgen
data_NaYbSiO4
_symmetry_space_group_name_H-M   'P 1'
_cell_length_a   5.24132500
_cell_length_b   6.52837000
_cell_length_c   11.38799300
_cell_angle_alpha   90.00000000
_cell_angle_beta   90.00000000
_cell_angle_gamma   90.00000000
_symmetry_Int_Tables_number   1
_chemical_formula_structural   NaYbSiO4
_chemical_formula_sum   'Na4 Yb4 Si4 O16'
_cell_volume   389.66647412
_cell_formula_units_Z   4
loop_
 _symmetry_equiv_pos_site_id
 _symmetry_equiv_pos_as_xyz
  1  'x, y, z'
loop_
 _atom_site_type_symbol
 _atom_site_label
 _atom_site_symmetry_multiplicity
 _atom_site_fract_x
 _atom_site_fract_y
 _atom_site_fract_z
 _atom_site_occupancy
  Na  Na0  1  0.00000000  0.50000000  0.00000000  1
  Na  Na1  1  0.50000000  0.00000000  0.50000000  1
  Na  Na2  1  0.00000000  0.00000000  0.00000000  1
  Na  Na3  1  0.50000000  0.50000000  0.50000000  1
  Yb  Yb4  1  0.49823800  0.75000000  0.22139600  1
  Yb  Yb5  1  0.00176200  0.75000000  0.72139600  1
  Yb  Yb6  1  0.50176200  0.25000000  0.77860400  1
  Yb  Yb7  1  0.99823800  0.25000000  0.27860400  1
  Si  Si8  1  0.93956800  0.75000000  0.39719600  1
  Si  Si9  1  0.56043200  0.75000000  0.89719600  1
  Si  Si10  1  0.06043200  0.25000000  0.60280400  1
  Si  Si11  1  0.43956800  0.25000000  0.10280400  1
  O  O12  1  0.80261700  0.55252200  0.33149000  1
  O  O13  1  0.69738300  0.94747800  0.83149000  1
  O  O14  1  0.19738300  0.05252200  0.66851000  1
  O  O15  1  0.30261700  0.44747800  0.16851000  1
  O  O16  1  0.19738300  0.44747800  0.66851000  1
  O  O17  1  0.30261700  0.05252200  0.16851000  1
  O  O18  1  0.80261700  0.94747800  0.33149000  1
  O  O19  1  0.69738300  0.55252200  0.83149000  1
  O  O20  1  0.66834800  0.75000000  0.03314300  1
  O  O21  1  0.83165200  0.75000000  0.53314300  1
  O  O22  1  0.33165200  0.25000000  0.96685700  1
  O  O23  1  0.16834800  0.25000000  0.46685700  1
  O  O24  1  0.24906000  0.75000000  0.38913300  1
  O  O25  1  0.25094000  0.75000000  0.88913300  1
  O  O26  1  0.75094000  0.25000000  0.61086700  1
  O  O27  1  0.74906000  0.25000000  0.11086700  1
