# generated using pymatgen
data_Na6B18Se17
_symmetry_space_group_name_H-M   'P 1'
_cell_length_a   12.35837091
_cell_length_b   12.35837091
_cell_length_c   11.37034979
_cell_angle_alpha   89.01002303
_cell_angle_beta   89.01002303
_cell_angle_gamma   85.16534767
_symmetry_Int_Tables_number   1
_chemical_formula_structural   Na6B18Se17
_chemical_formula_sum   'Na12 B36 Se34'
_cell_volume   1729.93080663
_cell_formula_units_Z   2
loop_
 _symmetry_equiv_pos_site_id
 _symmetry_equiv_pos_as_xyz
  1  'x, y, z'
loop_
 _atom_site_type_symbol
 _atom_site_label
 _atom_site_symmetry_multiplicity
 _atom_site_fract_x
 _atom_site_fract_y
 _atom_site_fract_z
 _atom_site_occupancy
  Na  Na0  1  0.85452000  0.63589700  0.94897300  1
  Na  Na1  1  0.36404400  0.14653100  0.55088500  1
  Na  Na2  1  0.14653100  0.36404400  0.05088500  1
  Na  Na3  1  0.63589700  0.85452000  0.44897300  1
  Na  Na4  1  0.99999600  0.99998100  0.00003400  1
  Na  Na5  1  0.99998100  0.99999600  0.50003400  1
  Na  Na6  1  0.74180600  0.31171900  0.92571800  1
  Na  Na7  1  0.68701100  0.25782300  0.57455700  1
  Na  Na8  1  0.25782300  0.68701100  0.07455700  1
  Na  Na9  1  0.31171900  0.74180600  0.42571800  1
  Na  Na10  1  0.57799700  0.47267300  0.27862900  1
  Na  Na11  1  0.47267300  0.57799700  0.77862900  1
  B  B12  1  0.49224900  0.88000900  0.07281100  1
  B  B13  1  0.12039000  0.50791900  0.42733500  1
  B  B14  1  0.50791900  0.12039000  0.92733500  1
  B  B15  1  0.88000900  0.49224900  0.57281100  1
  B  B16  1  0.49501400  0.00478500  0.14864000  1
  B  B17  1  0.99545700  0.50493900  0.35131900  1
  B  B18  1  0.50493900  0.99545700  0.85131900  1
  B  B19  1  0.00478500  0.49501400  0.64864000  1
  B  B20  1  0.56859500  0.88912300  0.94027800  1
  B  B21  1  0.11130100  0.43094600  0.55955600  1
  B  B22  1  0.43094600  0.11130100  0.05955600  1
  B  B23  1  0.88912300  0.56859500  0.44027800  1
  B  B24  1  0.31359300  0.97811000  0.32283800  1
  B  B25  1  0.02169900  0.68649000  0.17716900  1
  B  B26  1  0.68649000  0.02169900  0.67716900  1
  B  B27  1  0.97811000  0.31359300  0.82283800  1
  B  B28  1  0.37907700  0.98010500  0.06784400  1
  B  B29  1  0.02000100  0.62092400  0.43218300  1
  B  B30  1  0.62092400  0.02000100  0.93218300  1
  B  B31  1  0.98010500  0.37907700  0.56784400  1
  B  B32  1  0.61319800  0.94940100  0.07047000  1
  B  B33  1  0.05053600  0.38696500  0.42953200  1
  B  B34  1  0.38696500  0.05053600  0.92953200  1
  B  B35  1  0.94940100  0.61319800  0.57047000  1
  B  B36  1  0.77890100  0.05913800  0.18961100  1
  B  B37  1  0.94108400  0.22092800  0.30969100  1
  B  B38  1  0.22092800  0.94108400  0.80969100  1
  B  B39  1  0.05913800  0.77890100  0.68961100  1
  B  B40  1  0.57542800  0.08996400  0.06285200  1
  B  B41  1  0.91010100  0.42453800  0.43729700  1
  B  B42  1  0.42453800  0.91010100  0.93729700  1
  B  B43  1  0.08996400  0.57542800  0.56285200  1
  B  B44  1  0.59951700  0.65767800  0.02582000  1
  B  B45  1  0.34254400  0.40108500  0.47500400  1
  B  B46  1  0.40108500  0.34254400  0.97500400  1
  B  B47  1  0.65767800  0.59951700  0.52582000  1
  Se  Se48  1  0.49701100  0.72905200  0.14490300  1
  Se  Se49  1  0.27092300  0.50271900  0.35450400  1
  Se  Se50  1  0.50271900  0.27092300  0.85450400  1
  Se  Se51  1  0.72905200  0.49701100  0.64490300  1
  Se  Se52  1  0.66550400  0.51321100  0.04872200  1
  Se  Se53  1  0.48673000  0.33382600  0.44980200  1
  Se  Se54  1  0.33382600  0.48673000  0.94980200  1
  Se  Se55  1  0.51321100  0.66550400  0.54872200  1
  Se  Se56  1  0.23795900  0.97001200  0.47210400  1
  Se  Se57  1  0.02987800  0.76209200  0.02788200  1
  Se  Se58  1  0.76209200  0.02987800  0.52788200  1
  Se  Se59  1  0.97001200  0.23795900  0.97210400  1
  Se  Se60  1  0.75065200  0.90840000  0.16032500  1
  Se  Se61  1  0.09133700  0.24940000  0.33975500  1
  Se  Se62  1  0.24940000  0.09133700  0.83975500  1
  Se  Se63  1  0.90840000  0.75065200  0.66032400  1
  Se  Se64  1  0.67641400  0.18205900  0.14737600  1
  Se  Se65  1  0.81800900  0.32348900  0.35321800  1
  Se  Se66  1  0.32348900  0.81800900  0.85321800  1
  Se  Se67  1  0.18205900  0.67641400  0.64737600  1
  Se  Se68  1  0.92716700  0.07265800  0.25002900  1
  Se  Se69  1  0.07265800  0.92716700  0.75002900  1
  Se  Se70  1  0.24658700  0.95510400  0.16842700  1
  Se  Se71  1  0.04462600  0.75348400  0.33155700  1
  Se  Se72  1  0.75348400  0.04462600  0.83155700  1
  Se  Se73  1  0.95510400  0.24658700  0.66842700  1
  Se  Se74  1  0.46917300  0.00781600  0.32386000  1
  Se  Se75  1  0.99193400  0.53087100  0.17610500  1
  Se  Se76  1  0.53087100  0.99193400  0.67610500  1
  Se  Se77  1  0.00781600  0.46917300  0.82386000  1
  Se  Se78  1  0.63725500  0.74483200  0.88406600  1
  Se  Se79  1  0.25552300  0.36276300  0.61571900  1
  Se  Se80  1  0.36276300  0.25552300  0.11571900  1
  Se  Se81  1  0.74483200  0.63725500  0.38406600  1
