# generated using pymatgen
data_Eu5Pt2
_symmetry_space_group_name_H-M   'P 1'
_cell_length_a   9.06903415
_cell_length_b   9.06903415
_cell_length_c   7.83223141
_cell_angle_alpha   83.02385279
_cell_angle_beta   83.02385279
_cell_angle_gamma   44.00347529
_symmetry_Int_Tables_number   1
_chemical_formula_structural   Eu5Pt2
_chemical_formula_sum   'Eu10 Pt4'
_cell_volume   443.65720815
_cell_formula_units_Z   2
loop_
 _symmetry_equiv_pos_site_id
 _symmetry_equiv_pos_as_xyz
  1  'x, y, z'
loop_
 _atom_site_type_symbol
 _atom_site_label
 _atom_site_symmetry_multiplicity
 _atom_site_fract_x
 _atom_site_fract_y
 _atom_site_fract_z
 _atom_site_occupancy
  Eu  Eu0  1  0.01903000  0.79836800  0.42020400  1
  Eu  Eu1  1  0.20163200  0.98097000  0.07979600  1
  Eu  Eu2  1  0.98097000  0.20163200  0.57979600  1
  Eu  Eu3  1  0.79836800  0.01903000  0.92020400  1
  Eu  Eu4  1  0.36110100  0.20351800  0.31822000  1
  Eu  Eu5  1  0.79648200  0.63889900  0.18178000  1
  Eu  Eu6  1  0.63889900  0.79648200  0.68178000  1
  Eu  Eu7  1  0.20351800  0.36110100  0.81822000  1
  Eu  Eu8  1  0.57887600  0.42112400  0.25000000  1
  Eu  Eu9  1  0.42112400  0.57887600  0.75000000  1
  Pt  Pt10  1  0.18340200  0.59769200  0.08070800  1
  Pt  Pt11  1  0.40230800  0.81659800  0.41929200  1
  Pt  Pt12  1  0.81659800  0.40230800  0.91929200  1
  Pt  Pt13  1  0.59769200  0.18340200  0.58070800  1
