# generated using pymatgen
data_CsGeBr3
_symmetry_space_group_name_H-M   'P 1'
_cell_length_a   5.70378777
_cell_length_b   5.70378777
_cell_length_c   5.70378825
_cell_angle_alpha   89.07462265
_cell_angle_beta   89.07462265
_cell_angle_gamma   89.07462006
_symmetry_Int_Tables_number   1
_chemical_formula_structural   CsGeBr3
_chemical_formula_sum   'Cs1 Ge1 Br3'
_cell_volume   185.49062247
_cell_formula_units_Z   1
loop_
 _symmetry_equiv_pos_site_id
 _symmetry_equiv_pos_as_xyz
  1  'x, y, z'
loop_
 _atom_site_type_symbol
 _atom_site_label
 _atom_site_symmetry_multiplicity
 _atom_site_fract_x
 _atom_site_fract_y
 _atom_site_fract_z
 _atom_site_occupancy
  Cs  Cs0  1  0.99998700  0.99998700  0.99998700  1
  Ge  Ge1  1  0.48083700  0.48083700  0.48083700  1
  Br  Br2  1  0.50586400  0.02544900  0.50586400  1
  Br  Br3  1  0.02544900  0.50586400  0.50586400  1
  Br  Br4  1  0.50586400  0.50586400  0.02544900  1
