# generated using pymatgen
data_Pr(ErS2)3
_symmetry_space_group_name_H-M   'P 1'
_cell_length_a   3.97934000
_cell_length_b   11.05652300
_cell_length_c   11.30120858
_cell_angle_alpha   71.28812938
_cell_angle_beta   90.00000000
_cell_angle_gamma   90.00000000
_symmetry_Int_Tables_number   1
_chemical_formula_structural   Pr(ErS2)3
_chemical_formula_sum   'Pr2 Er6 S12'
_cell_volume   470.94527827
_cell_formula_units_Z   2
loop_
 _symmetry_equiv_pos_site_id
 _symmetry_equiv_pos_as_xyz
  1  'x, y, z'
loop_
 _atom_site_type_symbol
 _atom_site_label
 _atom_site_symmetry_multiplicity
 _atom_site_fract_x
 _atom_site_fract_y
 _atom_site_fract_z
 _atom_site_occupancy
  Pr  Pr0  1  0.75000000  0.54870400  0.80514400  1
  Pr  Pr1  1  0.25000000  0.45129600  0.19485600  1
  Er  Er2  1  0.75000000  0.17994400  0.99807900  1
  Er  Er3  1  0.25000000  0.82005600  0.00192100  1
  Er  Er4  1  0.75000000  0.93932400  0.66705900  1
  Er  Er5  1  0.25000000  0.06067600  0.33294100  1
  Er  Er6  1  0.75000000  0.66160000  0.41348100  1
  Er  Er7  1  0.25000000  0.33840000  0.58651900  1
  S  S8  1  0.75000000  0.97650600  0.88832700  1
  S  S9  1  0.25000000  0.02349400  0.11167300  1
  S  S10  1  0.75000000  0.30344400  0.74826600  1
  S  S11  1  0.25000000  0.69655600  0.25173400  1
  S  S12  1  0.75000000  0.89639100  0.43900600  1
  S  S13  1  0.25000000  0.10360900  0.56099400  1
  S  S14  1  0.75000000  0.41847400  0.40694400  1
  S  S15  1  0.25000000  0.58152600  0.59305600  1
  S  S16  1  0.75000000  0.23502600  0.22782300  1
  S  S17  1  0.25000000  0.76497400  0.77217700  1
  S  S18  1  0.75000000  0.62011900  0.03622000  1
  S  S19  1  0.25000000  0.37988100  0.96378000  1
