# generated using pymatgen
data_U2SnIr2
_symmetry_space_group_name_H-M   'P 1'
_cell_length_a   7.69275400
_cell_length_b   7.69275400
_cell_length_c   3.53031700
_cell_angle_alpha   90.00000000
_cell_angle_beta   90.00000000
_cell_angle_gamma   90.00000000
_symmetry_Int_Tables_number   1
_chemical_formula_structural   U2SnIr2
_chemical_formula_sum   'U4 Sn2 Ir4'
_cell_volume   208.91873786
_cell_formula_units_Z   2
loop_
 _symmetry_equiv_pos_site_id
 _symmetry_equiv_pos_as_xyz
  1  'x, y, z'
loop_
 _atom_site_type_symbol
 _atom_site_label
 _atom_site_symmetry_multiplicity
 _atom_site_fract_x
 _atom_site_fract_y
 _atom_site_fract_z
 _atom_site_occupancy
  U  U0  1  0.16984800  0.33015200  0.00000000  1
  U  U1  1  0.83015200  0.66984800  0.00000000  1
  U  U2  1  0.66984800  0.16984800  0.00000000  1
  U  U3  1  0.33015200  0.83015200  0.00000000  1
  Sn  Sn4  1  0.00000000  0.00000000  0.50000000  1
  Sn  Sn5  1  0.50000000  0.50000000  0.50000000  1
  Ir  Ir6  1  0.36648900  0.13351100  0.50000000  1
  Ir  Ir7  1  0.63351100  0.86648900  0.50000000  1
  Ir  Ir8  1  0.86648900  0.36648900  0.50000000  1
  Ir  Ir9  1  0.13351100  0.63351100  0.50000000  1
