# generated using pymatgen
data_LaIn2Cl5
_symmetry_space_group_name_H-M   'P 1'
_cell_length_a   8.20313400
_cell_length_b   9.00218200
_cell_length_c   13.03998300
_cell_angle_alpha   90.00000000
_cell_angle_beta   90.00000000
_cell_angle_gamma   90.00000000
_symmetry_Int_Tables_number   1
_chemical_formula_structural   LaIn2Cl5
_chemical_formula_sum   'La4 In8 Cl20'
_cell_volume   962.95195692
_cell_formula_units_Z   4
loop_
 _symmetry_equiv_pos_site_id
 _symmetry_equiv_pos_as_xyz
  1  'x, y, z'
loop_
 _atom_site_type_symbol
 _atom_site_label
 _atom_site_symmetry_multiplicity
 _atom_site_fract_x
 _atom_site_fract_y
 _atom_site_fract_z
 _atom_site_occupancy
  La  La0  1  0.92434800  0.75000000  0.50609200  1
  La  La1  1  0.07565200  0.25000000  0.49390800  1
  La  La2  1  0.42434800  0.25000000  0.99390800  1
  La  La3  1  0.57565200  0.75000000  0.00609200  1
  In  In4  1  0.95100300  0.00609800  0.82904200  1
  In  In5  1  0.04899700  0.99390200  0.17095800  1
  In  In6  1  0.45100300  0.99390200  0.67095800  1
  In  In7  1  0.04899700  0.50609800  0.17095800  1
  In  In8  1  0.54899700  0.00609800  0.32904200  1
  In  In9  1  0.95100300  0.49390200  0.82904200  1
  In  In10  1  0.54899700  0.49390200  0.32904200  1
  In  In11  1  0.45100300  0.50609800  0.67095800  1
  Cl  Cl12  1  0.12575700  0.75000000  0.68115000  1
  Cl  Cl13  1  0.87424300  0.25000000  0.31885000  1
  Cl  Cl14  1  0.62575700  0.25000000  0.81885000  1
  Cl  Cl15  1  0.37424300  0.75000000  0.18115000  1
  Cl  Cl16  1  0.83589700  0.04265800  0.57729500  1
  Cl  Cl17  1  0.16410300  0.95734200  0.42270500  1
  Cl  Cl18  1  0.33589700  0.95734200  0.92270500  1
  Cl  Cl19  1  0.16410300  0.54265800  0.42270500  1
  Cl  Cl20  1  0.66410300  0.04265800  0.07729500  1
  Cl  Cl21  1  0.83589700  0.45734200  0.57729500  1
  Cl  Cl22  1  0.66410300  0.45734200  0.07729500  1
  Cl  Cl23  1  0.33589700  0.54265800  0.92270500  1
  Cl  Cl24  1  0.57488600  0.75000000  0.50706700  1
  Cl  Cl25  1  0.42511400  0.25000000  0.49293300  1
  Cl  Cl26  1  0.07488600  0.25000000  0.99293300  1
  Cl  Cl27  1  0.92511400  0.75000000  0.00706700  1
  Cl  Cl28  1  0.66455800  0.75000000  0.79401800  1
  Cl  Cl29  1  0.33544200  0.25000000  0.20598200  1
  Cl  Cl30  1  0.16455800  0.25000000  0.70598200  1
  Cl  Cl31  1  0.83544200  0.75000000  0.29401800  1
