# generated using pymatgen
data_Sr2P7Cl
_symmetry_space_group_name_H-M   'P 1'
_cell_length_a   9.63754147
_cell_length_b   9.63754147
_cell_length_c   22.58402818
_cell_angle_alpha   79.47176804
_cell_angle_beta   79.47176804
_cell_angle_gamma   79.80630153
_symmetry_Int_Tables_number   1
_chemical_formula_structural   Sr2P7Cl
_chemical_formula_sum   'Sr16 P56 Cl8'
_cell_volume   2005.12431642
_cell_formula_units_Z   8
loop_
 _symmetry_equiv_pos_site_id
 _symmetry_equiv_pos_as_xyz
  1  'x, y, z'
loop_
 _atom_site_type_symbol
 _atom_site_label
 _atom_site_symmetry_multiplicity
 _atom_site_fract_x
 _atom_site_fract_y
 _atom_site_fract_z
 _atom_site_occupancy
  Sr  Sr0  1  0.85812600  0.14187400  0.75000000  1
  Sr  Sr1  1  0.14187400  0.85812600  0.25000000  1
  Sr  Sr2  1  0.28061000  0.71939000  0.75000000  1
  Sr  Sr3  1  0.71939000  0.28061000  0.25000000  1
  Sr  Sr4  1  0.73606000  0.72037100  0.61211500  1
  Sr  Sr5  1  0.27962900  0.26394000  0.88788500  1
  Sr  Sr6  1  0.26394000  0.27962900  0.38788500  1
  Sr  Sr7  1  0.72037100  0.73606000  0.11211500  1
  Sr  Sr8  1  0.33388600  0.35518300  0.60619400  1
  Sr  Sr9  1  0.64481700  0.66611400  0.89380600  1
  Sr  Sr10  1  0.66611400  0.64481700  0.39380600  1
  Sr  Sr11  1  0.35518300  0.33388600  0.10619400  1
  Sr  Sr12  1  0.11285600  0.71237000  0.94659600  1
  Sr  Sr13  1  0.28763000  0.88714400  0.55340400  1
  Sr  Sr14  1  0.88714400  0.28763000  0.05340400  1
  Sr  Sr15  1  0.71237000  0.11285600  0.44659600  1
  P  P16  1  0.86187300  0.80436900  0.74779900  1
  P  P17  1  0.19563100  0.13812700  0.75220100  1
  P  P18  1  0.13812700  0.19563100  0.25220100  1
  P  P19  1  0.80436900  0.86187300  0.24779900  1
  P  P20  1  0.02106700  0.75316900  0.66869000  1
  P  P21  1  0.24683100  0.97893300  0.83131000  1
  P  P22  1  0.97893300  0.24683100  0.33131000  1
  P  P23  1  0.75316900  0.02106700  0.16869000  1
  P  P24  1  0.97239100  0.71509300  0.82658600  1
  P  P25  1  0.28490700  0.02760900  0.67341400  1
  P  P26  1  0.02760900  0.28490700  0.17341400  1
  P  P27  1  0.71509300  0.97239100  0.32658600  1
  P  P28  1  0.71904400  0.64442600  0.75530400  1
  P  P29  1  0.35557400  0.28095600  0.74469600  1
  P  P30  1  0.28095600  0.35557400  0.24469600  1
  P  P31  1  0.64442600  0.71904400  0.25530400  1
  P  P32  1  0.07616700  0.52868500  0.69943200  1
  P  P33  1  0.47131500  0.92383300  0.80056800  1
  P  P34  1  0.92383300  0.47131500  0.30056800  1
  P  P35  1  0.52868500  0.07616700  0.19943200  1
  P  P36  1  0.04578200  0.50205900  0.80683900  1
  P  P37  1  0.49794100  0.95421800  0.69316100  1
  P  P38  1  0.95421800  0.49794100  0.19316100  1
  P  P39  1  0.50205900  0.04578200  0.30683900  1
  P  P40  1  0.87983100  0.45761100  0.75857000  1
  P  P41  1  0.54238900  0.12016900  0.74143000  1
  P  P42  1  0.12016900  0.54238900  0.24143000  1
  P  P43  1  0.45761100  0.87983100  0.25857000  1
  P  P44  1  0.68033500  0.28670000  0.58229400  1
  P  P45  1  0.71330000  0.31966500  0.91770600  1
  P  P46  1  0.31966500  0.71330000  0.41770600  1
  P  P47  1  0.28670000  0.68033500  0.08229400  1
  P  P48  1  0.23406000  0.61810900  0.51008900  1
  P  P49  1  0.38189100  0.76594000  0.98991100  1
  P  P50  1  0.76594000  0.38189100  0.48991100  1
  P  P51  1  0.61810900  0.23406000  0.01008900  1
  P  P52  1  0.06437300  0.78442100  0.08718600  1
  P  P53  1  0.21557900  0.93562700  0.41281400  1
  P  P54  1  0.93562700  0.21557900  0.91281400  1
  P  P55  1  0.78442100  0.06437300  0.58718600  1
  P  P56  1  0.79940700  0.37571400  0.63707000  1
  P  P57  1  0.62428600  0.20059300  0.86293000  1
  P  P58  1  0.20059300  0.62428600  0.36293000  1
  P  P59  1  0.37571400  0.79940700  0.13707000  1
  P  P60  1  0.01013100  0.68370900  0.50709900  1
  P  P61  1  0.31629100  0.98986900  0.99290100  1
  P  P62  1  0.98986900  0.31629100  0.49290100  1
  P  P63  1  0.68370900  0.01013100  0.00709900  1
  P  P64  1  0.01198800  0.31086200  0.59143100  1
  P  P65  1  0.68913800  0.98801200  0.90856900  1
  P  P66  1  0.98801200  0.68913800  0.40856900  1
  P  P67  1  0.31086200  0.01198800  0.09143100  1
  P  P68  1  0.00011300  0.10660400  0.55748800  1
  P  P69  1  0.89339600  0.99988700  0.94251200  1
  P  P70  1  0.99988700  0.89339600  0.44251200  1
  P  P71  1  0.10660400  0.00011300  0.05748800  1
  Cl  Cl72  1  0.82544400  0.60378800  0.99700100  1
  Cl  Cl73  1  0.39621200  0.17455600  0.50299900  1
  Cl  Cl74  1  0.17455600  0.39621200  0.00299900  1
  Cl  Cl75  1  0.60378800  0.82544400  0.49700100  1
  Cl  Cl76  1  0.36819400  0.55955400  0.86539900  1
  Cl  Cl77  1  0.44044600  0.63180600  0.63460100  1
  Cl  Cl78  1  0.63180600  0.44044600  0.13460100  1
  Cl  Cl79  1  0.55955400  0.36819400  0.36539900  1
