# generated using pymatgen
data_Mn7(PbO5)3
_symmetry_space_group_name_H-M   'P 1'
_cell_length_a   10.17535740
_cell_length_b   10.17535740
_cell_length_c   13.82721800
_cell_angle_alpha   90.00000000
_cell_angle_beta   90.00000000
_cell_angle_gamma   118.43293360
_symmetry_Int_Tables_number   1
_chemical_formula_structural   Mn7(PbO5)3
_chemical_formula_sum   'Mn28 Pb12 O60'
_cell_volume   1258.94943934
_cell_formula_units_Z   4
loop_
 _symmetry_equiv_pos_site_id
 _symmetry_equiv_pos_as_xyz
  1  'x, y, z'
loop_
 _atom_site_type_symbol
 _atom_site_label
 _atom_site_symmetry_multiplicity
 _atom_site_fract_x
 _atom_site_fract_y
 _atom_site_fract_z
 _atom_site_occupancy
  Mn  Mn0  1  0.16553700  0.83066100  0.50422400  1
  Mn  Mn1  1  0.83066100  0.16553700  0.50422400  1
  Mn  Mn2  1  0.83446300  0.16933900  0.00422400  1
  Mn  Mn3  1  0.16933900  0.83446300  0.00422400  1
  Mn  Mn4  1  0.83478500  0.66641900  0.50719600  1
  Mn  Mn5  1  0.66641900  0.83478500  0.50719600  1
  Mn  Mn6  1  0.16521500  0.33358100  0.00719600  1
  Mn  Mn7  1  0.33358100  0.16521500  0.00719600  1
  Mn  Mn8  1  0.67870900  0.34193200  0.65543600  1
  Mn  Mn9  1  0.34193200  0.67870900  0.65543600  1
  Mn  Mn10  1  0.32129100  0.65806800  0.15543600  1
  Mn  Mn11  1  0.65806800  0.32129100  0.15543600  1
  Mn  Mn12  1  0.00197500  0.50027700  0.50529200  1
  Mn  Mn13  1  0.50027700  0.00197500  0.50529200  1
  Mn  Mn14  1  0.99802500  0.49972300  0.00529200  1
  Mn  Mn15  1  0.49972300  0.99802500  0.00529200  1
  Mn  Mn16  1  0.99709200  0.99709200  0.49965300  1
  Mn  Mn17  1  0.00290800  0.00290800  0.99965300  1
  Mn  Mn18  1  0.50858700  0.50858700  0.51257100  1
  Mn  Mn19  1  0.49141300  0.49141300  0.01257100  1
  Mn  Mn20  1  0.82976500  0.66123900  0.00492900  1
  Mn  Mn21  1  0.66123900  0.82976500  0.00492900  1
  Mn  Mn22  1  0.17023500  0.33876100  0.50492900  1
  Mn  Mn23  1  0.33876100  0.17023500  0.50492900  1
  Mn  Mn24  1  0.67170500  0.33418300  0.86027300  1
  Mn  Mn25  1  0.33418300  0.67170500  0.86027300  1
  Mn  Mn26  1  0.32829500  0.66581700  0.36027300  1
  Mn  Mn27  1  0.66581700  0.32829500  0.36027300  1
  Pb  Pb28  1  0.00635600  0.61634100  0.75530800  1
  Pb  Pb29  1  0.61634100  0.00635600  0.75530800  1
  Pb  Pb30  1  0.99364400  0.38365900  0.25530800  1
  Pb  Pb31  1  0.38365900  0.99364400  0.25530800  1
  Pb  Pb32  1  0.99219700  0.72821700  0.25623500  1
  Pb  Pb33  1  0.72821700  0.99219700  0.25623500  1
  Pb  Pb34  1  0.00780300  0.27178300  0.75623500  1
  Pb  Pb35  1  0.27178300  0.00780300  0.75623500  1
  Pb  Pb36  1  0.72811800  0.72811800  0.76672700  1
  Pb  Pb37  1  0.27188200  0.27188200  0.26672700  1
  Pb  Pb38  1  0.60656700  0.60656700  0.24654300  1
  Pb  Pb39  1  0.39343300  0.39343300  0.74654300  1
  O  O40  1  0.16854800  0.67701700  0.58696900  1
  O  O41  1  0.67701700  0.16854800  0.58696900  1
  O  O42  1  0.83145200  0.32298300  0.08696900  1
  O  O43  1  0.32298300  0.83145200  0.08696900  1
  O  O44  1  0.83678100  0.35507700  0.74689400  1
  O  O45  1  0.35507700  0.83678100  0.74689400  1
  O  O46  1  0.16321900  0.64492300  0.24689400  1
  O  O47  1  0.64492300  0.16321900  0.24689400  1
  O  O48  1  0.67064400  0.51352700  0.43601700  1
  O  O49  1  0.51352700  0.67064400  0.43601700  1
  O  O50  1  0.32935600  0.48647300  0.93601700  1
  O  O51  1  0.48647300  0.32935600  0.93601700  1
  O  O52  1  0.16855700  0.68266000  0.92276100  1
  O  O53  1  0.68266000  0.16855700  0.92276100  1
  O  O54  1  0.83144300  0.31734000  0.42276100  1
  O  O55  1  0.31734000  0.83144300  0.42276100  1
  O  O56  1  0.83003500  0.83003500  0.43400500  1
  O  O57  1  0.16996500  0.16996500  0.93400500  1
  O  O58  1  0.65326000  0.65326000  0.93728500  1
  O  O59  1  0.34674000  0.34674000  0.43728500  1
  O  O60  1  0.83802500  0.83802500  0.07002100  1
  O  O61  1  0.16197500  0.16197500  0.57002100  1
  O  O62  1  0.67270600  0.67270600  0.58287300  1
  O  O63  1  0.32729400  0.32729400  0.08287300  1
  O  O64  1  0.15519300  0.48969500  0.42452400  1
  O  O65  1  0.48969500  0.15519300  0.42452400  1
  O  O66  1  0.84480700  0.51030500  0.92452400  1
  O  O67  1  0.51030500  0.84480700  0.92452400  1
  O  O68  1  0.99992500  0.83529600  0.57698900  1
  O  O69  1  0.83529600  0.99992500  0.57698900  1
  O  O70  1  0.00007500  0.16470400  0.07698900  1
  O  O71  1  0.16470400  0.00007500  0.07698900  1
  O  O72  1  0.01917700  0.85323000  0.92562200  1
  O  O73  1  0.85323000  0.01917700  0.92562200  1
  O  O74  1  0.98082300  0.14677000  0.42562200  1
  O  O75  1  0.14677000  0.98082300  0.42562200  1
  O  O76  1  0.65328800  0.49587300  0.09402800  1
  O  O77  1  0.49587300  0.65328800  0.09402800  1
  O  O78  1  0.34671200  0.50412700  0.59402800  1
  O  O79  1  0.50412700  0.34671200  0.59402800  1
  O  O80  1  0.65666800  0.47570400  0.76145600  1
  O  O81  1  0.47570400  0.65666800  0.76145600  1
  O  O82  1  0.34333200  0.52429600  0.26145600  1
  O  O83  1  0.52429600  0.34333200  0.26145600  1
  O  O84  1  0.14620100  0.47910900  0.08344900  1
  O  O85  1  0.47910900  0.14620100  0.08344900  1
  O  O86  1  0.85379900  0.52089100  0.58344900  1
  O  O87  1  0.52089100  0.85379900  0.58344900  1
  O  O88  1  0.82341600  0.47372000  0.26622700  1
  O  O89  1  0.47372000  0.82341600  0.26622700  1
  O  O90  1  0.17658400  0.52628000  0.76622700  1
  O  O91  1  0.52628000  0.17658400  0.76622700  1
  O  O92  1  0.99904700  0.67004700  0.43318100  1
  O  O93  1  0.67004700  0.99904700  0.43318100  1
  O  O94  1  0.00095300  0.32995300  0.93318100  1
  O  O95  1  0.32995300  0.00095300  0.93318100  1
  O  O96  1  0.00422900  0.67587500  0.07420100  1
  O  O97  1  0.67587500  0.00422900  0.07420100  1
  O  O98  1  0.99577100  0.32412500  0.57420100  1
  O  O99  1  0.32412500  0.99577100  0.57420100  1
