# generated using pymatgen
data_Li2PtF6
_symmetry_space_group_name_H-M   'P 1'
_cell_length_a   4.73547600
_cell_length_b   4.73547600
_cell_length_c   9.32613100
_cell_angle_alpha   90.00000000
_cell_angle_beta   90.00000000
_cell_angle_gamma   90.00000000
_symmetry_Int_Tables_number   1
_chemical_formula_structural   Li2PtF6
_chemical_formula_sum   'Li4 Pt2 F12'
_cell_volume   209.13599710
_cell_formula_units_Z   2
loop_
 _symmetry_equiv_pos_site_id
 _symmetry_equiv_pos_as_xyz
  1  'x, y, z'
loop_
 _atom_site_type_symbol
 _atom_site_label
 _atom_site_symmetry_multiplicity
 _atom_site_fract_x
 _atom_site_fract_y
 _atom_site_fract_z
 _atom_site_occupancy
  Li  Li0  1  0.00000000  0.00000000  0.33645700  1
  Li  Li1  1  0.50000000  0.50000000  0.83645700  1
  Li  Li2  1  0.00000000  0.00000000  0.66354300  1
  Li  Li3  1  0.50000000  0.50000000  0.16354300  1
  Pt  Pt4  1  0.50000000  0.50000000  0.50000000  1
  Pt  Pt5  1  0.00000000  0.00000000  0.00000000  1
  F  F6  1  0.30770500  0.69229500  0.66084500  1
  F  F7  1  0.19229500  0.19229500  0.83915500  1
  F  F8  1  0.70489000  0.29511000  0.00000000  1
  F  F9  1  0.79511000  0.79511000  0.50000000  1
  F  F10  1  0.29511000  0.70489000  0.00000000  1
  F  F11  1  0.20489000  0.20489000  0.50000000  1
  F  F12  1  0.19229500  0.19229500  0.16084500  1
  F  F13  1  0.30770500  0.69229500  0.33915500  1
  F  F14  1  0.80770500  0.80770500  0.83915500  1
  F  F15  1  0.69229500  0.30770500  0.66084500  1
  F  F16  1  0.80770500  0.80770500  0.16084500  1
  F  F17  1  0.69229500  0.30770500  0.33915500  1
