# generated using pymatgen
data_NaCrN2
_symmetry_space_group_name_H-M   'P 1'
_cell_length_a   5.51160678
_cell_length_b   5.51160678
_cell_length_c   5.51160678
_cell_angle_alpha   124.75322774
_cell_angle_beta   124.75322774
_cell_angle_gamma   81.94717161
_symmetry_Int_Tables_number   1
_chemical_formula_structural   NaCrN2
_chemical_formula_sum   'Na2 Cr2 N4'
_cell_volume   108.70348685
_cell_formula_units_Z   2
loop_
 _symmetry_equiv_pos_site_id
 _symmetry_equiv_pos_as_xyz
  1  'x, y, z'
loop_
 _atom_site_type_symbol
 _atom_site_label
 _atom_site_symmetry_multiplicity
 _atom_site_fract_x
 _atom_site_fract_y
 _atom_site_fract_z
 _atom_site_occupancy
  Na  Na0  1  0.25000000  0.75000000  0.50000000  1
  Na  Na1  1  0.50000000  0.50000000  0.00000000  1
  Cr  Cr2  1  0.75000000  0.25000000  0.50000000  1
  Cr  Cr3  1  0.00000000  0.00000000  0.00000000  1
  N  N4  1  0.00837600  0.62500000  0.88337600  1
  N  N5  1  0.74162400  0.12500000  0.11662400  1
  N  N6  1  0.87500000  0.99162400  0.61662400  1
  N  N7  1  0.37500000  0.25837600  0.38337600  1
