# generated using pymatgen
data_CdPSe3
_symmetry_space_group_name_H-M   'P 1'
_cell_length_a   8.08480824
_cell_length_b   8.08480824
_cell_length_c   8.08480719
_cell_angle_alpha   48.39391872
_cell_angle_beta   48.39391872
_cell_angle_gamma   48.39392230
_symmetry_Int_Tables_number   1
_chemical_formula_structural   CdPSe3
_chemical_formula_sum   'Cd2 P2 Se6'
_cell_volume   270.91542118
_cell_formula_units_Z   2
loop_
 _symmetry_equiv_pos_site_id
 _symmetry_equiv_pos_as_xyz
  1  'x, y, z'
loop_
 _atom_site_type_symbol
 _atom_site_label
 _atom_site_symmetry_multiplicity
 _atom_site_fract_x
 _atom_site_fract_y
 _atom_site_fract_z
 _atom_site_occupancy
  Cd  Cd0  1  0.16859100  0.16859100  0.16859100  1
  Cd  Cd1  1  0.83140900  0.83140900  0.83140900  1
  P  P2  1  0.44647700  0.44647700  0.44647700  1
  P  P3  1  0.55352300  0.55352300  0.55352300  1
  Se  Se4  1  0.41072800  0.73839700  0.09858200  1
  Se  Se5  1  0.73839700  0.09858200  0.41072800  1
  Se  Se6  1  0.09858200  0.41072800  0.73839700  1
  Se  Se7  1  0.58927200  0.26160300  0.90141800  1
  Se  Se8  1  0.26160300  0.90141800  0.58927200  1
  Se  Se9  1  0.90141800  0.58927200  0.26160300  1
