# generated using pymatgen
data_BaLaAgTe3
_symmetry_space_group_name_H-M   'P 1'
_cell_length_a   7.96477140
_cell_length_b   7.96477140
_cell_length_c   11.88845300
_cell_angle_alpha   90.00000000
_cell_angle_beta   90.00000000
_cell_angle_gamma   146.19403818
_symmetry_Int_Tables_number   1
_chemical_formula_structural   BaLaAgTe3
_chemical_formula_sum   'Ba2 La2 Ag2 Te6'
_cell_volume   419.60930424
_cell_formula_units_Z   2
loop_
 _symmetry_equiv_pos_site_id
 _symmetry_equiv_pos_as_xyz
  1  'x, y, z'
loop_
 _atom_site_type_symbol
 _atom_site_label
 _atom_site_symmetry_multiplicity
 _atom_site_fract_x
 _atom_site_fract_y
 _atom_site_fract_z
 _atom_site_occupancy
  Ba  Ba0  1  0.24999500  0.75000500  0.25000000  1
  Ba  Ba1  1  0.75000500  0.24999500  0.75000000  1
  La  La2  1  0.00000000  0.00000000  0.00000000  1
  La  La3  1  0.00000000  0.00000000  0.50000000  1
  Ag  Ag4  1  0.53300100  0.46699900  0.25000000  1
  Ag  Ag5  1  0.46699900  0.53300100  0.75000000  1
  Te  Te6  1  0.64260000  0.35740000  0.05968200  1
  Te  Te7  1  0.35740000  0.64260000  0.94031800  1
  Te  Te8  1  0.35740000  0.64260000  0.55968200  1
  Te  Te9  1  0.64260000  0.35740000  0.44031800  1
  Te  Te10  1  0.92154700  0.07845300  0.25000000  1
  Te  Te11  1  0.07845300  0.92154700  0.75000000  1
