# generated using pymatgen
data_Sr(PPt3)2
_symmetry_space_group_name_H-M   'P 1'
_cell_length_a   8.58804900
_cell_length_b   8.58804900
_cell_length_c   8.58804900
_cell_angle_alpha   90.00000000
_cell_angle_beta   90.00000000
_cell_angle_gamma   90.00000000
_symmetry_Int_Tables_number   1
_chemical_formula_structural   Sr(PPt3)2
_chemical_formula_sum   'Sr4 P8 Pt24'
_cell_volume   633.40799533
_cell_formula_units_Z   4
loop_
 _symmetry_equiv_pos_site_id
 _symmetry_equiv_pos_as_xyz
  1  'x, y, z'
loop_
 _atom_site_type_symbol
 _atom_site_label
 _atom_site_symmetry_multiplicity
 _atom_site_fract_x
 _atom_site_fract_y
 _atom_site_fract_z
 _atom_site_occupancy
  Sr  Sr0  1  0.50000000  0.50000000  0.00000000  1
  Sr  Sr1  1  0.50000000  0.00000000  0.50000000  1
  Sr  Sr2  1  0.00000000  0.50000000  0.50000000  1
  Sr  Sr3  1  0.00000000  0.00000000  0.00000000  1
  P  P4  1  0.80627400  0.30627400  0.19372600  1
  P  P5  1  0.19372600  0.80627400  0.30627400  1
  P  P6  1  0.69372600  0.69372600  0.69372600  1
  P  P7  1  0.30627400  0.19372600  0.80627400  1
  P  P8  1  0.19372600  0.69372600  0.80627400  1
  P  P9  1  0.80627400  0.19372600  0.69372600  1
  P  P10  1  0.30627400  0.30627400  0.30627400  1
  P  P11  1  0.69372600  0.80627400  0.19372600  1
  Pt  Pt12  1  0.42109100  0.84373900  0.15709600  1
  Pt  Pt13  1  0.57890900  0.34373900  0.34290400  1
  Pt  Pt14  1  0.07890900  0.15626100  0.65709600  1
  Pt  Pt15  1  0.92109100  0.65626100  0.84290400  1
  Pt  Pt16  1  0.15709600  0.42109100  0.84373900  1
  Pt  Pt17  1  0.34290400  0.57890900  0.34373900  1
  Pt  Pt18  1  0.65709600  0.07890900  0.15626100  1
  Pt  Pt19  1  0.84290400  0.92109100  0.65626100  1
  Pt  Pt20  1  0.84373900  0.15709600  0.42109100  1
  Pt  Pt21  1  0.34373900  0.34290400  0.57890900  1
  Pt  Pt22  1  0.15626100  0.65709600  0.07890900  1
  Pt  Pt23  1  0.65626100  0.84290400  0.92109100  1
  Pt  Pt24  1  0.57890900  0.15626100  0.84290400  1
  Pt  Pt25  1  0.42109100  0.65626100  0.65709600  1
  Pt  Pt26  1  0.92109100  0.84373900  0.34290400  1
  Pt  Pt27  1  0.07890900  0.34373900  0.15709600  1
  Pt  Pt28  1  0.84290400  0.57890900  0.15626100  1
  Pt  Pt29  1  0.65709600  0.42109100  0.65626100  1
  Pt  Pt30  1  0.34290400  0.92109100  0.84373900  1
  Pt  Pt31  1  0.15709600  0.07890900  0.34373900  1
  Pt  Pt32  1  0.15626100  0.84290400  0.57890900  1
  Pt  Pt33  1  0.65626100  0.65709600  0.42109100  1
  Pt  Pt34  1  0.84373900  0.34290400  0.92109100  1
  Pt  Pt35  1  0.34373900  0.15709600  0.07890900  1
