# generated using pymatgen
data_KThCuS3
_symmetry_space_group_name_H-M   'P 1'
_cell_length_a   7.35165578
_cell_length_b   7.35165578
_cell_length_c   10.58797400
_cell_angle_alpha   90.00000000
_cell_angle_beta   90.00000000
_cell_angle_gamma   147.68718010
_symmetry_Int_Tables_number   1
_chemical_formula_structural   KThCuS3
_chemical_formula_sum   'K2 Th2 Cu2 S6'
_cell_volume   305.88951649
_cell_formula_units_Z   2
loop_
 _symmetry_equiv_pos_site_id
 _symmetry_equiv_pos_as_xyz
  1  'x, y, z'
loop_
 _atom_site_type_symbol
 _atom_site_label
 _atom_site_symmetry_multiplicity
 _atom_site_fract_x
 _atom_site_fract_y
 _atom_site_fract_z
 _atom_site_occupancy
  K  K0  1  0.25569800  0.74430200  0.25000000  1
  K  K1  1  0.74430200  0.25569800  0.75000000  1
  Th  Th2  1  0.00000000  0.00000000  0.00000000  1
  Th  Th3  1  0.00000000  0.00000000  0.50000000  1
  Cu  Cu4  1  0.53038900  0.46961100  0.25000000  1
  Cu  Cu5  1  0.46961100  0.53038900  0.75000000  1
  S  S6  1  0.37622000  0.62378000  0.93074600  1
  S  S7  1  0.62378000  0.37622000  0.06925400  1
  S  S8  1  0.06434100  0.93565900  0.75000000  1
  S  S9  1  0.93565900  0.06434100  0.25000000  1
  S  S10  1  0.62378000  0.37622000  0.43074600  1
  S  S11  1  0.37622000  0.62378000  0.56925400  1
