# generated using pymatgen
data_HfPt4
_symmetry_space_group_name_H-M   'P 1'
_cell_length_a   4.01669600
_cell_length_b   4.01669600
_cell_length_c   20.17799100
_cell_angle_alpha   90.00000000
_cell_angle_beta   90.00000000
_cell_angle_gamma   90.00000000
_symmetry_Int_Tables_number   1
_chemical_formula_structural   HfPt4
_chemical_formula_sum   'Hf4 Pt16'
_cell_volume   325.54861465
_cell_formula_units_Z   4
loop_
 _symmetry_equiv_pos_site_id
 _symmetry_equiv_pos_as_xyz
  1  'x, y, z'
loop_
 _atom_site_type_symbol
 _atom_site_label
 _atom_site_symmetry_multiplicity
 _atom_site_fract_x
 _atom_site_fract_y
 _atom_site_fract_z
 _atom_site_occupancy
  Hf  Hf0  1  0.00000000  0.00000000  0.19658000  1
  Hf  Hf1  1  0.00000000  0.00000000  0.39944700  1
  Hf  Hf2  1  0.00000000  0.00000000  0.60055300  1
  Hf  Hf3  1  0.00000000  0.00000000  0.80342000  1
  Pt  Pt4  1  0.50000000  0.50000000  0.00000000  1
  Pt  Pt5  1  0.50000000  0.50000000  0.20037300  1
  Pt  Pt6  1  0.50000000  0.50000000  0.40021600  1
  Pt  Pt7  1  0.50000000  0.50000000  0.59978400  1
  Pt  Pt8  1  0.50000000  0.50000000  0.79962700  1
  Pt  Pt9  1  0.50000000  0.00000000  0.10143800  1
  Pt  Pt10  1  0.50000000  0.00000000  0.30037600  1
  Pt  Pt11  1  0.50000000  0.00000000  0.50000000  1
  Pt  Pt12  1  0.50000000  0.00000000  0.69962400  1
  Pt  Pt13  1  0.50000000  0.00000000  0.89856200  1
  Pt  Pt14  1  0.00000000  0.50000000  0.10143800  1
  Pt  Pt15  1  0.00000000  0.50000000  0.30037600  1
  Pt  Pt16  1  0.00000000  0.50000000  0.50000000  1
  Pt  Pt17  1  0.00000000  0.50000000  0.69962400  1
  Pt  Pt18  1  0.00000000  0.50000000  0.89856200  1
  Pt  Pt19  1  0.00000000  0.00000000  0.00000000  1
