# generated using pymatgen
data_LuGePd
_symmetry_space_group_name_H-M   'P 1'
_cell_length_a   11.22420620
_cell_length_b   11.22420620
_cell_length_c   11.22420620
_cell_angle_alpha   157.54988981
_cell_angle_beta   140.37210419
_cell_angle_gamma   46.01936493
_symmetry_Int_Tables_number   1
_chemical_formula_structural   LuGePd
_chemical_formula_sum   'Lu6 Ge6 Pd6'
_cell_volume   343.52888770
_cell_formula_units_Z   6
loop_
 _symmetry_equiv_pos_site_id
 _symmetry_equiv_pos_as_xyz
  1  'x, y, z'
loop_
 _atom_site_type_symbol
 _atom_site_label
 _atom_site_symmetry_multiplicity
 _atom_site_fract_x
 _atom_site_fract_y
 _atom_site_fract_z
 _atom_site_occupancy
  Lu  Lu0  1  0.53432900  0.00000000  0.53432900  1
  Lu  Lu1  1  0.20287000  0.66702400  0.53584600  1
  Lu  Lu2  1  0.86882200  0.33297600  0.53584600  1
  Lu  Lu3  1  0.95154200  0.50000000  0.45154200  1
  Lu  Lu4  1  0.29133700  0.83346200  0.45787500  1
  Lu  Lu5  1  0.62441300  0.16653800  0.45787500  1
  Ge  Ge6  1  0.08589800  0.93425700  0.15164100  1
  Ge  Ge7  1  0.21738400  0.06574300  0.15164100  1
  Ge  Ge8  1  0.60387800  0.76297900  0.84089900  1
  Ge  Ge9  1  0.07792100  0.23702100  0.84089900  1
  Ge  Ge10  1  0.74643500  0.59206700  0.15436800  1
  Ge  Ge11  1  0.56230100  0.40793300  0.15436800  1
  Pd  Pd12  1  0.72048000  0.89492500  0.82555500  1
  Pd  Pd13  1  0.93062900  0.10507500  0.82555500  1
  Pd  Pd14  1  0.90017600  0.73185800  0.16831800  1
  Pd  Pd15  1  0.43646000  0.26814200  0.16831800  1
  Pd  Pd16  1  0.39404600  0.57256400  0.82148200  1
  Pd  Pd17  1  0.24891800  0.42743600  0.82148200  1
