# generated using pymatgen
data_Pr3Ru
_symmetry_space_group_name_H-M   'P 1'
_cell_length_a   6.55262400
_cell_length_b   7.47202000
_cell_length_c   9.83977600
_cell_angle_alpha   90.00000000
_cell_angle_beta   90.00000000
_cell_angle_gamma   90.00000000
_symmetry_Int_Tables_number   1
_chemical_formula_structural   Pr3Ru
_chemical_formula_sum   'Pr12 Ru4'
_cell_volume   481.76859445
_cell_formula_units_Z   4
loop_
 _symmetry_equiv_pos_site_id
 _symmetry_equiv_pos_as_xyz
  1  'x, y, z'
loop_
 _atom_site_type_symbol
 _atom_site_label
 _atom_site_symmetry_multiplicity
 _atom_site_fract_x
 _atom_site_fract_y
 _atom_site_fract_z
 _atom_site_occupancy
  Pr  Pr0  1  0.32631400  0.67473500  0.06855300  1
  Pr  Pr1  1  0.17368600  0.17473500  0.43144700  1
  Pr  Pr2  1  0.67368600  0.32526500  0.56855300  1
  Pr  Pr3  1  0.82631400  0.82526500  0.93144700  1
  Pr  Pr4  1  0.67368600  0.32526500  0.93144700  1
  Pr  Pr5  1  0.82631400  0.82526500  0.56855300  1
  Pr  Pr6  1  0.32631400  0.67473500  0.43144700  1
  Pr  Pr7  1  0.17368600  0.17473500  0.06855300  1
  Pr  Pr8  1  0.85421700  0.54087800  0.25000000  1
  Pr  Pr9  1  0.64578300  0.04087800  0.25000000  1
  Pr  Pr10  1  0.14578300  0.45912200  0.75000000  1
  Pr  Pr11  1  0.35421700  0.95912200  0.75000000  1
  Ru  Ru12  1  0.05143400  0.88453700  0.25000000  1
  Ru  Ru13  1  0.44856600  0.38453700  0.25000000  1
  Ru  Ru14  1  0.94856600  0.11546300  0.75000000  1
  Ru  Ru15  1  0.55143400  0.61546300  0.75000000  1
