# generated using pymatgen
data_Dy2Al
_symmetry_space_group_name_H-M   'P 1'
_cell_length_a   5.12154200
_cell_length_b   6.53184500
_cell_length_c   9.39522300
_cell_angle_alpha   90.00000000
_cell_angle_beta   90.00000000
_cell_angle_gamma   90.00000000
_symmetry_Int_Tables_number   1
_chemical_formula_structural   Dy2Al
_chemical_formula_sum   'Dy8 Al4'
_cell_volume   314.29950840
_cell_formula_units_Z   4
loop_
 _symmetry_equiv_pos_site_id
 _symmetry_equiv_pos_as_xyz
  1  'x, y, z'
loop_
 _atom_site_type_symbol
 _atom_site_label
 _atom_site_symmetry_multiplicity
 _atom_site_fract_x
 _atom_site_fract_y
 _atom_site_fract_z
 _atom_site_occupancy
  Dy  Dy0  1  0.25000000  0.80857000  0.92781400  1
  Dy  Dy1  1  0.25000000  0.30857000  0.57218600  1
  Dy  Dy2  1  0.75000000  0.19143000  0.07218600  1
  Dy  Dy3  1  0.75000000  0.69143000  0.42781400  1
  Dy  Dy4  1  0.25000000  0.97241100  0.28979400  1
  Dy  Dy5  1  0.25000000  0.47241100  0.21020600  1
  Dy  Dy6  1  0.75000000  0.02758900  0.71020600  1
  Dy  Dy7  1  0.75000000  0.52758900  0.78979400  1
  Al  Al8  1  0.25000000  0.29069500  0.89757800  1
  Al  Al9  1  0.25000000  0.79069500  0.60242200  1
  Al  Al10  1  0.75000000  0.70930500  0.10242200  1
  Al  Al11  1  0.75000000  0.20930500  0.39757800  1
