# generated using pymatgen
data_HoGe2Ir
_symmetry_space_group_name_H-M   'P 1'
_cell_length_a   9.46833571
_cell_length_b   9.46833571
_cell_length_c   9.46833571
_cell_angle_alpha   153.97423952
_cell_angle_beta   123.89761637
_cell_angle_gamma   62.85091121
_symmetry_Int_Tables_number   1
_chemical_formula_structural   HoGe2Ir
_chemical_formula_sum   'Ho4 Ge8 Ir4'
_cell_volume   306.79017715
_cell_formula_units_Z   4
loop_
 _symmetry_equiv_pos_site_id
 _symmetry_equiv_pos_as_xyz
  1  'x, y, z'
loop_
 _atom_site_type_symbol
 _atom_site_label
 _atom_site_symmetry_multiplicity
 _atom_site_fract_x
 _atom_site_fract_y
 _atom_site_fract_z
 _atom_site_occupancy
  Ho  Ho0  1  0.70486900  0.20486900  0.50000000  1
  Ho  Ho1  1  0.26268000  0.00000000  0.26268000  1
  Ho  Ho2  1  0.29513100  0.79513100  0.50000000  1
  Ho  Ho3  1  0.73732000  0.00000000  0.73732000  1
  Ge  Ge4  1  0.04886800  0.20143100  0.84743800  1
  Ge  Ge5  1  0.95113200  0.79856900  0.15256200  1
  Ge  Ge6  1  0.64600700  0.79856900  0.84743800  1
  Ge  Ge7  1  0.35399300  0.20143100  0.15256200  1
  Ge  Ge8  1  0.57670700  0.57670700  0.00000000  1
  Ge  Ge9  1  0.92224300  0.42224300  0.50000000  1
  Ge  Ge10  1  0.07775700  0.57775700  0.50000000  1
  Ge  Ge11  1  0.42329300  0.42329300  0.00000000  1
  Ir  Ir12  1  0.60540800  0.35485600  0.25055300  1
  Ir  Ir13  1  0.39459200  0.64514400  0.74944700  1
  Ir  Ir14  1  0.89569700  0.64514400  0.25055300  1
  Ir  Ir15  1  0.10430300  0.35485600  0.74944700  1
