# generated using pymatgen
data_K11Cd2Sb5
_symmetry_space_group_name_H-M   'P 1'
_cell_length_a   10.05001600
_cell_length_b   12.14232776
_cell_length_c   12.99365282
_cell_angle_alpha   103.56300051
_cell_angle_beta   97.18618417
_cell_angle_gamma   107.61782077
_symmetry_Int_Tables_number   1
_chemical_formula_structural   K11Cd2Sb5
_chemical_formula_sum   'K22 Cd4 Sb10'
_cell_volume   1435.83342955
_cell_formula_units_Z   2
loop_
 _symmetry_equiv_pos_site_id
 _symmetry_equiv_pos_as_xyz
  1  'x, y, z'
loop_
 _atom_site_type_symbol
 _atom_site_label
 _atom_site_symmetry_multiplicity
 _atom_site_fract_x
 _atom_site_fract_y
 _atom_site_fract_z
 _atom_site_occupancy
  K  K0  1  0.85783200  0.57404100  0.96288900  1
  K  K1  1  0.14216800  0.42595900  0.03711100  1
  K  K2  1  0.30488500  0.89385300  0.77631400  1
  K  K3  1  0.69511500  0.10614700  0.22368600  1
  K  K4  1  0.63337400  0.16625500  0.53077400  1
  K  K5  1  0.36662600  0.83374500  0.46922600  1
  K  K6  1  0.63478600  0.67394500  0.56056700  1
  K  K7  1  0.36521400  0.32605500  0.43943300  1
  K  K8  1  0.20337000  0.55771500  0.57129300  1
  K  K9  1  0.79663000  0.44228500  0.42870700  1
  K  K10  1  0.04976600  0.70584500  0.26919300  1
  K  K11  1  0.95023400  0.29415500  0.73080700  1
  K  K12  1  0.20259400  0.07890600  0.57056600  1
  K  K13  1  0.79740600  0.92109400  0.42943400  1
  K  K14  1  0.87624500  0.09473500  0.98304400  1
  K  K15  1  0.12375500  0.90526500  0.01695600  1
  K  K16  1  0.58675100  0.22708600  0.86395200  1
  K  K17  1  0.41324900  0.77291400  0.13604800  1
  K  K18  1  0.39244100  0.24749700  0.14064000  1
  K  K19  1  0.60755900  0.75250300  0.85936000  1
  K  K20  1  0.34954400  0.41187900  0.79019400  1
  K  K21  1  0.65045600  0.58812100  0.20980600  1
  Cd  Cd22  1  0.94621000  0.95873500  0.71862900  1
  Cd  Cd23  1  0.05379000  0.04126500  0.28137100  1
  Cd  Cd24  1  0.94614000  0.62416800  0.71522400  1
  Cd  Cd25  1  0.05386000  0.37583200  0.28477600  1
  Sb  Sb26  1  0.00096000  0.76521000  0.55534800  1
  Sb  Sb27  1  0.99904000  0.23479000  0.44465200  1
  Sb  Sb28  1  0.66085000  0.45628100  0.69232900  1
  Sb  Sb29  1  0.33915000  0.54371900  0.30767100  1
  Sb  Sb30  1  0.66293600  0.97304100  0.69976100  1
  Sb  Sb31  1  0.33706400  0.02695900  0.30023900  1
  Sb  Sb32  1  0.19196100  0.14785500  0.86556300  1
  Sb  Sb33  1  0.80803900  0.85214500  0.13443700  1
  Sb  Sb34  1  0.18971100  0.63135300  0.86503000  1
  Sb  Sb35  1  0.81028900  0.36864700  0.13497000  1
