# generated using pymatgen
data_Sm3Rh
_symmetry_space_group_name_H-M   'P 1'
_cell_length_a   6.41400100
_cell_length_b   7.28125800
_cell_length_c   9.76591600
_cell_angle_alpha   90.00000000
_cell_angle_beta   90.00000000
_cell_angle_gamma   90.00000000
_symmetry_Int_Tables_number   1
_chemical_formula_structural   Sm3Rh
_chemical_formula_sum   'Sm12 Rh4'
_cell_volume   456.08777088
_cell_formula_units_Z   4
loop_
 _symmetry_equiv_pos_site_id
 _symmetry_equiv_pos_as_xyz
  1  'x, y, z'
loop_
 _atom_site_type_symbol
 _atom_site_label
 _atom_site_symmetry_multiplicity
 _atom_site_fract_x
 _atom_site_fract_y
 _atom_site_fract_z
 _atom_site_occupancy
  Sm  Sm0  1  0.33218300  0.67822300  0.06426000  1
  Sm  Sm1  1  0.16781700  0.17822300  0.43574000  1
  Sm  Sm2  1  0.66781700  0.32177700  0.56426000  1
  Sm  Sm3  1  0.83218300  0.82177700  0.93574000  1
  Sm  Sm4  1  0.66781700  0.32177700  0.93574000  1
  Sm  Sm5  1  0.83218300  0.82177700  0.56426000  1
  Sm  Sm6  1  0.33218300  0.67822300  0.43574000  1
  Sm  Sm7  1  0.16781700  0.17822300  0.06426000  1
  Sm  Sm8  1  0.86312600  0.53182500  0.25000000  1
  Sm  Sm9  1  0.63687400  0.03182500  0.25000000  1
  Sm  Sm10  1  0.13687400  0.46817500  0.75000000  1
  Sm  Sm11  1  0.36312600  0.96817500  0.75000000  1
  Rh  Rh12  1  0.06570900  0.88122800  0.25000000  1
  Rh  Rh13  1  0.43429100  0.38122800  0.25000000  1
  Rh  Rh14  1  0.93429100  0.11877200  0.75000000  1
  Rh  Rh15  1  0.56570900  0.61877200  0.75000000  1
