# generated using pymatgen
data_Cs3FeS3
_symmetry_space_group_name_H-M   'P 1'
_cell_length_a   10.35442571
_cell_length_b   10.35442571
_cell_length_c   13.56263800
_cell_angle_alpha   90.00000000
_cell_angle_beta   90.00000000
_cell_angle_gamma   137.30736880
_symmetry_Int_Tables_number   1
_chemical_formula_structural   Cs3FeS3
_chemical_formula_sum   'Cs12 Fe4 S12'
_cell_volume   985.97890928
_cell_formula_units_Z   4
loop_
 _symmetry_equiv_pos_site_id
 _symmetry_equiv_pos_as_xyz
  1  'x, y, z'
loop_
 _atom_site_type_symbol
 _atom_site_label
 _atom_site_symmetry_multiplicity
 _atom_site_fract_x
 _atom_site_fract_y
 _atom_site_fract_z
 _atom_site_occupancy
  Cs  Cs0  1  0.87500200  0.87500200  0.68440700  1
  Cs  Cs1  1  0.12499800  0.12499800  0.31559300  1
  Cs  Cs2  1  0.62499800  0.62499800  0.18440700  1
  Cs  Cs3  1  0.37500200  0.37500200  0.81559300  1
  Cs  Cs4  1  0.16758000  0.52154500  0.12521900  1
  Cs  Cs5  1  0.47845500  0.83242000  0.87478100  1
  Cs  Cs6  1  0.97845500  0.33242000  0.62521900  1
  Cs  Cs7  1  0.66758000  0.02154500  0.37478100  1
  Cs  Cs8  1  0.83242000  0.47845500  0.87478100  1
  Cs  Cs9  1  0.52154500  0.16758000  0.12521900  1
  Cs  Cs10  1  0.02154500  0.66758000  0.37478100  1
  Cs  Cs11  1  0.33242000  0.97845500  0.62521900  1
  Fe  Fe12  1  0.92628700  0.07371300  0.00000000  1
  Fe  Fe13  1  0.42628700  0.57371300  0.50000000  1
  Fe  Fe14  1  0.07371300  0.92628700  0.00000000  1
  Fe  Fe15  1  0.57371300  0.42628700  0.50000000  1
  S  S16  1  0.28987000  0.28987000  0.56066800  1
  S  S17  1  0.71013000  0.71013000  0.43933200  1
  S  S18  1  0.21013000  0.21013000  0.06066800  1
  S  S19  1  0.78987000  0.78987000  0.93933200  1
  S  S20  1  0.73332300  0.01453200  0.11739700  1
  S  S21  1  0.98546800  0.26667700  0.88260300  1
  S  S22  1  0.48546800  0.76667700  0.61739700  1
  S  S23  1  0.23332300  0.51453200  0.38260300  1
  S  S24  1  0.26667700  0.98546800  0.88260300  1
  S  S25  1  0.01453200  0.73332300  0.11739700  1
  S  S26  1  0.51453200  0.23332300  0.38260300  1
  S  S27  1  0.76667700  0.48546800  0.61739700  1
