# generated using pymatgen
data_V11Ge8
_symmetry_space_group_name_H-M   'P 1'
_cell_length_a   4.99317300
_cell_length_b   13.36817700
_cell_length_c   16.11812400
_cell_angle_alpha   90.00000000
_cell_angle_beta   90.00000000
_cell_angle_gamma   90.00000000
_symmetry_Int_Tables_number   1
_chemical_formula_structural   V11Ge8
_chemical_formula_sum   'V44 Ge32'
_cell_volume   1075.87865946
_cell_formula_units_Z   4
loop_
 _symmetry_equiv_pos_site_id
 _symmetry_equiv_pos_as_xyz
  1  'x, y, z'
loop_
 _atom_site_type_symbol
 _atom_site_label
 _atom_site_symmetry_multiplicity
 _atom_site_fract_x
 _atom_site_fract_y
 _atom_site_fract_z
 _atom_site_occupancy
  V  V0  1  0.00859600  0.13663900  0.82536000  1
  V  V1  1  0.49140400  0.63663900  0.67464000  1
  V  V2  1  0.50859600  0.86336100  0.17464000  1
  V  V3  1  0.99140400  0.36336100  0.32536000  1
  V  V4  1  0.99140400  0.86336100  0.17464000  1
  V  V5  1  0.50859600  0.36336100  0.32536000  1
  V  V6  1  0.49140400  0.13663900  0.82536000  1
  V  V7  1  0.00859600  0.63663900  0.67464000  1
  V  V8  1  0.00085200  0.44075200  0.87778300  1
  V  V9  1  0.49914800  0.94075200  0.62221700  1
  V  V10  1  0.50085200  0.55924800  0.12221700  1
  V  V11  1  0.99914800  0.05924800  0.37778300  1
  V  V12  1  0.99914800  0.55924800  0.12221700  1
  V  V13  1  0.50085200  0.05924800  0.37778300  1
  V  V14  1  0.49914800  0.44075200  0.87778300  1
  V  V15  1  0.00085200  0.94075200  0.62221700  1
  V  V16  1  0.75000000  0.43512600  0.69111900  1
  V  V17  1  0.75000000  0.93512600  0.80888100  1
  V  V18  1  0.25000000  0.56487400  0.30888100  1
  V  V19  1  0.25000000  0.06487400  0.19111900  1
  V  V20  1  0.75000000  0.12953800  0.54186700  1
  V  V21  1  0.75000000  0.62953800  0.95813300  1
  V  V22  1  0.25000000  0.87046200  0.45813300  1
  V  V23  1  0.25000000  0.37046200  0.04186700  1
  V  V24  1  0.75000000  0.36292900  0.15840800  1
  V  V25  1  0.75000000  0.86292900  0.34159200  1
  V  V26  1  0.25000000  0.63707100  0.84159200  1
  V  V27  1  0.25000000  0.13707100  0.65840800  1
  V  V28  1  0.75000000  0.24867300  0.97002700  1
  V  V29  1  0.75000000  0.74867300  0.52997300  1
  V  V30  1  0.25000000  0.75132700  0.02997300  1
  V  V31  1  0.25000000  0.25132700  0.47002700  1
  V  V32  1  0.75000000  0.03907300  0.09265900  1
  V  V33  1  0.75000000  0.53907300  0.40734100  1
  V  V34  1  0.25000000  0.96092700  0.90734100  1
  V  V35  1  0.25000000  0.46092700  0.59265900  1
  V  V36  1  0.75000000  0.38184400  0.49086200  1
  V  V37  1  0.75000000  0.88184400  0.00913800  1
  V  V38  1  0.25000000  0.61815600  0.50913800  1
  V  V39  1  0.25000000  0.11815600  0.99086200  1
  V  V40  1  0.75000000  0.19494000  0.24829100  1
  V  V41  1  0.75000000  0.69494000  0.25170900  1
  V  V42  1  0.25000000  0.80506000  0.75170900  1
  V  V43  1  0.25000000  0.30506000  0.74829100  1
  Ge  Ge44  1  0.99577800  0.28831900  0.61049100  1
  Ge  Ge45  1  0.50422200  0.78831900  0.88950900  1
  Ge  Ge46  1  0.49577800  0.71168100  0.38950900  1
  Ge  Ge47  1  0.00422200  0.21168100  0.11049100  1
  Ge  Ge48  1  0.00422200  0.71168100  0.38950900  1
  Ge  Ge49  1  0.49577800  0.21168100  0.11049100  1
  Ge  Ge50  1  0.50422200  0.28831900  0.61049100  1
  Ge  Ge51  1  0.99577800  0.78831900  0.88950900  1
  Ge  Ge52  1  0.75000000  0.29660500  0.80250100  1
  Ge  Ge53  1  0.75000000  0.79660500  0.69749900  1
  Ge  Ge54  1  0.25000000  0.70339500  0.19749900  1
  Ge  Ge55  1  0.25000000  0.20339500  0.30250100  1
  Ge  Ge56  1  0.75000000  0.08665900  0.69615400  1
  Ge  Ge57  1  0.75000000  0.58665900  0.80384600  1
  Ge  Ge58  1  0.25000000  0.91334100  0.30384600  1
  Ge  Ge59  1  0.25000000  0.41334100  0.19615400  1
  Ge  Ge60  1  0.75000000  0.44339000  0.01610800  1
  Ge  Ge61  1  0.75000000  0.94339000  0.48389200  1
  Ge  Ge62  1  0.25000000  0.55661000  0.98389200  1
  Ge  Ge63  1  0.25000000  0.05661000  0.51610800  1
  Ge  Ge64  1  0.75000000  0.05114700  0.93881600  1
  Ge  Ge65  1  0.75000000  0.55114700  0.56118400  1
  Ge  Ge66  1  0.25000000  0.94885300  0.06118400  1
  Ge  Ge67  1  0.25000000  0.44885300  0.43881600  1
  Ge  Ge68  1  0.75000000  0.22451900  0.40595300  1
  Ge  Ge69  1  0.75000000  0.72451900  0.09404700  1
  Ge  Ge70  1  0.25000000  0.77548100  0.59404700  1
  Ge  Ge71  1  0.25000000  0.27548100  0.90595300  1
  Ge  Ge72  1  0.75000000  0.00827700  0.24387300  1
  Ge  Ge73  1  0.75000000  0.50827700  0.25612700  1
  Ge  Ge74  1  0.25000000  0.99172300  0.75612700  1
  Ge  Ge75  1  0.25000000  0.49172300  0.74387300  1
