# generated using pymatgen
data_Na3EuTi2Nb2O12
_symmetry_space_group_name_H-M   'P 1'
_cell_length_a   5.50309600
_cell_length_b   5.58636043
_cell_length_c   7.83041579
_cell_angle_alpha   89.93890635
_cell_angle_beta   89.95550483
_cell_angle_gamma   89.76893361
_symmetry_Int_Tables_number   1
_chemical_formula_structural   Na3EuTi2Nb2O12
_chemical_formula_sum   'Na3 Eu1 Ti2 Nb2 O12'
_cell_volume   240.72265062
_cell_formula_units_Z   1
loop_
 _symmetry_equiv_pos_site_id
 _symmetry_equiv_pos_as_xyz
  1  'x, y, z'
loop_
 _atom_site_type_symbol
 _atom_site_label
 _atom_site_symmetry_multiplicity
 _atom_site_fract_x
 _atom_site_fract_y
 _atom_site_fract_z
 _atom_site_occupancy
  Na  Na0  1  0.49664500  0.51563100  0.74850500  1
  Na  Na1  1  0.00282600  0.01328200  0.74954100  1
  Na  Na2  1  0.50700000  0.46959600  0.25000100  1
  Eu  Eu3  1  0.99782200  0.95741700  0.25003000  1
  Ti  Ti4  1  0.49741600  0.98359100  0.00745700  1
  Ti  Ti5  1  0.00808000  0.48192500  0.49378900  1
  Nb  Nb6  1  0.50040700  0.99005100  0.51195900  1
  Nb  Nb7  1  0.00343400  0.48387200  0.98690100  1
  O  O8  1  0.20838000  0.80077100  0.98092700  1
  O  O9  1  0.28202700  0.29415200  0.53292800  1
  O  O10  1  0.79272400  0.21745100  0.45921700  1
  O  O11  1  0.71834400  0.73329900  0.04532200  1
  O  O12  1  0.78950700  0.21444400  0.04135200  1
  O  O13  1  0.72220300  0.73059100  0.45541200  1
  O  O14  1  0.20551400  0.79641400  0.52141300  1
  O  O15  1  0.28825500  0.29060500  0.96466100  1
  O  O16  1  0.56171300  0.98525100  0.75439900  1
  O  O17  1  0.92866300  0.49794800  0.74629100  1
  O  O18  1  0.42392800  0.02533600  0.24704200  1
  O  O19  1  0.06511400  0.51837100  0.25285300  1
