# generated using pymatgen
data_CaMnFeGe2
_symmetry_space_group_name_H-M   'P 1'
_cell_length_a   6.20125645
_cell_length_b   6.20125645
_cell_length_c   6.20125645
_cell_angle_alpha   142.98262897
_cell_angle_beta   142.98262897
_cell_angle_gamma   53.35137187
_symmetry_Int_Tables_number   1
_chemical_formula_structural   CaMnFeGe2
_chemical_formula_sum   'Ca1 Mn1 Fe1 Ge2'
_cell_volume   85.89543063
_cell_formula_units_Z   1
loop_
 _symmetry_equiv_pos_site_id
 _symmetry_equiv_pos_as_xyz
  1  'x, y, z'
loop_
 _atom_site_type_symbol
 _atom_site_label
 _atom_site_symmetry_multiplicity
 _atom_site_fract_x
 _atom_site_fract_y
 _atom_site_fract_z
 _atom_site_occupancy
  Ca  Ca0  1  0.00000000  0.00000000  0.00000000  1
  Mn  Mn1  1  0.25000000  0.75000000  0.50000000  1
  Fe  Fe2  1  0.75000000  0.25000000  0.50000000  1
  Ge  Ge3  1  0.62162800  0.62162800  0.00000000  1
  Ge  Ge4  1  0.37837200  0.37837200  0.00000000  1
