# generated using pymatgen
data_RbTbP2O7
_symmetry_space_group_name_H-M   'P 1'
_cell_length_a   7.90044876
_cell_length_b   8.85672705
_cell_length_c   11.13592800
_cell_angle_alpha   90.00000000
_cell_angle_beta   90.00000000
_cell_angle_gamma   105.51593911
_symmetry_Int_Tables_number   1
_chemical_formula_structural   RbTbP2O7
_chemical_formula_sum   'Rb4 Tb4 P8 O28'
_cell_volume   750.80719949
_cell_formula_units_Z   4
loop_
 _symmetry_equiv_pos_site_id
 _symmetry_equiv_pos_as_xyz
  1  'x, y, z'
loop_
 _atom_site_type_symbol
 _atom_site_label
 _atom_site_symmetry_multiplicity
 _atom_site_fract_x
 _atom_site_fract_y
 _atom_site_fract_z
 _atom_site_occupancy
  Rb  Rb0  1  0.81846600  0.94354200  0.31798100  1
  Rb  Rb1  1  0.18153400  0.05645800  0.68201900  1
  Rb  Rb2  1  0.18153400  0.55645800  0.81798100  1
  Rb  Rb3  1  0.81846600  0.44354200  0.18201900  1
  Tb  Tb4  1  0.76197700  0.74253000  0.90068500  1
  Tb  Tb5  1  0.23802300  0.25747000  0.09931500  1
  Tb  Tb6  1  0.23802300  0.75747000  0.40068500  1
  Tb  Tb7  1  0.76197700  0.24253000  0.59931500  1
  P  P8  1  0.56676000  0.80822200  0.63316400  1
  P  P9  1  0.43324000  0.19177800  0.36683600  1
  P  P10  1  0.43324000  0.69177800  0.13316400  1
  P  P11  1  0.56676000  0.30822200  0.86683600  1
  P  P12  1  0.86754600  0.67695300  0.59820000  1
  P  P13  1  0.13245400  0.32304700  0.40180000  1
  P  P14  1  0.13245400  0.82304700  0.09820000  1
  P  P15  1  0.86754600  0.17695300  0.90180000  1
  O  O16  1  0.38555000  0.76567000  0.57432200  1
  O  O17  1  0.61445000  0.23433000  0.42567800  1
  O  O18  1  0.61445000  0.73433000  0.07432200  1
  O  O19  1  0.38555000  0.26567000  0.92567800  1
  O  O20  1  0.91864000  0.74150600  0.72517200  1
  O  O21  1  0.08136000  0.25849400  0.27482800  1
  O  O22  1  0.08136000  0.75849400  0.22517200  1
  O  O23  1  0.91864000  0.24150600  0.77482800  1
  O  O24  1  0.55252000  0.76109900  0.76584100  1
  O  O25  1  0.44748000  0.23890100  0.23415900  1
  O  O26  1  0.44748000  0.73890100  0.26584100  1
  O  O27  1  0.55252000  0.26109900  0.73415900  1
  O  O28  1  0.67072300  0.97740400  0.60829300  1
  O  O29  1  0.32927700  0.02259600  0.39170700  1
  O  O30  1  0.32927700  0.52259600  0.10829300  1
  O  O31  1  0.67072300  0.47740400  0.89170700  1
  O  O32  1  0.84970300  0.00211100  0.90998500  1
  O  O33  1  0.15029700  0.99788900  0.09001500  1
  O  O34  1  0.15029700  0.49788900  0.40998500  1
  O  O35  1  0.84970300  0.50211100  0.59001500  1
  O  O36  1  0.67383300  0.69803700  0.56534300  1
  O  O37  1  0.32616700  0.30196300  0.43465700  1
  O  O38  1  0.32616700  0.80196300  0.06534300  1
  O  O39  1  0.67383300  0.19803700  0.93465700  1
  O  O40  1  0.00834200  0.72688600  0.00321200  1
  O  O41  1  0.99165800  0.27311400  0.99678800  1
  O  O42  1  0.99165800  0.77311400  0.50321200  1
  O  O43  1  0.00834200  0.22688600  0.49678800  1
