# generated using pymatgen
data_BaRuO5
_symmetry_space_group_name_H-M   'P 1'
_cell_length_a   10.51091384
_cell_length_b   10.51091384
_cell_length_c   10.51091357
_cell_angle_alpha   55.64875211
_cell_angle_beta   55.64875211
_cell_angle_gamma   55.64875199
_symmetry_Int_Tables_number   1
_chemical_formula_structural   BaRuO5
_chemical_formula_sum   'Ba6 Ru6 O30'
_cell_volume   738.21687853
_cell_formula_units_Z   6
loop_
 _symmetry_equiv_pos_site_id
 _symmetry_equiv_pos_as_xyz
  1  'x, y, z'
loop_
 _atom_site_type_symbol
 _atom_site_label
 _atom_site_symmetry_multiplicity
 _atom_site_fract_x
 _atom_site_fract_y
 _atom_site_fract_z
 _atom_site_occupancy
  Ba  Ba0  1  0.00000000  0.00000000  0.00000000  1
  Ba  Ba1  1  0.50000000  0.50000000  0.50000000  1
  Ba  Ba2  1  0.83819300  0.83819300  0.83819300  1
  Ba  Ba3  1  0.33819300  0.33819300  0.33819300  1
  Ba  Ba4  1  0.16180700  0.16180700  0.16180700  1
  Ba  Ba5  1  0.66180700  0.66180700  0.66180700  1
  Ru  Ru6  1  0.40027500  0.09972500  0.75000000  1
  Ru  Ru7  1  0.75000000  0.40027500  0.09972500  1
  Ru  Ru8  1  0.09972500  0.75000000  0.40027500  1
  Ru  Ru9  1  0.25000000  0.59972500  0.90027500  1
  Ru  Ru10  1  0.90027500  0.25000000  0.59972500  1
  Ru  Ru11  1  0.59972500  0.90027500  0.25000000  1
  O  O12  1  0.58224800  0.91775200  0.75000000  1
  O  O13  1  0.75000000  0.58224800  0.91775200  1
  O  O14  1  0.91775200  0.75000000  0.58224800  1
  O  O15  1  0.25000000  0.41775200  0.08224800  1
  O  O16  1  0.08224800  0.25000000  0.41775200  1
  O  O17  1  0.41775200  0.08224800  0.25000000  1
  O  O18  1  0.37154300  0.24278200  0.81372200  1
  O  O19  1  0.81372200  0.37154300  0.24278200  1
  O  O20  1  0.24278200  0.81372200  0.37154300  1
  O  O21  1  0.31372200  0.74278200  0.87154300  1
  O  O22  1  0.87154300  0.31372200  0.74278200  1
  O  O23  1  0.74278200  0.87154300  0.31372200  1
  O  O24  1  0.62845700  0.75721800  0.18627800  1
  O  O25  1  0.18627800  0.62845700  0.75721800  1
  O  O26  1  0.75721800  0.18627800  0.62845700  1
  O  O27  1  0.68627800  0.25721800  0.12845700  1
  O  O28  1  0.12845700  0.68627800  0.25721800  1
  O  O29  1  0.25721800  0.12845700  0.68627800  1
  O  O30  1  0.28554600  0.99686400  0.96518400  1
  O  O31  1  0.96518400  0.28554600  0.99686400  1
  O  O32  1  0.99686400  0.96518400  0.28554600  1
  O  O33  1  0.46518400  0.49686400  0.78554600  1
  O  O34  1  0.78554600  0.46518400  0.49686400  1
  O  O35  1  0.49686400  0.78554600  0.46518400  1
  O  O36  1  0.71445400  0.00313600  0.03481600  1
  O  O37  1  0.03481600  0.71445400  0.00313600  1
  O  O38  1  0.00313600  0.03481600  0.71445400  1
  O  O39  1  0.53481600  0.50313600  0.21445400  1
  O  O40  1  0.21445400  0.53481600  0.50313600  1
  O  O41  1  0.50313600  0.21445400  0.53481600  1
