# generated using pymatgen
data_Na5Pr4Ge4O16F
_symmetry_space_group_name_H-M   'P 1'
_cell_length_a   9.13154263
_cell_length_b   9.13154263
_cell_length_c   9.13154263
_cell_angle_alpha   95.69549007
_cell_angle_beta   95.69549007
_cell_angle_gamma   143.27522461
_symmetry_Int_Tables_number   1
_chemical_formula_structural   Na5Pr4Ge4O16F
_chemical_formula_sum   'Na5 Pr4 Ge4 O16 F1'
_cell_volume   432.13291862
_cell_formula_units_Z   1
loop_
 _symmetry_equiv_pos_site_id
 _symmetry_equiv_pos_as_xyz
  1  'x, y, z'
loop_
 _atom_site_type_symbol
 _atom_site_label
 _atom_site_symmetry_multiplicity
 _atom_site_fract_x
 _atom_site_fract_y
 _atom_site_fract_z
 _atom_site_occupancy
  Na  Na0  1  0.81905500  0.62719100  0.98339800  1
  Na  Na1  1  0.64379200  0.83565700  0.01660200  1
  Na  Na2  1  0.16434300  0.18094500  0.80813500  1
  Na  Na3  1  0.37280900  0.35620800  0.19186500  1
  Na  Na4  1  0.25000000  0.75000000  0.50000000  1
  Pr  Pr5  1  0.95629100  0.38933500  0.79801000  1
  Pr  Pr6  1  0.59132400  0.15828100  0.20199000  1
  Pr  Pr7  1  0.84171900  0.04370900  0.43304400  1
  Pr  Pr8  1  0.61066500  0.40867600  0.56695600  1
  Ge  Ge9  1  0.50759700  0.65767900  0.64497300  1
  Ge  Ge10  1  0.01270600  0.86262300  0.35502700  1
  Ge  Ge11  1  0.13737700  0.49240300  0.15008200  1
  Ge  Ge12  1  0.34232100  0.98729400  0.84991800  1
  O  O13  1  0.61102100  0.61338600  0.78442100  1
  O  O14  1  0.82896500  0.82660000  0.21557900  1
  O  O15  1  0.17340000  0.38897900  0.00236500  1
  O  O16  1  0.38661400  0.17103500  0.99763500  1
  O  O17  1  0.19801600  0.47400800  0.63109800  1
  O  O18  1  0.84291000  0.56691800  0.36890200  1
  O  O19  1  0.43308200  0.80198400  0.27599200  1
  O  O20  1  0.52599200  0.15709000  0.72400800  1
  O  O21  1  0.73303800  0.98687800  0.67704600  1
  O  O22  1  0.30983200  0.05599200  0.32295400  1
  O  O23  1  0.94400800  0.26696200  0.25383900  1
  O  O24  1  0.01312200  0.69016800  0.74616100  1
  O  O25  1  0.52763400  0.58437200  0.46475500  1
  O  O26  1  0.11961700  0.06288000  0.53524500  1
  O  O27  1  0.93712000  0.47236600  0.05673800  1
  O  O28  1  0.41562800  0.88038300  0.94326200  1
  F  F29  1  0.75000000  0.25000000  0.50000000  1
