# generated using pymatgen
data_Zr3Bi
_symmetry_space_group_name_H-M   'P 1'
_cell_length_a   5.87551500
_cell_length_b   8.67222168
_cell_length_c   8.67222168
_cell_angle_alpha   83.41051090
_cell_angle_beta   70.19896311
_cell_angle_gamma   70.19896311
_symmetry_Int_Tables_number   1
_chemical_formula_structural   Zr3Bi
_chemical_formula_sum   'Zr12 Bi4'
_cell_volume   391.17420217
_cell_formula_units_Z   4
loop_
 _symmetry_equiv_pos_site_id
 _symmetry_equiv_pos_as_xyz
  1  'x, y, z'
loop_
 _atom_site_type_symbol
 _atom_site_label
 _atom_site_symmetry_multiplicity
 _atom_site_fract_x
 _atom_site_fract_y
 _atom_site_fract_z
 _atom_site_occupancy
  Zr  Zr0  1  0.54706800  0.97141700  0.39923300  1
  Zr  Zr1  1  0.91771800  0.02858300  0.60076700  1
  Zr  Zr2  1  0.05369900  0.39923300  0.02858300  1
  Zr  Zr3  1  0.48151500  0.60076700  0.97141700  1
  Zr  Zr4  1  0.17836800  0.33012100  0.37906000  1
  Zr  Zr5  1  0.88754900  0.66987900  0.62094000  1
  Zr  Zr6  1  0.44257200  0.37906000  0.66987900  1
  Zr  Zr7  1  0.49151100  0.62094000  0.33012100  1
  Zr  Zr8  1  0.37868100  0.02675600  0.81471400  1
  Zr  Zr9  1  0.22015100  0.97324400  0.18528600  1
  Zr  Zr10  1  0.80660500  0.81471400  0.97324400  1
  Zr  Zr11  1  0.59456300  0.18528600  0.02675600  1
  Bi  Bi12  1  0.32202400  0.74541400  0.67683200  1
  Bi  Bi13  1  0.74427000  0.25458600  0.32316800  1
  Bi  Bi14  1  0.00114300  0.67683200  0.25458600  1
  Bi  Bi15  1  0.93256200  0.32316800  0.74541400  1
