# generated using pymatgen
data_Sm5(In2Pt)2
_symmetry_space_group_name_H-M   'P 1'
_cell_length_a   3.75754200
_cell_length_b   8.25543200
_cell_length_c   18.56218300
_cell_angle_alpha   90.00000000
_cell_angle_beta   90.00000000
_cell_angle_gamma   90.00000000
_symmetry_Int_Tables_number   1
_chemical_formula_structural   Sm5(In2Pt)2
_chemical_formula_sum   'Sm10 In8 Pt4'
_cell_volume   575.80137556
_cell_formula_units_Z   2
loop_
 _symmetry_equiv_pos_site_id
 _symmetry_equiv_pos_as_xyz
  1  'x, y, z'
loop_
 _atom_site_type_symbol
 _atom_site_label
 _atom_site_symmetry_multiplicity
 _atom_site_fract_x
 _atom_site_fract_y
 _atom_site_fract_z
 _atom_site_occupancy
  Sm  Sm0  1  0.00000000  0.11580900  0.41496100  1
  Sm  Sm1  1  0.00000000  0.88419100  0.58503900  1
  Sm  Sm2  1  0.00000000  0.38419100  0.91496100  1
  Sm  Sm3  1  0.00000000  0.61580900  0.08503900  1
  Sm  Sm4  1  0.00000000  0.24272400  0.21879500  1
  Sm  Sm5  1  0.00000000  0.75727600  0.78120500  1
  Sm  Sm6  1  0.00000000  0.25727600  0.71879500  1
  Sm  Sm7  1  0.00000000  0.74272400  0.28120500  1
  Sm  Sm8  1  0.00000000  0.00000000  0.00000000  1
  Sm  Sm9  1  0.00000000  0.50000000  0.50000000  1
  In  In10  1  0.50000000  0.42651800  0.35077300  1
  In  In11  1  0.50000000  0.57348200  0.64922700  1
  In  In12  1  0.50000000  0.07348200  0.85077300  1
  In  In13  1  0.50000000  0.92651800  0.14922700  1
  In  In14  1  0.50000000  0.29141500  0.06773000  1
  In  In15  1  0.50000000  0.70858500  0.93227000  1
  In  In16  1  0.50000000  0.20858500  0.56773000  1
  In  In17  1  0.50000000  0.79141500  0.43227000  1
  Pt  Pt18  1  0.50000000  0.02434700  0.30240700  1
  Pt  Pt19  1  0.50000000  0.97565300  0.69759300  1
  Pt  Pt20  1  0.50000000  0.47565300  0.80240700  1
  Pt  Pt21  1  0.50000000  0.52434700  0.19759300  1
