# generated using pymatgen
data_Mg3B2Rh5
_symmetry_space_group_name_H-M   'P 1'
_cell_length_a   9.53047400
_cell_length_b   9.53047400
_cell_length_c   2.95584700
_cell_angle_alpha   90.00000000
_cell_angle_beta   90.00000000
_cell_angle_gamma   90.00000000
_symmetry_Int_Tables_number   1
_chemical_formula_structural   Mg3B2Rh5
_chemical_formula_sum   'Mg6 B4 Rh10'
_cell_volume   268.47938989
_cell_formula_units_Z   2
loop_
 _symmetry_equiv_pos_site_id
 _symmetry_equiv_pos_as_xyz
  1  'x, y, z'
loop_
 _atom_site_type_symbol
 _atom_site_label
 _atom_site_symmetry_multiplicity
 _atom_site_fract_x
 _atom_site_fract_y
 _atom_site_fract_z
 _atom_site_occupancy
  Mg  Mg0  1  0.67719200  0.17719200  0.00000000  1
  Mg  Mg1  1  0.32280800  0.82280800  0.00000000  1
  Mg  Mg2  1  0.17719200  0.32280800  0.00000000  1
  Mg  Mg3  1  0.82280800  0.67719200  0.00000000  1
  Mg  Mg4  1  0.00000000  0.00000000  0.00000000  1
  Mg  Mg5  1  0.50000000  0.50000000  0.00000000  1
  B  B6  1  0.12575400  0.62575400  0.00000000  1
  B  B7  1  0.87424600  0.37424600  0.00000000  1
  B  B8  1  0.62575400  0.87424600  0.00000000  1
  B  B9  1  0.37424600  0.12575400  0.00000000  1
  Rh  Rh10  1  0.50000000  0.00000000  0.50000000  1
  Rh  Rh11  1  0.00000000  0.50000000  0.50000000  1
  Rh  Rh12  1  0.22072900  0.07065300  0.50000000  1
  Rh  Rh13  1  0.77927100  0.92934700  0.50000000  1
  Rh  Rh14  1  0.07065300  0.77927100  0.50000000  1
  Rh  Rh15  1  0.72072900  0.42934700  0.50000000  1
  Rh  Rh16  1  0.92934700  0.22072900  0.50000000  1
  Rh  Rh17  1  0.27927100  0.57065300  0.50000000  1
  Rh  Rh18  1  0.57065300  0.72072900  0.50000000  1
  Rh  Rh19  1  0.42934700  0.27927100  0.50000000  1
