# generated using pymatgen
data_KMn6As7O24
_symmetry_space_group_name_H-M   'P 1'
_cell_length_a   28.17731100
_cell_length_b   5.61727900
_cell_length_c   6.90803756
_cell_angle_alpha   72.66273564
_cell_angle_beta   90.00000000
_cell_angle_gamma   90.00000000
_symmetry_Int_Tables_number   1
_chemical_formula_structural   KMn6As7O24
_chemical_formula_sum   'K2 Mn12 As14 O48'
_cell_volume   1043.72655570
_cell_formula_units_Z   2
loop_
 _symmetry_equiv_pos_site_id
 _symmetry_equiv_pos_as_xyz
  1  'x, y, z'
loop_
 _atom_site_type_symbol
 _atom_site_label
 _atom_site_symmetry_multiplicity
 _atom_site_fract_x
 _atom_site_fract_y
 _atom_site_fract_z
 _atom_site_occupancy
  K  K0  1  0.25000000  0.19974900  0.41326300  1
  K  K1  1  0.75000000  0.80025100  0.58673700  1
  Mn  Mn2  1  0.04351700  0.68209500  0.32132900  1
  Mn  Mn3  1  0.54351700  0.31790500  0.67867100  1
  Mn  Mn4  1  0.95648300  0.31790500  0.67867100  1
  Mn  Mn5  1  0.45648300  0.68209500  0.32132900  1
  Mn  Mn6  1  0.09807400  0.28381400  0.10125200  1
  Mn  Mn7  1  0.59807400  0.71618600  0.89874800  1
  Mn  Mn8  1  0.90192600  0.71618600  0.89874800  1
  Mn  Mn9  1  0.40192600  0.28381400  0.10125200  1
  Mn  Mn10  1  0.18431300  0.60905800  0.75249500  1
  Mn  Mn11  1  0.68431300  0.39094200  0.24750500  1
  Mn  Mn12  1  0.81568700  0.39094200  0.24750500  1
  Mn  Mn13  1  0.31568700  0.60905800  0.75249500  1
  As  As14  1  0.02308300  0.77185000  0.80312500  1
  As  As15  1  0.52308300  0.22815000  0.19687500  1
  As  As16  1  0.97691700  0.22815000  0.19687500  1
  As  As17  1  0.47691700  0.77185000  0.80312500  1
  As  As18  1  0.25000000  0.02956500  0.93815100  1
  As  As19  1  0.75000000  0.97043500  0.06184900  1
  As  As20  1  0.16401300  0.72720000  0.22911900  1
  As  As21  1  0.66401300  0.27280000  0.77088100  1
  As  As22  1  0.83598700  0.27280000  0.77088100  1
  As  As23  1  0.33598700  0.72720000  0.22911900  1
  As  As24  1  0.11399400  0.18384700  0.62552600  1
  As  As25  1  0.61399400  0.81615300  0.37447400  1
  As  As26  1  0.88600600  0.81615300  0.37447400  1
  As  As27  1  0.38600600  0.18384700  0.62552600  1
  O  O28  1  0.20125400  0.99948600  0.10407800  1
  O  O29  1  0.70125400  0.00051400  0.89592200  1
  O  O30  1  0.79874600  0.00051400  0.89592200  1
  O  O31  1  0.29874600  0.99948600  0.10407800  1
  O  O32  1  0.15815000  0.98260200  0.62624200  1
  O  O33  1  0.65815000  0.01739800  0.37375800  1
  O  O34  1  0.84185000  0.01739800  0.37375800  1
  O  O35  1  0.34185000  0.98260200  0.62624200  1
  O  O36  1  0.01977900  0.60823300  0.63134300  1
  O  O37  1  0.51977900  0.39176700  0.36865700  1
  O  O38  1  0.98022100  0.39176700  0.36865700  1
  O  O39  1  0.48022100  0.60823300  0.63134300  1
  O  O40  1  0.97132300  0.92080000  0.82527400  1
  O  O41  1  0.47132300  0.07920000  0.17472600  1
  O  O42  1  0.02867700  0.07920000  0.17472600  1
  O  O43  1  0.52867700  0.92080000  0.82527400  1
  O  O44  1  0.05803600  0.04175400  0.70168600  1
  O  O45  1  0.55803600  0.95824600  0.29831400  1
  O  O46  1  0.94196400  0.95824600  0.29831400  1
  O  O47  1  0.44196400  0.04175400  0.70168600  1
  O  O48  1  0.25000000  0.81369000  0.81087500  1
  O  O49  1  0.75000000  0.18631000  0.18912500  1
  O  O50  1  0.04808900  0.60463700  0.02821300  1
  O  O51  1  0.54808900  0.39536300  0.97178700  1
  O  O52  1  0.95191100  0.39536300  0.97178700  1
  O  O53  1  0.45191100  0.60463700  0.02821300  1
  O  O54  1  0.11341500  0.89137000  0.23734000  1
  O  O55  1  0.61341500  0.10863000  0.76266000  1
  O  O56  1  0.88658500  0.10863000  0.76266000  1
  O  O57  1  0.38658500  0.89137000  0.23734000  1
  O  O58  1  0.09839700  0.37658800  0.39007300  1
  O  O59  1  0.59839700  0.62341200  0.60992700  1
  O  O60  1  0.90160300  0.62341200  0.60992700  1
  O  O61  1  0.40160300  0.37658800  0.39007300  1
  O  O62  1  0.16337800  0.54762000  0.06782200  1
  O  O63  1  0.66337800  0.45238000  0.93217800  1
  O  O64  1  0.83662200  0.45238000  0.93217800  1
  O  O65  1  0.33662200  0.54762000  0.06782200  1
  O  O66  1  0.25000000  0.33392400  0.80131000  1
  O  O67  1  0.75000000  0.66607600  0.19869000  1
  O  O68  1  0.19351300  0.59235000  0.44728500  1
  O  O69  1  0.69351300  0.40765000  0.55271500  1
  O  O70  1  0.80648700  0.40765000  0.55271500  1
  O  O71  1  0.30648700  0.59235000  0.44728500  1
  O  O72  1  0.12386300  0.35118900  0.79299600  1
  O  O73  1  0.62386300  0.64881100  0.20700400  1
  O  O74  1  0.87613700  0.64881100  0.20700400  1
  O  O75  1  0.37613700  0.35118900  0.79299600  1
