# generated using pymatgen
data_RbSm(PO3)4
_symmetry_space_group_name_H-M   'P 1'
_cell_length_a   7.65417437
_cell_length_b   7.65417437
_cell_length_c   10.74471839
_cell_angle_alpha   78.98153388
_cell_angle_beta   78.98153388
_cell_angle_gamma   116.72502604
_symmetry_Int_Tables_number   1
_chemical_formula_structural   RbSm(PO3)4
_chemical_formula_sum   'Rb2 Sm2 P8 O24'
_cell_volume   523.59733659
_cell_formula_units_Z   2
loop_
 _symmetry_equiv_pos_site_id
 _symmetry_equiv_pos_as_xyz
  1  'x, y, z'
loop_
 _atom_site_type_symbol
 _atom_site_label
 _atom_site_symmetry_multiplicity
 _atom_site_fract_x
 _atom_site_fract_y
 _atom_site_fract_z
 _atom_site_occupancy
  Rb  Rb0  1  0.80739500  0.19260500  0.75000000  1
  Rb  Rb1  1  0.19260500  0.80739500  0.25000000  1
  Sm  Sm2  1  0.12266700  0.87733300  0.75000000  1
  Sm  Sm3  1  0.87733300  0.12266700  0.25000000  1
  P  P4  1  0.30470000  0.25081300  0.94981400  1
  P  P5  1  0.74918700  0.69530000  0.55018600  1
  P  P6  1  0.69530000  0.74918700  0.05018600  1
  P  P7  1  0.25081300  0.30470000  0.44981400  1
  P  P8  1  0.38042100  0.70718300  0.51213900  1
  P  P9  1  0.29281700  0.61957900  0.98786100  1
  P  P10  1  0.61957900  0.29281700  0.48786100  1
  P  P11  1  0.70718300  0.38042100  0.01213900  1
  O  O12  1  0.30885000  0.79543500  0.88634900  1
  O  O13  1  0.20456500  0.69115000  0.61365100  1
  O  O14  1  0.69115000  0.20456500  0.11365100  1
  O  O15  1  0.79543500  0.30885000  0.38634900  1
  O  O16  1  0.48411800  0.10005000  0.60496200  1
  O  O17  1  0.89995000  0.51588200  0.89503800  1
  O  O18  1  0.51588200  0.89995000  0.39503800  1
  O  O19  1  0.10005000  0.48411800  0.10496200  1
  O  O20  1  0.13903600  0.15927800  0.59049100  1
  O  O21  1  0.84072200  0.86096400  0.90950900  1
  O  O22  1  0.86096400  0.84072200  0.40950900  1
  O  O23  1  0.15927800  0.13903600  0.09049100  1
  O  O24  1  0.27503300  0.52584700  0.44724000  1
  O  O25  1  0.47415300  0.72496700  0.05276000  1
  O  O26  1  0.72496700  0.47415300  0.55276000  1
  O  O27  1  0.52584700  0.27503300  0.94724000  1
  O  O28  1  0.64098800  0.51054000  0.09148500  1
  O  O29  1  0.48946000  0.35901200  0.40851500  1
  O  O30  1  0.35901200  0.48946000  0.90851500  1
  O  O31  1  0.51054000  0.64098800  0.59148500  1
  O  O32  1  0.16926500  0.25375800  0.33844000  1
  O  O33  1  0.74624200  0.83073500  0.16156000  1
  O  O34  1  0.83073500  0.74624200  0.66156000  1
  O  O35  1  0.25375800  0.16926500  0.83844000  1
