# generated using pymatgen
data_Ca2P2O7
_symmetry_space_group_name_H-M   'P 1'
_cell_length_a   8.53109700
_cell_length_b   5.44217900
_cell_length_c   13.84893795
_cell_angle_alpha   68.90624569
_cell_angle_beta   90.00000000
_cell_angle_gamma   90.00000000
_symmetry_Int_Tables_number   1
_chemical_formula_structural   Ca2P2O7
_chemical_formula_sum   'Ca8 P8 O28'
_cell_volume   599.89114389
_cell_formula_units_Z   4
loop_
 _symmetry_equiv_pos_site_id
 _symmetry_equiv_pos_as_xyz
  1  'x, y, z'
loop_
 _atom_site_type_symbol
 _atom_site_label
 _atom_site_symmetry_multiplicity
 _atom_site_fract_x
 _atom_site_fract_y
 _atom_site_fract_z
 _atom_site_occupancy
  Ca  Ca0  1  0.38728000  0.83663800  0.40997300  1
  Ca  Ca1  1  0.88728000  0.16336200  0.09002700  1
  Ca  Ca2  1  0.61272000  0.16336200  0.59002700  1
  Ca  Ca3  1  0.11272000  0.83663800  0.90997300  1
  Ca  Ca4  1  0.18257000  0.50176700  0.24282100  1
  Ca  Ca5  1  0.68257000  0.49823300  0.25717900  1
  Ca  Ca6  1  0.81743000  0.49823300  0.75717900  1
  Ca  Ca7  1  0.31743000  0.50176700  0.74282100  1
  P  P8  1  0.51367500  0.96212600  0.81831400  1
  P  P9  1  0.01367500  0.03787400  0.68168600  1
  P  P10  1  0.48632500  0.03787400  0.18168600  1
  P  P11  1  0.98632500  0.96212600  0.31831400  1
  P  P12  1  0.76373800  0.73471900  0.97292300  1
  P  P13  1  0.26373800  0.26528100  0.52707700  1
  P  P14  1  0.23626200  0.26528100  0.02707700  1
  P  P15  1  0.73626200  0.73471900  0.47292300  1
  O  O16  1  0.34609800  0.02790900  0.83821400  1
  O  O17  1  0.84609800  0.97209100  0.66178600  1
  O  O18  1  0.65390200  0.97209100  0.16178600  1
  O  O19  1  0.15390200  0.02790900  0.33821400  1
  O  O20  1  0.60475100  0.21939500  0.76664200  1
  O  O21  1  0.10475100  0.78060500  0.73335800  1
  O  O22  1  0.39524900  0.78060500  0.23335800  1
  O  O23  1  0.89524900  0.21939500  0.26664200  1
  O  O24  1  0.52716400  0.78684000  0.75234700  1
  O  O25  1  0.02716400  0.21316000  0.74765300  1
  O  O26  1  0.47283600  0.21316000  0.24765300  1
  O  O27  1  0.97283600  0.78684000  0.25234700  1
  O  O28  1  0.74843800  0.55165300  0.08552600  1
  O  O29  1  0.24843800  0.44834700  0.41447400  1
  O  O30  1  0.25156200  0.44834700  0.91447400  1
  O  O31  1  0.75156200  0.55165300  0.58552600  1
  O  O32  1  0.91383700  0.79651300  0.43101200  1
  O  O33  1  0.41383700  0.20348700  0.06898800  1
  O  O34  1  0.08616300  0.20348700  0.56898800  1
  O  O35  1  0.58616300  0.79651300  0.93101200  1
  O  O36  1  0.65246700  0.99502900  0.45685300  1
  O  O37  1  0.15246700  0.00497100  0.04314700  1
  O  O38  1  0.34753300  0.00497100  0.54314700  1
  O  O39  1  0.84753300  0.99502900  0.95685300  1
  O  O40  1  0.64710400  0.58654000  0.41266000  1
  O  O41  1  0.14710400  0.41346000  0.08734000  1
  O  O42  1  0.35289600  0.41346000  0.58734000  1
  O  O43  1  0.85289600  0.58654000  0.91266000  1
