# generated using pymatgen
data_K2Li3GaO4
_symmetry_space_group_name_H-M   'P 1'
_cell_length_a   8.90846700
_cell_length_b   5.60825600
_cell_length_c   11.07387087
_cell_angle_alpha   68.76826875
_cell_angle_beta   90.00000000
_cell_angle_gamma   90.00000000
_symmetry_Int_Tables_number   1
_chemical_formula_structural   K2Li3GaO4
_chemical_formula_sum   'K8 Li12 Ga4 O16'
_cell_volume   515.70775693
_cell_formula_units_Z   4
loop_
 _symmetry_equiv_pos_site_id
 _symmetry_equiv_pos_as_xyz
  1  'x, y, z'
loop_
 _atom_site_type_symbol
 _atom_site_label
 _atom_site_symmetry_multiplicity
 _atom_site_fract_x
 _atom_site_fract_y
 _atom_site_fract_z
 _atom_site_occupancy
  K  K0  1  0.99278600  0.29104800  0.86268600  1
  K  K1  1  0.49278600  0.70895200  0.63731400  1
  K  K2  1  0.00721400  0.70895200  0.13731400  1
  K  K3  1  0.50721400  0.29104800  0.36268600  1
  K  K4  1  0.72786600  0.27991200  0.60921100  1
  K  K5  1  0.22786600  0.72008800  0.89078900  1
  K  K6  1  0.27213400  0.72008800  0.39078900  1
  K  K7  1  0.77213400  0.27991200  0.10921100  1
  Li  Li8  1  0.26147000  0.38275600  0.20098700  1
  Li  Li9  1  0.76147000  0.61724400  0.29901300  1
  Li  Li10  1  0.73853000  0.61724400  0.79901300  1
  Li  Li11  1  0.23853000  0.38275600  0.70098700  1
  Li  Li12  1  0.03528300  0.09337100  0.29723400  1
  Li  Li13  1  0.53528300  0.90662900  0.20276600  1
  Li  Li14  1  0.96471700  0.90662900  0.70276600  1
  Li  Li15  1  0.46471700  0.09337100  0.79723400  1
  Li  Li16  1  0.49102800  0.62849400  0.06985700  1
  Li  Li17  1  0.99102800  0.37150600  0.43014300  1
  Li  Li18  1  0.50897200  0.37150600  0.93014300  1
  Li  Li19  1  0.00897200  0.62849400  0.56985700  1
  Ga  Ga20  1  0.28855900  0.10278600  0.06350800  1
  Ga  Ga21  1  0.78855900  0.89721400  0.43649200  1
  Ga  Ga22  1  0.71144100  0.89721400  0.93649200  1
  Ga  Ga23  1  0.21144100  0.10278600  0.56350800  1
  O  O24  1  0.32222400  0.74948100  0.14243000  1
  O  O25  1  0.82222400  0.25051900  0.35757000  1
  O  O26  1  0.67777600  0.25051900  0.85757000  1
  O  O27  1  0.17777600  0.74948100  0.64243000  1
  O  O28  1  0.18989400  0.23247600  0.38176200  1
  O  O29  1  0.68989400  0.76752400  0.11823800  1
  O  O30  1  0.81010600  0.76752400  0.61823800  1
  O  O31  1  0.31010600  0.23247600  0.88176200  1
  O  O32  1  0.10904000  0.21747000  0.11503900  1
  O  O33  1  0.60904000  0.78253000  0.38496100  1
  O  O34  1  0.89096000  0.78253000  0.88496100  1
  O  O35  1  0.39096000  0.21747000  0.61503900  1
  O  O36  1  0.05136700  0.25835200  0.62349200  1
  O  O37  1  0.55136700  0.74164800  0.87650800  1
  O  O38  1  0.94863300  0.74164800  0.37650800  1
  O  O39  1  0.44863300  0.25835200  0.12349200  1
