# generated using pymatgen
data_Li3MgZn5(BH4)15
_symmetry_space_group_name_H-M   'P 1'
_cell_length_a   15.50922882
_cell_length_b   15.50922882
_cell_length_c   8.75570800
_cell_angle_alpha   90.00000000
_cell_angle_beta   90.00000000
_cell_angle_gamma   117.36058044
_symmetry_Int_Tables_number   1
_chemical_formula_structural   Li3MgZn5(BH4)15
_chemical_formula_sum   'Li6 Mg2 Zn10 B30 H120'
_cell_volume   1870.46287876
_cell_formula_units_Z   2
loop_
 _symmetry_equiv_pos_site_id
 _symmetry_equiv_pos_as_xyz
  1  'x, y, z'
loop_
 _atom_site_type_symbol
 _atom_site_label
 _atom_site_symmetry_multiplicity
 _atom_site_fract_x
 _atom_site_fract_y
 _atom_site_fract_z
 _atom_site_occupancy
  Li  Li0  1  0.38694600  0.99321400  0.25000000  1
  Li  Li1  1  0.00678600  0.61305400  0.75000000  1
  Li  Li2  1  0.61305400  0.00678600  0.75000000  1
  Li  Li3  1  0.99321400  0.38694600  0.25000000  1
  Li  Li4  1  0.00301800  0.00301800  0.25000000  1
  Li  Li5  1  0.99698200  0.99698200  0.75000000  1
  Mg  Mg6  1  0.39132400  0.39132400  0.75000000  1
  Mg  Mg7  1  0.60867600  0.60867600  0.25000000  1
  Zn  Zn8  1  0.66906200  0.33603900  0.75000000  1
  Zn  Zn9  1  0.66396100  0.33093800  0.25000000  1
  Zn  Zn10  1  0.33093800  0.66396100  0.25000000  1
  Zn  Zn11  1  0.33603900  0.66906200  0.75000000  1
  Zn  Zn12  1  0.28346500  0.28346500  0.25000000  1
  Zn  Zn13  1  0.71653500  0.71653500  0.75000000  1
  Zn  Zn14  1  0.28898800  0.99708400  0.75000000  1
  Zn  Zn15  1  0.00291600  0.71101300  0.25000000  1
  Zn  Zn16  1  0.71101300  0.00291600  0.25000000  1
  Zn  Zn17  1  0.99708400  0.28898800  0.75000000  1
  B  B18  1  0.14912200  0.14912200  0.25000000  1
  B  B19  1  0.85087800  0.85087800  0.75000000  1
  B  B20  1  0.34521200  0.34521200  0.02119100  1
  B  B21  1  0.65478800  0.65478800  0.97880900  1
  B  B22  1  0.34521200  0.34521200  0.47880900  1
  B  B23  1  0.65478800  0.65478800  0.52119100  1
  B  B24  1  0.64596200  0.18566500  0.75000000  1
  B  B25  1  0.81433500  0.35403800  0.25000000  1
  B  B26  1  0.35403800  0.81433500  0.25000000  1
  B  B27  1  0.18566500  0.64596200  0.75000000  1
  B  B28  1  0.80591100  0.47148200  0.75000000  1
  B  B29  1  0.52851900  0.19408900  0.25000000  1
  B  B30  1  0.19408900  0.52851800  0.25000000  1
  B  B31  1  0.47148200  0.80591100  0.75000000  1
  B  B32  1  0.53026200  0.35716900  0.75000000  1
  B  B33  1  0.64283100  0.46973800  0.25000000  1
  B  B34  1  0.46973800  0.64283100  0.25000000  1
  B  B35  1  0.35716900  0.53026200  0.75000000  1
  B  B36  1  0.14559700  0.99707500  0.75000000  1
  B  B37  1  0.00292500  0.85440300  0.25000000  1
  B  B38  1  0.85440300  0.00292500  0.25000000  1
  B  B39  1  0.99707500  0.14559700  0.75000000  1
  B  B40  1  0.34767900  0.00057400  0.98010200  1
  B  B41  1  0.99942600  0.65232100  0.01989800  1
  B  B42  1  0.34767900  0.00057400  0.51989800  1
  B  B43  1  0.99942600  0.65232100  0.48010200  1
  B  B44  1  0.65232100  0.99942600  0.01989800  1
  B  B45  1  0.00057400  0.34767900  0.98010200  1
  B  B46  1  0.65232100  0.99942600  0.48010200  1
  B  B47  1  0.00057400  0.34767900  0.51989800  1
  H  H48  1  0.11075000  0.11075000  0.36894500  1
  H  H49  1  0.88925000  0.88925000  0.63105500  1
  H  H50  1  0.11075000  0.11075000  0.13105500  1
  H  H51  1  0.88925000  0.88925000  0.86894500  1
  H  H52  1  0.15006600  0.23059600  0.25000000  1
  H  H53  1  0.76940400  0.84993400  0.75000000  1
  H  H54  1  0.84993400  0.76940400  0.75000000  1
  H  H55  1  0.23059600  0.15006600  0.25000000  1
  H  H56  1  0.29637600  0.29637600  0.91358300  1
  H  H57  1  0.70362400  0.70362400  0.08641700  1
  H  H58  1  0.29637600  0.29637600  0.58641700  1
  H  H59  1  0.70362400  0.70362400  0.41358300  1
  H  H60  1  0.41897000  0.41897000  0.98950700  1
  H  H61  1  0.58103000  0.58103000  0.01049300  1
  H  H62  1  0.41897000  0.41897000  0.51049300  1
  H  H63  1  0.58103000  0.58103000  0.48950700  1
  H  H64  1  0.37364000  0.29367700  0.09209000  1
  H  H65  1  0.70632300  0.62636000  0.90791000  1
  H  H66  1  0.37364000  0.29367700  0.40791000  1
  H  H67  1  0.70632300  0.62636000  0.59209000  1
  H  H68  1  0.62636000  0.70632300  0.90791000  1
  H  H69  1  0.29367700  0.37364000  0.09209000  1
  H  H70  1  0.62636000  0.70632300  0.59209000  1
  H  H71  1  0.29367700  0.37364000  0.40791000  1
  H  H72  1  0.44667600  0.29142200  0.75000000  1
  H  H73  1  0.70857800  0.55332400  0.25000000  1
  H  H74  1  0.55332400  0.70857800  0.25000000  1
  H  H75  1  0.29142200  0.44667600  0.75000000  1
  H  H76  1  0.81249400  0.55232700  0.75000000  1
  H  H77  1  0.44767300  0.18750600  0.25000000  1
  H  H78  1  0.18750600  0.44767300  0.25000000  1
  H  H79  1  0.55232700  0.81249400  0.75000000  1
  H  H80  1  0.71369500  0.16697000  0.75000000  1
  H  H81  1  0.83303000  0.28630500  0.25000000  1
  H  H82  1  0.28630500  0.83303000  0.25000000  1
  H  H83  1  0.16697000  0.71369500  0.75000000  1
  H  H84  1  0.56459400  0.11860500  0.75000000  1
  H  H85  1  0.88139500  0.43540600  0.25000000  1
  H  H86  1  0.43540600  0.88139500  0.25000000  1
  H  H87  1  0.11860500  0.56459400  0.75000000  1
  H  H88  1  0.88025300  0.46393300  0.75000000  1
  H  H89  1  0.53606700  0.11974700  0.25000000  1
  H  H90  1  0.11974700  0.53606700  0.25000000  1
  H  H91  1  0.46393300  0.88025300  0.75000000  1
  H  H92  1  0.53948700  0.44036000  0.75000000  1
  H  H93  1  0.55964000  0.46051300  0.25000000  1
  H  H94  1  0.46051300  0.55964000  0.25000000  1
  H  H95  1  0.44036000  0.53948700  0.75000000  1
  H  H96  1  0.56698200  0.34809700  0.63010500  1
  H  H97  1  0.65190300  0.43301800  0.36989500  1
  H  H98  1  0.56698200  0.34809700  0.86989500  1
  H  H99  1  0.65190300  0.43301800  0.13010500  1
  H  H100  1  0.43301800  0.65190300  0.36989500  1
  H  H101  1  0.34809700  0.56698200  0.63010500  1
  H  H102  1  0.43301800  0.65190300  0.13010500  1
  H  H103  1  0.34809700  0.56698200  0.86989500  1
  H  H104  1  0.76133700  0.43139500  0.87092200  1
  H  H105  1  0.56860500  0.23866300  0.12907800  1
  H  H106  1  0.76133700  0.43139500  0.62907800  1
  H  H107  1  0.56860500  0.23866300  0.37092200  1
  H  H108  1  0.23866300  0.56860500  0.12907800  1
  H  H109  1  0.43139500  0.76133700  0.87092200  1
  H  H110  1  0.23866300  0.56860500  0.37092200  1
  H  H111  1  0.43139500  0.76133700  0.62907800  1
  H  H112  1  0.65359000  0.23242700  0.62888100  1
  H  H113  1  0.76757300  0.34641000  0.37111900  1
  H  H114  1  0.65359000  0.23242700  0.87111900  1
  H  H115  1  0.76757300  0.34641000  0.12888100  1
  H  H116  1  0.34641000  0.76757300  0.37111900  1
  H  H117  1  0.23242700  0.65359000  0.62888100  1
  H  H118  1  0.34641000  0.76757300  0.12888100  1
  H  H119  1  0.23242700  0.65359000  0.87111900  1
  H  H120  1  0.10448000  0.99647200  0.63145100  1
  H  H121  1  0.00352800  0.89552000  0.36854900  1
  H  H122  1  0.10448000  0.99647200  0.86854900  1
  H  H123  1  0.00352800  0.89552000  0.13145100  1
  H  H124  1  0.89552000  0.00352800  0.36854900  1
  H  H125  1  0.99647200  0.10448000  0.63145100  1
  H  H126  1  0.89552000  0.00352800  0.13145100  1
  H  H127  1  0.99647200  0.10448000  0.86854900  1
  H  H128  1  0.15384500  0.92080400  0.75000000  1
  H  H129  1  0.07919600  0.84615500  0.25000000  1
  H  H130  1  0.84615500  0.07919600  0.25000000  1
  H  H131  1  0.92080400  0.15384500  0.75000000  1
  H  H132  1  0.22311400  0.07416500  0.75000000  1
  H  H133  1  0.92583500  0.77688600  0.25000000  1
  H  H134  1  0.77688600  0.92583500  0.25000000  1
  H  H135  1  0.07416500  0.22311400  0.75000000  1
  H  H136  1  0.29524100  0.00142600  0.08251500  1
  H  H137  1  0.99857400  0.70475900  0.91748500  1
  H  H138  1  0.29524100  0.00142600  0.41748500  1
  H  H139  1  0.99857400  0.70475900  0.58251500  1
  H  H140  1  0.70475900  0.99857400  0.91748500  1
  H  H141  1  0.00142600  0.29524100  0.08251500  1
  H  H142  1  0.70475900  0.99857400  0.58251500  1
  H  H143  1  0.00142600  0.29524100  0.41748500  1
  H  H144  1  0.42319600  0.00047900  0.01606600  1
  H  H145  1  0.99952100  0.57680400  0.98393400  1
  H  H146  1  0.42319600  0.00047900  0.48393400  1
  H  H147  1  0.99952100  0.57680400  0.51606600  1
  H  H148  1  0.57680400  0.99952100  0.98393400  1
  H  H149  1  0.00047900  0.42319600  0.01606600  1
  H  H150  1  0.57680400  0.99952100  0.51606600  1
  H  H151  1  0.00047900  0.42319600  0.48393400  1
  H  H152  1  0.37285800  0.07651100  0.90350400  1
  H  H153  1  0.92348900  0.62714200  0.09649600  1
  H  H154  1  0.37285800  0.07651100  0.59649600  1
  H  H155  1  0.92348900  0.62714200  0.40350400  1
  H  H156  1  0.62714200  0.92348900  0.09649600  1
  H  H157  1  0.07651100  0.37285800  0.90350400  1
  H  H158  1  0.62714200  0.92348900  0.40350400  1
  H  H159  1  0.07651100  0.37285800  0.59649600  1
  H  H160  1  0.30196200  0.92318800  0.59336400  1
  H  H161  1  0.07681200  0.69803800  0.40663600  1
  H  H162  1  0.30196200  0.92318800  0.90663600  1
  H  H163  1  0.07681200  0.69803800  0.09336400  1
  H  H164  1  0.69803800  0.07681200  0.40663600  1
  H  H165  1  0.92318800  0.30196200  0.59336400  1
  H  H166  1  0.69803800  0.07681200  0.09336400  1
  H  H167  1  0.92318800  0.30196200  0.90663600  1
