# generated using pymatgen
data_CsNa3TiO4
_symmetry_space_group_name_H-M   'P 1'
_cell_length_a   6.61475000
_cell_length_b   8.63947595
_cell_length_c   11.43176912
_cell_angle_alpha   82.67514766
_cell_angle_beta   76.15017814
_cell_angle_gamma   79.67761701
_symmetry_Int_Tables_number   1
_chemical_formula_structural   CsNa3TiO4
_chemical_formula_sum   'Cs4 Na12 Ti4 O16'
_cell_volume   621.59001088
_cell_formula_units_Z   4
loop_
 _symmetry_equiv_pos_site_id
 _symmetry_equiv_pos_as_xyz
  1  'x, y, z'
loop_
 _atom_site_type_symbol
 _atom_site_label
 _atom_site_symmetry_multiplicity
 _atom_site_fract_x
 _atom_site_fract_y
 _atom_site_fract_z
 _atom_site_occupancy
  Cs  Cs0  1  0.04124000  0.13510100  0.62605800  1
  Cs  Cs1  1  0.95876000  0.86489900  0.37394200  1
  Cs  Cs2  1  0.03289100  0.37985700  0.87365700  1
  Cs  Cs3  1  0.96710900  0.62014300  0.12634300  1
  Na  Na4  1  0.20367100  0.16627400  0.14508700  1
  Na  Na5  1  0.79632900  0.83372600  0.85491300  1
  Na  Na6  1  0.50487900  0.66584000  0.39262700  1
  Na  Na7  1  0.49512100  0.33416000  0.60737300  1
  Na  Na8  1  0.18251000  0.44639400  0.39623400  1
  Na  Na9  1  0.53932500  0.42967400  0.12539100  1
  Na  Na10  1  0.20471900  0.94251500  0.89588400  1
  Na  Na11  1  0.79528100  0.05748500  0.10411600  1
  Na  Na12  1  0.57067700  0.95617200  0.62517300  1
  Na  Na13  1  0.42932300  0.04382800  0.37482700  1
  Na  Na14  1  0.46067500  0.57032600  0.87460900  1
  Na  Na15  1  0.81749000  0.55360600  0.60376600  1
  Ti  Ti16  1  0.16543400  0.71508700  0.64529400  1
  Ti  Ti17  1  0.83456600  0.28491300  0.35470600  1
  Ti  Ti18  1  0.58017000  0.21282800  0.86234500  1
  Ti  Ti19  1  0.41983000  0.78717200  0.13765500  1
  O  O20  1  0.34708100  0.83814500  0.54187000  1
  O  O21  1  0.65291900  0.16185500  0.45813000  1
  O  O22  1  0.42944700  0.11441200  0.78493200  1
  O  O23  1  0.57055300  0.88558800  0.21506800  1
  O  O24  1  0.18173700  0.71375700  0.80431100  1
  O  O25  1  0.81826300  0.28624300  0.19568900  1
  O  O26  1  0.81720800  0.08360700  0.89728500  1
  O  O27  1  0.18279200  0.91639300  0.10271500  1
  O  O28  1  0.66935800  0.37728400  0.75305400  1
  O  O29  1  0.33064200  0.62271600  0.24694600  1
  O  O30  1  0.58678700  0.69023000  0.00485600  1
  O  O31  1  0.41321300  0.30977000  0.99514400  1
  O  O32  1  0.88755300  0.79828000  0.64522100  1
  O  O33  1  0.79805800  0.48214500  0.41211500  1
  O  O34  1  0.11244700  0.20172000  0.35477900  1
  O  O35  1  0.20194200  0.51785500  0.58788500  1
