# generated using pymatgen
data_Tm5(Si5Ir2)2
_symmetry_space_group_name_H-M   'P 1'
_cell_length_a   12.57940500
_cell_length_b   12.57940500
_cell_length_c   4.23121200
_cell_angle_alpha   90.00000000
_cell_angle_beta   90.00000000
_cell_angle_gamma   90.00000000
_symmetry_Int_Tables_number   1
_chemical_formula_structural   Tm5(Si5Ir2)2
_chemical_formula_sum   'Tm10 Si20 Ir8'
_cell_volume   669.55303816
_cell_formula_units_Z   2
loop_
 _symmetry_equiv_pos_site_id
 _symmetry_equiv_pos_as_xyz
  1  'x, y, z'
loop_
 _atom_site_type_symbol
 _atom_site_label
 _atom_site_symmetry_multiplicity
 _atom_site_fract_x
 _atom_site_fract_y
 _atom_site_fract_z
 _atom_site_occupancy
  Tm  Tm0  1  0.50000000  0.50000000  0.00000000  1
  Tm  Tm1  1  0.00000000  0.00000000  0.00000000  1
  Tm  Tm2  1  0.67542500  0.17542500  0.50000000  1
  Tm  Tm3  1  0.32457500  0.82457500  0.50000000  1
  Tm  Tm4  1  0.17542500  0.32457500  0.50000000  1
  Tm  Tm5  1  0.82457500  0.67542500  0.50000000  1
  Tm  Tm6  1  0.88408200  0.38408200  0.50000000  1
  Tm  Tm7  1  0.11591800  0.61591800  0.50000000  1
  Tm  Tm8  1  0.38408200  0.11591800  0.50000000  1
  Tm  Tm9  1  0.61591800  0.88408200  0.50000000  1
  Si  Si10  1  0.56560700  0.06560700  0.00000000  1
  Si  Si11  1  0.43439300  0.93439300  0.00000000  1
  Si  Si12  1  0.06560700  0.43439300  0.00000000  1
  Si  Si13  1  0.93439300  0.56560700  0.00000000  1
  Si  Si14  1  0.66407900  0.70080600  0.00000000  1
  Si  Si15  1  0.33592100  0.29919400  0.00000000  1
  Si  Si16  1  0.16407900  0.79919400  0.00000000  1
  Si  Si17  1  0.83592100  0.20080600  0.00000000  1
  Si  Si18  1  0.29919400  0.66407900  0.00000000  1
  Si  Si19  1  0.70080600  0.33592100  0.00000000  1
  Si  Si20  1  0.20080600  0.16407900  0.00000000  1
  Si  Si21  1  0.79919400  0.83592100  0.00000000  1
  Si  Si22  1  0.65554300  0.50372400  0.50000000  1
  Si  Si23  1  0.34445700  0.49627600  0.50000000  1
  Si  Si24  1  0.15554300  0.99627600  0.50000000  1
  Si  Si25  1  0.84445700  0.00372400  0.50000000  1
  Si  Si26  1  0.49627600  0.65554300  0.50000000  1
  Si  Si27  1  0.50372400  0.34445700  0.50000000  1
  Si  Si28  1  0.00372400  0.15554300  0.50000000  1
  Si  Si29  1  0.99627600  0.84445700  0.50000000  1
  Ir  Ir30  1  0.74593400  0.52055500  0.00000000  1
  Ir  Ir31  1  0.25406600  0.47944500  0.00000000  1
  Ir  Ir32  1  0.24593400  0.97944500  0.00000000  1
  Ir  Ir33  1  0.75406600  0.02055500  0.00000000  1
  Ir  Ir34  1  0.47944500  0.74593400  0.00000000  1
  Ir  Ir35  1  0.52055500  0.25406600  0.00000000  1
  Ir  Ir36  1  0.02055500  0.24593400  0.00000000  1
  Ir  Ir37  1  0.97944500  0.75406600  0.00000000  1
