# generated using pymatgen
data_Rb8Hf(MoO4)6
_symmetry_space_group_name_H-M   'P 1'
_cell_length_a   10.98345563
_cell_length_b   10.98345563
_cell_length_c   8.14437370
_cell_angle_alpha   81.47709499
_cell_angle_beta   81.47709499
_cell_angle_gamma   124.11066690
_symmetry_Int_Tables_number   1
_chemical_formula_structural   Rb8Hf(MoO4)6
_chemical_formula_sum   'Rb8 Hf1 Mo6 O24'
_cell_volume   771.71943419
_cell_formula_units_Z   1
loop_
 _symmetry_equiv_pos_site_id
 _symmetry_equiv_pos_as_xyz
  1  'x, y, z'
loop_
 _atom_site_type_symbol
 _atom_site_label
 _atom_site_symmetry_multiplicity
 _atom_site_fract_x
 _atom_site_fract_y
 _atom_site_fract_z
 _atom_site_occupancy
  Rb  Rb0  1  0.66514400  0.33485600  0.50000000  1
  Rb  Rb1  1  0.33485600  0.66514400  0.50000000  1
  Rb  Rb2  1  0.48095500  0.13394800  0.10986100  1
  Rb  Rb3  1  0.51904500  0.86605200  0.89013900  1
  Rb  Rb4  1  0.86605200  0.51904500  0.89013900  1
  Rb  Rb5  1  0.13394800  0.48095500  0.10986100  1
  Rb  Rb6  1  0.78690100  0.78690100  0.64514300  1
  Rb  Rb7  1  0.21309900  0.21309900  0.35485700  1
  Hf  Hf8  1  0.00000000  0.00000000  0.00000000  1
  Mo  Mo9  1  0.61700300  0.61700300  0.20499400  1
  Mo  Mo10  1  0.38299700  0.38299700  0.79500600  1
  Mo  Mo11  1  0.74157600  0.05189200  0.28507000  1
  Mo  Mo12  1  0.25842400  0.94810800  0.71493000  1
  Mo  Mo13  1  0.94810800  0.25842400  0.71493000  1
  Mo  Mo14  1  0.05189200  0.74157600  0.28507000  1
  O  O15  1  0.23695900  0.78320000  0.22712600  1
  O  O16  1  0.76304100  0.21680000  0.77287400  1
  O  O17  1  0.21680000  0.76304000  0.77287400  1
  O  O18  1  0.78320000  0.23696000  0.22712600  1
  O  O19  1  0.58772700  0.93340200  0.20241600  1
  O  O20  1  0.41227300  0.06659800  0.79758400  1
  O  O21  1  0.06659800  0.41227300  0.79758400  1
  O  O22  1  0.93340200  0.58772700  0.20241600  1
  O  O23  1  0.68178300  0.97235800  0.51444900  1
  O  O24  1  0.31821700  0.02764200  0.48555100  1
  O  O25  1  0.02764200  0.31821700  0.48555100  1
  O  O26  1  0.97235800  0.68178300  0.51444900  1
  O  O27  1  0.91238200  0.06090400  0.18804400  1
  O  O28  1  0.08761800  0.93909600  0.81195600  1
  O  O29  1  0.93909600  0.08761800  0.81195600  1
  O  O30  1  0.06090400  0.91238200  0.18804400  1
  O  O31  1  0.44512500  0.59388000  0.18956100  1
  O  O32  1  0.55487500  0.40612000  0.81043900  1
  O  O33  1  0.40612000  0.55487500  0.81043900  1
  O  O34  1  0.59388000  0.44512500  0.18956100  1
  O  O35  1  0.65017700  0.65017700  0.40497600  1
  O  O36  1  0.34982300  0.34982300  0.59502400  1
  O  O37  1  0.78903400  0.78903400  0.03190200  1
  O  O38  1  0.21096600  0.21096600  0.96809800  1
