# generated using pymatgen
data_CaMnSiO4
_symmetry_space_group_name_H-M   'P 1'
_cell_length_a   4.99549700
_cell_length_b   6.59519900
_cell_length_c   11.24809300
_cell_angle_alpha   90.00000000
_cell_angle_beta   90.00000000
_cell_angle_gamma   90.00000000
_symmetry_Int_Tables_number   1
_chemical_formula_structural   CaMnSiO4
_chemical_formula_sum   'Ca4 Mn4 Si4 O16'
_cell_volume   370.58301062
_cell_formula_units_Z   4
loop_
 _symmetry_equiv_pos_site_id
 _symmetry_equiv_pos_as_xyz
  1  'x, y, z'
loop_
 _atom_site_type_symbol
 _atom_site_label
 _atom_site_symmetry_multiplicity
 _atom_site_fract_x
 _atom_site_fract_y
 _atom_site_fract_z
 _atom_site_occupancy
  Ca  Ca0  1  0.02240600  0.75000000  0.72307700  1
  Ca  Ca1  1  0.97759400  0.25000000  0.27692300  1
  Ca  Ca2  1  0.52240600  0.25000000  0.77692300  1
  Ca  Ca3  1  0.47759400  0.75000000  0.22307700  1
  Mn  Mn4  1  0.50000000  0.50000000  0.50000000  1
  Mn  Mn5  1  0.00000000  0.50000000  0.00000000  1
  Mn  Mn6  1  0.50000000  0.00000000  0.50000000  1
  Mn  Mn7  1  0.00000000  0.00000000  0.00000000  1
  Si  Si8  1  0.58522400  0.75000000  0.91465500  1
  Si  Si9  1  0.41477600  0.25000000  0.08534500  1
  Si  Si10  1  0.08522400  0.25000000  0.58534500  1
  Si  Si11  1  0.91477600  0.75000000  0.41465500  1
  O  O12  1  0.71932000  0.54972000  0.84773600  1
  O  O13  1  0.28068000  0.45028000  0.15226400  1
  O  O14  1  0.21932000  0.45028000  0.65226400  1
  O  O15  1  0.28068000  0.04972000  0.15226400  1
  O  O16  1  0.78068000  0.54972000  0.34773600  1
  O  O17  1  0.71932000  0.95028000  0.84773600  1
  O  O18  1  0.78068000  0.95028000  0.34773600  1
  O  O19  1  0.21932000  0.04972000  0.65226400  1
  O  O20  1  0.76986400  0.75000000  0.54987500  1
  O  O21  1  0.23013600  0.25000000  0.45012500  1
  O  O22  1  0.26986400  0.25000000  0.95012500  1
  O  O23  1  0.73013600  0.75000000  0.04987500  1
  O  O24  1  0.25834000  0.75000000  0.91781900  1
  O  O25  1  0.74166000  0.25000000  0.08218100  1
  O  O26  1  0.75834000  0.25000000  0.58218100  1
  O  O27  1  0.24166000  0.75000000  0.41781900  1
