# generated using pymatgen
data_InAs(H2O3)2
_symmetry_space_group_name_H-M   'P 1'
_cell_length_a   9.19807900
_cell_length_b   10.49429200
_cell_length_c   10.79799500
_cell_angle_alpha   90.00000000
_cell_angle_beta   90.00000000
_cell_angle_gamma   90.00000000
_symmetry_Int_Tables_number   1
_chemical_formula_structural   InAs(H2O3)2
_chemical_formula_sum   'In8 As8 H32 O48'
_cell_volume   1042.30159285
_cell_formula_units_Z   8
loop_
 _symmetry_equiv_pos_site_id
 _symmetry_equiv_pos_as_xyz
  1  'x, y, z'
loop_
 _atom_site_type_symbol
 _atom_site_label
 _atom_site_symmetry_multiplicity
 _atom_site_fract_x
 _atom_site_fract_y
 _atom_site_fract_z
 _atom_site_occupancy
  In  In0  1  0.35263400  0.81491400  0.62569500  1
  In  In1  1  0.85263400  0.68508600  0.37430500  1
  In  In2  1  0.64736600  0.31491400  0.87430500  1
  In  In3  1  0.14736600  0.18508600  0.12569500  1
  In  In4  1  0.64736600  0.18508600  0.37430500  1
  In  In5  1  0.14736600  0.31491400  0.62569500  1
  In  In6  1  0.35263400  0.68508600  0.12569500  1
  In  In7  1  0.85263400  0.81491400  0.87430500  1
  As  As8  1  0.03492500  0.63089300  0.65451600  1
  As  As9  1  0.53492500  0.86910700  0.34548400  1
  As  As10  1  0.96507500  0.13089300  0.84548400  1
  As  As11  1  0.46507500  0.36910700  0.15451600  1
  As  As12  1  0.96507500  0.36910700  0.34548400  1
  As  As13  1  0.46507500  0.13089300  0.65451600  1
  As  As14  1  0.03492500  0.86910700  0.15451600  1
  As  As15  1  0.53492500  0.63089300  0.84548400  1
  H  H16  1  0.13273200  0.59157400  0.96461200  1
  H  H17  1  0.63273200  0.90842600  0.03538800  1
  H  H18  1  0.86726800  0.09157400  0.53538800  1
  H  H19  1  0.36726800  0.40842600  0.46461200  1
  H  H20  1  0.86726800  0.40842600  0.03538800  1
  H  H21  1  0.36726800  0.09157400  0.96461200  1
  H  H22  1  0.13273200  0.90842600  0.46461200  1
  H  H23  1  0.63273200  0.59157400  0.53538800  1
  H  H24  1  0.19961600  0.47979900  0.05301500  1
  H  H25  1  0.69961600  0.02020100  0.94698500  1
  H  H26  1  0.80038400  0.97979900  0.44698500  1
  H  H27  1  0.30038400  0.52020100  0.55301500  1
  H  H28  1  0.80038400  0.52020100  0.94698500  1
  H  H29  1  0.30038400  0.97979900  0.05301500  1
  H  H30  1  0.19961600  0.02020100  0.55301500  1
  H  H31  1  0.69961600  0.47979900  0.44698500  1
  H  H32  1  0.31798200  0.67558900  0.36837500  1
  H  H33  1  0.81798200  0.82441100  0.63162500  1
  H  H34  1  0.68201800  0.17558900  0.13162500  1
  H  H35  1  0.18201800  0.32441100  0.86837500  1
  H  H36  1  0.68201800  0.32441100  0.63162500  1
  H  H37  1  0.18201800  0.17558900  0.36837500  1
  H  H38  1  0.31798200  0.82441100  0.86837500  1
  H  H39  1  0.81798200  0.67558900  0.13162500  1
  H  H40  1  0.17362000  0.59172600  0.32281300  1
  H  H41  1  0.67362000  0.90827400  0.67718700  1
  H  H42  1  0.82638000  0.09172600  0.17718700  1
  H  H43  1  0.32638000  0.40827400  0.82281300  1
  H  H44  1  0.82638000  0.40827400  0.67718700  1
  H  H45  1  0.32638000  0.09172600  0.32281300  1
  H  H46  1  0.17362000  0.90827400  0.82281300  1
  H  H47  1  0.67362000  0.59172600  0.17718700  1
  O  O48  1  0.01864400  0.68630000  0.80360500  1
  O  O49  1  0.51864400  0.81370000  0.19639500  1
  O  O50  1  0.98135600  0.18630000  0.69639500  1
  O  O51  1  0.48135600  0.31370000  0.30360500  1
  O  O52  1  0.98135600  0.31370000  0.19639500  1
  O  O53  1  0.48135600  0.18630000  0.80360500  1
  O  O54  1  0.01864400  0.81370000  0.30360500  1
  O  O55  1  0.51864400  0.68630000  0.69639500  1
  O  O56  1  0.91709200  0.71882400  0.56304400  1
  O  O57  1  0.41709200  0.78117600  0.43695600  1
  O  O58  1  0.08290800  0.21882400  0.93695600  1
  O  O59  1  0.58290800  0.28117600  0.06304400  1
  O  O60  1  0.08290800  0.28117600  0.43695600  1
  O  O61  1  0.58290800  0.21882400  0.56304400  1
  O  O62  1  0.91709200  0.78117600  0.06304400  1
  O  O63  1  0.41709200  0.71882400  0.93695600  1
  O  O64  1  0.21219200  0.64946200  0.60414900  1
  O  O65  1  0.71219200  0.85053800  0.39585100  1
  O  O66  1  0.78780800  0.14946200  0.89585100  1
  O  O67  1  0.28780800  0.35053800  0.10414900  1
  O  O68  1  0.78780800  0.35053800  0.39585100  1
  O  O69  1  0.28780800  0.14946200  0.60414900  1
  O  O70  1  0.21219200  0.85053800  0.10414900  1
  O  O71  1  0.71219200  0.64946200  0.89585100  1
  O  O72  1  0.99150900  0.47135100  0.64113700  1
  O  O73  1  0.49150900  0.02864900  0.35886300  1
  O  O74  1  0.00849100  0.97135100  0.85886300  1
  O  O75  1  0.50849100  0.52864900  0.14113700  1
  O  O76  1  0.00849100  0.52864900  0.35886300  1
  O  O77  1  0.50849100  0.97135100  0.64113700  1
  O  O78  1  0.99150900  0.02864900  0.14113700  1
  O  O79  1  0.49150900  0.47135100  0.85886300  1
  O  O80  1  0.16588200  0.57079900  0.04875200  1
  O  O81  1  0.66588200  0.92920100  0.95124800  1
  O  O82  1  0.83411800  0.07079900  0.45124800  1
  O  O83  1  0.33411800  0.42920100  0.54875200  1
  O  O84  1  0.83411800  0.42920100  0.95124800  1
  O  O85  1  0.33411800  0.07079900  0.04875200  1
  O  O86  1  0.16588200  0.92920100  0.54875200  1
  O  O87  1  0.66588200  0.57079900  0.45124800  1
  O  O88  1  0.27778600  0.61307800  0.30574400  1
  O  O89  1  0.77778600  0.88692200  0.69425600  1
  O  O90  1  0.72221400  0.11307800  0.19425600  1
  O  O91  1  0.22221400  0.38692200  0.80574400  1
  O  O92  1  0.72221400  0.38692200  0.69425600  1
  O  O93  1  0.22221400  0.11307800  0.30574400  1
  O  O94  1  0.27778600  0.88692200  0.80574400  1
  O  O95  1  0.77778600  0.61307800  0.19425600  1
