# generated using pymatgen
data_Na3W2N5
_symmetry_space_group_name_H-M   'P 1'
_cell_length_a   9.67463671
_cell_length_b   9.67463671
_cell_length_c   9.67463671
_cell_angle_alpha   101.74109399
_cell_angle_beta   101.74109399
_cell_angle_gamma   126.37167240
_symmetry_Int_Tables_number   1
_chemical_formula_structural   Na3W2N5
_chemical_formula_sum   'Na12 W8 N20'
_cell_volume   650.72356809
_cell_formula_units_Z   4
loop_
 _symmetry_equiv_pos_site_id
 _symmetry_equiv_pos_as_xyz
  1  'x, y, z'
loop_
 _atom_site_type_symbol
 _atom_site_label
 _atom_site_symmetry_multiplicity
 _atom_site_fract_x
 _atom_site_fract_y
 _atom_site_fract_z
 _atom_site_occupancy
  Na  Na0  1  0.88102700  0.54414000  0.88003400  1
  Na  Na1  1  0.66410700  0.00099300  0.11996600  1
  Na  Na2  1  0.79414000  0.41410700  0.16311300  1
  Na  Na3  1  0.25099300  0.63102700  0.83688700  1
  Na  Na4  1  0.58979900  0.82162200  0.37388500  1
  Na  Na5  1  0.44773700  0.21591400  0.62611500  1
  Na  Na6  1  0.07162200  0.19773700  0.73182300  1
  Na  Na7  1  0.46591400  0.33979900  0.26817700  1
  Na  Na8  1  0.93194900  0.93194900  0.00000000  1
  Na  Na9  1  0.18194900  0.68194900  0.50000000  1
  Na  Na10  1  0.77530400  0.27530400  0.50000000  1
  Na  Na11  1  0.52530400  0.52530400  0.00000000  1
  W  W12  1  0.63746100  0.03719000  0.77771800  1
  W  W13  1  0.25947200  0.85974300  0.22228200  1
  W  W14  1  0.28719000  0.00947200  0.89972900  1
  W  W15  1  0.10974300  0.38746100  0.10027100  1
  W  W16  1  0.88560700  0.69932600  0.61821200  1
  W  W17  1  0.08111400  0.26739500  0.38178800  1
  W  W18  1  0.94932600  0.83111400  0.31371900  1
  W  W19  1  0.51739500  0.63560700  0.68628100  1
  N  N20  1  0.69068400  0.20940500  0.70550900  1
  N  N21  1  0.50389600  0.98517500  0.29449100  1
  N  N22  1  0.45940500  0.25389600  0.01872100  1
  N  N23  1  0.23517500  0.44068400  0.98127900  1
  N  N24  1  0.85766700  0.69461800  0.11284000  1
  N  N25  1  0.58177900  0.74482700  0.88716000  1
  N  N26  1  0.94461800  0.33177900  0.33695100  1
  N  N27  1  0.99482700  0.60766700  0.66304900  1
  N  N28  1  0.85487000  0.16853000  0.96514200  1
  N  N29  1  0.20338700  0.88972800  0.03485800  1
  N  N30  1  0.41853000  0.95338700  0.81365900  1
  N  N31  1  0.13972800  0.60487000  0.18634100  1
  N  N32  1  0.81806400  0.65358100  0.40095200  1
  N  N33  1  0.25262900  0.41711200  0.59904800  1
  N  N34  1  0.90358100  0.00262900  0.33551700  1
  N  N35  1  0.66711200  0.56806400  0.66448300  1
  N  N36  1  0.07298000  0.96115800  0.75359000  1
  N  N37  1  0.20756800  0.31939000  0.24641000  1
  N  N38  1  0.21115800  0.95756800  0.38817800  1
  N  N39  1  0.56939000  0.82298000  0.61182200  1
