# generated using pymatgen
data_Er3Tl2Cu5S8
_symmetry_space_group_name_H-M   'P 1'
_cell_length_a   7.18413174
_cell_length_b   7.18413174
_cell_length_c   14.42163744
_cell_angle_alpha   69.58197486
_cell_angle_beta   69.58197486
_cell_angle_gamma   31.56722596
_symmetry_Int_Tables_number   1
_chemical_formula_structural   Er3Tl2Cu5S8
_chemical_formula_sum   'Er3 Tl2 Cu5 S8'
_cell_volume   363.14536919
_cell_formula_units_Z   1
loop_
 _symmetry_equiv_pos_site_id
 _symmetry_equiv_pos_as_xyz
  1  'x, y, z'
loop_
 _atom_site_type_symbol
 _atom_site_label
 _atom_site_symmetry_multiplicity
 _atom_site_fract_x
 _atom_site_fract_y
 _atom_site_fract_z
 _atom_site_occupancy
  Er  Er0  1  0.03709300  0.03709300  0.59227000  1
  Er  Er1  1  0.33380200  0.33380200  0.82725800  1
  Er  Er2  1  0.19708300  0.19708300  0.21280200  1
  Tl  Tl3  1  0.99988400  0.99988400  0.99963800  1
  Tl  Tl4  1  0.37152700  0.37152700  0.41375500  1
  Cu  Cu5  1  0.71753900  0.71753900  0.01820000  1
  Cu  Cu6  1  0.65675300  0.65675300  0.40702200  1
  Cu  Cu7  1  0.97914900  0.97914900  0.20898300  1
  Cu  Cu8  1  0.78715200  0.78715200  0.66249700  1
  Cu  Cu9  1  0.58561700  0.58561700  0.75734200  1
  S  S10  1  0.57514400  0.57514400  0.16918700  1
  S  S11  1  0.31248700  0.31248700  0.01669600  1
  S  S12  1  0.69539300  0.69539300  0.84960500  1
  S  S13  1  0.80449000  0.80449000  0.25833200  1
  S  S14  1  0.06233800  0.06233800  0.40168300  1
  S  S15  1  0.67524300  0.67524300  0.57137800  1
  S  S16  1  0.38629100  0.38629100  0.62741200  1
  S  S17  1  0.98512600  0.98512600  0.79246000  1
