# generated using pymatgen
data_Sb2XeF12
_symmetry_space_group_name_H-M   'P 1'
_cell_length_a   7.43289000
_cell_length_b   9.70097400
_cell_length_c   8.39271872
_cell_angle_alpha   90.00000000
_cell_angle_beta   106.18168151
_cell_angle_gamma   90.00000000
_symmetry_Int_Tables_number   1
_chemical_formula_structural   Sb2XeF12
_chemical_formula_sum   'Sb4 Xe2 F24'
_cell_volume   581.19263714
_cell_formula_units_Z   2
loop_
 _symmetry_equiv_pos_site_id
 _symmetry_equiv_pos_as_xyz
  1  'x, y, z'
loop_
 _atom_site_type_symbol
 _atom_site_label
 _atom_site_symmetry_multiplicity
 _atom_site_fract_x
 _atom_site_fract_y
 _atom_site_fract_z
 _atom_site_occupancy
  Sb  Sb0  1  0.04606100  0.94707800  0.14230100  1
  Sb  Sb1  1  0.95393900  0.44707800  0.85769900  1
  Sb  Sb2  1  0.69145200  0.71413200  0.30368900  1
  Sb  Sb3  1  0.30854800  0.21413200  0.69631100  1
  Xe  Xe4  1  0.68602200  0.21481500  0.28999400  1
  Xe  Xe5  1  0.31397800  0.71481500  0.71000600  1
  F  F6  1  0.86669100  0.79423400  0.16394200  1
  F  F7  1  0.13330900  0.29423400  0.83605800  1
  F  F8  1  0.20720000  0.09655600  0.13841300  1
  F  F9  1  0.79280000  0.59655600  0.86158700  1
  F  F10  1  0.20102900  0.87820100  0.34410100  1
  F  F11  1  0.79897100  0.37820100  0.65589900  1
  F  F12  1  0.14631200  0.82592400  0.01282900  1
  F  F13  1  0.85368800  0.32592400  0.98717100  1
  F  F14  1  0.48937600  0.34961700  0.29975700  1
  F  F15  1  0.51062400  0.84961700  0.70024300  1
  F  F16  1  0.85572400  0.00643600  0.95564000  1
  F  F17  1  0.14427600  0.50643600  0.04436000  1
  F  F18  1  0.53527600  0.64618600  0.42929900  1
  F  F19  1  0.46472400  0.14618600  0.57070100  1
  F  F20  1  0.83786500  0.55119500  0.32261900  1
  F  F21  1  0.16213500  0.05119500  0.67738100  1
  F  F22  1  0.87156800  0.78916100  0.49003100  1
  F  F23  1  0.12843200  0.28916100  0.50996900  1
  F  F24  1  0.53986100  0.65029800  0.09588900  1
  F  F25  1  0.46013900  0.15029800  0.90411100  1
  F  F26  1  0.91943400  0.05923800  0.28199600  1
  F  F27  1  0.08056600  0.55923800  0.71800400  1
  F  F28  1  0.57343500  0.88945800  0.25982000  1
  F  F29  1  0.42656500  0.38945800  0.74018000  1
