# generated using pymatgen
data_Rb3P11
_symmetry_space_group_name_H-M   'P 1'
_cell_length_a   11.07186100
_cell_length_b   11.26797400
_cell_length_c   14.36646400
_cell_angle_alpha   90.00000000
_cell_angle_beta   90.00000000
_cell_angle_gamma   90.00000000
_symmetry_Int_Tables_number   1
_chemical_formula_structural   Rb3P11
_chemical_formula_sum   'Rb12 P44'
_cell_volume   1792.32329750
_cell_formula_units_Z   4
loop_
 _symmetry_equiv_pos_site_id
 _symmetry_equiv_pos_as_xyz
  1  'x, y, z'
loop_
 _atom_site_type_symbol
 _atom_site_label
 _atom_site_symmetry_multiplicity
 _atom_site_fract_x
 _atom_site_fract_y
 _atom_site_fract_z
 _atom_site_occupancy
  Rb  Rb0  1  0.75000000  0.00000000  0.28193500  1
  Rb  Rb1  1  0.25000000  0.50000000  0.21806500  1
  Rb  Rb2  1  0.25000000  0.00000000  0.71806500  1
  Rb  Rb3  1  0.75000000  0.50000000  0.78193500  1
  Rb  Rb4  1  0.42920700  0.23217700  0.99527300  1
  Rb  Rb5  1  0.92920700  0.26782300  0.50472700  1
  Rb  Rb6  1  0.57079300  0.73217700  0.50472700  1
  Rb  Rb7  1  0.07079300  0.76782300  0.99527300  1
  Rb  Rb8  1  0.57079300  0.76782300  0.00472700  1
  Rb  Rb9  1  0.07079300  0.73217700  0.49527300  1
  Rb  Rb10  1  0.42920700  0.26782300  0.49527300  1
  Rb  Rb11  1  0.92920700  0.23217700  0.00472700  1
  P  P12  1  0.75000000  0.00000000  0.52564500  1
  P  P13  1  0.25000000  0.50000000  0.97435500  1
  P  P14  1  0.25000000  0.00000000  0.47435500  1
  P  P15  1  0.75000000  0.50000000  0.02564500  1
  P  P16  1  0.01788700  0.51406000  0.66171700  1
  P  P17  1  0.51788700  0.98594000  0.83828300  1
  P  P18  1  0.98211300  0.01406000  0.83828300  1
  P  P19  1  0.48211300  0.48594000  0.66171700  1
  P  P20  1  0.98211300  0.48594000  0.33828300  1
  P  P21  1  0.48211300  0.01406000  0.16171700  1
  P  P22  1  0.01788700  0.98594000  0.16171700  1
  P  P23  1  0.51788700  0.51406000  0.33828300  1
  P  P24  1  0.24000100  0.33159900  0.76796400  1
  P  P25  1  0.74000100  0.16840100  0.73203600  1
  P  P26  1  0.75999900  0.83159900  0.73203600  1
  P  P27  1  0.25999900  0.66840100  0.76796400  1
  P  P28  1  0.75999900  0.66840100  0.23203600  1
  P  P29  1  0.25999900  0.83159900  0.26796400  1
  P  P30  1  0.24000100  0.16840100  0.26796400  1
  P  P31  1  0.74000100  0.33159900  0.23203600  1
  P  P32  1  0.42577900  0.41051700  0.79403200  1
  P  P33  1  0.92577900  0.08948300  0.70596800  1
  P  P34  1  0.57422100  0.91051700  0.70596800  1
  P  P35  1  0.07422100  0.58948300  0.79403200  1
  P  P36  1  0.57422100  0.58948300  0.20596800  1
  P  P37  1  0.07422100  0.91051700  0.29403200  1
  P  P38  1  0.42577900  0.08948300  0.29403200  1
  P  P39  1  0.92577900  0.41051700  0.20596800  1
  P  P40  1  0.12294400  0.42681300  0.87355100  1
  P  P41  1  0.62294400  0.07318700  0.62644900  1
  P  P42  1  0.87705600  0.92681300  0.62644900  1
  P  P43  1  0.37705600  0.57318700  0.87355100  1
  P  P44  1  0.87705600  0.57318700  0.12644900  1
  P  P45  1  0.37705600  0.92681300  0.37355100  1
  P  P46  1  0.12294400  0.07318700  0.37355100  1
  P  P47  1  0.62294400  0.42681300  0.12644900  1
  P  P48  1  0.18689000  0.42283200  0.63323600  1
  P  P49  1  0.68689000  0.07716800  0.86676400  1
  P  P50  1  0.81311000  0.92283200  0.86676400  1
  P  P51  1  0.31311000  0.57716800  0.63323600  1
  P  P52  1  0.81311000  0.57716800  0.36676400  1
  P  P53  1  0.31311000  0.92283200  0.13323600  1
  P  P54  1  0.18689000  0.07716800  0.13323600  1
  P  P55  1  0.68689000  0.42283200  0.36676400  1
