# generated using pymatgen
data_Sm(CoB)4
_symmetry_space_group_name_H-M   'P 1'
_cell_length_a   7.01641900
_cell_length_b   7.01641900
_cell_length_c   3.80176400
_cell_angle_alpha   90.00000000
_cell_angle_beta   90.00000000
_cell_angle_gamma   90.00000000
_symmetry_Int_Tables_number   1
_chemical_formula_structural   Sm(CoB)4
_chemical_formula_sum   'Sm2 Co8 B8'
_cell_volume   187.16135718
_cell_formula_units_Z   2
loop_
 _symmetry_equiv_pos_site_id
 _symmetry_equiv_pos_as_xyz
  1  'x, y, z'
loop_
 _atom_site_type_symbol
 _atom_site_label
 _atom_site_symmetry_multiplicity
 _atom_site_fract_x
 _atom_site_fract_y
 _atom_site_fract_z
 _atom_site_occupancy
  Sm  Sm0  1  0.00000000  0.00000000  0.00000000  1
  Sm  Sm1  1  0.50000000  0.50000000  0.50000000  1
  Co  Co2  1  0.38369100  0.14242500  0.89317900  1
  Co  Co3  1  0.61630900  0.85757500  0.89317900  1
  Co  Co4  1  0.35757500  0.88369100  0.39317900  1
  Co  Co5  1  0.64242500  0.11630900  0.39317900  1
  Co  Co6  1  0.11630900  0.35757500  0.60682100  1
  Co  Co7  1  0.88369100  0.64242500  0.60682100  1
  Co  Co8  1  0.14242500  0.61630900  0.10682100  1
  Co  Co9  1  0.85757500  0.38369100  0.10682100  1
  B  B10  1  0.79785800  0.66235200  0.10399100  1
  B  B11  1  0.20214200  0.33764800  0.10399100  1
  B  B12  1  0.83764800  0.29785800  0.60399100  1
  B  B13  1  0.16235200  0.70214200  0.60399100  1
  B  B14  1  0.70214200  0.83764800  0.39600900  1
  B  B15  1  0.29785800  0.16235200  0.39600900  1
  B  B16  1  0.66235200  0.20214200  0.89600900  1
  B  B17  1  0.33764800  0.79785800  0.89600900  1
