# generated using pymatgen
data_BaGaGe
_symmetry_space_group_name_H-M   'P 1'
_cell_length_a   4.40141011
_cell_length_b   4.40141011
_cell_length_c   20.47163700
_cell_angle_alpha   90.00000000
_cell_angle_beta   90.00000000
_cell_angle_gamma   120.00000166
_symmetry_Int_Tables_number   1
_chemical_formula_structural   BaGaGe
_chemical_formula_sum   'Ba4 Ga4 Ge4'
_cell_volume   343.45264870
_cell_formula_units_Z   4
loop_
 _symmetry_equiv_pos_site_id
 _symmetry_equiv_pos_as_xyz
  1  'x, y, z'
loop_
 _atom_site_type_symbol
 _atom_site_label
 _atom_site_symmetry_multiplicity
 _atom_site_fract_x
 _atom_site_fract_y
 _atom_site_fract_z
 _atom_site_occupancy
  Ba  Ba0  1  0.00000000  0.00000000  0.50000000  1
  Ba  Ba1  1  0.00000000  0.00000000  0.00000000  1
  Ba  Ba2  1  0.00000000  0.00000000  0.25000000  1
  Ba  Ba3  1  0.00000000  0.00000000  0.75000000  1
  Ga  Ga4  1  0.33333300  0.66666700  0.36500100  1
  Ga  Ga5  1  0.66666700  0.33333300  0.63499900  1
  Ga  Ga6  1  0.66666700  0.33333300  0.86500100  1
  Ga  Ga7  1  0.33333300  0.66666700  0.13499900  1
  Ge  Ge8  1  0.33333300  0.66666700  0.88371900  1
  Ge  Ge9  1  0.66666700  0.33333300  0.11628100  1
  Ge  Ge10  1  0.66666700  0.33333300  0.38371900  1
  Ge  Ge11  1  0.33333300  0.66666700  0.61628100  1
