# generated using pymatgen
data_Y6Mn(SiS7)2
_symmetry_space_group_name_H-M   'P 1'
_cell_length_a   9.93725451
_cell_length_b   9.93725451
_cell_length_c   5.61053100
_cell_angle_alpha   90.00000000
_cell_angle_beta   90.00000000
_cell_angle_gamma   120.00000341
_symmetry_Int_Tables_number   1
_chemical_formula_structural   Y6Mn(SiS7)2
_chemical_formula_sum   'Y6 Mn1 Si2 S14'
_cell_volume   479.80791655
_cell_formula_units_Z   1
loop_
 _symmetry_equiv_pos_site_id
 _symmetry_equiv_pos_as_xyz
  1  'x, y, z'
loop_
 _atom_site_type_symbol
 _atom_site_label
 _atom_site_symmetry_multiplicity
 _atom_site_fract_x
 _atom_site_fract_y
 _atom_site_fract_z
 _atom_site_occupancy
  Y  Y0  1  0.87740400  0.23343800  0.24988600  1
  Y  Y1  1  0.76656200  0.64396700  0.24988600  1
  Y  Y2  1  0.35603300  0.12259600  0.24988600  1
  Y  Y3  1  0.12195000  0.76655100  0.74961200  1
  Y  Y4  1  0.23344900  0.35539900  0.74961200  1
  Y  Y5  1  0.64460100  0.87805000  0.74961200  1
  Mn  Mn6  1  0.00000000  0.00000000  0.48786700  1
  Si  Si7  1  0.66666700  0.33333300  0.83299100  1
  Si  Si8  1  0.33333300  0.66666700  0.33439000  1
  S  S9  1  0.66666700  0.33333300  0.46109200  1
  S  S10  1  0.33333300  0.66666700  0.96239700  1
  S  S11  1  0.91455500  0.16205200  0.72976400  1
  S  S12  1  0.83794800  0.75250300  0.72976400  1
  S  S13  1  0.24749700  0.08544500  0.72976400  1
  S  S14  1  0.08350300  0.83621500  0.24491700  1
  S  S15  1  0.16378500  0.24728800  0.24491700  1
  S  S16  1  0.75271200  0.91649700  0.24491700  1
  S  S17  1  0.58872000  0.10826600  0.98510200  1
  S  S18  1  0.89173400  0.48045500  0.98510200  1
  S  S19  1  0.51954500  0.41128000  0.98510200  1
  S  S20  1  0.41131900  0.89163300  0.48635900  1
  S  S21  1  0.10836700  0.51968600  0.48635900  1
  S  S22  1  0.48031400  0.58868100  0.48635900  1
