# generated using pymatgen
data_Ba6Pr2Ga4O15
_symmetry_space_group_name_H-M   'P 1'
_cell_length_a   6.12313900
_cell_length_b   8.18290181
_cell_length_c   18.90739103
_cell_angle_alpha   91.02542003
_cell_angle_beta   90.00000000
_cell_angle_gamma   90.00000000
_symmetry_Int_Tables_number   1
_chemical_formula_structural   Ba6Pr2Ga4O15
_chemical_formula_sum   'Ba12 Pr4 Ga8 O30'
_cell_volume   947.20396681
_cell_formula_units_Z   2
loop_
 _symmetry_equiv_pos_site_id
 _symmetry_equiv_pos_as_xyz
  1  'x, y, z'
loop_
 _atom_site_type_symbol
 _atom_site_label
 _atom_site_symmetry_multiplicity
 _atom_site_fract_x
 _atom_site_fract_y
 _atom_site_fract_z
 _atom_site_occupancy
  Ba  Ba0  1  0.75597500  0.50008900  0.41999400  1
  Ba  Ba1  1  0.24402500  0.49991100  0.58000600  1
  Ba  Ba2  1  0.75597500  0.49991100  0.08000600  1
  Ba  Ba3  1  0.24402500  0.50008900  0.91999400  1
  Ba  Ba4  1  0.73961200  0.96532600  0.40748700  1
  Ba  Ba5  1  0.26038800  0.03467400  0.59251300  1
  Ba  Ba6  1  0.73961200  0.03467400  0.09251300  1
  Ba  Ba7  1  0.26038800  0.96532600  0.90748700  1
  Ba  Ba8  1  0.72691200  0.00000000  0.75000000  1
  Ba  Ba9  1  0.27308800  0.00000000  0.25000000  1
  Ba  Ba10  1  0.66332200  0.50000000  0.75000000  1
  Ba  Ba11  1  0.33667800  0.50000000  0.25000000  1
  Pr  Pr12  1  0.74660500  0.75421000  0.59030000  1
  Pr  Pr13  1  0.25339500  0.24579000  0.40970000  1
  Pr  Pr14  1  0.74660500  0.24579000  0.90970000  1
  Pr  Pr15  1  0.25339500  0.75421000  0.09030000  1
  Ga  Ga16  1  0.75293800  0.75365300  0.93865100  1
  Ga  Ga17  1  0.24706200  0.24634700  0.06134900  1
  Ga  Ga18  1  0.75293800  0.24634700  0.56134900  1
  Ga  Ga19  1  0.24706200  0.75365300  0.43865100  1
  Ga  Ga20  1  0.77842600  0.77160400  0.23656000  1
  Ga  Ga21  1  0.22157400  0.22839600  0.76344000  1
  Ga  Ga22  1  0.77842600  0.22839600  0.26344000  1
  Ga  Ga23  1  0.22157400  0.77160400  0.73656000  1
  O  O24  1  0.21021900  0.00000000  0.75000000  1
  O  O25  1  0.78978100  0.00000000  0.25000000  1
  O  O26  1  0.49665700  0.76595700  0.49673900  1
  O  O27  1  0.50334300  0.23404300  0.50326100  1
  O  O28  1  0.49665700  0.23404300  0.00326100  1
  O  O29  1  0.50334300  0.76595700  0.99673900  1
  O  O30  1  0.76251400  0.94851400  0.88796000  1
  O  O31  1  0.23748600  0.05148600  0.11204000  1
  O  O32  1  0.76251400  0.05148600  0.61204000  1
  O  O33  1  0.23748600  0.94851400  0.38796000  1
  O  O34  1  0.00237800  0.76300700  0.49963900  1
  O  O35  1  0.99762200  0.23699300  0.50036100  1
  O  O36  1  0.00237800  0.23699300  0.00036100  1
  O  O37  1  0.99762200  0.76300700  0.99963900  1
  O  O38  1  0.32472700  0.69418500  0.82037300  1
  O  O39  1  0.67527300  0.30581500  0.17962700  1
  O  O40  1  0.32472700  0.30581500  0.67962700  1
  O  O41  1  0.67527300  0.69418500  0.32037300  1
  O  O42  1  0.43475700  0.74434000  0.66527100  1
  O  O43  1  0.56524300  0.25566000  0.33472900  1
  O  O44  1  0.43475700  0.25566000  0.83472900  1
  O  O45  1  0.56524300  0.74434000  0.16527100  1
  O  O46  1  0.94983800  0.72550700  0.69812300  1
  O  O47  1  0.05016200  0.27449300  0.30187700  1
  O  O48  1  0.94983800  0.27449300  0.80187700  1
  O  O49  1  0.05016200  0.72550700  0.19812300  1
  O  O50  1  0.75890400  0.53750900  0.90457300  1
  O  O51  1  0.24109600  0.46249100  0.09542700  1
  O  O52  1  0.75890400  0.46249100  0.59542700  1
  O  O53  1  0.24109600  0.53750900  0.40457300  1
