# generated using pymatgen
data_DyVSb3
_symmetry_space_group_name_H-M   'P 1'
_cell_length_a   5.96559000
_cell_length_b   6.25535000
_cell_length_c   12.83522200
_cell_angle_alpha   90.00000000
_cell_angle_beta   90.00000000
_cell_angle_gamma   90.00000000
_symmetry_Int_Tables_number   1
_chemical_formula_structural   DyVSb3
_chemical_formula_sum   'Dy4 V4 Sb12'
_cell_volume   478.97009781
_cell_formula_units_Z   4
loop_
 _symmetry_equiv_pos_site_id
 _symmetry_equiv_pos_as_xyz
  1  'x, y, z'
loop_
 _atom_site_type_symbol
 _atom_site_label
 _atom_site_symmetry_multiplicity
 _atom_site_fract_x
 _atom_site_fract_y
 _atom_site_fract_z
 _atom_site_occupancy
  Dy  Dy0  1  0.75000000  0.49625900  0.31047700  1
  Dy  Dy1  1  0.25000000  0.50374100  0.68952300  1
  Dy  Dy2  1  0.25000000  0.00374100  0.31047700  1
  Dy  Dy3  1  0.75000000  0.99625900  0.68952300  1
  V  V4  1  0.50000000  0.25000000  0.90018800  1
  V  V5  1  0.00000000  0.75000000  0.09981200  1
  V  V6  1  0.50000000  0.75000000  0.09981200  1
  V  V7  1  0.00000000  0.25000000  0.90018800  1
  Sb  Sb8  1  0.75000000  0.39437200  0.06603800  1
  Sb  Sb9  1  0.25000000  0.60562800  0.93396200  1
  Sb  Sb10  1  0.25000000  0.10562800  0.06603800  1
  Sb  Sb11  1  0.75000000  0.89437200  0.93396200  1
  Sb  Sb12  1  0.75000000  0.00549800  0.22718400  1
  Sb  Sb13  1  0.25000000  0.99450200  0.77281600  1
  Sb  Sb14  1  0.25000000  0.49450200  0.22718400  1
  Sb  Sb15  1  0.75000000  0.50549800  0.77281600  1
  Sb  Sb16  1  0.50000000  0.25000000  0.50178600  1
  Sb  Sb17  1  0.00000000  0.75000000  0.49821400  1
  Sb  Sb18  1  0.50000000  0.75000000  0.49821400  1
  Sb  Sb19  1  0.00000000  0.25000000  0.50178600  1
