# generated using pymatgen
data_Ba6Lu2Ga4O15
_symmetry_space_group_name_H-M   'P 1'
_cell_length_a   5.97601900
_cell_length_b   7.99899200
_cell_length_c   18.48124779
_cell_angle_alpha   88.62020115
_cell_angle_beta   90.00000000
_cell_angle_gamma   90.00000000
_symmetry_Int_Tables_number   1
_chemical_formula_structural   Ba6Lu2Ga4O15
_chemical_formula_sum   'Ba12 Lu4 Ga8 O30'
_cell_volume   883.18681409
_cell_formula_units_Z   2
loop_
 _symmetry_equiv_pos_site_id
 _symmetry_equiv_pos_as_xyz
  1  'x, y, z'
loop_
 _atom_site_type_symbol
 _atom_site_label
 _atom_site_symmetry_multiplicity
 _atom_site_fract_x
 _atom_site_fract_y
 _atom_site_fract_z
 _atom_site_occupancy
  Ba  Ba0  1  0.75580600  0.49764400  0.07826100  1
  Ba  Ba1  1  0.24419400  0.50235600  0.92173900  1
  Ba  Ba2  1  0.75580600  0.50235600  0.42173900  1
  Ba  Ba3  1  0.24419400  0.49764400  0.57826100  1
  Ba  Ba4  1  0.74665000  0.97353900  0.08887000  1
  Ba  Ba5  1  0.25335000  0.02646100  0.91113000  1
  Ba  Ba6  1  0.74665000  0.02646100  0.41113000  1
  Ba  Ba7  1  0.25335000  0.97353900  0.58887000  1
  Ba  Ba8  1  0.71783300  0.00000000  0.75000000  1
  Ba  Ba9  1  0.28216700  0.00000000  0.25000000  1
  Ba  Ba10  1  0.67113500  0.50000000  0.75000000  1
  Ba  Ba11  1  0.32886500  0.50000000  0.25000000  1
  Lu  Lu12  1  0.74167200  0.75237400  0.91018900  1
  Lu  Lu13  1  0.25832800  0.24762600  0.08981100  1
  Lu  Lu14  1  0.74167200  0.24762600  0.58981100  1
  Lu  Lu15  1  0.25832800  0.75237400  0.41018900  1
  Ga  Ga16  1  0.75464600  0.75292600  0.55794300  1
  Ga  Ga17  1  0.24535400  0.24707400  0.44205700  1
  Ga  Ga18  1  0.75464600  0.24707400  0.94205700  1
  Ga  Ga19  1  0.24535400  0.75292600  0.05794300  1
  Ga  Ga20  1  0.77600700  0.77007000  0.26702100  1
  Ga  Ga21  1  0.22399300  0.22993000  0.73297900  1
  Ga  Ga22  1  0.77600700  0.22993000  0.23297900  1
  Ga  Ga23  1  0.22399300  0.77007000  0.76702100  1
  O  O24  1  0.20970900  0.00000000  0.75000000  1
  O  O25  1  0.79029100  0.00000000  0.25000000  1
  O  O26  1  0.49527500  0.76352100  0.99596900  1
  O  O27  1  0.50472500  0.23647900  0.00403100  1
  O  O28  1  0.49527500  0.23647900  0.50403100  1
  O  O29  1  0.50472500  0.76352100  0.49596900  1
  O  O30  1  0.75755900  0.95762600  0.60555900  1
  O  O31  1  0.24244100  0.04237400  0.39444100  1
  O  O32  1  0.75755900  0.04237400  0.89444100  1
  O  O33  1  0.24244100  0.95762600  0.10555900  1
  O  O34  1  0.99199500  0.76236200  0.99558900  1
  O  O35  1  0.00800500  0.23763800  0.00441100  1
  O  O36  1  0.99199500  0.23763800  0.50441100  1
  O  O37  1  0.00800500  0.76236200  0.49558900  1
  O  O38  1  0.32095700  0.68716900  0.68211500  1
  O  O39  1  0.67904300  0.31283100  0.31788500  1
  O  O40  1  0.32095700  0.31283100  0.81788500  1
  O  O41  1  0.67904300  0.68716900  0.18211500  1
  O  O42  1  0.45583700  0.74932300  0.83583900  1
  O  O43  1  0.54416300  0.25067700  0.16416100  1
  O  O44  1  0.45583700  0.25067700  0.66416100  1
  O  O45  1  0.54416300  0.74932300  0.33583900  1
  O  O46  1  0.95264900  0.73130800  0.81244500  1
  O  O47  1  0.04735100  0.26869200  0.18755500  1
  O  O48  1  0.95264900  0.26869200  0.68755500  1
  O  O49  1  0.04735100  0.73130800  0.31244500  1
  O  O50  1  0.75572200  0.53073500  0.59259400  1
  O  O51  1  0.24427800  0.46926500  0.40740600  1
  O  O52  1  0.75572200  0.46926500  0.90740600  1
  O  O53  1  0.24427800  0.53073500  0.09259400  1
