# generated using pymatgen
data_NdCoSi3
_symmetry_space_group_name_H-M   'P 1'
_cell_length_a   5.65043383
_cell_length_b   5.65043383
_cell_length_c   5.65043383
_cell_angle_alpha   137.08564733
_cell_angle_beta   137.08564733
_cell_angle_gamma   62.30629872
_symmetry_Int_Tables_number   1
_chemical_formula_structural   NdCoSi3
_chemical_formula_sum   'Nd1 Co1 Si3'
_cell_volume   82.63657718
_cell_formula_units_Z   1
loop_
 _symmetry_equiv_pos_site_id
 _symmetry_equiv_pos_as_xyz
  1  'x, y, z'
loop_
 _atom_site_type_symbol
 _atom_site_label
 _atom_site_symmetry_multiplicity
 _atom_site_fract_x
 _atom_site_fract_y
 _atom_site_fract_z
 _atom_site_occupancy
  Nd  Nd0  1  0.00330200  0.00330200  0.00000000  1
  Co  Co1  1  0.66262100  0.66262100  0.00000000  1
  Si  Si2  1  0.42768100  0.42768100  0.00000000  1
  Si  Si3  1  0.26069800  0.76069800  0.50000000  1
  Si  Si4  1  0.76069800  0.26069800  0.50000000  1
