# generated using pymatgen
data_La6Zn4Pd13
_symmetry_space_group_name_H-M   'P 1'
_cell_length_a   8.47451064
_cell_length_b   8.47451064
_cell_length_c   8.47451064
_cell_angle_alpha   109.47122063
_cell_angle_beta   109.47122063
_cell_angle_gamma   109.47122063
_symmetry_Int_Tables_number   1
_chemical_formula_structural   La6Zn4Pd13
_chemical_formula_sum   'La6 Zn4 Pd13'
_cell_volume   468.51337911
_cell_formula_units_Z   1
loop_
 _symmetry_equiv_pos_site_id
 _symmetry_equiv_pos_as_xyz
  1  'x, y, z'
loop_
 _atom_site_type_symbol
 _atom_site_label
 _atom_site_symmetry_multiplicity
 _atom_site_fract_x
 _atom_site_fract_y
 _atom_site_fract_z
 _atom_site_occupancy
  La  La0  1  0.69567400  0.69567400  0.00000000  1
  La  La1  1  0.30432600  0.00000000  0.30432600  1
  La  La2  1  0.00000000  0.30432600  0.30432600  1
  La  La3  1  0.30432600  0.30432600  0.00000000  1
  La  La4  1  0.69567400  0.00000000  0.69567400  1
  La  La5  1  0.00000000  0.69567400  0.69567400  1
  Zn  Zn6  1  0.00000000  0.00000000  0.50000000  1
  Zn  Zn7  1  0.00000000  0.50000000  0.00000000  1
  Zn  Zn8  1  0.50000000  0.00000000  0.00000000  1
  Zn  Zn9  1  0.50000000  0.50000000  0.50000000  1
  Pd  Pd10  1  0.32995000  0.32995000  0.65990100  1
  Pd  Pd11  1  0.67005000  0.00000000  0.32995000  1
  Pd  Pd12  1  0.00000000  0.67005000  0.32995000  1
  Pd  Pd13  1  0.67005000  0.32995000  0.00000000  1
  Pd  Pd14  1  0.32995000  0.65990100  0.32995000  1
  Pd  Pd15  1  0.00000000  0.32995000  0.67005000  1
  Pd  Pd16  1  0.32995000  0.67005000  0.00000000  1
  Pd  Pd17  1  0.32995000  0.00000000  0.67005000  1
  Pd  Pd18  1  0.65990100  0.32995000  0.32995000  1
  Pd  Pd19  1  0.67005000  0.67005000  0.34009900  1
  Pd  Pd20  1  0.67005000  0.34009900  0.67005000  1
  Pd  Pd21  1  0.34009900  0.67005000  0.67005000  1
  Pd  Pd22  1  0.00000000  0.00000000  0.00000000  1
