# generated using pymatgen
data_EuMg149
_symmetry_space_group_name_H-M   'P 1'
_cell_length_a   15.99243032
_cell_length_b   15.99243368
_cell_length_c   15.66774057
_cell_angle_alpha   90.00000000
_cell_angle_beta   90.00000000
_cell_angle_gamma   120.00001312
_symmetry_Int_Tables_number   1
_chemical_formula_structural   EuMg149
_chemical_formula_sum   'Eu1 Mg149'
_cell_volume   3470.29161963
_cell_formula_units_Z   1
loop_
 _symmetry_equiv_pos_site_id
 _symmetry_equiv_pos_as_xyz
  1  'x, y, z'
loop_
 _atom_site_type_symbol
 _atom_site_label
 _atom_site_symmetry_multiplicity
 _atom_site_fract_x
 _atom_site_fract_y
 _atom_site_fract_z
 _atom_site_occupancy
  Eu  Eu0  1  0.00000000  0.00000000  -0.00000000  1
  Mg  Mg1  1  0.60017438  0.20034976  -0.00000000  1
  Mg  Mg2  1  0.40140650  0.20070325  -0.00000000  1
  Mg  Mg3  1  0.79929675  0.20070325  -0.00000000  1
  Mg  Mg4  1  0.20492166  0.20820471  -0.00000000  1
  Mg  Mg5  1  0.00328305  0.20820571  -0.00000000  1
  Mg  Mg6  1  0.60017438  0.39982462  -0.00000000  1
  Mg  Mg7  1  0.79965024  0.39982462  -0.00000000  1
  Mg  Mg8  1  0.00030541  0.40140329  -0.00000000  1
  Mg  Mg9  1  0.40109788  0.40140329  -0.00000000  1
  Mg  Mg10  1  0.20191990  0.40383980  -0.00000000  1
  Mg  Mg11  1  0.79929675  0.59859350  -0.00000000  1
  Mg  Mg12  1  0.00030541  0.59890312  -0.00000000  1
  Mg  Mg13  1  0.59859771  0.59890312  -0.00000000  1
  Mg  Mg14  1  0.20079857  0.60039979  -0.00000000  1
  Mg  Mg15  1  0.39960021  0.60039979  -0.00000000  1
  Mg  Mg16  1  0.79179529  0.79507834  -0.00000000  1
  Mg  Mg17  1  0.00328305  0.79507834  -0.00000000  1
  Mg  Mg18  1  0.20191990  0.79808010  -0.00000000  1
  Mg  Mg19  1  0.59616020  0.79808010  -0.00000000  1
  Mg  Mg20  1  0.39960021  0.79920043  -0.00000000  1
  Mg  Mg21  1  0.20492166  0.99671595  -0.00000000  1
  Mg  Mg22  1  0.79179529  0.99671695  -0.00000000  1
  Mg  Mg23  1  0.59859771  0.99969459  -0.00000000  1
  Mg  Mg24  1  0.40109788  0.99969459  -0.00000000  1
  Mg  Mg25  1  0.86854522  0.13145478  0.16452441  1
  Mg  Mg26  1  0.26290857  0.13145478  0.16452441  1
  Mg  Mg27  1  0.86854522  0.73709143  0.16452441  1
  Mg  Mg28  1  0.66666600  0.33333300  0.16620712  1
  Mg  Mg29  1  0.46551142  0.13289995  0.16655848  1
  Mg  Mg30  1  0.66738853  0.13290095  0.16655848  1
  Mg  Mg31  1  0.46551142  0.33261147  0.16655848  1
  Mg  Mg32  1  0.86710005  0.33261147  0.16655848  1
  Mg  Mg33  1  0.66738853  0.53448858  0.16655848  1
  Mg  Mg34  1  0.86710005  0.53448858  0.16655848  1
  Mg  Mg35  1  0.26715068  0.53430236  0.16736032  1
  Mg  Mg36  1  0.26715068  0.73284832  0.16736032  1
  Mg  Mg37  1  0.46569664  0.73284832  0.16736032  1
  Mg  Mg38  1  0.46664453  0.53335547  0.16744819  1
  Mg  Mg39  1  0.06671094  0.53335547  0.16744819  1
  Mg  Mg40  1  0.46664453  0.93328806  0.16744819  1
  Mg  Mg41  1  0.26817644  0.33613801  0.16797538  1
  Mg  Mg42  1  0.06796157  0.33613801  0.16797538  1
  Mg  Mg43  1  0.06796157  0.73182356  0.16797538  1
  Mg  Mg44  1  0.66386199  0.73182356  0.16797538  1
  Mg  Mg45  1  0.26817644  0.93203843  0.16797538  1
  Mg  Mg46  1  0.66386199  0.93203843  0.16797538  1
  Mg  Mg47  1  0.06899435  0.13798970  0.17214794  1
  Mg  Mg48  1  0.86200930  0.93100465  0.17214794  1
  Mg  Mg49  1  0.06899435  0.93100465  0.17214794  1
  Mg  Mg50  1  0.80010327  0.19989573  0.33274417  1
  Mg  Mg51  1  0.39979246  0.19989673  0.33274417  1
  Mg  Mg52  1  0.80010327  0.60020754  0.33274417  1
  Mg  Mg53  1  0.60006072  0.20012244  0.33295047  1
  Mg  Mg54  1  0.60006072  0.39993828  0.33295047  1
  Mg  Mg55  1  0.79987756  0.39993928  0.33295047  1
  Mg  Mg56  1  0.19995270  0.59997635  0.33374637  1
  Mg  Mg57  1  0.40002365  0.59997635  0.33374637  1
  Mg  Mg58  1  0.40002365  0.80004830  0.33374637  1
  Mg  Mg59  1  0.40060710  0.00018804  0.33386341  1
  Mg  Mg60  1  0.59958094  0.00018904  0.33386341  1
  Mg  Mg61  1  0.40060710  0.40041906  0.33386341  1
  Mg  Mg62  1  0.99981196  0.40041906  0.33386341  1
  Mg  Mg63  1  0.59958094  0.59939290  0.33386341  1
  Mg  Mg64  1  0.99981196  0.59939290  0.33386341  1
  Mg  Mg65  1  0.20022187  0.40044374  0.33409057  1
  Mg  Mg66  1  0.20022187  0.79977713  0.33409057  1
  Mg  Mg67  1  0.59955526  0.79977813  0.33409057  1
  Mg  Mg68  1  0.00000000  0.00000000  0.33427628  1
  Mg  Mg69  1  0.20114285  0.00024703  0.33437271  1
  Mg  Mg70  1  0.79910418  0.00024803  0.33437271  1
  Mg  Mg71  1  0.20114285  0.20089582  0.33437271  1
  Mg  Mg72  1  0.99975297  0.20089582  0.33437271  1
  Mg  Mg73  1  0.99975297  0.79885615  0.33437271  1
  Mg  Mg74  1  0.79910418  0.79885715  0.33437271  1
  Mg  Mg75  1  0.86638797  0.13361203  0.50000000  1
  Mg  Mg76  1  0.26722406  0.13361203  0.50000000  1
  Mg  Mg77  1  0.06678794  0.13357689  0.50000000  1
  Mg  Mg78  1  0.66704338  0.13406738  0.50000000  1
  Mg  Mg79  1  0.46702400  0.13406738  0.50000000  1
  Mg  Mg80  1  0.86593262  0.33295662  0.50000000  1
  Mg  Mg81  1  0.46702400  0.33295662  0.50000000  1
  Mg  Mg82  1  0.66666600  0.33333300  0.50000000  1
  Mg  Mg83  1  0.06696466  0.33385604  0.50000000  1
  Mg  Mg84  1  0.26689138  0.33385604  0.50000000  1
  Mg  Mg85  1  0.66704338  0.53297600  0.50000000  1
  Mg  Mg86  1  0.86593262  0.53297600  0.50000000  1
  Mg  Mg87  1  0.46674170  0.53325730  0.50000000  1
  Mg  Mg88  1  0.06651560  0.53325830  0.50000000  1
  Mg  Mg89  1  0.26684631  0.53369161  0.50000000  1
  Mg  Mg90  1  0.86638797  0.73277594  0.50000000  1
  Mg  Mg91  1  0.06696466  0.73310862  0.50000000  1
  Mg  Mg92  1  0.66614396  0.73310862  0.50000000  1
  Mg  Mg93  1  0.46630839  0.73315469  0.50000000  1
  Mg  Mg94  1  0.26684631  0.73315469  0.50000000  1
  Mg  Mg95  1  0.26689138  0.93303534  0.50000000  1
  Mg  Mg96  1  0.66614396  0.93303534  0.50000000  1
  Mg  Mg97  1  0.06678794  0.93321106  0.50000000  1
  Mg  Mg98  1  0.86642311  0.93321206  0.50000000  1
  Mg  Mg99  1  0.46674170  0.93348440  0.50000000  1
  Mg  Mg100  1  0.20114285  0.00024703  0.66562729  1
  Mg  Mg101  1  0.79910418  0.00024803  0.66562729  1
  Mg  Mg102  1  0.20114285  0.20089582  0.66562729  1
  Mg  Mg103  1  0.99975297  0.20089582  0.66562729  1
  Mg  Mg104  1  0.99975297  0.79885615  0.66562729  1
  Mg  Mg105  1  0.79910418  0.79885715  0.66562729  1
  Mg  Mg106  1  0.00000000  0.00000000  0.66572372  1
  Mg  Mg107  1  0.20022187  0.40044374  0.66591043  1
  Mg  Mg108  1  0.20022187  0.79977713  0.66591043  1
  Mg  Mg109  1  0.59955526  0.79977813  0.66591043  1
  Mg  Mg110  1  0.40060710  0.00018804  0.66613759  1
  Mg  Mg111  1  0.59958094  0.00018904  0.66613759  1
  Mg  Mg112  1  0.40060710  0.40041906  0.66613759  1
  Mg  Mg113  1  0.99981196  0.40041906  0.66613759  1
  Mg  Mg114  1  0.59958094  0.59939290  0.66613759  1
  Mg  Mg115  1  0.99981196  0.59939290  0.66613759  1
  Mg  Mg116  1  0.19995270  0.59997635  0.66625363  1
  Mg  Mg117  1  0.40002365  0.59997635  0.66625363  1
  Mg  Mg118  1  0.40002365  0.80004830  0.66625363  1
  Mg  Mg119  1  0.60006072  0.20012244  0.66704953  1
  Mg  Mg120  1  0.60006072  0.39993828  0.66704953  1
  Mg  Mg121  1  0.79987756  0.39993928  0.66704953  1
  Mg  Mg122  1  0.80010327  0.19989573  0.66725583  1
  Mg  Mg123  1  0.39979246  0.19989673  0.66725583  1
  Mg  Mg124  1  0.80010327  0.60020754  0.66725583  1
  Mg  Mg125  1  0.06899435  0.13798970  0.82785206  1
  Mg  Mg126  1  0.86200930  0.93100465  0.82785206  1
  Mg  Mg127  1  0.06899435  0.93100465  0.82785206  1
  Mg  Mg128  1  0.26817644  0.33613801  0.83202462  1
  Mg  Mg129  1  0.06796157  0.33613801  0.83202462  1
  Mg  Mg130  1  0.06796157  0.73182356  0.83202462  1
  Mg  Mg131  1  0.66386199  0.73182356  0.83202462  1
  Mg  Mg132  1  0.26817644  0.93203843  0.83202462  1
  Mg  Mg133  1  0.66386199  0.93203843  0.83202462  1
  Mg  Mg134  1  0.46664453  0.53335547  0.83255281  1
  Mg  Mg135  1  0.06671094  0.53335547  0.83255281  1
  Mg  Mg136  1  0.46664453  0.93328806  0.83255281  1
  Mg  Mg137  1  0.26715068  0.53430236  0.83263968  1
  Mg  Mg138  1  0.26715068  0.73284832  0.83263968  1
  Mg  Mg139  1  0.46569664  0.73284832  0.83263968  1
  Mg  Mg140  1  0.46551142  0.13289995  0.83344152  1
  Mg  Mg141  1  0.66738853  0.13290095  0.83344152  1
  Mg  Mg142  1  0.46551142  0.33261147  0.83344152  1
  Mg  Mg143  1  0.86710005  0.33261147  0.83344152  1
  Mg  Mg144  1  0.66738853  0.53448858  0.83344152  1
  Mg  Mg145  1  0.86710005  0.53448858  0.83344152  1
  Mg  Mg146  1  0.66666600  0.33333300  0.83379288  1
  Mg  Mg147  1  0.86854522  0.13145478  0.83547559  1
  Mg  Mg148  1  0.26290857  0.13145478  0.83547559  1
  Mg  Mg149  1  0.86854522  0.73709143  0.83547559  1
