# generated using pymatgen
data_Rb7Th6F32
_symmetry_space_group_name_H-M   'P 1'
_cell_length_a   9.79813654
_cell_length_b   9.79627651
_cell_length_c   9.79314526
_cell_angle_alpha   106.59323141
_cell_angle_beta   106.66478350
_cell_angle_gamma   106.62464593
_symmetry_Int_Tables_number   1
_chemical_formula_structural   Rb7Th6F32
_chemical_formula_sum   'Rb7 Th6 F32'
_cell_volume   790.65747422
_cell_formula_units_Z   1
loop_
 _symmetry_equiv_pos_site_id
 _symmetry_equiv_pos_as_xyz
  1  'x, y, z'
loop_
 _atom_site_type_symbol
 _atom_site_label
 _atom_site_symmetry_multiplicity
 _atom_site_fract_x
 _atom_site_fract_y
 _atom_site_fract_z
 _atom_site_occupancy
  Rb  Rb0  1  0.92307000  0.78322700  0.31646500  1
  Rb  Rb1  1  0.78265800  0.31750700  0.92262700  1
  Rb  Rb2  1  0.31692600  0.92272200  0.78231700  1
  Rb  Rb3  1  0.07620300  0.21775200  0.68260200  1
  Rb  Rb4  1  0.21755100  0.68227200  0.07588700  1
  Rb  Rb5  1  0.68302300  0.07680700  0.21657000  1
  Rb  Rb6  1  0.00068900  0.00056200  0.00141000  1
  Th  Th7  1  0.38115700  0.13914700  0.45810200  1
  Th  Th8  1  0.13928900  0.45864200  0.38057800  1
  Th  Th9  1  0.45754400  0.38063800  0.13847500  1
  Th  Th10  1  0.61968100  0.86068300  0.54222300  1
  Th  Th11  1  0.86079700  0.54249200  0.61933000  1
  Th  Th12  1  0.54212700  0.61869400  0.85959400  1
  F  F13  1  0.21889100  0.02897600  0.55421900  1
  F  F14  1  0.02755900  0.55392200  0.21797100  1
  F  F15  1  0.55300000  0.21853600  0.02655700  1
  F  F16  1  0.78177100  0.97206800  0.44640100  1
  F  F17  1  0.97277600  0.44712900  0.78163400  1
  F  F18  1  0.44672400  0.78045300  0.97168800  1
  F  F19  1  0.17991500  0.94465000  0.24581300  1
  F  F20  1  0.94573700  0.24722600  0.17668700  1
  F  F21  1  0.24560900  0.17726000  0.94551900  1
  F  F22  1  0.82238700  0.05413700  0.75425000  1
  F  F23  1  0.05414000  0.75418000  0.82266100  1
  F  F24  1  0.75352800  0.82188100  0.05345600  1
  F  F25  1  0.47705900  0.94516200  0.35848500  1
  F  F26  1  0.94579100  0.35959900  0.47586600  1
  F  F27  1  0.35805100  0.47490000  0.94378600  1
  F  F28  1  0.52382000  0.05380500  0.64145800  1
  F  F29  1  0.05394900  0.64242800  0.52331300  1
  F  F30  1  0.64108700  0.52403200  0.05452900  1
  F  F31  1  0.54201500  0.65155700  0.29991300  1
  F  F32  1  0.65361600  0.29835200  0.54218100  1
  F  F33  1  0.29753500  0.54138100  0.65278500  1
  F  F34  1  0.45917500  0.34654100  0.70175400  1
  F  F35  1  0.34713400  0.70214700  0.45869700  1
  F  F36  1  0.70014800  0.45822400  0.34750600  1
  F  F37  1  0.76723500  0.58490100  0.82639300  1
  F  F38  1  0.58509800  0.82526700  0.76620900  1
  F  F39  1  0.82658300  0.76749800  0.58617400  1
  F  F40  1  0.23551400  0.41687200  0.17552600  1
  F  F41  1  0.41640800  0.17726500  0.23552000  1
  F  F42  1  0.17043400  0.22943500  0.40998000  1
  F  F43  1  0.59046400  0.58870000  0.58795900  1
  F  F44  1  0.40623100  0.41037200  0.41892900  1
