# generated using pymatgen
data_NiAg2Sn3S8
_symmetry_space_group_name_H-M   'P 1'
_cell_length_a   7.49347536
_cell_length_b   7.49347536
_cell_length_c   7.49347459
_cell_angle_alpha   61.42787442
_cell_angle_beta   61.42787442
_cell_angle_gamma   61.42787458
_symmetry_Int_Tables_number   1
_chemical_formula_structural   NiAg2Sn3S8
_chemical_formula_sum   'Ni1 Ag2 Sn3 S8'
_cell_volume   307.07413701
_cell_formula_units_Z   1
loop_
 _symmetry_equiv_pos_site_id
 _symmetry_equiv_pos_as_xyz
  1  'x, y, z'
loop_
 _atom_site_type_symbol
 _atom_site_label
 _atom_site_symmetry_multiplicity
 _atom_site_fract_x
 _atom_site_fract_y
 _atom_site_fract_z
 _atom_site_occupancy
  Ni  Ni0  1  0.50000000  0.50000000  0.50000000  1
  Ag  Ag1  1  0.89381800  0.89381800  0.89381800  1
  Ag  Ag2  1  0.10618200  0.10618200  0.10618200  1
  Sn  Sn3  1  0.50000000  0.00000000  0.50000000  1
  Sn  Sn4  1  0.50000000  0.50000000  0.00000000  1
  Sn  Sn5  1  0.00000000  0.50000000  0.50000000  1
  S  S6  1  0.27116100  0.71402400  0.27116100  1
  S  S7  1  0.25277900  0.25277900  0.25277900  1
  S  S8  1  0.28597600  0.72883900  0.72883900  1
  S  S9  1  0.72883900  0.72883900  0.28597600  1
  S  S10  1  0.72883900  0.28597600  0.72883900  1
  S  S11  1  0.74722100  0.74722100  0.74722100  1
  S  S12  1  0.71402400  0.27116100  0.27116100  1
  S  S13  1  0.27116100  0.27116100  0.71402400  1
