# generated using pymatgen
data_La2US5
_symmetry_space_group_name_H-M   'P 1'
_cell_length_a   7.56919600
_cell_length_b   8.20316500
_cell_length_c   11.99925100
_cell_angle_alpha   90.00000000
_cell_angle_beta   90.00000000
_cell_angle_gamma   90.00000000
_symmetry_Int_Tables_number   1
_chemical_formula_structural   La2US5
_chemical_formula_sum   'La8 U4 S20'
_cell_volume   745.04985803
_cell_formula_units_Z   4
loop_
 _symmetry_equiv_pos_site_id
 _symmetry_equiv_pos_as_xyz
  1  'x, y, z'
loop_
 _atom_site_type_symbol
 _atom_site_label
 _atom_site_symmetry_multiplicity
 _atom_site_fract_x
 _atom_site_fract_y
 _atom_site_fract_z
 _atom_site_occupancy
  La  La0  1  0.52450900  0.50063900  0.32347400  1
  La  La1  1  0.97549100  0.99936100  0.82347400  1
  La  La2  1  0.47549100  0.00063900  0.67652600  1
  La  La3  1  0.02450900  0.49936100  0.17652600  1
  La  La4  1  0.47549100  0.49936100  0.67652600  1
  La  La5  1  0.02450900  0.00063900  0.17652600  1
  La  La6  1  0.52450900  0.99936100  0.32347400  1
  La  La7  1  0.97549100  0.50063900  0.82347400  1
  U  U8  1  0.07084800  0.75000000  0.49090600  1
  U  U9  1  0.42915200  0.75000000  0.99090600  1
  U  U10  1  0.92915200  0.25000000  0.50909400  1
  U  U11  1  0.57084800  0.25000000  0.00909400  1
  S  S12  1  0.84151300  0.95847800  0.59310300  1
  S  S13  1  0.65848700  0.54152200  0.09310300  1
  S  S14  1  0.15848700  0.45847800  0.40689700  1
  S  S15  1  0.34151300  0.04152200  0.90689700  1
  S  S16  1  0.15848700  0.04152200  0.40689700  1
  S  S17  1  0.34151300  0.45847800  0.90689700  1
  S  S18  1  0.84151300  0.54152200  0.59310300  1
  S  S19  1  0.65848700  0.95847800  0.09310300  1
  S  S20  1  0.83253600  0.75000000  0.31479500  1
  S  S21  1  0.66746400  0.75000000  0.81479500  1
  S  S22  1  0.16746400  0.25000000  0.68520500  1
  S  S23  1  0.33253600  0.25000000  0.18520500  1
  S  S24  1  0.45351300  0.75000000  0.49854800  1
  S  S25  1  0.04648700  0.75000000  0.99854800  1
  S  S26  1  0.54648700  0.25000000  0.50145200  1
  S  S27  1  0.95351300  0.25000000  0.00145200  1
  S  S28  1  0.19604100  0.75000000  0.71358700  1
  S  S29  1  0.30395900  0.75000000  0.21358700  1
  S  S30  1  0.80395900  0.25000000  0.28641300  1
  S  S31  1  0.69604100  0.25000000  0.78641300  1
