# generated using pymatgen
data_Ta3Os2
_symmetry_space_group_name_H-M   'P 1'
_cell_length_a   9.93071887
_cell_length_b   9.93071887
_cell_length_c   5.07445700
_cell_angle_alpha   90.00000000
_cell_angle_beta   90.00000000
_cell_angle_gamma   90.02383354
_symmetry_Int_Tables_number   1
_chemical_formula_structural   Ta3Os2
_chemical_formula_sum   'Ta18 Os12'
_cell_volume   500.43873071
_cell_formula_units_Z   6
loop_
 _symmetry_equiv_pos_site_id
 _symmetry_equiv_pos_as_xyz
  1  'x, y, z'
loop_
 _atom_site_type_symbol
 _atom_site_label
 _atom_site_symmetry_multiplicity
 _atom_site_fract_x
 _atom_site_fract_y
 _atom_site_fract_z
 _atom_site_occupancy
  Ta  Ta0  1  0.10265700  0.10265700  0.50179000  1
  Ta  Ta1  1  0.89734300  0.89734300  0.50179000  1
  Ta  Ta2  1  0.60100200  0.39899800  0.99718300  1
  Ta  Ta3  1  0.39899800  0.60100200  0.99718300  1
  Ta  Ta4  1  0.03735500  0.37060700  0.50070400  1
  Ta  Ta5  1  0.96264500  0.62939300  0.50070400  1
  Ta  Ta6  1  0.53467900  0.12965500  0.00119300  1
  Ta  Ta7  1  0.46532100  0.87034500  0.00119300  1
  Ta  Ta8  1  0.62939300  0.96264500  0.50070400  1
  Ta  Ta9  1  0.37060700  0.03735500  0.50070400  1
  Ta  Ta10  1  0.87034500  0.46532100  0.00119300  1
  Ta  Ta11  1  0.12965500  0.53467900  0.00119300  1
  Ta  Ta12  1  0.81884900  0.18115100  0.74953000  1
  Ta  Ta13  1  0.18115100  0.81884900  0.74953000  1
  Ta  Ta14  1  0.68134500  0.68134500  0.75190300  1
  Ta  Ta15  1  0.31865500  0.31865500  0.75190300  1
  Ta  Ta16  1  0.18162000  0.81838000  0.24999200  1
  Ta  Ta17  1  0.81838000  0.18162000  0.24999200  1
  Os  Os18  1  0.50000000  0.50000000  0.48359300  1
  Os  Os19  1  0.00000000  0.00000000  0.00221200  1
  Os  Os20  1  0.75654800  0.43504400  0.50064300  1
  Os  Os21  1  0.24345200  0.56495600  0.50064300  1
  Os  Os22  1  0.25853400  0.06979700  0.00055300  1
  Os  Os23  1  0.74146600  0.93020300  0.00055300  1
  Os  Os24  1  0.56495600  0.24345200  0.50064300  1
  Os  Os25  1  0.43504400  0.75654800  0.50064300  1
  Os  Os26  1  0.93020300  0.74146600  0.00055300  1
  Os  Os27  1  0.06979700  0.25853400  0.00055300  1
  Os  Os28  1  0.31835300  0.31835300  0.25051300  1
  Os  Os29  1  0.68164700  0.68164700  0.25051300  1
