# generated using pymatgen
data_K3Pr(PO4)2
_symmetry_space_group_name_H-M   'P 1'
_cell_length_a   5.72290300
_cell_length_b   7.56797300
_cell_length_c   9.67745906
_cell_angle_alpha   89.10636489
_cell_angle_beta   90.00000000
_cell_angle_gamma   90.00000000
_symmetry_Int_Tables_number   1
_chemical_formula_structural   K3Pr(PO4)2
_chemical_formula_sum   'K6 Pr2 P4 O16'
_cell_volume   419.08727627
_cell_formula_units_Z   2
loop_
 _symmetry_equiv_pos_site_id
 _symmetry_equiv_pos_as_xyz
  1  'x, y, z'
loop_
 _atom_site_type_symbol
 _atom_site_label
 _atom_site_symmetry_multiplicity
 _atom_site_fract_x
 _atom_site_fract_y
 _atom_site_fract_z
 _atom_site_occupancy
  K  K0  1  0.25000000  0.20405300  0.91702600  1
  K  K1  1  0.75000000  0.79594700  0.08297400  1
  K  K2  1  0.25000000  0.63885900  0.59398000  1
  K  K3  1  0.75000000  0.36114100  0.40602000  1
  K  K4  1  0.25000000  0.49239700  0.19089300  1
  K  K5  1  0.75000000  0.50760300  0.80910700  1
  Pr  Pr6  1  0.25000000  0.99322200  0.29247100  1
  Pr  Pr7  1  0.75000000  0.00677800  0.70752900  1
  P  P8  1  0.25000000  0.19812400  0.57429500  1
  P  P9  1  0.75000000  0.80187600  0.42570500  1
  P  P10  1  0.75000000  0.23524000  0.08562300  1
  P  P11  1  0.25000000  0.76476000  0.91437700  1
  O  O12  1  0.25000000  0.99477000  0.55540100  1
  O  O13  1  0.75000000  0.00523000  0.44459900  1
  O  O14  1  0.25000000  0.28358500  0.42618000  1
  O  O15  1  0.75000000  0.71641500  0.57382000  1
  O  O16  1  0.02741300  0.25542300  0.65465800  1
  O  O17  1  0.52741300  0.74457700  0.34534200  1
  O  O18  1  0.97258700  0.74457700  0.34534200  1
  O  O19  1  0.47258700  0.25542300  0.65465800  1
  O  O20  1  0.97204200  0.15621300  0.15795700  1
  O  O21  1  0.47204200  0.84378700  0.84204300  1
  O  O22  1  0.02795800  0.84378700  0.84204300  1
  O  O23  1  0.52795800  0.15621300  0.15795700  1
  O  O24  1  0.75000000  0.18034200  0.93073900  1
  O  O25  1  0.25000000  0.81965800  0.06926100  1
  O  O26  1  0.75000000  0.43710100  0.09974300  1
  O  O27  1  0.25000000  0.56289900  0.90025700  1
