# generated using pymatgen
data_Gd2Cl3
_symmetry_space_group_name_H-M   'P 1'
_cell_length_a   7.88546300
_cell_length_b   7.88546300
_cell_length_c   10.17197073
_cell_angle_alpha   63.73057507
_cell_angle_beta   63.73057507
_cell_angle_gamma   28.77320625
_symmetry_Int_Tables_number   1
_chemical_formula_structural   Gd2Cl3
_chemical_formula_sum   'Gd4 Cl6'
_cell_volume   270.80979116
_cell_formula_units_Z   2
loop_
 _symmetry_equiv_pos_site_id
 _symmetry_equiv_pos_as_xyz
  1  'x, y, z'
loop_
 _atom_site_type_symbol
 _atom_site_label
 _atom_site_symmetry_multiplicity
 _atom_site_fract_x
 _atom_site_fract_y
 _atom_site_fract_z
 _atom_site_occupancy
  Gd  Gd0  1  0.45076600  0.45076600  0.34718500  1
  Gd  Gd1  1  0.72369600  0.72369600  0.75741900  1
  Gd  Gd2  1  0.99912400  0.99912400  0.99699700  1
  Gd  Gd3  1  0.17880900  0.17880900  0.10526700  1
  Cl  Cl4  1  0.53975900  0.53975900  0.78304600  1
  Cl  Cl5  1  0.63528100  0.63528100  0.31918500  1
  Cl  Cl6  1  0.92787400  0.92787400  0.56391000  1
  Cl  Cl7  1  0.24532600  0.24532600  0.53751900  1
  Cl  Cl8  1  0.36147000  0.36147000  0.16670500  1
  Cl  Cl9  1  0.81909200  0.81909200  0.93543300  1
