# generated using pymatgen
data_Tb7Rh3
_symmetry_space_group_name_H-M   'P 1'
_cell_length_a   9.85738850
_cell_length_b   9.85738850
_cell_length_c   6.21569000
_cell_angle_alpha   90.00000000
_cell_angle_beta   90.00000000
_cell_angle_gamma   120.00000335
_symmetry_Int_Tables_number   1
_chemical_formula_structural   Tb7Rh3
_chemical_formula_sum   'Tb14 Rh6'
_cell_volume   523.05060658
_cell_formula_units_Z   2
loop_
 _symmetry_equiv_pos_site_id
 _symmetry_equiv_pos_as_xyz
  1  'x, y, z'
loop_
 _atom_site_type_symbol
 _atom_site_label
 _atom_site_symmetry_multiplicity
 _atom_site_fract_x
 _atom_site_fract_y
 _atom_site_fract_z
 _atom_site_occupancy
  Tb  Tb0  1  0.33333300  0.66666700  0.45824600  1
  Tb  Tb1  1  0.66666700  0.33333300  0.95824600  1
  Tb  Tb2  1  0.12402400  0.87597600  0.25436300  1
  Tb  Tb3  1  0.75195200  0.87597600  0.25436300  1
  Tb  Tb4  1  0.12402400  0.24804800  0.25436300  1
  Tb  Tb5  1  0.87597600  0.12402400  0.75436300  1
  Tb  Tb6  1  0.24804800  0.12402400  0.75436300  1
  Tb  Tb7  1  0.87597600  0.75195200  0.75436300  1
  Tb  Tb8  1  0.54059000  0.45941000  0.44409300  1
  Tb  Tb9  1  0.91882000  0.45941000  0.44409300  1
  Tb  Tb10  1  0.54059000  0.08118000  0.44409300  1
  Tb  Tb11  1  0.45941000  0.54059000  0.94409300  1
  Tb  Tb12  1  0.08118000  0.54059000  0.94409300  1
  Tb  Tb13  1  0.45941000  0.91882000  0.94409300  1
  Rh  Rh14  1  0.80997500  0.19002500  0.17988900  1
  Rh  Rh15  1  0.38005100  0.19002500  0.17988900  1
  Rh  Rh16  1  0.80997500  0.61994900  0.17988900  1
  Rh  Rh17  1  0.19002500  0.80997500  0.67988900  1
  Rh  Rh18  1  0.61994900  0.80997500  0.67988900  1
  Rh  Rh19  1  0.19002500  0.38005100  0.67988900  1
