# generated using pymatgen
data_RbPr(SeO4)2
_symmetry_space_group_name_H-M   'P 1'
_cell_length_a   7.59118400
_cell_length_b   9.11031200
_cell_length_c   11.29442619
_cell_angle_alpha   88.40242523
_cell_angle_beta   90.00000000
_cell_angle_gamma   90.00000000
_symmetry_Int_Tables_number   1
_chemical_formula_structural   RbPr(SeO4)2
_chemical_formula_sum   'Rb4 Pr4 Se8 O32'
_cell_volume   780.79692713
_cell_formula_units_Z   4
loop_
 _symmetry_equiv_pos_site_id
 _symmetry_equiv_pos_as_xyz
  1  'x, y, z'
loop_
 _atom_site_type_symbol
 _atom_site_label
 _atom_site_symmetry_multiplicity
 _atom_site_fract_x
 _atom_site_fract_y
 _atom_site_fract_z
 _atom_site_occupancy
  Rb  Rb0  1  0.34980100  0.43327500  0.83840900  1
  Rb  Rb1  1  0.65019900  0.56672500  0.16159100  1
  Rb  Rb2  1  0.84980100  0.56672500  0.66159100  1
  Rb  Rb3  1  0.15019900  0.43327500  0.33840900  1
  Pr  Pr4  1  0.16501200  0.94483600  0.84791000  1
  Pr  Pr5  1  0.83498800  0.05516400  0.15209000  1
  Pr  Pr6  1  0.66501200  0.05516400  0.65209000  1
  Pr  Pr7  1  0.33498800  0.94483600  0.34791000  1
  Se  Se8  1  0.16481300  0.18593600  0.60682900  1
  Se  Se9  1  0.83518700  0.81406400  0.39317100  1
  Se  Se10  1  0.66481300  0.81406400  0.89317100  1
  Se  Se11  1  0.33518700  0.18593600  0.10682900  1
  Se  Se12  1  0.33942500  0.72551900  0.58838200  1
  Se  Se13  1  0.66057500  0.27448100  0.41161800  1
  Se  Se14  1  0.83942500  0.27448100  0.91161800  1
  Se  Se15  1  0.16057500  0.72551900  0.08838200  1
  O  O16  1  0.81975700  0.87223200  0.53109400  1
  O  O17  1  0.18024300  0.12776800  0.46890600  1
  O  O18  1  0.31975700  0.12776800  0.96890600  1
  O  O19  1  0.68024300  0.87223200  0.03109400  1
  O  O20  1  0.50335000  0.90988300  0.81952000  1
  O  O21  1  0.49665000  0.09011700  0.18048000  1
  O  O22  1  0.00335000  0.09011700  0.68048000  1
  O  O23  1  0.99665000  0.90988300  0.31952000  1
  O  O24  1  0.13946300  0.36482500  0.60602800  1
  O  O25  1  0.86053700  0.63517500  0.39397200  1
  O  O26  1  0.63946300  0.63517500  0.89397200  1
  O  O27  1  0.36053700  0.36482500  0.10602800  1
  O  O28  1  0.25382700  0.70589800  0.95487900  1
  O  O29  1  0.74617300  0.29410200  0.04512100  1
  O  O30  1  0.75382700  0.29410200  0.54512100  1
  O  O31  1  0.24617300  0.70589800  0.45487900  1
  O  O32  1  0.44278600  0.88882600  0.55896800  1
  O  O33  1  0.55721400  0.11117400  0.44103200  1
  O  O34  1  0.94278600  0.11117400  0.94103200  1
  O  O35  1  0.05721400  0.88882600  0.05896800  1
  O  O36  1  0.47653700  0.59381100  0.62747000  1
  O  O37  1  0.52346300  0.40618900  0.37253000  1
  O  O38  1  0.97653700  0.40618900  0.87253000  1
  O  O39  1  0.02346300  0.59381100  0.12747000  1
  O  O40  1  0.83871300  0.86367100  0.80482400  1
  O  O41  1  0.16128700  0.13632900  0.19517600  1
  O  O42  1  0.33871300  0.13632900  0.69517600  1
  O  O43  1  0.66128700  0.86367100  0.30482400  1
  O  O44  1  0.18617600  0.75038900  0.69338800  1
  O  O45  1  0.81382400  0.24961100  0.30661200  1
  O  O46  1  0.68617600  0.24961100  0.80661200  1
  O  O47  1  0.31382400  0.75038900  0.19338800  1
