# generated using pymatgen
data_Ba2VO4
_symmetry_space_group_name_H-M   'P 1'
_cell_length_a   7.79491700
_cell_length_b   6.26029900
_cell_length_c   11.78828761
_cell_angle_alpha   62.51855462
_cell_angle_beta   90.00000000
_cell_angle_gamma   90.00000000
_symmetry_Int_Tables_number   1
_chemical_formula_structural   Ba2VO4
_chemical_formula_sum   'Ba8 V4 O16'
_cell_volume   510.33975774
_cell_formula_units_Z   4
loop_
 _symmetry_equiv_pos_site_id
 _symmetry_equiv_pos_as_xyz
  1  'x, y, z'
loop_
 _atom_site_type_symbol
 _atom_site_label
 _atom_site_symmetry_multiplicity
 _atom_site_fract_x
 _atom_site_fract_y
 _atom_site_fract_z
 _atom_site_occupancy
  Ba  Ba0  1  0.50486200  0.02244700  0.19819900  1
  Ba  Ba1  1  0.00486200  0.97755300  0.30180100  1
  Ba  Ba2  1  0.49513800  0.97755300  0.80180100  1
  Ba  Ba3  1  0.99513800  0.02244700  0.69819900  1
  Ba  Ba4  1  0.15857400  0.31125400  0.92711800  1
  Ba  Ba5  1  0.65857400  0.68874600  0.57288200  1
  Ba  Ba6  1  0.84142600  0.68874600  0.07288200  1
  Ba  Ba7  1  0.34142600  0.31125400  0.42711800  1
  V  V8  1  0.71984700  0.34157800  0.91806400  1
  V  V9  1  0.21984700  0.65842200  0.58193600  1
  V  V10  1  0.28015300  0.65842200  0.08193600  1
  V  V11  1  0.78015300  0.34157800  0.41806400  1
  O  O12  1  0.75339500  0.66599800  0.82619300  1
  O  O13  1  0.25339500  0.33400200  0.67380700  1
  O  O14  1  0.24660500  0.33400200  0.17380700  1
  O  O15  1  0.74660500  0.66599800  0.32619300  1
  O  O16  1  0.82679700  0.14110900  0.86657400  1
  O  O17  1  0.32679700  0.85889100  0.63342600  1
  O  O18  1  0.17320300  0.85889100  0.13342600  1
  O  O19  1  0.67320300  0.14110900  0.36657400  1
  O  O20  1  0.82515800  0.25684100  0.07323400  1
  O  O21  1  0.32515800  0.74315900  0.42676600  1
  O  O22  1  0.17484200  0.74315900  0.92676600  1
  O  O23  1  0.67484200  0.25684100  0.57323400  1
  O  O24  1  0.00711200  0.28086500  0.42164100  1
  O  O25  1  0.50711200  0.71913500  0.07835900  1
  O  O26  1  0.99288800  0.71913500  0.57835900  1
  O  O27  1  0.49288800  0.28086500  0.92164100  1
