# generated using pymatgen
data_Tm(AlCu)6
_symmetry_space_group_name_H-M   'P 1'
_cell_length_a   6.58054880
_cell_length_b   6.58054880
_cell_length_c   6.58054880
_cell_angle_alpha   134.72052490
_cell_angle_beta   99.18864954
_cell_angle_gamma   97.85491471
_symmetry_Int_Tables_number   1
_chemical_formula_structural   Tm(AlCu)6
_chemical_formula_sum   'Tm1 Al6 Cu6'
_cell_volume   186.85936917
_cell_formula_units_Z   1
loop_
 _symmetry_equiv_pos_site_id
 _symmetry_equiv_pos_as_xyz
  1  'x, y, z'
loop_
 _atom_site_type_symbol
 _atom_site_label
 _atom_site_symmetry_multiplicity
 _atom_site_fract_x
 _atom_site_fract_y
 _atom_site_fract_z
 _atom_site_occupancy
  Tm  Tm0  1  0.00000000  0.00000000  0.00000000  1
  Al  Al1  1  0.34851900  0.34851900  0.00000000  1
  Al  Al2  1  0.65148100  0.65148100  0.00000000  1
  Al  Al3  1  0.65458800  0.00000000  0.65458800  1
  Al  Al4  1  0.34541200  0.00000000  0.34541200  1
  Al  Al5  1  0.79675700  0.29675700  0.50000000  1
  Al  Al6  1  0.20324300  0.70324300  0.50000000  1
  Cu  Cu7  1  0.50000000  0.00000000  0.00000000  1
  Cu  Cu8  1  0.50000000  0.50000000  0.50000000  1
  Cu  Cu9  1  0.00000000  0.00000000  0.50000000  1
  Cu  Cu10  1  0.00000000  0.50000000  0.00000000  1
  Cu  Cu11  1  0.22641300  0.50000000  0.72641300  1
  Cu  Cu12  1  0.77358700  0.50000000  0.27358700  1
