# generated using pymatgen
data_YbErSe2
_symmetry_space_group_name_H-M   'P 1'
_cell_length_a   7.16147805
_cell_length_b   7.16147805
_cell_length_c   7.16147775
_cell_angle_alpha   32.94523023
_cell_angle_beta   32.94523023
_cell_angle_gamma   32.94522179
_symmetry_Int_Tables_number   1
_chemical_formula_structural   YbErSe2
_chemical_formula_sum   'Yb1 Er1 Se2'
_cell_volume   96.66182638
_cell_formula_units_Z   1
loop_
 _symmetry_equiv_pos_site_id
 _symmetry_equiv_pos_as_xyz
  1  'x, y, z'
loop_
 _atom_site_type_symbol
 _atom_site_label
 _atom_site_symmetry_multiplicity
 _atom_site_fract_x
 _atom_site_fract_y
 _atom_site_fract_z
 _atom_site_occupancy
  Yb  Yb0  1  0.50000000  0.50000000  0.50000000  1
  Er  Er1  1  0.00000000  0.00000000  0.00000000  1
  Se  Se2  1  0.25170700  0.25170700  0.25170700  1
  Se  Se3  1  0.74829300  0.74829300  0.74829300  1
