# generated using pymatgen
data_Y2Mn(GeO3)4
_symmetry_space_group_name_H-M   'P 1'
_cell_length_a   10.03577961
_cell_length_b   10.03577961
_cell_length_c   5.03094000
_cell_angle_alpha   90.00000000
_cell_angle_beta   90.00000000
_cell_angle_gamma   90.60472615
_symmetry_Int_Tables_number   1
_chemical_formula_structural   Y2Mn(GeO3)4
_chemical_formula_sum   'Y4 Mn2 Ge8 O24'
_cell_volume   506.67231939
_cell_formula_units_Z   2
loop_
 _symmetry_equiv_pos_site_id
 _symmetry_equiv_pos_as_xyz
  1  'x, y, z'
loop_
 _atom_site_type_symbol
 _atom_site_label
 _atom_site_symmetry_multiplicity
 _atom_site_fract_x
 _atom_site_fract_y
 _atom_site_fract_z
 _atom_site_occupancy
  Y  Y0  1  0.00000000  0.50000000  0.50000000  1
  Y  Y1  1  0.50000000  0.00000000  0.50000000  1
  Y  Y2  1  0.75000000  0.75000000  0.50000000  1
  Y  Y3  1  0.25000000  0.25000000  0.50000000  1
  Mn  Mn4  1  0.50000000  0.50000000  0.50000000  1
  Mn  Mn5  1  0.00000000  0.00000000  0.50000000  1
  Ge  Ge6  1  0.74634300  0.47803600  0.99560300  1
  Ge  Ge7  1  0.25365700  0.52196400  0.00439700  1
  Ge  Ge8  1  0.24634300  0.97803600  0.00439700  1
  Ge  Ge9  1  0.75365700  0.02196400  0.99560300  1
  Ge  Ge10  1  0.47803600  0.74634300  0.00439700  1
  Ge  Ge11  1  0.52196400  0.25365700  0.99560300  1
  Ge  Ge12  1  0.97803600  0.24634300  0.99560300  1
  Ge  Ge13  1  0.02196400  0.75365700  0.00439700  1
  O  O14  1  0.56296200  0.66825500  0.26050400  1
  O  O15  1  0.06300500  0.32945100  0.25196700  1
  O  O16  1  0.43699500  0.17054900  0.25196700  1
  O  O17  1  0.93703800  0.83174500  0.26050400  1
  O  O18  1  0.43703800  0.33174500  0.73949600  1
  O  O19  1  0.93699500  0.67054900  0.74803300  1
  O  O20  1  0.56300500  0.82945100  0.74803300  1
  O  O21  1  0.06296200  0.16825500  0.73949600  1
  O  O22  1  0.66825500  0.56296200  0.73949600  1
  O  O23  1  0.32945100  0.06300500  0.74803300  1
  O  O24  1  0.17054900  0.43699500  0.74803300  1
  O  O25  1  0.83174500  0.93703800  0.73949600  1
  O  O26  1  0.33174500  0.43703800  0.26050400  1
  O  O27  1  0.67054900  0.93699500  0.25196700  1
  O  O28  1  0.82945100  0.56300500  0.25196700  1
  O  O29  1  0.16825500  0.06296200  0.26050400  1
  O  O30  1  0.36929000  0.63071000  0.83055300  1
  O  O31  1  0.87193600  0.37193600  0.83201400  1
  O  O32  1  0.62806400  0.12806400  0.83201400  1
  O  O33  1  0.13071000  0.86929000  0.83055300  1
  O  O34  1  0.63071000  0.36929000  0.16944700  1
  O  O35  1  0.12806400  0.62806400  0.16798600  1
  O  O36  1  0.37193600  0.87193600  0.16798600  1
  O  O37  1  0.86929000  0.13071000  0.16944700  1
