# generated using pymatgen
data_CsTe4
_symmetry_space_group_name_H-M   'P 1'
_cell_length_a   7.34290700
_cell_length_b   8.17535000
_cell_length_c   14.27279357
_cell_angle_alpha   86.40579255
_cell_angle_beta   90.00000000
_cell_angle_gamma   90.00000000
_symmetry_Int_Tables_number   1
_chemical_formula_structural   CsTe4
_chemical_formula_sum   'Cs4 Te16'
_cell_volume   855.12243227
_cell_formula_units_Z   4
loop_
 _symmetry_equiv_pos_site_id
 _symmetry_equiv_pos_as_xyz
  1  'x, y, z'
loop_
 _atom_site_type_symbol
 _atom_site_label
 _atom_site_symmetry_multiplicity
 _atom_site_fract_x
 _atom_site_fract_y
 _atom_site_fract_z
 _atom_site_occupancy
  Cs  Cs0  1  0.37932000  0.85624200  0.85215000  1
  Cs  Cs1  1  0.12068000  0.85624200  0.35215000  1
  Cs  Cs2  1  0.87932000  0.14375800  0.64785000  1
  Cs  Cs3  1  0.62068000  0.14375800  0.14785000  1
  Te  Te4  1  0.89184800  0.87107700  0.96809400  1
  Te  Te5  1  0.60815200  0.87107700  0.46809400  1
  Te  Te6  1  0.98250600  0.64978400  0.71317500  1
  Te  Te7  1  0.55890800  0.62235000  0.62548900  1
  Te  Te8  1  0.51749400  0.64978400  0.21317500  1
  Te  Te9  1  0.94109200  0.62235000  0.12548900  1
  Te  Te10  1  0.19387600  0.53661000  0.56701000  1
  Te  Te11  1  0.69387600  0.46339000  0.93299000  1
  Te  Te12  1  0.30612400  0.53661000  0.06701000  1
  Te  Te13  1  0.80612400  0.46339000  0.43299000  1
  Te  Te14  1  0.05890800  0.37765000  0.87451100  1
  Te  Te15  1  0.48250600  0.35021600  0.78682500  1
  Te  Te16  1  0.44109200  0.37765000  0.37451100  1
  Te  Te17  1  0.01749400  0.35021600  0.28682500  1
  Te  Te18  1  0.39184800  0.12892300  0.53190600  1
  Te  Te19  1  0.10815200  0.12892300  0.03190600  1
