# generated using pymatgen
data_YVO4
_symmetry_space_group_name_H-M   'P 1'
_cell_length_a   6.02160848
_cell_length_b   6.02160848
_cell_length_c   6.02160848
_cell_angle_alpha   106.23201590
_cell_angle_beta   106.23201590
_cell_angle_gamma   116.16417121
_symmetry_Int_Tables_number   1
_chemical_formula_structural   YVO4
_chemical_formula_sum   'Y2 V2 O8'
_cell_volume   166.34021006
_cell_formula_units_Z   2
loop_
 _symmetry_equiv_pos_site_id
 _symmetry_equiv_pos_as_xyz
  1  'x, y, z'
loop_
 _atom_site_type_symbol
 _atom_site_label
 _atom_site_symmetry_multiplicity
 _atom_site_fract_x
 _atom_site_fract_y
 _atom_site_fract_z
 _atom_site_occupancy
  Y  Y0  1  0.00000000  0.00000000  0.00000000  1
  Y  Y1  1  0.25000000  0.75000000  0.50000000  1
  V  V2  1  0.50000000  0.50000000  0.00000000  1
  V  V3  1  0.75000000  0.25000000  0.50000000  1
  O  O4  1  0.75918400  0.07457500  0.68460900  1
  O  O5  1  0.32457500  0.50918400  0.18460900  1
  O  O6  1  0.32457500  0.13996600  0.81539100  1
  O  O7  1  0.38996600  0.07457500  0.31539100  1
  O  O8  1  0.92542500  0.61003400  0.68460900  1
  O  O9  1  0.86003400  0.67542500  0.18460900  1
  O  O10  1  0.49081600  0.67542500  0.81539100  1
  O  O11  1  0.92542500  0.24081600  0.31539100  1
