# generated using pymatgen
data_BaAg
_symmetry_space_group_name_H-M   'P 1'
_cell_length_a   5.02148200
_cell_length_b   6.74662100
_cell_length_c   8.79466600
_cell_angle_alpha   90.00000000
_cell_angle_beta   90.00000000
_cell_angle_gamma   90.00000000
_symmetry_Int_Tables_number   1
_chemical_formula_structural   BaAg
_chemical_formula_sum   'Ba4 Ag4'
_cell_volume   297.94601058
_cell_formula_units_Z   4
loop_
 _symmetry_equiv_pos_site_id
 _symmetry_equiv_pos_as_xyz
  1  'x, y, z'
loop_
 _atom_site_type_symbol
 _atom_site_label
 _atom_site_symmetry_multiplicity
 _atom_site_fract_x
 _atom_site_fract_y
 _atom_site_fract_z
 _atom_site_occupancy
  Ba  Ba0  1  0.25000000  0.13305100  0.18080400  1
  Ba  Ba1  1  0.75000000  0.86694900  0.81919600  1
  Ba  Ba2  1  0.75000000  0.63305100  0.31919600  1
  Ba  Ba3  1  0.25000000  0.36694900  0.68080400  1
  Ag  Ag4  1  0.25000000  0.61698000  0.03381500  1
  Ag  Ag5  1  0.75000000  0.38302000  0.96618500  1
  Ag  Ag6  1  0.75000000  0.11698000  0.46618500  1
  Ag  Ag7  1  0.25000000  0.88302000  0.53381500  1
