# generated using pymatgen
data_Ca5(SnAs3)2
_symmetry_space_group_name_H-M   'P 1'
_cell_length_a   4.18465900
_cell_length_b   12.17022000
_cell_length_c   13.44965200
_cell_angle_alpha   90.00000000
_cell_angle_beta   90.00000000
_cell_angle_gamma   90.00000000
_symmetry_Int_Tables_number   1
_chemical_formula_structural   Ca5(SnAs3)2
_chemical_formula_sum   'Ca10 Sn4 As12'
_cell_volume   684.96684479
_cell_formula_units_Z   2
loop_
 _symmetry_equiv_pos_site_id
 _symmetry_equiv_pos_as_xyz
  1  'x, y, z'
loop_
 _atom_site_type_symbol
 _atom_site_label
 _atom_site_symmetry_multiplicity
 _atom_site_fract_x
 _atom_site_fract_y
 _atom_site_fract_z
 _atom_site_occupancy
  Ca  Ca0  1  0.00000000  0.62309100  0.74555600  1
  Ca  Ca1  1  0.00000000  0.37690900  0.25444400  1
  Ca  Ca2  1  0.00000000  0.12309100  0.75444400  1
  Ca  Ca3  1  0.00000000  0.87690900  0.24555600  1
  Ca  Ca4  1  0.00000000  0.00000000  0.00000000  1
  Ca  Ca5  1  0.00000000  0.50000000  0.50000000  1
  Ca  Ca6  1  0.00000000  0.86433800  0.56553300  1
  Ca  Ca7  1  0.00000000  0.13566200  0.43446700  1
  Ca  Ca8  1  0.00000000  0.36433800  0.93446700  1
  Ca  Ca9  1  0.00000000  0.63566200  0.06553300  1
  Sn  Sn10  1  0.50000000  0.29116100  0.60896500  1
  Sn  Sn11  1  0.50000000  0.20883900  0.10896500  1
  Sn  Sn12  1  0.50000000  0.79116100  0.89103500  1
  Sn  Sn13  1  0.50000000  0.70883900  0.39103500  1
  As  As14  1  0.00000000  0.37763600  0.70537500  1
  As  As15  1  0.00000000  0.12236400  0.20537500  1
  As  As16  1  0.00000000  0.87763600  0.79462500  1
  As  As17  1  0.00000000  0.62236400  0.29462500  1
  As  As18  1  0.50000000  0.83553200  0.08383700  1
  As  As19  1  0.50000000  0.16446800  0.91616300  1
  As  As20  1  0.50000000  0.33553200  0.41616300  1
  As  As21  1  0.50000000  0.66446800  0.58383700  1
  As  As22  1  0.50000000  0.57373300  0.90148500  1
  As  As23  1  0.50000000  0.42626700  0.09851500  1
  As  As24  1  0.50000000  0.07373300  0.59851500  1
  As  As25  1  0.50000000  0.92626700  0.40148500  1
