# generated using pymatgen
data_K5U(PS4)3
_symmetry_space_group_name_H-M   'P 1'
_cell_length_a   17.32711800
_cell_length_b   9.86079700
_cell_length_c   14.81198857
_cell_angle_alpha   71.01869435
_cell_angle_beta   90.00000000
_cell_angle_gamma   90.00000000
_symmetry_Int_Tables_number   1
_chemical_formula_structural   K5U(PS4)3
_chemical_formula_sum   'K20 U4 P12 S48'
_cell_volume   2393.15347077
_cell_formula_units_Z   4
loop_
 _symmetry_equiv_pos_site_id
 _symmetry_equiv_pos_as_xyz
  1  'x, y, z'
loop_
 _atom_site_type_symbol
 _atom_site_label
 _atom_site_symmetry_multiplicity
 _atom_site_fract_x
 _atom_site_fract_y
 _atom_site_fract_z
 _atom_site_occupancy
  K  K0  1  0.99484400  0.05611000  0.31307200  1
  K  K1  1  0.49484400  0.44389000  0.68692800  1
  K  K2  1  0.00515600  0.94389000  0.68692800  1
  K  K3  1  0.50515600  0.55611000  0.31307200  1
  K  K4  1  0.20367800  0.15625500  0.92438600  1
  K  K5  1  0.70367800  0.34374500  0.07561400  1
  K  K6  1  0.79632200  0.84374500  0.07561400  1
  K  K7  1  0.29632200  0.65625500  0.92438600  1
  K  K8  1  0.20044600  0.78139500  0.55383200  1
  K  K9  1  0.70044600  0.71860500  0.44616800  1
  K  K10  1  0.79955400  0.21860500  0.44616800  1
  K  K11  1  0.29955400  0.28139500  0.55383200  1
  K  K12  1  0.97020300  0.28509800  0.01312700  1
  K  K13  1  0.47020300  0.21490200  0.98687300  1
  K  K14  1  0.02979700  0.71490200  0.98687300  1
  K  K15  1  0.52979700  0.78509800  0.01312700  1
  K  K16  1  0.30637200  0.82626800  0.23062300  1
  K  K17  1  0.80637200  0.67373200  0.76937700  1
  K  K18  1  0.69362800  0.17373200  0.76937700  1
  K  K19  1  0.19362800  0.32626800  0.23062300  1
  U  U20  1  0.00100200  0.60620500  0.33375800  1
  U  U21  1  0.50100200  0.89379500  0.66624200  1
  U  U22  1  0.99899800  0.39379500  0.66624200  1
  U  U23  1  0.49899800  0.10620500  0.33375800  1
  P  P24  1  0.89203400  0.43467500  0.19027400  1
  P  P25  1  0.39203400  0.06532500  0.80972600  1
  P  P26  1  0.10796600  0.56532500  0.80972600  1
  P  P27  1  0.60796600  0.93467500  0.19027400  1
  P  P28  1  0.10300900  0.89765300  0.16362100  1
  P  P29  1  0.60300900  0.60234700  0.83637900  1
  P  P30  1  0.89699100  0.10234700  0.83637900  1
  P  P31  1  0.39699100  0.39765300  0.16362100  1
  P  P32  1  0.09487400  0.27333100  0.48379600  1
  P  P33  1  0.59487400  0.22666900  0.51620400  1
  P  P34  1  0.90512600  0.72666900  0.51620400  1
  P  P35  1  0.40512600  0.77333100  0.48379600  1
  S  S36  1  0.84896200  0.23246500  0.22881600  1
  S  S37  1  0.34896200  0.26753500  0.77118400  1
  S  S38  1  0.15103800  0.76753500  0.77118400  1
  S  S39  1  0.65103800  0.73246500  0.22881600  1
  S  S40  1  0.12726600  0.11175200  0.43684700  1
  S  S41  1  0.62726600  0.38824800  0.56315300  1
  S  S42  1  0.87273400  0.88824800  0.56315300  1
  S  S43  1  0.37273400  0.61175200  0.43684700  1
  S  S44  1  0.97788100  0.33070000  0.47883100  1
  S  S45  1  0.47788100  0.16930000  0.52116900  1
  S  S46  1  0.02211900  0.66930000  0.52116900  1
  S  S47  1  0.52211900  0.83070000  0.47883100  1
  S  S48  1  0.01191900  0.43728000  0.21509100  1
  S  S49  1  0.51191900  0.06272000  0.78490900  1
  S  S50  1  0.98808100  0.56272000  0.78490900  1
  S  S51  1  0.48808100  0.93728000  0.21509100  1
  S  S52  1  0.88047200  0.77957700  0.37340300  1
  S  S53  1  0.38047200  0.72042300  0.62659700  1
  S  S54  1  0.11952800  0.22042300  0.62659700  1
  S  S55  1  0.61952800  0.27957700  0.37340300  1
  S  S56  1  0.17155100  0.81826300  0.08245900  1
  S  S57  1  0.67155100  0.68173700  0.91754100  1
  S  S58  1  0.82844900  0.18173700  0.91754100  1
  S  S59  1  0.32844900  0.31826300  0.08245900  1
  S  S60  1  0.85377600  0.54651900  0.27923800  1
  S  S61  1  0.35377600  0.95348100  0.72076200  1
  S  S62  1  0.14622400  0.45348100  0.72076200  1
  S  S63  1  0.64622400  0.04651900  0.27923800  1
  S  S64  1  0.11499800  0.11290100  0.12990100  1
  S  S65  1  0.61499800  0.38709900  0.87009900  1
  S  S66  1  0.88500200  0.88709900  0.87009900  1
  S  S67  1  0.38500200  0.61290100  0.12990100  1
  S  S68  1  0.86647200  0.54151700  0.05223900  1
  S  S69  1  0.36647200  0.95848300  0.94776100  1
  S  S70  1  0.13352800  0.45848300  0.94776100  1
  S  S71  1  0.63352800  0.04151700  0.05223900  1
  S  S72  1  0.14411100  0.46640100  0.40401200  1
  S  S73  1  0.64411100  0.03359900  0.59598800  1
  S  S74  1  0.85588900  0.53359900  0.59598800  1
  S  S75  1  0.35588900  0.96640100  0.40401200  1
  S  S76  1  0.98719200  0.83985000  0.16096800  1
  S  S77  1  0.48719200  0.66015000  0.83903200  1
  S  S78  1  0.01280800  0.16015000  0.83903200  1
  S  S79  1  0.51280800  0.33985000  0.16096800  1
  S  S80  1  0.12592200  0.79953900  0.30904900  1
  S  S81  1  0.62592200  0.70046100  0.69095100  1
  S  S82  1  0.87407800  0.20046100  0.69095100  1
  S  S83  1  0.37407800  0.29953900  0.30904900  1
