# generated using pymatgen
data_CrPb2F7
_symmetry_space_group_name_H-M   'P 1'
_cell_length_a   11.32334600
_cell_length_b   5.52511300
_cell_length_c   9.65910575
_cell_angle_alpha   88.83964491
_cell_angle_beta   90.00000000
_cell_angle_gamma   90.00000000
_symmetry_Int_Tables_number   1
_chemical_formula_structural   CrPb2F7
_chemical_formula_sum   'Cr4 Pb8 F28'
_cell_volume   604.17645342
_cell_formula_units_Z   4
loop_
 _symmetry_equiv_pos_site_id
 _symmetry_equiv_pos_as_xyz
  1  'x, y, z'
loop_
 _atom_site_type_symbol
 _atom_site_label
 _atom_site_symmetry_multiplicity
 _atom_site_fract_x
 _atom_site_fract_y
 _atom_site_fract_z
 _atom_site_occupancy
  Cr  Cr0  1  0.13286800  0.70056900  0.20714100  1
  Cr  Cr1  1  0.63286800  0.29943100  0.29285900  1
  Cr  Cr2  1  0.86713200  0.29943100  0.79285900  1
  Cr  Cr3  1  0.36713200  0.70056900  0.70714100  1
  Pb  Pb4  1  0.81361200  0.77775300  0.05501900  1
  Pb  Pb5  1  0.31361200  0.22224700  0.44498100  1
  Pb  Pb6  1  0.18638800  0.22224700  0.94498100  1
  Pb  Pb7  1  0.68638800  0.77775300  0.55501900  1
  Pb  Pb8  1  0.43848200  0.76018100  0.13577100  1
  Pb  Pb9  1  0.93848200  0.23981900  0.36422900  1
  Pb  Pb10  1  0.56151800  0.23981900  0.86422900  1
  Pb  Pb11  1  0.06151800  0.76018100  0.63577100  1
  F  F12  1  0.61433800  0.87901900  0.00496200  1
  F  F13  1  0.11433800  0.12098100  0.49503800  1
  F  F14  1  0.38566200  0.12098100  0.99503800  1
  F  F15  1  0.88566200  0.87901900  0.50496200  1
  F  F16  1  0.03149600  0.44537700  0.14410000  1
  F  F17  1  0.53149600  0.55462300  0.35590000  1
  F  F18  1  0.96850400  0.55462300  0.85590000  1
  F  F19  1  0.46850400  0.44537700  0.64410000  1
  F  F20  1  0.09397800  0.59867400  0.39554000  1
  F  F21  1  0.59397800  0.40132600  0.10446000  1
  F  F22  1  0.90602200  0.40132600  0.60446000  1
  F  F23  1  0.40602200  0.59867400  0.89554000  1
  F  F24  1  0.17517500  0.78957600  0.01819000  1
  F  F25  1  0.67517500  0.21042400  0.48181000  1
  F  F26  1  0.82482500  0.21042400  0.98181000  1
  F  F27  1  0.32482500  0.78957600  0.51819000  1
  F  F28  1  0.99749400  0.92001100  0.19561800  1
  F  F29  1  0.49749400  0.07998900  0.30438200  1
  F  F30  1  0.00250600  0.07998900  0.80438200  1
  F  F31  1  0.50250600  0.92001100  0.69561800  1
  F  F32  1  0.26411500  0.46774900  0.21414300  1
  F  F33  1  0.76411500  0.53225100  0.28585700  1
  F  F34  1  0.73588500  0.53225100  0.78585700  1
  F  F35  1  0.23588500  0.46774900  0.71414300  1
  F  F36  1  0.24299000  0.96003300  0.25851900  1
  F  F37  1  0.74299000  0.03996700  0.24148100  1
  F  F38  1  0.75701000  0.03996700  0.74148100  1
  F  F39  1  0.25701000  0.96003300  0.75851900  1
