# generated using pymatgen
data_HoAl4Ni
_symmetry_space_group_name_H-M   'P 1'
_cell_length_a   7.94316033
_cell_length_b   7.94316033
_cell_length_c   6.62939900
_cell_angle_alpha   90.00000000
_cell_angle_beta   90.00000000
_cell_angle_gamma   150.47802655
_symmetry_Int_Tables_number   1
_chemical_formula_structural   HoAl4Ni
_chemical_formula_sum   'Ho2 Al8 Ni2'
_cell_volume   206.10754670
_cell_formula_units_Z   2
loop_
 _symmetry_equiv_pos_site_id
 _symmetry_equiv_pos_as_xyz
  1  'x, y, z'
loop_
 _atom_site_type_symbol
 _atom_site_label
 _atom_site_symmetry_multiplicity
 _atom_site_fract_x
 _atom_site_fract_y
 _atom_site_fract_z
 _atom_site_occupancy
  Ho  Ho0  1  0.88200000  0.11800000  0.25000000  1
  Ho  Ho1  1  0.11800000  0.88200000  0.75000000  1
  Al  Al2  1  0.50000000  0.50000000  0.00000000  1
  Al  Al3  1  0.50000000  0.50000000  0.50000000  1
  Al  Al4  1  0.92398900  0.07601100  0.75000000  1
  Al  Al5  1  0.07601100  0.92398900  0.25000000  1
  Al  Al6  1  0.31175300  0.68824700  0.94701400  1
  Al  Al7  1  0.68824700  0.31175300  0.05298600  1
  Al  Al8  1  0.68824700  0.31175300  0.44701400  1
  Al  Al9  1  0.31175300  0.68824700  0.55298600  1
  Ni  Ni10  1  0.22698700  0.77301300  0.25000000  1
  Ni  Ni11  1  0.77301300  0.22698700  0.75000000  1
