# generated using pymatgen
data_SrCdB2O5
_symmetry_space_group_name_H-M   'P 1'
_cell_length_a   6.44724141
_cell_length_b   6.44724141
_cell_length_c   11.26641169
_cell_angle_alpha   84.57014718
_cell_angle_beta   84.57014718
_cell_angle_gamma   106.34600209
_symmetry_Int_Tables_number   1
_chemical_formula_structural   SrCdB2O5
_chemical_formula_sum   'Sr4 Cd4 B8 O20'
_cell_volume   443.74556108
_cell_formula_units_Z   4
loop_
 _symmetry_equiv_pos_site_id
 _symmetry_equiv_pos_as_xyz
  1  'x, y, z'
loop_
 _atom_site_type_symbol
 _atom_site_label
 _atom_site_symmetry_multiplicity
 _atom_site_fract_x
 _atom_site_fract_y
 _atom_site_fract_z
 _atom_site_occupancy
  Sr  Sr0  1  0.63273200  0.36726800  0.75000000  1
  Sr  Sr1  1  0.36726800  0.63273200  0.25000000  1
  Sr  Sr2  1  0.81610900  0.18389100  0.25000000  1
  Sr  Sr3  1  0.18389100  0.81610900  0.75000000  1
  Cd  Cd4  1  0.06663600  0.26257000  0.55680100  1
  Cd  Cd5  1  0.73743000  0.93336400  0.94319900  1
  Cd  Cd6  1  0.93336400  0.73743000  0.44319900  1
  Cd  Cd7  1  0.26257000  0.06663600  0.05680100  1
  B  B8  1  0.54349200  0.27044000  0.50374700  1
  B  B9  1  0.72956000  0.45650800  0.99625300  1
  B  B10  1  0.45650800  0.72956000  0.49625300  1
  B  B11  1  0.27044000  0.54349200  0.00374700  1
  B  B12  1  0.13145500  0.32449600  0.83132700  1
  B  B13  1  0.67550400  0.86854500  0.66867300  1
  B  B14  1  0.86854500  0.67550400  0.16867300  1
  B  B15  1  0.32449600  0.13145500  0.33132700  1
  O  O16  1  0.37926900  0.18756200  0.59627500  1
  O  O17  1  0.81243800  0.62073100  0.90372500  1
  O  O18  1  0.62073100  0.81243800  0.40372500  1
  O  O19  1  0.18756200  0.37926900  0.09627500  1
  O  O20  1  0.02920200  0.38533000  0.74007000  1
  O  O21  1  0.61467000  0.97079800  0.75993000  1
  O  O22  1  0.97079800  0.61467000  0.25993000  1
  O  O23  1  0.38533000  0.02920200  0.24007000  1
  O  O24  1  0.75563800  0.36419400  0.52369700  1
  O  O25  1  0.63580600  0.24436200  0.97630300  1
  O  O26  1  0.24436200  0.63580600  0.47630300  1
  O  O27  1  0.36419400  0.75563800  0.02369700  1
  O  O28  1  0.11578600  0.12795200  0.37243700  1
  O  O29  1  0.87204800  0.88421400  0.12756300  1
  O  O30  1  0.88421400  0.87204800  0.62756300  1
  O  O31  1  0.12795200  0.11578600  0.87243700  1
  O  O32  1  0.50345900  0.26947000  0.38131800  1
  O  O33  1  0.73053000  0.49654100  0.11868200  1
  O  O34  1  0.49654100  0.73053000  0.61868200  1
  O  O35  1  0.26947000  0.50345900  0.88131800  1
