# generated using pymatgen
data_KErBeF6
_symmetry_space_group_name_H-M   'P 1'
_cell_length_a   5.81139300
_cell_length_b   6.42876448
_cell_length_c   7.07750702
_cell_angle_alpha   113.02579710
_cell_angle_beta   90.00000000
_cell_angle_gamma   90.00000000
_symmetry_Int_Tables_number   1
_chemical_formula_structural   KErBeF6
_chemical_formula_sum   'K2 Er2 Be2 F12'
_cell_volume   243.34985943
_cell_formula_units_Z   2
loop_
 _symmetry_equiv_pos_site_id
 _symmetry_equiv_pos_as_xyz
  1  'x, y, z'
loop_
 _atom_site_type_symbol
 _atom_site_label
 _atom_site_symmetry_multiplicity
 _atom_site_fract_x
 _atom_site_fract_y
 _atom_site_fract_z
 _atom_site_occupancy
  K  K0  1  0.75000000  0.07140900  0.20353100  1
  K  K1  1  0.25000000  0.92859100  0.79646900  1
  Er  Er2  1  0.75000000  0.38893600  0.82014100  1
  Er  Er3  1  0.25000000  0.61106400  0.17986000  1
  Be  Be4  1  0.75000000  0.76629100  0.53502900  1
  Be  Be5  1  0.25000000  0.23370900  0.46497100  1
  F  F6  1  0.96661700  0.76648300  0.40324400  1
  F  F7  1  0.03338300  0.23351700  0.59675600  1
  F  F8  1  0.46661700  0.23351700  0.59675600  1
  F  F9  1  0.53338300  0.76648300  0.40324400  1
  F  F10  1  0.75000000  0.55806100  0.59304200  1
  F  F11  1  0.25000000  0.44193900  0.40695800  1
  F  F12  1  0.99885500  0.67751400  0.96580600  1
  F  F13  1  0.00114500  0.32248600  0.03419400  1
  F  F14  1  0.49885500  0.32248600  0.03419400  1
  F  F15  1  0.50114500  0.67751400  0.96580600  1
  F  F16  1  0.75000000  0.98892800  0.73747300  1
  F  F17  1  0.25000000  0.01107200  0.26252700  1
