# generated using pymatgen
data_LaFeTeO6
_symmetry_space_group_name_H-M   'P 1'
_cell_length_a   5.27015015
_cell_length_b   10.42947478
_cell_length_c   9.12416486
_cell_angle_alpha   90.00028750
_cell_angle_beta   89.99986945
_cell_angle_gamma   89.96948279
_symmetry_Int_Tables_number   1
_chemical_formula_structural   LaFeTeO6
_chemical_formula_sum   'La4 Fe4 Te4 O24'
_cell_volume   501.50872013
_cell_formula_units_Z   4
loop_
 _symmetry_equiv_pos_site_id
 _symmetry_equiv_pos_as_xyz
  1  'x, y, z'
loop_
 _atom_site_type_symbol
 _atom_site_label
 _atom_site_symmetry_multiplicity
 _atom_site_fract_x
 _atom_site_fract_y
 _atom_site_fract_z
 _atom_site_occupancy
  La  La0  1  0.00000100  0.50000000  0.00000900  1
  La  La1  1  0.50000400  0.50000300  0.50000200  1
  La  La2  1  0.00000200  0.99999500  0.00000600  1
  La  La3  1  0.49999900  0.00000200  0.50000400  1
  Fe  Fe4  1  0.50000400  0.75000000  0.83352700  1
  Fe  Fe5  1  0.00000000  0.24999800  0.66648000  1
  Fe  Fe6  1  0.99999500  0.75000100  0.33346800  1
  Fe  Fe7  1  0.50000200  0.25000300  0.16641700  1
  Te  Te8  1  0.00000300  0.74999900  0.66723700  1
  Te  Te9  1  0.49999700  0.75000000  0.16725000  1
  Te  Te10  1  0.00000100  0.24999900  0.33276300  1
  Te  Te11  1  0.50000000  0.25000100  0.83274600  1
  O  O12  1  0.69528200  0.64405400  0.68266500  1
  O  O13  1  0.19528500  0.64405200  0.18265900  1
  O  O14  1  0.69528300  0.14405400  0.31733900  1
  O  O15  1  0.19528300  0.14405300  0.81735000  1
  O  O16  1  0.30471800  0.35594500  0.31734200  1
  O  O17  1  0.80471600  0.35594600  0.81735000  1
  O  O18  1  0.30471800  0.85594500  0.68266600  1
  O  O19  1  0.80471300  0.85594800  0.18266000  1
  O  O20  1  0.17563100  0.64413900  0.81186700  1
  O  O21  1  0.67562900  0.64414400  0.31186100  1
  O  O22  1  0.17562900  0.14414100  0.18813800  1
  O  O23  1  0.67562900  0.14414000  0.68814700  1
  O  O24  1  0.82436800  0.35586000  0.18814000  1
  O  O25  1  0.32437100  0.35585800  0.68814700  1
  O  O26  1  0.82436900  0.85586000  0.81186900  1
  O  O27  1  0.32437000  0.85585800  0.31186200  1
  O  O28  1  0.13031000  0.64460200  0.50691100  1
  O  O29  1  0.63031200  0.64460300  0.00691500  1
  O  O30  1  0.13031500  0.14460200  0.49309500  1
  O  O31  1  0.63031200  0.14460000  0.99309000  1
  O  O32  1  0.86968800  0.35539700  0.49309700  1
  O  O33  1  0.36968600  0.35540200  0.99309100  1
  O  O34  1  0.86969200  0.85539800  0.50691400  1
  O  O35  1  0.36968400  0.85539900  0.00691700  1
