# generated using pymatgen
data_KAsO3
_symmetry_space_group_name_H-M   'P 1'
_cell_length_a   9.22407700
_cell_length_b   19.66972900
_cell_length_c   12.39741280
_cell_angle_alpha   90.00000000
_cell_angle_beta   90.35710808
_cell_angle_gamma   90.00000000
_symmetry_Int_Tables_number   1
_chemical_formula_structural   KAsO3
_chemical_formula_sum   'K24 As24 O72'
_cell_volume   2249.28207788
_cell_formula_units_Z   24
loop_
 _symmetry_equiv_pos_site_id
 _symmetry_equiv_pos_as_xyz
  1  'x, y, z'
loop_
 _atom_site_type_symbol
 _atom_site_label
 _atom_site_symmetry_multiplicity
 _atom_site_fract_x
 _atom_site_fract_y
 _atom_site_fract_z
 _atom_site_occupancy
  K  K0  1  0.60814700  0.57776000  0.20169400  1
  K  K1  1  0.39185300  0.07776000  0.29830600  1
  K  K2  1  0.39185300  0.42224000  0.79830600  1
  K  K3  1  0.60814700  0.92224000  0.70169400  1
  K  K4  1  0.36367800  0.42503400  0.45489000  1
  K  K5  1  0.63632200  0.92503400  0.04511000  1
  K  K6  1  0.63632200  0.57496600  0.54511000  1
  K  K7  1  0.36367800  0.07496600  0.95489000  1
  K  K8  1  0.88358300  0.42507200  0.28954000  1
  K  K9  1  0.11641700  0.92507200  0.21046000  1
  K  K10  1  0.11641700  0.57492800  0.71046000  1
  K  K11  1  0.88358300  0.07492800  0.78954000  1
  K  K12  1  0.12149800  0.57912700  0.04837700  1
  K  K13  1  0.87850200  0.07912700  0.45162300  1
  K  K14  1  0.87850200  0.42087300  0.95162300  1
  K  K15  1  0.12149800  0.92087300  0.54837700  1
  K  K16  1  0.87100300  0.74929800  0.63096100  1
  K  K17  1  0.12899700  0.24929800  0.86903900  1
  K  K18  1  0.12899700  0.25070200  0.36903900  1
  K  K19  1  0.87100300  0.75070200  0.13096100  1
  K  K20  1  0.37259100  0.74737900  0.61758700  1
  K  K21  1  0.62740900  0.24737900  0.88241300  1
  K  K22  1  0.62740900  0.25262100  0.38241300  1
  K  K23  1  0.37259100  0.75262100  0.11758700  1
  As  As24  1  0.28860900  0.60572600  0.33757600  1
  As  As25  1  0.71139100  0.10572600  0.16242400  1
  As  As26  1  0.71139100  0.39427400  0.66242400  1
  As  As27  1  0.28860900  0.89427400  0.83757600  1
  As  As28  1  0.04265700  0.39559700  0.59007400  1
  As  As29  1  0.95734300  0.89559700  0.90992600  1
  As  As30  1  0.95734300  0.60440300  0.40992600  1
  As  As31  1  0.04265700  0.10440300  0.09007400  1
  As  As32  1  0.54322300  0.39389000  0.16435800  1
  As  As33  1  0.45677700  0.89389000  0.33564200  1
  As  As34  1  0.45677700  0.60611000  0.83564200  1
  As  As35  1  0.54322300  0.10611000  0.66435800  1
  As  As36  1  0.78463300  0.60545800  0.91846100  1
  As  As37  1  0.21536700  0.10545800  0.58153900  1
  As  As38  1  0.21536700  0.39454200  0.08153900  1
  As  As39  1  0.78463300  0.89454200  0.41846100  1
  As  As40  1  0.12155200  0.74496200  0.37539000  1
  As  As41  1  0.87844800  0.24496200  0.12461000  1
  As  As42  1  0.87844800  0.25503800  0.62461000  1
  As  As43  1  0.12155200  0.75503800  0.87539000  1
  As  As44  1  0.62319400  0.74505200  0.87399800  1
  As  As45  1  0.37680600  0.24505200  0.62600200  1
  As  As46  1  0.37680600  0.25494800  0.12600200  1
  As  As47  1  0.62319400  0.75494800  0.37399800  1
  O  O48  1  0.29632600  0.62045400  0.20476600  1
  O  O49  1  0.70367400  0.12045400  0.29523400  1
  O  O50  1  0.70367400  0.37954600  0.79523400  1
  O  O51  1  0.29632600  0.87954600  0.70476600  1
  O  O52  1  0.04819200  0.38345900  0.45648500  1
  O  O53  1  0.95180800  0.88345900  0.04351500  1
  O  O54  1  0.95180800  0.61654100  0.54351500  1
  O  O55  1  0.04819200  0.11654100  0.95648500  1
  O  O56  1  0.54214800  0.38222800  0.29810100  1
  O  O57  1  0.45785200  0.88222800  0.20189900  1
  O  O58  1  0.45785200  0.61777200  0.70189900  1
  O  O59  1  0.54214800  0.11777200  0.79810100  1
  O  O60  1  0.78668200  0.62112800  0.05114100  1
  O  O61  1  0.21331800  0.12112800  0.44885900  1
  O  O62  1  0.21331800  0.37887200  0.94885900  1
  O  O63  1  0.78668200  0.87887200  0.55114100  1
  O  O64  1  0.42250100  0.56185100  0.39622300  1
  O  O65  1  0.57749900  0.06185100  0.10377700  1
  O  O66  1  0.57749900  0.43814900  0.60377700  1
  O  O67  1  0.42250100  0.93814900  0.89622300  1
  O  O68  1  0.17657000  0.43894200  0.64980300  1
  O  O69  1  0.82343000  0.93894200  0.85019700  1
  O  O70  1  0.82343000  0.56105800  0.35019700  1
  O  O71  1  0.17657000  0.06105800  0.14980300  1
  O  O72  1  0.68040700  0.43779900  0.11162000  1
  O  O73  1  0.31959300  0.93779900  0.38838000  1
  O  O74  1  0.31959300  0.56220100  0.88838000  1
  O  O75  1  0.68040700  0.06220100  0.61162000  1
  O  O76  1  0.92113100  0.55963400  0.86864800  1
  O  O77  1  0.07886900  0.05963400  0.63135200  1
  O  O78  1  0.07886900  0.44036600  0.13135200  1
  O  O79  1  0.92113100  0.94036600  0.36864800  1
  O  O80  1  0.12316100  0.56156000  0.37203700  1
  O  O81  1  0.87683900  0.06156000  0.12796300  1
  O  O82  1  0.87683900  0.43844000  0.62796300  1
  O  O83  1  0.12316100  0.93844000  0.87203700  1
  O  O84  1  0.62010400  0.56225300  0.87835400  1
  O  O85  1  0.37989600  0.06225300  0.62164600  1
  O  O86  1  0.37989600  0.43774700  0.12164600  1
  O  O87  1  0.62010400  0.93774700  0.37835400  1
  O  O88  1  0.26717100  0.68537000  0.40900300  1
  O  O89  1  0.73282900  0.18537000  0.09099700  1
  O  O90  1  0.73282900  0.31463000  0.59099700  1
  O  O91  1  0.26717100  0.81463000  0.90900300  1
  O  O92  1  0.02333500  0.31488800  0.65883800  1
  O  O93  1  0.97666500  0.81488800  0.84116200  1
  O  O94  1  0.97666500  0.68511200  0.34116200  1
  O  O95  1  0.02333500  0.18511200  0.15883800  1
  O  O96  1  0.52455800  0.31366800  0.09437100  1
  O  O97  1  0.47544200  0.81366800  0.40562900  1
  O  O98  1  0.47544200  0.68633200  0.90562900  1
  O  O99  1  0.52455800  0.18633200  0.59437100  1
  O  O100  1  0.76804800  0.68438800  0.84400100  1
  O  O101  1  0.23195200  0.18438800  0.65599900  1
  O  O102  1  0.23195200  0.31561200  0.15599900  1
  O  O103  1  0.76804800  0.81561200  0.34400100  1
  O  O104  1  0.14740300  0.78632200  0.25948200  1
  O  O105  1  0.85259700  0.28632200  0.24051800  1
  O  O106  1  0.85259700  0.21367800  0.74051800  1
  O  O107  1  0.14740300  0.71367800  0.75948200  1
  O  O108  1  0.09484400  0.78509100  0.49226600  1
  O  O109  1  0.90515600  0.28509100  0.00773400  1
  O  O110  1  0.90515600  0.21490900  0.50773400  1
  O  O111  1  0.09484400  0.71490900  0.99226600  1
  O  O112  1  0.59855900  0.78486300  0.75649700  1
  O  O113  1  0.40144100  0.28486300  0.74350300  1
  O  O114  1  0.40144100  0.21513700  0.24350300  1
  O  O115  1  0.59855900  0.71513700  0.25649700  1
  O  O116  1  0.64897400  0.78642500  0.98999900  1
  O  O117  1  0.35102600  0.28642500  0.51000100  1
  O  O118  1  0.35102600  0.21357500  0.01000100  1
  O  O119  1  0.64897400  0.71357500  0.48999900  1
