# generated using pymatgen
data_Sr2SnS3F2
_symmetry_space_group_name_H-M   'P 1'
_cell_length_a   6.01420000
_cell_length_b   6.03468200
_cell_length_c   19.09463000
_cell_angle_alpha   90.00000000
_cell_angle_beta   90.00000000
_cell_angle_gamma   90.00000000
_symmetry_Int_Tables_number   1
_chemical_formula_structural   Sr2SnS3F2
_chemical_formula_sum   'Sr8 Sn4 S12 F8'
_cell_volume   693.01638603
_cell_formula_units_Z   4
loop_
 _symmetry_equiv_pos_site_id
 _symmetry_equiv_pos_as_xyz
  1  'x, y, z'
loop_
 _atom_site_type_symbol
 _atom_site_label
 _atom_site_symmetry_multiplicity
 _atom_site_fract_x
 _atom_site_fract_y
 _atom_site_fract_z
 _atom_site_occupancy
  Sr  Sr0  1  0.24693200  0.49765100  0.07368300  1
  Sr  Sr1  1  0.74693200  0.00234900  0.42631700  1
  Sr  Sr2  1  0.25306800  0.99765100  0.92631700  1
  Sr  Sr3  1  0.75306800  0.50234900  0.57368300  1
  Sr  Sr4  1  0.24693200  0.49765100  0.42631700  1
  Sr  Sr5  1  0.74693200  0.00234900  0.07368300  1
  Sr  Sr6  1  0.25306800  0.99765100  0.57368300  1
  Sr  Sr7  1  0.75306800  0.50234900  0.92631700  1
  Sn  Sn8  1  0.84300100  0.42556600  0.25000000  1
  Sn  Sn9  1  0.34300100  0.07443400  0.25000000  1
  Sn  Sn10  1  0.65699900  0.92556600  0.75000000  1
  Sn  Sn11  1  0.15699900  0.57443400  0.75000000  1
  S  S12  1  0.74345600  0.51388800  0.36694200  1
  S  S13  1  0.24345600  0.98611200  0.13305800  1
  S  S14  1  0.75654400  0.01388800  0.63305800  1
  S  S15  1  0.25654400  0.48611200  0.86694200  1
  S  S16  1  0.25130300  0.47639500  0.25000000  1
  S  S17  1  0.75130300  0.02360500  0.25000000  1
  S  S18  1  0.24869700  0.97639500  0.75000000  1
  S  S19  1  0.74869700  0.52360500  0.75000000  1
  S  S20  1  0.74345600  0.51388800  0.13305800  1
  S  S21  1  0.24345600  0.98611200  0.36694200  1
  S  S22  1  0.75654400  0.01388800  0.86694200  1
  S  S23  1  0.25654400  0.48611200  0.63305800  1
  F  F24  1  0.50091000  0.74771400  0.49975900  1
  F  F25  1  0.00091000  0.75228600  0.00024100  1
  F  F26  1  0.99909000  0.24771400  0.50024100  1
  F  F27  1  0.49909000  0.25228600  0.99975900  1
  F  F28  1  0.49909000  0.25228600  0.50024100  1
  F  F29  1  0.99909000  0.24771400  0.99975900  1
  F  F30  1  0.00091000  0.75228600  0.49975900  1
  F  F31  1  0.50091000  0.74771400  0.00024100  1
