# generated using pymatgen
data_Rb6HgSe4
_symmetry_space_group_name_H-M   'P 1'
_cell_length_a   10.89591595
_cell_length_b   10.89591595
_cell_length_c   8.38240000
_cell_angle_alpha   90.00000000
_cell_angle_beta   90.00000000
_cell_angle_gamma   119.99999972
_symmetry_Int_Tables_number   1
_chemical_formula_structural   Rb6HgSe4
_chemical_formula_sum   'Rb12 Hg2 Se8'
_cell_volume   861.83971511
_cell_formula_units_Z   2
loop_
 _symmetry_equiv_pos_site_id
 _symmetry_equiv_pos_as_xyz
  1  'x, y, z'
loop_
 _atom_site_type_symbol
 _atom_site_label
 _atom_site_symmetry_multiplicity
 _atom_site_fract_x
 _atom_site_fract_y
 _atom_site_fract_z
 _atom_site_occupancy
  Rb  Rb0  1  0.14877500  0.29755000  0.20519600  1
  Rb  Rb1  1  0.14877500  0.85122500  0.20519600  1
  Rb  Rb2  1  0.70245000  0.85122500  0.20519600  1
  Rb  Rb3  1  0.85122500  0.70245000  0.70519600  1
  Rb  Rb4  1  0.85122500  0.14877500  0.70519600  1
  Rb  Rb5  1  0.29755000  0.14877500  0.70519600  1
  Rb  Rb6  1  0.52740400  0.05480800  0.37836300  1
  Rb  Rb7  1  0.52740400  0.47259600  0.37836300  1
  Rb  Rb8  1  0.94519200  0.47259600  0.37836300  1
  Rb  Rb9  1  0.47259600  0.94519200  0.87836300  1
  Rb  Rb10  1  0.47259600  0.52740400  0.87836300  1
  Rb  Rb11  1  0.05480800  0.52740400  0.87836300  1
  Hg  Hg12  1  0.33333300  0.66666700  0.50032400  1
  Hg  Hg13  1  0.66666700  0.33333300  0.00032400  1
  Se  Se14  1  0.33333300  0.66666700  0.16559200  1
  Se  Se15  1  0.66666700  0.33333300  0.66559200  1
  Se  Se16  1  0.80714900  0.61429800  0.10110800  1
  Se  Se17  1  0.80714900  0.19285100  0.10110800  1
  Se  Se18  1  0.38570200  0.19285100  0.10110800  1
  Se  Se19  1  0.19285100  0.38570200  0.60110800  1
  Se  Se20  1  0.19285100  0.80714900  0.60110800  1
  Se  Se21  1  0.61429800  0.80714900  0.60110800  1
