# generated using pymatgen
data_K2La2B2O7
_symmetry_space_group_name_H-M   'P 1'
_cell_length_a   6.73283600
_cell_length_b   10.91604500
_cell_length_c   11.50475448
_cell_angle_alpha   62.88475604
_cell_angle_beta   90.00000000
_cell_angle_gamma   90.00000000
_symmetry_Int_Tables_number   1
_chemical_formula_structural   K2La2B2O7
_chemical_formula_sum   'K8 La8 B8 O28'
_cell_volume   752.61937966
_cell_formula_units_Z   4
loop_
 _symmetry_equiv_pos_site_id
 _symmetry_equiv_pos_as_xyz
  1  'x, y, z'
loop_
 _atom_site_type_symbol
 _atom_site_label
 _atom_site_symmetry_multiplicity
 _atom_site_fract_x
 _atom_site_fract_y
 _atom_site_fract_z
 _atom_site_occupancy
  K  K0  1  0.06174200  0.26479300  0.96769200  1
  K  K1  1  0.56174200  0.23520700  0.03230800  1
  K  K2  1  0.93825800  0.73520700  0.03230800  1
  K  K3  1  0.43825800  0.76479300  0.96769200  1
  K  K4  1  0.24475500  0.44504800  0.11763400  1
  K  K5  1  0.74475500  0.05495200  0.88236600  1
  K  K6  1  0.75524500  0.55495200  0.88236600  1
  K  K7  1  0.25524500  0.94504800  0.11763400  1
  La  La8  1  0.54611700  0.18034100  0.51874600  1
  La  La9  1  0.04611700  0.31965900  0.48125400  1
  La  La10  1  0.45388300  0.81965900  0.48125400  1
  La  La11  1  0.95388300  0.68034100  0.51874600  1
  La  La12  1  0.91767800  0.08487400  0.32220900  1
  La  La13  1  0.41767800  0.41512600  0.67779100  1
  La  La14  1  0.08232200  0.91512600  0.67779100  1
  La  La15  1  0.58232200  0.58487400  0.32220900  1
  B  B16  1  0.74717100  0.41164200  0.19491500  1
  B  B17  1  0.24717100  0.08835800  0.80508500  1
  B  B18  1  0.25282900  0.58835800  0.80508500  1
  B  B19  1  0.75282900  0.91164200  0.19491500  1
  B  B20  1  0.34589700  0.14553900  0.30370100  1
  B  B21  1  0.84589700  0.35446100  0.69629900  1
  B  B22  1  0.65410300  0.85446100  0.69629900  1
  B  B23  1  0.15410300  0.64553900  0.30370100  1
  O  O24  1  0.65025900  0.53557400  0.12217900  1
  O  O25  1  0.15025900  0.96442600  0.87782100  1
  O  O26  1  0.34974100  0.46442600  0.87782100  1
  O  O27  1  0.84974100  0.03557400  0.12217900  1
  O  O28  1  0.84703600  0.33849900  0.14157600  1
  O  O29  1  0.34703600  0.16150100  0.85842400  1
  O  O30  1  0.15296400  0.66150100  0.85842400  1
  O  O31  1  0.65296400  0.83849900  0.14157600  1
  O  O32  1  0.53262900  0.08778600  0.35073600  1
  O  O33  1  0.03262900  0.41221400  0.64926400  1
  O  O34  1  0.46737100  0.91221400  0.64926400  1
  O  O35  1  0.96737100  0.58778600  0.35073600  1
  O  O36  1  0.25409800  0.14060800  0.19938500  1
  O  O37  1  0.75409800  0.35939200  0.80061500  1
  O  O38  1  0.74590200  0.85939200  0.80061500  1
  O  O39  1  0.24590200  0.64060800  0.19938500  1
  O  O40  1  0.74793500  0.28713600  0.63368400  1
  O  O41  1  0.24793500  0.21286400  0.36631600  1
  O  O42  1  0.25206500  0.71286400  0.36631600  1
  O  O43  1  0.75206500  0.78713600  0.63368400  1
  O  O44  1  0.88016500  0.09767400  0.52692600  1
  O  O45  1  0.38016500  0.40232600  0.47307400  1
  O  O46  1  0.11983500  0.90232600  0.47307400  1
  O  O47  1  0.61983500  0.59767400  0.52692600  1
  O  O48  1  0.74263200  0.36119900  0.33289300  1
  O  O49  1  0.24263200  0.13880100  0.66710700  1
  O  O50  1  0.25736800  0.63880100  0.66710700  1
  O  O51  1  0.75736800  0.86119900  0.33289300  1
