# generated using pymatgen
data_KY(SeO3)2
_symmetry_space_group_name_H-M   'P 1'
_cell_length_a   5.81763400
_cell_length_b   8.83990400
_cell_length_c   13.62890500
_cell_angle_alpha   90.00000000
_cell_angle_beta   90.00000000
_cell_angle_gamma   90.00000000
_symmetry_Int_Tables_number   1
_chemical_formula_structural   KY(SeO3)2
_chemical_formula_sum   'K4 Y4 Se8 O24'
_cell_volume   700.89814137
_cell_formula_units_Z   4
loop_
 _symmetry_equiv_pos_site_id
 _symmetry_equiv_pos_as_xyz
  1  'x, y, z'
loop_
 _atom_site_type_symbol
 _atom_site_label
 _atom_site_symmetry_multiplicity
 _atom_site_fract_x
 _atom_site_fract_y
 _atom_site_fract_z
 _atom_site_occupancy
  K  K0  1  0.25000000  0.99560900  0.62516400  1
  K  K1  1  0.25000000  0.50439100  0.12516400  1
  K  K2  1  0.75000000  0.00439100  0.37483600  1
  K  K3  1  0.75000000  0.49560900  0.87483600  1
  Y  Y4  1  0.25000000  0.80865100  0.90238300  1
  Y  Y5  1  0.25000000  0.69134900  0.40238300  1
  Y  Y6  1  0.75000000  0.19134900  0.09761700  1
  Y  Y7  1  0.75000000  0.30865100  0.59761700  1
  Se  Se8  1  0.75000000  0.01210800  0.79523200  1
  Se  Se9  1  0.75000000  0.48789200  0.29523200  1
  Se  Se10  1  0.25000000  0.98789200  0.20476800  1
  Se  Se11  1  0.25000000  0.51210800  0.70476800  1
  Se  Se12  1  0.75000000  0.72004400  0.56783300  1
  Se  Se13  1  0.75000000  0.77995600  0.06783300  1
  Se  Se14  1  0.25000000  0.27995600  0.43216700  1
  Se  Se15  1  0.25000000  0.22004400  0.93216700  1
  O  O16  1  0.98186800  0.89074900  0.79175300  1
  O  O17  1  0.51813200  0.60925100  0.29175300  1
  O  O18  1  0.48186800  0.10925100  0.20824700  1
  O  O19  1  0.01813200  0.39074900  0.70824700  1
  O  O20  1  0.01813200  0.10925100  0.20824700  1
  O  O21  1  0.48186800  0.39074900  0.70824700  1
  O  O22  1  0.51813200  0.89074900  0.79175300  1
  O  O23  1  0.98186800  0.60925100  0.29175300  1
  O  O24  1  0.75000000  0.07922300  0.67602600  1
  O  O25  1  0.75000000  0.42077700  0.17602600  1
  O  O26  1  0.25000000  0.92077700  0.32397400  1
  O  O27  1  0.25000000  0.57922300  0.82397400  1
  O  O28  1  0.98049800  0.79686700  0.50527800  1
  O  O29  1  0.51950200  0.70313300  0.00527800  1
  O  O30  1  0.48049800  0.20313300  0.49472200  1
  O  O31  1  0.01950200  0.29686700  0.99472200  1
  O  O32  1  0.01950200  0.20313300  0.49472200  1
  O  O33  1  0.48049800  0.29686700  0.99472200  1
  O  O34  1  0.51950200  0.79686700  0.50527800  1
  O  O35  1  0.98049800  0.70313300  0.00527800  1
  O  O36  1  0.75000000  0.53710300  0.52585600  1
  O  O37  1  0.75000000  0.96289700  0.02585600  1
  O  O38  1  0.25000000  0.46289700  0.47414400  1
  O  O39  1  0.25000000  0.03710300  0.97414400  1
