# generated using pymatgen
data_RbMn6O12
_symmetry_space_group_name_H-M   'P 1'
_cell_length_a   8.89592192
_cell_length_b   10.24996876
_cell_length_c   8.37561181
_cell_angle_alpha   67.45228517
_cell_angle_beta   58.16172448
_cell_angle_gamma   43.83051300
_symmetry_Int_Tables_number   1
_chemical_formula_structural   RbMn6O12
_chemical_formula_sum   'Rb2 Mn12 O24'
_cell_volume   449.30973938
_cell_formula_units_Z   2
loop_
 _symmetry_equiv_pos_site_id
 _symmetry_equiv_pos_as_xyz
  1  'x, y, z'
loop_
 _atom_site_type_symbol
 _atom_site_label
 _atom_site_symmetry_multiplicity
 _atom_site_fract_x
 _atom_site_fract_y
 _atom_site_fract_z
 _atom_site_occupancy
  Rb  Rb0  1  0.20964100  0.99598000  0.99904700  1
  Rb  Rb1  1  0.79288200  0.00425700  0.00102100  1
  Mn  Mn2  1  0.00141900  0.48774600  0.18455300  1
  Mn  Mn3  1  0.25990800  0.18387500  0.51309900  1
  Mn  Mn4  1  0.33754000  0.48820900  0.18278900  1
  Mn  Mn5  1  0.07696500  0.81620400  0.48666300  1
  Mn  Mn6  1  0.59111000  0.18272400  0.51445000  1
  Mn  Mn7  1  0.33074200  0.51386200  0.81781000  1
  Mn  Mn8  1  0.67264800  0.48664900  0.18220900  1
  Mn  Mn9  1  0.40968700  0.81754800  0.48704300  1
  Mn  Mn10  1  0.92322000  0.18369900  0.51607700  1
  Mn  Mn11  1  0.66938000  0.51040600  0.81663500  1
  Mn  Mn12  1  0.74445700  0.81561300  0.48661600  1
  Mn  Mn13  1  0.00078500  0.51293400  0.81572600  1
  O  O14  1  0.00917400  0.36146300  0.04785900  1
  O  O15  1  0.14499900  0.04731400  0.64097000  1
  O  O16  1  0.06462500  0.29672500  0.38017500  1
  O  O17  1  0.99597100  0.62987400  0.28975400  1
  O  O18  1  0.33703700  0.36476200  0.05089000  1
  O  O19  1  0.47507900  0.05025200  0.64054300  1
  O  O20  1  0.40852500  0.28965500  0.37152500  1
  O  O21  1  0.33608200  0.37442700  0.70822400  1
  O  O22  1  0.33645000  0.63011600  0.28623700  1
  O  O23  1  0.68672600  0.35721100  0.04639800  1
  O  O24  1  0.25970600  0.71223600  0.62887600  1
  O  O25  1  0.19034700  0.95243600  0.36506000  1
  O  O26  1  0.80447300  0.04681500  0.63934100  1
  O  O27  1  0.73734900  0.29079800  0.37380300  1
  O  O28  1  0.32846300  0.64021100  0.95040700  1
  O  O29  1  0.66765400  0.37072100  0.71434100  1
  O  O30  1  0.66538700  0.62509100  0.29406200  1
  O  O31  1  0.59799800  0.70826000  0.62646300  1
  O  O32  1  0.52755700  0.95136500  0.36259900  1
  O  O33  1  0.66514700  0.63779600  0.94679600  1
  O  O34  1  0.00515900  0.37148700  0.70998300  1
  O  O35  1  0.94334400  0.69971900  0.61660600  1
  O  O36  1  0.86087000  0.95181300  0.35865500  1
  O  O37  1  0.99449600  0.63974400  0.94669400  1
