# generated using pymatgen
data_KBr3
_symmetry_space_group_name_H-M   'P 1'
_cell_length_a   6.45091005
_cell_length_b   6.45091005
_cell_length_c   7.71553300
_cell_angle_alpha   90.00000000
_cell_angle_beta   90.00000000
_cell_angle_gamma   120.00000055
_symmetry_Int_Tables_number   1
_chemical_formula_structural   KBr3
_chemical_formula_sum   'K2 Br6'
_cell_volume   278.06001087
_cell_formula_units_Z   2
loop_
 _symmetry_equiv_pos_site_id
 _symmetry_equiv_pos_as_xyz
  1  'x, y, z'
loop_
 _atom_site_type_symbol
 _atom_site_label
 _atom_site_symmetry_multiplicity
 _atom_site_fract_x
 _atom_site_fract_y
 _atom_site_fract_z
 _atom_site_occupancy
  K  K0  1  0.66666700  0.33333300  0.25000000  1
  K  K1  1  0.33333300  0.66666700  0.75000000  1
  Br  Br2  1  0.83261900  0.16738100  0.75000000  1
  Br  Br3  1  0.33476100  0.16738100  0.75000000  1
  Br  Br4  1  0.83261900  0.66523900  0.75000000  1
  Br  Br5  1  0.16738100  0.83261900  0.25000000  1
  Br  Br6  1  0.66523900  0.83261900  0.25000000  1
  Br  Br7  1  0.16738100  0.33476100  0.25000000  1
