# generated using pymatgen
data_TmRhO3
_symmetry_space_group_name_H-M   'P 1'
_cell_length_a   5.24320500
_cell_length_b   5.76201700
_cell_length_c   7.59347300
_cell_angle_alpha   90.00000000
_cell_angle_beta   90.00000000
_cell_angle_gamma   90.00000000
_symmetry_Int_Tables_number   1
_chemical_formula_structural   TmRhO3
_chemical_formula_sum   'Tm4 Rh4 O12'
_cell_volume   229.40972617
_cell_formula_units_Z   4
loop_
 _symmetry_equiv_pos_site_id
 _symmetry_equiv_pos_as_xyz
  1  'x, y, z'
loop_
 _atom_site_type_symbol
 _atom_site_label
 _atom_site_symmetry_multiplicity
 _atom_site_fract_x
 _atom_site_fract_y
 _atom_site_fract_z
 _atom_site_occupancy
  Tm  Tm0  1  0.03268700  0.41330000  0.25000000  1
  Tm  Tm1  1  0.96731300  0.58670000  0.75000000  1
  Tm  Tm2  1  0.53268700  0.08670000  0.75000000  1
  Tm  Tm3  1  0.46731300  0.91330000  0.25000000  1
  Rh  Rh4  1  0.00000000  0.00000000  0.00000000  1
  Rh  Rh5  1  0.50000000  0.50000000  0.00000000  1
  Rh  Rh6  1  0.00000000  0.00000000  0.50000000  1
  Rh  Rh7  1  0.50000000  0.50000000  0.50000000  1
  O  O8  1  0.32399700  0.18914900  0.06701200  1
  O  O9  1  0.67600300  0.81085100  0.93298800  1
  O  O10  1  0.82399700  0.31085100  0.93298800  1
  O  O11  1  0.67600300  0.81085100  0.56701200  1
  O  O12  1  0.17600300  0.68914900  0.06701200  1
  O  O13  1  0.32399700  0.18914900  0.43298800  1
  O  O14  1  0.17600300  0.68914900  0.43298800  1
  O  O15  1  0.82399700  0.31085100  0.56701200  1
  O  O16  1  0.64437300  0.55883800  0.25000000  1
  O  O17  1  0.35562700  0.44116200  0.75000000  1
  O  O18  1  0.14437300  0.94116200  0.75000000  1
  O  O19  1  0.85562700  0.05883800  0.25000000  1
