# generated using pymatgen
data_Rb2MnV2O7
_symmetry_space_group_name_H-M   'P 1'
_cell_length_a   8.75817000
_cell_length_b   8.75817000
_cell_length_c   12.05909800
_cell_angle_alpha   90.00000000
_cell_angle_beta   90.00000000
_cell_angle_gamma   90.00000000
_symmetry_Int_Tables_number   1
_chemical_formula_structural   Rb2MnV2O7
_chemical_formula_sum   'Rb8 Mn4 V8 O28'
_cell_volume   924.99964509
_cell_formula_units_Z   4
loop_
 _symmetry_equiv_pos_site_id
 _symmetry_equiv_pos_as_xyz
  1  'x, y, z'
loop_
 _atom_site_type_symbol
 _atom_site_label
 _atom_site_symmetry_multiplicity
 _atom_site_fract_x
 _atom_site_fract_y
 _atom_site_fract_z
 _atom_site_occupancy
  Rb  Rb0  1  0.15061900  0.84938100  0.50000000  1
  Rb  Rb1  1  0.65061900  0.65061900  0.00000000  1
  Rb  Rb2  1  0.34938100  0.34938100  0.00000000  1
  Rb  Rb3  1  0.84938100  0.15061900  0.50000000  1
  Rb  Rb4  1  0.67962700  0.67962700  0.50000000  1
  Rb  Rb5  1  0.82037300  0.17962700  0.00000000  1
  Rb  Rb6  1  0.17962700  0.82037300  0.00000000  1
  Rb  Rb7  1  0.32037300  0.32037300  0.50000000  1
  Mn  Mn8  1  0.00000000  0.50000000  0.75000000  1
  Mn  Mn9  1  0.00000000  0.50000000  0.25000000  1
  Mn  Mn10  1  0.50000000  0.00000000  0.75000000  1
  Mn  Mn11  1  0.50000000  0.00000000  0.25000000  1
  V  V12  1  0.63914900  0.36085100  0.71607200  1
  V  V13  1  0.36085100  0.63914900  0.71607200  1
  V  V14  1  0.36085100  0.63914900  0.28392800  1
  V  V15  1  0.86085100  0.86085100  0.21607200  1
  V  V16  1  0.13914900  0.13914900  0.21607200  1
  V  V17  1  0.86085100  0.86085100  0.78392800  1
  V  V18  1  0.13914900  0.13914900  0.78392800  1
  V  V19  1  0.63914900  0.36085100  0.28392800  1
  O  O20  1  0.64022200  0.35977800  0.85553600  1
  O  O21  1  0.35977800  0.64022200  0.85553600  1
  O  O22  1  0.35977800  0.64022200  0.14446400  1
  O  O23  1  0.85977800  0.85977800  0.35553600  1
  O  O24  1  0.14022200  0.14022200  0.35553600  1
  O  O25  1  0.85977800  0.85977800  0.64446400  1
  O  O26  1  0.14022200  0.14022200  0.64446400  1
  O  O27  1  0.64022200  0.35977800  0.14446400  1
  O  O28  1  0.50000000  0.50000000  0.66362600  1
  O  O29  1  0.00000000  0.00000000  0.16362600  1
  O  O30  1  0.00000000  0.00000000  0.83637400  1
  O  O31  1  0.50000000  0.50000000  0.33637400  1
  O  O32  1  0.18349800  0.58669300  0.33747700  1
  O  O33  1  0.81650200  0.41330700  0.33747700  1
  O  O34  1  0.58669300  0.18349800  0.66252300  1
  O  O35  1  0.08669300  0.31650200  0.83747700  1
  O  O36  1  0.91330700  0.68349800  0.83747700  1
  O  O37  1  0.31650200  0.08669300  0.16252300  1
  O  O38  1  0.68349800  0.91330700  0.16252300  1
  O  O39  1  0.41330700  0.81650200  0.66252300  1
  O  O40  1  0.58669300  0.18349800  0.33747700  1
  O  O41  1  0.31650200  0.08669300  0.83747700  1
  O  O42  1  0.68349800  0.91330700  0.83747700  1
  O  O43  1  0.08669300  0.31650200  0.16252300  1
  O  O44  1  0.91330700  0.68349800  0.16252300  1
  O  O45  1  0.41330700  0.81650200  0.33747700  1
  O  O46  1  0.18349800  0.58669300  0.66252300  1
  O  O47  1  0.81650200  0.41330700  0.66252300  1
