# generated using pymatgen
data_K3V2(S2O9)2
_symmetry_space_group_name_H-M   'P 1'
_cell_length_a   18.69244100
_cell_length_b   9.18035300
_cell_length_c   10.09792822
_cell_angle_alpha   89.97185122
_cell_angle_beta   90.00000000
_cell_angle_gamma   90.00000000
_symmetry_Int_Tables_number   1
_chemical_formula_structural   K3V2(S2O9)2
_chemical_formula_sum   'K12 V8 S16 O72'
_cell_volume   1732.83665535
_cell_formula_units_Z   4
loop_
 _symmetry_equiv_pos_site_id
 _symmetry_equiv_pos_as_xyz
  1  'x, y, z'
loop_
 _atom_site_type_symbol
 _atom_site_label
 _atom_site_symmetry_multiplicity
 _atom_site_fract_x
 _atom_site_fract_y
 _atom_site_fract_z
 _atom_site_occupancy
  K  K0  1  0.11838400  0.91682500  0.85825300  1
  K  K1  1  0.61838400  0.08317500  0.14174700  1
  K  K2  1  0.11448700  0.91942600  0.38074800  1
  K  K3  1  0.61448700  0.08057400  0.61925200  1
  K  K4  1  0.49626000  0.75770800  0.87998500  1
  K  K5  1  0.99626000  0.24229200  0.12001500  1
  K  K6  1  0.50041700  0.74267000  0.36916900  1
  K  K7  1  0.00041700  0.25733000  0.63083100  1
  K  K8  1  0.88135600  0.58480700  0.88943000  1
  K  K9  1  0.38135600  0.41519300  0.11057000  1
  K  K10  1  0.87945400  0.57852900  0.37011800  1
  K  K11  1  0.37945400  0.42147100  0.62988200  1
  V  V12  1  0.31613400  0.04485900  0.87806300  1
  V  V13  1  0.81613400  0.95514100  0.12193700  1
  V  V14  1  0.67890300  0.45720300  0.37136400  1
  V  V15  1  0.17890300  0.54279700  0.62863600  1
  V  V16  1  0.31362900  0.03297200  0.37717700  1
  V  V17  1  0.81362900  0.96702800  0.62282300  1
  V  V18  1  0.68440100  0.46796800  0.86965200  1
  V  V19  1  0.18440100  0.53203200  0.13034800  1
  S  S20  1  0.28790000  0.63169200  0.37531900  1
  S  S21  1  0.78790000  0.36830800  0.62468100  1
  S  S22  1  0.28703400  0.63443200  0.87681400  1
  S  S23  1  0.78703400  0.36556800  0.12318600  1
  S  S24  1  0.20925200  0.13346100  0.12687800  1
  S  S25  1  0.70925200  0.86653900  0.87312200  1
  S  S26  1  0.20848300  0.13479700  0.62204000  1
  S  S27  1  0.70848300  0.86520300  0.37796000  1
  S  S28  1  0.07632000  0.49766800  0.88801300  1
  S  S29  1  0.57632000  0.50233200  0.11198700  1
  S  S30  1  0.07576400  0.49882300  0.37589600  1
  S  S31  1  0.57576400  0.50117700  0.62410400  1
  S  S32  1  0.41932000  0.99899700  0.62611600  1
  S  S33  1  0.91932000  0.00100300  0.37388400  1
  S  S34  1  0.42157600  0.99848600  0.13533300  1
  S  S35  1  0.92157600  0.00151400  0.86466700  1
  O  O36  1  0.34603500  0.21068600  0.88066400  1
  O  O37  1  0.84603500  0.78931400  0.11933600  1
  O  O38  1  0.34447700  0.19600300  0.37835900  1
  O  O39  1  0.84447700  0.80399700  0.62164100  1
  O  O40  1  0.87294900  0.04913300  0.97517200  1
  O  O41  1  0.37294900  0.95086700  0.02482800  1
  O  O42  1  0.86255800  0.05183200  0.47641000  1
  O  O43  1  0.36255800  0.94816800  0.52359000  1
  O  O44  1  0.24502600  0.04701300  0.72759900  1
  O  O45  1  0.74502600  0.95298700  0.27240100  1
  O  O46  1  0.24806000  0.03917700  0.23071900  1
  O  O47  1  0.74806000  0.96082300  0.76928100  1
  O  O48  1  0.38966500  0.94761300  0.75742800  1
  O  O49  1  0.88966500  0.05238700  0.24257200  1
  O  O50  1  0.38473400  0.94191700  0.26330900  1
  O  O51  1  0.88473400  0.05808300  0.73669100  1
  O  O52  1  0.22774800  0.06580400  0.99557900  1
  O  O53  1  0.72774800  0.93419600  0.00442100  1
  O  O54  1  0.22958200  0.06220200  0.48995400  1
  O  O55  1  0.72958200  0.93779800  0.51004600  1
  O  O56  1  0.26205700  0.78485200  0.88649900  1
  O  O57  1  0.76205700  0.21514800  0.11350100  1
  O  O58  1  0.26243600  0.78260100  0.37467700  1
  O  O59  1  0.76243600  0.21739900  0.62532300  1
  O  O60  1  0.15376800  0.69513200  0.13197500  1
  O  O61  1  0.65376800  0.30486800  0.86802500  1
  O  O62  1  0.14903900  0.70879100  0.62909200  1
  O  O63  1  0.64903900  0.29120900  0.37090800  1
  O  O64  1  0.25003400  0.54034800  0.98310000  1
  O  O65  1  0.75003400  0.45965200  0.01690000  1
  O  O66  1  0.25002000  0.54341300  0.47836200  1
  O  O67  1  0.75002000  0.45658700  0.52163800  1
  O  O68  1  0.13319000  0.44781200  0.27462800  1
  O  O69  1  0.63319000  0.55218800  0.72537200  1
  O  O70  1  0.12213700  0.44631900  0.77450900  1
  O  O71  1  0.62213700  0.55368100  0.22549100  1
  O  O72  1  0.11481100  0.44037500  0.01390300  1
  O  O73  1  0.61481100  0.55962500  0.98609700  1
  O  O74  1  0.10473300  0.44877600  0.50788500  1
  O  O75  1  0.60473300  0.55122400  0.49211500  1
  O  O76  1  0.76869100  0.44074600  0.75794100  1
  O  O77  1  0.26869100  0.55925400  0.24205900  1
  O  O78  1  0.76610500  0.43334700  0.25323400  1
  O  O79  1  0.26610500  0.56665300  0.74676600  1
  O  O80  1  0.23589000  0.28312900  0.13560600  1
  O  O81  1  0.73589000  0.71687100  0.86439400  1
  O  O82  1  0.23261700  0.28627300  0.62325100  1
  O  O83  1  0.73261700  0.71372700  0.37674900  1
  O  O84  1  0.36499400  0.61185000  0.39026100  1
  O  O85  1  0.86499400  0.38815000  0.60973900  1
  O  O86  1  0.36387000  0.61248100  0.89396300  1
  O  O87  1  0.86387000  0.38751900  0.10603700  1
  O  O88  1  0.13279400  0.11410200  0.14963300  1
  O  O89  1  0.63279400  0.88589800  0.85036700  1
  O  O90  1  0.13125400  0.11292100  0.63304300  1
  O  O91  1  0.63125400  0.88707900  0.36695700  1
  O  O92  1  0.00774400  0.42050400  0.88359100  1
  O  O93  1  0.50774400  0.57949600  0.11640900  1
  O  O94  1  0.01034600  0.41674800  0.34884900  1
  O  O95  1  0.51034600  0.58325200  0.65115100  1
  O  O96  1  0.06999800  0.65488900  0.89280900  1
  O  O97  1  0.56999800  0.34511100  0.10719100  1
  O  O98  1  0.06722300  0.65542300  0.36875000  1
  O  O99  1  0.56722300  0.34457700  0.63125000  1
  O  O100  1  0.48498500  0.91775600  0.59928400  1
  O  O101  1  0.98498500  0.08224400  0.40071600  1
  O  O102  1  0.48915700  0.91824200  0.12618200  1
  O  O103  1  0.98915700  0.08175800  0.87381800  1
  O  O104  1  0.42746300  0.15578300  0.62072000  1
  O  O105  1  0.92746300  0.84421700  0.37928000  1
  O  O106  1  0.43003800  0.15525300  0.14149400  1
  O  O107  1  0.93003800  0.84474700  0.85850600  1
