# generated using pymatgen
data_HoCo3P2
_symmetry_space_group_name_H-M   'P 1'
_cell_length_a   3.69360800
_cell_length_b   10.54847100
_cell_length_c   12.19093100
_cell_angle_alpha   90.00000000
_cell_angle_beta   90.00000000
_cell_angle_gamma   90.00000000
_symmetry_Int_Tables_number   1
_chemical_formula_structural   HoCo3P2
_chemical_formula_sum   'Ho6 Co18 P12'
_cell_volume   474.98204023
_cell_formula_units_Z   6
loop_
 _symmetry_equiv_pos_site_id
 _symmetry_equiv_pos_as_xyz
  1  'x, y, z'
loop_
 _atom_site_type_symbol
 _atom_site_label
 _atom_site_symmetry_multiplicity
 _atom_site_fract_x
 _atom_site_fract_y
 _atom_site_fract_z
 _atom_site_occupancy
  Ho  Ho0  1  0.00000000  0.50000000  0.52298600  1
  Ho  Ho1  1  0.50000000  0.00000000  0.47701400  1
  Ho  Ho2  1  0.50000000  0.81679300  0.20575200  1
  Ho  Ho3  1  0.50000000  0.18320700  0.20575200  1
  Ho  Ho4  1  0.00000000  0.68320700  0.79424800  1
  Ho  Ho5  1  0.00000000  0.31679300  0.79424800  1
  Co  Co6  1  0.00000000  0.50000000  0.98545700  1
  Co  Co7  1  0.50000000  0.00000000  0.01454300  1
  Co  Co8  1  0.50000000  0.29715900  0.43091600  1
  Co  Co9  1  0.50000000  0.70284100  0.43091600  1
  Co  Co10  1  0.00000000  0.20284100  0.56908400  1
  Co  Co11  1  0.00000000  0.79715900  0.56908400  1
  Co  Co12  1  0.50000000  0.87920000  0.70914300  1
  Co  Co13  1  0.50000000  0.12080000  0.70914300  1
  Co  Co14  1  0.00000000  0.62080000  0.29085700  1
  Co  Co15  1  0.00000000  0.37920000  0.29085700  1
  Co  Co16  1  0.50000000  0.33313800  0.99427600  1
  Co  Co17  1  0.50000000  0.66686200  0.99427600  1
  Co  Co18  1  0.00000000  0.16686200  0.00572400  1
  Co  Co19  1  0.00000000  0.83313800  0.00572400  1
  Co  Co20  1  0.50000000  0.50000000  0.15918600  1
  Co  Co21  1  0.00000000  0.00000000  0.84081400  1
  Co  Co22  1  0.50000000  0.50000000  0.70302700  1
  Co  Co23  1  0.00000000  0.00000000  0.29697300  1
  P  P24  1  0.50000000  0.31104900  0.61649000  1
  P  P25  1  0.50000000  0.68895100  0.61649000  1
  P  P26  1  0.00000000  0.18895100  0.38351000  1
  P  P27  1  0.00000000  0.81104900  0.38351000  1
  P  P28  1  0.50000000  0.50000000  0.88198300  1
  P  P29  1  0.00000000  0.00000000  0.11801700  1
  P  P30  1  0.50000000  0.84799000  0.89282500  1
  P  P31  1  0.50000000  0.15201000  0.89282500  1
  P  P32  1  0.00000000  0.65201000  0.10717500  1
  P  P33  1  0.00000000  0.34799000  0.10717500  1
  P  P34  1  0.50000000  0.50000000  0.34472900  1
  P  P35  1  0.00000000  0.00000000  0.65527100  1
