# generated using pymatgen
data_Cs2NaAs7
_symmetry_space_group_name_H-M   'P 1'
_cell_length_a   11.26426700
_cell_length_b   10.37129900
_cell_length_c   12.08383135
_cell_angle_alpha   89.98616423
_cell_angle_beta   90.00000000
_cell_angle_gamma   90.00000000
_symmetry_Int_Tables_number   1
_chemical_formula_structural   Cs2NaAs7
_chemical_formula_sum   'Cs8 Na4 As28'
_cell_volume   1411.69453625
_cell_formula_units_Z   4
loop_
 _symmetry_equiv_pos_site_id
 _symmetry_equiv_pos_as_xyz
  1  'x, y, z'
loop_
 _atom_site_type_symbol
 _atom_site_label
 _atom_site_symmetry_multiplicity
 _atom_site_fract_x
 _atom_site_fract_y
 _atom_site_fract_z
 _atom_site_occupancy
  Cs  Cs0  1  0.30338300  0.45902700  0.98679100  1
  Cs  Cs1  1  0.80338300  0.04097300  0.01320900  1
  Cs  Cs2  1  0.69661700  0.54097300  0.01320900  1
  Cs  Cs3  1  0.19661700  0.95902700  0.98679100  1
  Cs  Cs4  1  0.99792300  0.35641900  0.73316900  1
  Cs  Cs5  1  0.49792300  0.14358100  0.26683100  1
  Cs  Cs6  1  0.00207700  0.64358100  0.26683100  1
  Cs  Cs7  1  0.50207700  0.85641900  0.73316900  1
  Na  Na8  1  0.19094800  0.05419800  0.46013400  1
  Na  Na9  1  0.69094800  0.44580200  0.53986600  1
  Na  Na10  1  0.80905200  0.94580200  0.53986600  1
  Na  Na11  1  0.30905200  0.55419800  0.46013400  1
  As  As12  1  0.49943000  0.17601500  0.90317600  1
  As  As13  1  0.99943000  0.32398500  0.09682400  1
  As  As14  1  0.50057000  0.82398500  0.09682400  1
  As  As15  1  0.00057000  0.67601500  0.90317600  1
  As  As16  1  0.65041700  0.28368000  0.78976500  1
  As  As17  1  0.15041700  0.21632000  0.21023500  1
  As  As18  1  0.34958300  0.71632000  0.21023500  1
  As  As19  1  0.84958300  0.78368000  0.78976500  1
  As  As20  1  0.33507600  0.18530900  0.77851900  1
  As  As21  1  0.83507600  0.31469100  0.22148100  1
  As  As22  1  0.66492400  0.81469100  0.22148100  1
  As  As23  1  0.16492400  0.68530900  0.77851900  1
  As  As24  1  0.95553100  0.98489800  0.74421100  1
  As  As25  1  0.45553100  0.51510200  0.25578900  1
  As  As26  1  0.04446900  0.01510200  0.25578900  1
  As  As27  1  0.54446900  0.48489800  0.74421100  1
  As  As28  1  0.36480700  0.39694600  0.67089900  1
  As  As29  1  0.86480700  0.10305400  0.32910100  1
  As  As30  1  0.63519300  0.60305400  0.32910100  1
  As  As31  1  0.13519300  0.89694600  0.67089900  1
  As  As32  1  0.42476000  0.18453400  0.58506900  1
  As  As33  1  0.92476000  0.31546600  0.41493100  1
  As  As34  1  0.57524000  0.81546600  0.41493100  1
  As  As35  1  0.07524000  0.68453400  0.58506900  1
  As  As36  1  0.13505300  0.33137100  0.38706700  1
  As  As37  1  0.63505300  0.16862900  0.61293300  1
  As  As38  1  0.86494700  0.66862900  0.61293300  1
  As  As39  1  0.36494700  0.83137100  0.38706700  1
