# generated using pymatgen
data_Cs2NpO4
_symmetry_space_group_name_H-M   'P 1'
_cell_length_a   8.38372406
_cell_length_b   8.38372406
_cell_length_c   8.38372406
_cell_angle_alpha   149.54854990
_cell_angle_beta   149.54854990
_cell_angle_gamma   43.60448866
_symmetry_Int_Tables_number   1
_chemical_formula_structural   Cs2NpO4
_chemical_formula_sum   'Cs2 Np1 O4'
_cell_volume   150.93954236
_cell_formula_units_Z   1
loop_
 _symmetry_equiv_pos_site_id
 _symmetry_equiv_pos_as_xyz
  1  'x, y, z'
loop_
 _atom_site_type_symbol
 _atom_site_label
 _atom_site_symmetry_multiplicity
 _atom_site_fract_x
 _atom_site_fract_y
 _atom_site_fract_z
 _atom_site_occupancy
  Cs  Cs0  1  0.34920700  0.34920700  0.00000000  1
  Cs  Cs1  1  0.65079300  0.65079300  0.00000000  1
  Np  Np2  1  0.00000000  0.00000000  0.00000000  1
  O  O3  1  0.12348300  0.12348300  0.00000000  1
  O  O4  1  0.87651700  0.87651700  0.00000000  1
  O  O5  1  0.50000000  0.00000000  0.50000000  1
  O  O6  1  0.00000000  0.50000000  0.50000000  1
