# generated using pymatgen
data_FeB
_symmetry_space_group_name_H-M   'P 1'
_cell_length_a   7.76109276
_cell_length_b   7.76109276
_cell_length_c   7.76109276
_cell_angle_alpha   158.22651225
_cell_angle_beta   158.22651225
_cell_angle_gamma   30.98354979
_symmetry_Int_Tables_number   1
_chemical_formula_structural   FeB
_chemical_formula_sum   'Fe4 B4'
_cell_volume   64.27977134
_cell_formula_units_Z   4
loop_
 _symmetry_equiv_pos_site_id
 _symmetry_equiv_pos_as_xyz
  1  'x, y, z'
loop_
 _atom_site_type_symbol
 _atom_site_label
 _atom_site_symmetry_multiplicity
 _atom_site_fract_x
 _atom_site_fract_y
 _atom_site_fract_z
 _atom_site_occupancy
  Fe  Fe0  1  0.30401400  0.30401400  0.00000000  1
  Fe  Fe1  1  0.05401400  0.55401400  0.50000000  1
  Fe  Fe2  1  0.44598600  0.94598600  0.50000000  1
  Fe  Fe3  1  0.69598600  0.69598600  0.00000000  1
  B  B4  1  0.84009700  0.84009600  0.00000000  1
  B  B5  1  0.59009700  0.09009600  0.50000000  1
  B  B6  1  0.90990400  0.40990300  0.50000000  1
  B  B7  1  0.15990300  0.15990300  0.00000000  1
