# generated using pymatgen
data_CaCrO4
_symmetry_space_group_name_H-M   'P 1'
_cell_length_a   6.08409919
_cell_length_b   6.08409919
_cell_length_c   6.08409919
_cell_angle_alpha   105.69545123
_cell_angle_beta   105.69545123
_cell_angle_gamma   117.31950056
_symmetry_Int_Tables_number   1
_chemical_formula_structural   CaCrO4
_chemical_formula_sum   'Ca2 Cr2 O8'
_cell_volume   170.89634088
_cell_formula_units_Z   2
loop_
 _symmetry_equiv_pos_site_id
 _symmetry_equiv_pos_as_xyz
  1  'x, y, z'
loop_
 _atom_site_type_symbol
 _atom_site_label
 _atom_site_symmetry_multiplicity
 _atom_site_fract_x
 _atom_site_fract_y
 _atom_site_fract_z
 _atom_site_occupancy
  Ca  Ca0  1  0.25000000  0.75000000  0.50000000  1
  Ca  Ca1  1  0.00000000  0.00000000  0.00000000  1
  Cr  Cr2  1  0.50000000  0.50000000  0.00000000  1
  Cr  Cr3  1  0.75000000  0.25000000  0.50000000  1
  O  O4  1  0.91065100  0.23110000  0.32044900  1
  O  O5  1  0.84020200  0.66065100  0.17955100  1
  O  O6  1  0.48110000  0.66065100  0.82044900  1
  O  O7  1  0.91065100  0.59020200  0.67955100  1
  O  O8  1  0.40979800  0.08934900  0.32044900  1
  O  O9  1  0.33934900  0.51890000  0.17955100  1
  O  O10  1  0.33934900  0.15979800  0.82044900  1
  O  O11  1  0.76890000  0.08934900  0.67955100  1
