# generated using pymatgen
data_Nd2Si4RuRh3
_symmetry_space_group_name_H-M   'P 1'
_cell_length_a   4.14039000
_cell_length_b   4.14039000
_cell_length_c   10.11512100
_cell_angle_alpha   90.00000000
_cell_angle_beta   90.00000000
_cell_angle_gamma   90.00000000
_symmetry_Int_Tables_number   1
_chemical_formula_structural   Nd2Si4RuRh3
_chemical_formula_sum   'Nd2 Si4 Ru1 Rh3'
_cell_volume   173.40179318
_cell_formula_units_Z   1
loop_
 _symmetry_equiv_pos_site_id
 _symmetry_equiv_pos_as_xyz
  1  'x, y, z'
loop_
 _atom_site_type_symbol
 _atom_site_label
 _atom_site_symmetry_multiplicity
 _atom_site_fract_x
 _atom_site_fract_y
 _atom_site_fract_z
 _atom_site_occupancy
  Nd  Nd0  1  0.00000000  0.00000000  0.00283500  1
  Nd  Nd1  1  0.50000000  0.50000000  0.49716500  1
  Si  Si2  1  0.50000000  0.50000000  0.13104100  1
  Si  Si3  1  0.00000000  0.00000000  0.62592000  1
  Si  Si4  1  0.00000000  0.00000000  0.36895900  1
  Si  Si5  1  0.50000000  0.50000000  0.87408000  1
  Ru  Ru6  1  0.00000000  0.50000000  0.25000000  1
  Rh  Rh7  1  0.50000000  0.00000000  0.75000000  1
  Rh  Rh8  1  0.50000000  0.00000000  0.25000000  1
  Rh  Rh9  1  0.00000000  0.50000000  0.75000000  1
