# generated using pymatgen
data_SrGePbO4
_symmetry_space_group_name_H-M   'P 1'
_cell_length_a   6.06871900
_cell_length_b   7.41987000
_cell_length_c   10.06289100
_cell_angle_alpha   90.00000000
_cell_angle_beta   90.00000000
_cell_angle_gamma   90.00000000
_symmetry_Int_Tables_number   1
_chemical_formula_structural   SrGePbO4
_chemical_formula_sum   'Sr4 Ge4 Pb4 O16'
_cell_volume   453.12298597
_cell_formula_units_Z   4
loop_
 _symmetry_equiv_pos_site_id
 _symmetry_equiv_pos_as_xyz
  1  'x, y, z'
loop_
 _atom_site_type_symbol
 _atom_site_label
 _atom_site_symmetry_multiplicity
 _atom_site_fract_x
 _atom_site_fract_y
 _atom_site_fract_z
 _atom_site_occupancy
  Sr  Sr0  1  0.48098000  0.74889200  0.79103800  1
  Sr  Sr1  1  0.98098000  0.75110800  0.20896200  1
  Sr  Sr2  1  0.01902000  0.25110800  0.29103800  1
  Sr  Sr3  1  0.51902000  0.24889200  0.70896200  1
  Ge  Ge4  1  0.52401400  0.96237400  0.08721100  1
  Ge  Ge5  1  0.02401400  0.53762600  0.91278900  1
  Ge  Ge6  1  0.97598600  0.03762600  0.58721100  1
  Ge  Ge7  1  0.47598600  0.46237400  0.41278900  1
  Pb  Pb8  1  0.43436300  0.93824600  0.40887500  1
  Pb  Pb9  1  0.93436300  0.56175400  0.59112500  1
  Pb  Pb10  1  0.06563700  0.06175400  0.90887500  1
  Pb  Pb11  1  0.56563700  0.43824600  0.09112500  1
  O  O12  1  0.45517000  0.06118100  0.93099000  1
  O  O13  1  0.95517000  0.43881900  0.06901000  1
  O  O14  1  0.04483000  0.93881900  0.43099000  1
  O  O15  1  0.54483000  0.56118100  0.56901000  1
  O  O16  1  0.75170300  0.05142900  0.17408700  1
  O  O17  1  0.25170300  0.44857100  0.82591300  1
  O  O18  1  0.74829700  0.94857100  0.67408700  1
  O  O19  1  0.24829700  0.55142900  0.32591300  1
  O  O20  1  0.60526800  0.73655700  0.04910600  1
  O  O21  1  0.10526800  0.76344300  0.95089400  1
  O  O22  1  0.89473200  0.26344300  0.54910600  1
  O  O23  1  0.39473200  0.23655700  0.45089400  1
  O  O24  1  0.28848000  0.98747100  0.19269300  1
  O  O25  1  0.78848000  0.51252900  0.80730700  1
  O  O26  1  0.21152000  0.01252900  0.69269300  1
  O  O27  1  0.71152000  0.48747100  0.30730700  1
