# generated using pymatgen
data_Tm2Re3Si5
_symmetry_space_group_name_H-M   'P 1'
_cell_length_a   10.96561400
_cell_length_b   10.96561400
_cell_length_c   5.49456800
_cell_angle_alpha   90.00000000
_cell_angle_beta   90.00000000
_cell_angle_gamma   90.00000000
_symmetry_Int_Tables_number   1
_chemical_formula_structural   Tm2Re3Si5
_chemical_formula_sum   'Tm8 Re12 Si20'
_cell_volume   660.69262803
_cell_formula_units_Z   4
loop_
 _symmetry_equiv_pos_site_id
 _symmetry_equiv_pos_as_xyz
  1  'x, y, z'
loop_
 _atom_site_type_symbol
 _atom_site_label
 _atom_site_symmetry_multiplicity
 _atom_site_fract_x
 _atom_site_fract_y
 _atom_site_fract_z
 _atom_site_occupancy
  Tm  Tm0  1  0.57714200  0.73782900  0.50000000  1
  Tm  Tm1  1  0.42285800  0.26217100  0.50000000  1
  Tm  Tm2  1  0.07714200  0.76217100  0.00000000  1
  Tm  Tm3  1  0.92285800  0.23782900  0.00000000  1
  Tm  Tm4  1  0.26217100  0.57714200  0.50000000  1
  Tm  Tm5  1  0.73782900  0.42285800  0.50000000  1
  Tm  Tm6  1  0.23782900  0.07714200  0.00000000  1
  Tm  Tm7  1  0.76217100  0.92285800  0.00000000  1
  Re  Re8  1  0.87589800  0.85370000  0.50000000  1
  Re  Re9  1  0.12410200  0.14630000  0.50000000  1
  Re  Re10  1  0.37589800  0.64630000  0.00000000  1
  Re  Re11  1  0.62410200  0.35370000  0.00000000  1
  Re  Re12  1  0.14630000  0.87589800  0.50000000  1
  Re  Re13  1  0.85370000  0.12410200  0.50000000  1
  Re  Re14  1  0.35370000  0.37589800  0.00000000  1
  Re  Re15  1  0.64630000  0.62410200  0.00000000  1
  Re  Re16  1  0.50000000  0.00000000  0.25000000  1
  Re  Re17  1  0.00000000  0.50000000  0.75000000  1
  Re  Re18  1  0.00000000  0.50000000  0.25000000  1
  Re  Re19  1  0.50000000  0.00000000  0.75000000  1
  Si  Si20  1  0.67340400  0.17340400  0.25000000  1
  Si  Si21  1  0.32659600  0.82659600  0.25000000  1
  Si  Si22  1  0.17340400  0.32659600  0.75000000  1
  Si  Si23  1  0.82659600  0.67340400  0.75000000  1
  Si  Si24  1  0.82659600  0.67340400  0.25000000  1
  Si  Si25  1  0.17340400  0.32659600  0.25000000  1
  Si  Si26  1  0.67340400  0.17340400  0.75000000  1
  Si  Si27  1  0.32659600  0.82659600  0.75000000  1
  Si  Si28  1  0.50000000  0.50000000  0.26035200  1
  Si  Si29  1  0.00000000  0.00000000  0.76035200  1
  Si  Si30  1  0.50000000  0.50000000  0.73964800  1
  Si  Si31  1  0.00000000  0.00000000  0.23964800  1
  Si  Si32  1  0.68592600  0.97187700  0.50000000  1
  Si  Si33  1  0.31407400  0.02812300  0.50000000  1
  Si  Si34  1  0.18592600  0.52812300  0.00000000  1
  Si  Si35  1  0.81407400  0.47187700  0.00000000  1
  Si  Si36  1  0.02812300  0.68592600  0.50000000  1
  Si  Si37  1  0.97187700  0.31407400  0.50000000  1
  Si  Si38  1  0.47187700  0.18592600  0.00000000  1
  Si  Si39  1  0.52812300  0.81407400  0.00000000  1
