# generated using pymatgen
data_Ce4Ge7
_symmetry_space_group_name_H-M   'P 1'
_cell_length_a   7.70232844
_cell_length_b   7.70232844
_cell_length_c   11.90406100
_cell_angle_alpha   90.00000000
_cell_angle_beta   90.00000000
_cell_angle_gamma   134.52967981
_symmetry_Int_Tables_number   1
_chemical_formula_structural   Ce4Ge7
_chemical_formula_sum   'Ce8 Ge14'
_cell_volume   503.45432253
_cell_formula_units_Z   2
loop_
 _symmetry_equiv_pos_site_id
 _symmetry_equiv_pos_as_xyz
  1  'x, y, z'
loop_
 _atom_site_type_symbol
 _atom_site_label
 _atom_site_symmetry_multiplicity
 _atom_site_fract_x
 _atom_site_fract_y
 _atom_site_fract_z
 _atom_site_occupancy
  Ce  Ce0  1  0.99390600  0.48434700  0.38048600  1
  Ce  Ce1  1  0.00609400  0.51565300  0.88048600  1
  Ce  Ce2  1  0.51565300  0.00609400  0.11951400  1
  Ce  Ce3  1  0.48434700  0.99390600  0.61951400  1
  Ce  Ce4  1  0.49416100  0.50583900  0.25000000  1
  Ce  Ce5  1  0.50583900  0.49416100  0.75000000  1
  Ce  Ce6  1  0.00919200  0.00919200  0.00000000  1
  Ce  Ce7  1  0.99080800  0.99080800  0.50000000  1
  Ge  Ge8  1  0.93882200  0.06117800  0.25000000  1
  Ge  Ge9  1  0.06117800  0.93882200  0.75000000  1
  Ge  Ge10  1  0.07345700  0.42053300  0.12765800  1
  Ge  Ge11  1  0.92654300  0.57946700  0.62765800  1
  Ge  Ge12  1  0.57946700  0.92654300  0.37234200  1
  Ge  Ge13  1  0.42053300  0.07345700  0.87234200  1
  Ge  Ge14  1  0.96854700  0.67497200  0.16086300  1
  Ge  Ge15  1  0.03145300  0.32502800  0.66086300  1
  Ge  Ge16  1  0.32502800  0.03145300  0.33913700  1
  Ge  Ge17  1  0.67497200  0.96854700  0.83913700  1
  Ge  Ge18  1  0.60398500  0.42742800  0.00998500  1
  Ge  Ge19  1  0.39601500  0.57257200  0.50998500  1
  Ge  Ge20  1  0.57257200  0.39601500  0.49001500  1
  Ge  Ge21  1  0.42742800  0.60398500  0.99001500  1
