# generated using pymatgen
data_K3HoF6
_symmetry_space_group_name_H-M   'P 1'
_cell_length_a   6.59136100
_cell_length_b   6.38355500
_cell_length_c   11.10578316
_cell_angle_alpha   55.33601758
_cell_angle_beta   90.00000000
_cell_angle_gamma   90.00000000
_symmetry_Int_Tables_number   1
_chemical_formula_structural   K3HoF6
_chemical_formula_sum   'K6 Ho2 F12'
_cell_volume   384.34719763
_cell_formula_units_Z   2
loop_
 _symmetry_equiv_pos_site_id
 _symmetry_equiv_pos_as_xyz
  1  'x, y, z'
loop_
 _atom_site_type_symbol
 _atom_site_label
 _atom_site_symmetry_multiplicity
 _atom_site_fract_x
 _atom_site_fract_y
 _atom_site_fract_z
 _atom_site_occupancy
  K  K0  1  0.50000000  0.50000000  0.00000000  1
  K  K1  1  0.00000000  0.50000000  0.50000000  1
  K  K2  1  0.04935000  0.73492300  0.75314300  1
  K  K3  1  0.95065000  0.26507700  0.24685700  1
  K  K4  1  0.54935000  0.26507700  0.74685700  1
  K  K5  1  0.45065000  0.73492300  0.25314300  1
  Ho  Ho6  1  0.50000000  0.00000000  0.50000000  1
  Ho  Ho7  1  0.00000000  0.00000000  0.00000000  1
  F  F8  1  0.77258200  0.76676800  0.56449400  1
  F  F9  1  0.22741800  0.23323200  0.43550600  1
  F  F10  1  0.27258200  0.23323200  0.93550600  1
  F  F11  1  0.72741800  0.76676800  0.06449400  1
  F  F12  1  0.44976400  0.88245900  0.72380800  1
  F  F13  1  0.55023600  0.11754100  0.27619200  1
  F  F14  1  0.94976400  0.11754100  0.77619200  1
  F  F15  1  0.05023600  0.88245900  0.22380800  1
  F  F16  1  0.32443400  0.67417200  0.54750200  1
  F  F17  1  0.67556600  0.32582800  0.45249800  1
  F  F18  1  0.82443400  0.32582800  0.95249800  1
  F  F19  1  0.17556600  0.67417200  0.04750200  1
