# generated using pymatgen
data_LiTb(PO3)4
_symmetry_space_group_name_H-M   'P 1'
_cell_length_a   8.98003709
_cell_length_b   8.98003709
_cell_length_c   9.73161920
_cell_angle_alpha   57.27133571
_cell_angle_beta   57.27133571
_cell_angle_gamma   46.81791224
_symmetry_Int_Tables_number   1
_chemical_formula_structural   LiTb(PO3)4
_chemical_formula_sum   'Li2 Tb2 P8 O24'
_cell_volume   462.38166688
_cell_formula_units_Z   2
loop_
 _symmetry_equiv_pos_site_id
 _symmetry_equiv_pos_as_xyz
  1  'x, y, z'
loop_
 _atom_site_type_symbol
 _atom_site_label
 _atom_site_symmetry_multiplicity
 _atom_site_fract_x
 _atom_site_fract_y
 _atom_site_fract_z
 _atom_site_occupancy
  Li  Li0  1  0.29371500  0.70628500  0.25000000  1
  Li  Li1  1  0.70628500  0.29371500  0.75000000  1
  Tb  Tb2  1  0.79631400  0.20368600  0.25000000  1
  Tb  Tb3  1  0.20368600  0.79631400  0.75000000  1
  P  P4  1  0.41442300  0.31120400  0.11585200  1
  P  P5  1  0.00498600  0.70367500  0.19417800  1
  P  P6  1  0.29632500  0.99501400  0.30582200  1
  P  P7  1  0.99501400  0.29632500  0.80582200  1
  P  P8  1  0.70367500  0.00498600  0.69417800  1
  P  P9  1  0.58557700  0.68879600  0.88414800  1
  P  P10  1  0.68879600  0.58557700  0.38414800  1
  P  P11  1  0.31120400  0.41442300  0.61585200  1
  O  O12  1  0.17618000  0.60057900  0.68339600  1
  O  O13  1  0.43763400  0.42884100  0.92893200  1
  O  O14  1  0.57115900  0.56236600  0.57106800  1
  O  O15  1  0.56236600  0.57115900  0.07106800  1
  O  O16  1  0.42884100  0.43763400  0.42893200  1
  O  O17  1  0.82512800  0.66526100  0.34798600  1
  O  O18  1  0.33473900  0.17487200  0.15201400  1
  O  O19  1  0.17487200  0.33473900  0.65201400  1
  O  O20  1  0.66526100  0.82512800  0.84798600  1
  O  O21  1  0.21774700  0.47049600  0.23221600  1
  O  O22  1  0.15627200  0.98842800  0.27227700  1
  O  O23  1  0.39942100  0.82382000  0.81660400  1
  O  O24  1  0.82382000  0.39942100  0.31660400  1
  O  O25  1  0.60057900  0.17618000  0.18339600  1
  O  O26  1  0.84372800  0.01157200  0.72772300  1
  O  O27  1  0.98842800  0.15627200  0.77227700  1
  O  O28  1  0.01157200  0.84372800  0.22772300  1
  O  O29  1  0.78225300  0.52950400  0.76778400  1
  O  O30  1  0.75870700  0.99089500  0.52458700  1
  O  O31  1  0.00910500  0.24129300  0.97541300  1
  O  O32  1  0.24129300  0.00910500  0.47541300  1
  O  O33  1  0.99089500  0.75870700  0.02458700  1
  O  O34  1  0.47049600  0.21774700  0.73221600  1
  O  O35  1  0.52950400  0.78225300  0.26778400  1
