# generated using pymatgen
data_ErAlPt
_symmetry_space_group_name_H-M   'P 1'
_cell_length_a   4.42661100
_cell_length_b   6.83369300
_cell_length_c   7.69986300
_cell_angle_alpha   90.00000000
_cell_angle_beta   90.00000000
_cell_angle_gamma   90.00000000
_symmetry_Int_Tables_number   1
_chemical_formula_structural   ErAlPt
_chemical_formula_sum   'Er4 Al4 Pt4'
_cell_volume   232.92163039
_cell_formula_units_Z   4
loop_
 _symmetry_equiv_pos_site_id
 _symmetry_equiv_pos_as_xyz
  1  'x, y, z'
loop_
 _atom_site_type_symbol
 _atom_site_label
 _atom_site_symmetry_multiplicity
 _atom_site_fract_x
 _atom_site_fract_y
 _atom_site_fract_z
 _atom_site_occupancy
  Er  Er0  1  0.25000000  0.47378000  0.18399700  1
  Er  Er1  1  0.75000000  0.52622000  0.81600300  1
  Er  Er2  1  0.75000000  0.02622000  0.68399700  1
  Er  Er3  1  0.25000000  0.97378000  0.31600300  1
  Al  Al4  1  0.25000000  0.84900200  0.93549600  1
  Al  Al5  1  0.75000000  0.15099800  0.06450400  1
  Al  Al6  1  0.75000000  0.65099800  0.43549600  1
  Al  Al7  1  0.25000000  0.34900200  0.56450400  1
  Pt  Pt8  1  0.25000000  0.72740400  0.61238600  1
  Pt  Pt9  1  0.75000000  0.27259600  0.38761400  1
  Pt  Pt10  1  0.75000000  0.77259600  0.11238600  1
  Pt  Pt11  1  0.25000000  0.22740400  0.88761400  1
