# generated using pymatgen
data_TiAs2O7
_symmetry_space_group_name_H-M   'P 1'
_cell_length_a   13.19610200
_cell_length_b   5.23651200
_cell_length_c   9.84338112
_cell_angle_alpha   59.09363181
_cell_angle_beta   90.00000000
_cell_angle_gamma   90.00000000
_symmetry_Int_Tables_number   1
_chemical_formula_structural   TiAs2O7
_chemical_formula_sum   'Ti4 As8 O28'
_cell_volume   583.61079287
_cell_formula_units_Z   4
loop_
 _symmetry_equiv_pos_site_id
 _symmetry_equiv_pos_as_xyz
  1  'x, y, z'
loop_
 _atom_site_type_symbol
 _atom_site_label
 _atom_site_symmetry_multiplicity
 _atom_site_fract_x
 _atom_site_fract_y
 _atom_site_fract_z
 _atom_site_occupancy
  Ti  Ti0  1  0.34809500  0.36547800  0.34467600  1
  Ti  Ti1  1  0.84809500  0.63452200  0.15532400  1
  Ti  Ti2  1  0.65190500  0.63452200  0.65532400  1
  Ti  Ti3  1  0.15190500  0.36547800  0.84467600  1
  As  As4  1  0.30869900  0.77257800  0.93989500  1
  As  As5  1  0.80869900  0.22742200  0.56010500  1
  As  As6  1  0.69130100  0.22742200  0.06010500  1
  As  As7  1  0.19130100  0.77257800  0.43989500  1
  As  As8  1  0.48320600  0.11819900  0.69002100  1
  As  As9  1  0.98320600  0.88180100  0.80997900  1
  As  As10  1  0.51679400  0.88180100  0.30997900  1
  As  As11  1  0.01679400  0.11819900  0.19002100  1
  O  O12  1  0.43611800  0.81650800  0.87060100  1
  O  O13  1  0.93611800  0.18349200  0.62939900  1
  O  O14  1  0.56388200  0.18349200  0.12939900  1
  O  O15  1  0.06388200  0.81650800  0.37060100  1
  O  O16  1  0.03425700  0.64225100  0.76080700  1
  O  O17  1  0.53425700  0.35774900  0.73919300  1
  O  O18  1  0.96574300  0.35774900  0.23919300  1
  O  O19  1  0.46574300  0.64225100  0.26080700  1
  O  O20  1  0.27238100  0.09772900  0.92398400  1
  O  O21  1  0.77238100  0.90227100  0.57601600  1
  O  O22  1  0.72761900  0.90227100  0.07601600  1
  O  O23  1  0.22761900  0.09772900  0.42398400  1
  O  O24  1  0.26002400  0.67900100  0.32574300  1
  O  O25  1  0.76002400  0.32099900  0.17425700  1
  O  O26  1  0.73997600  0.32099900  0.67425700  1
  O  O27  1  0.23997600  0.67900100  0.82574300  1
  O  O28  1  0.31964800  0.47937400  0.12759100  1
  O  O29  1  0.81964800  0.52062600  0.37240900  1
  O  O30  1  0.68035200  0.52062600  0.87240900  1
  O  O31  1  0.18035200  0.47937400  0.62759100  1
  O  O32  1  0.38458700  0.27353200  0.56157500  1
  O  O33  1  0.88458700  0.72646800  0.93842500  1
  O  O34  1  0.61541300  0.72646800  0.43842500  1
  O  O35  1  0.11541300  0.27353200  0.06157500  1
  O  O36  1  0.42849500  0.03109400  0.37460300  1
  O  O37  1  0.92849500  0.96890600  0.12539700  1
  O  O38  1  0.57150500  0.96890600  0.62539700  1
  O  O39  1  0.07150500  0.03109400  0.87460300  1
