# generated using pymatgen
data_ZrTi2O
_symmetry_space_group_name_H-M   'P 1'
_cell_length_a   4.83263229
_cell_length_b   4.83263229
_cell_length_c   3.03251700
_cell_angle_alpha   90.00000000
_cell_angle_beta   90.00000000
_cell_angle_gamma   122.06976247
_symmetry_Int_Tables_number   1
_chemical_formula_structural   ZrTi2O
_chemical_formula_sum   'Zr1 Ti2 O1'
_cell_volume   60.01507567
_cell_formula_units_Z   1
loop_
 _symmetry_equiv_pos_site_id
 _symmetry_equiv_pos_as_xyz
  1  'x, y, z'
loop_
 _atom_site_type_symbol
 _atom_site_label
 _atom_site_symmetry_multiplicity
 _atom_site_fract_x
 _atom_site_fract_y
 _atom_site_fract_z
 _atom_site_occupancy
  Zr  Zr0  1  0.00000000  0.00000000  0.00000000  1
  Ti  Ti1  1  0.67131500  0.32868500  0.50000000  1
  Ti  Ti2  1  0.32868500  0.67131500  0.50000000  1
  O  O3  1  0.50000000  0.50000000  0.00000000  1
