# generated using pymatgen
data_Yb11AlSb9
_symmetry_space_group_name_H-M   'P 1'
_cell_length_a   12.01074634
_cell_length_b   12.01074634
_cell_length_c   12.01074634
_cell_angle_alpha   121.14367572
_cell_angle_beta   117.68722674
_cell_angle_gamma   91.04109027
_symmetry_Int_Tables_number   1
_chemical_formula_structural   Yb11AlSb9
_chemical_formula_sum   'Yb22 Al2 Sb18'
_cell_volume   1234.39541464
_cell_formula_units_Z   2
loop_
 _symmetry_equiv_pos_site_id
 _symmetry_equiv_pos_as_xyz
  1  'x, y, z'
loop_
 _atom_site_type_symbol
 _atom_site_label
 _atom_site_symmetry_multiplicity
 _atom_site_fract_x
 _atom_site_fract_y
 _atom_site_fract_z
 _atom_site_occupancy
  Yb  Yb0  1  0.04380600  0.28837500  0.12499900  1
  Yb  Yb1  1  0.16337600  0.91880800  0.87500100  1
  Yb  Yb2  1  0.54380600  0.41880800  0.75543200  1
  Yb  Yb3  1  0.66337600  0.78837500  0.24456800  1
  Yb  Yb4  1  0.40040700  0.53051500  0.23638700  1
  Yb  Yb5  1  0.29412800  0.16402000  0.76361300  1
  Yb  Yb6  1  0.90040700  0.66402000  0.86989200  1
  Yb  Yb7  1  0.79412800  0.03051500  0.13010800  1
  Yb  Yb8  1  0.80256900  0.63820400  0.48950900  1
  Yb  Yb9  1  0.14869500  0.31305900  0.51049100  1
  Yb  Yb10  1  0.30256900  0.81305900  0.16436400  1
  Yb  Yb11  1  0.64869500  0.13820400  0.83563600  1
  Yb  Yb12  1  0.86165100  0.54514800  0.13716100  1
  Yb  Yb13  1  0.40798700  0.72449000  0.86283900  1
  Yb  Yb14  1  0.36165100  0.22449000  0.31650300  1
  Yb  Yb15  1  0.90798700  0.04514800  0.68349700  1
  Yb  Yb16  1  0.53901900  0.24541900  0.15387100  1
  Yb  Yb17  1  0.09154700  0.38514800  0.84612900  1
  Yb  Yb18  1  0.03901900  0.88514800  0.29360000  1
  Yb  Yb19  1  0.59154700  0.74541900  0.70640000  1
  Yb  Yb20  1  0.29792000  0.79792000  0.50000000  1
  Yb  Yb21  1  0.79792000  0.29792000  0.50000000  1
  Al  Al22  1  0.58039800  0.08039800  0.50000000  1
  Al  Al23  1  0.08039800  0.58039800  0.50000000  1
  Sb  Sb24  1  0.22325000  0.22325000  0.00000000  1
  Sb  Sb25  1  0.72325000  0.72325000  0.00000000  1
  Sb  Sb26  1  0.58696900  0.84351600  0.48617500  1
  Sb  Sb27  1  0.35734000  0.10079400  0.51382500  1
  Sb  Sb28  1  0.08696900  0.60079400  0.74345400  1
  Sb  Sb29  1  0.85734000  0.34351600  0.25654600  1
  Sb  Sb30  1  0.58750400  0.44190200  0.07434200  1
  Sb  Sb31  1  0.36756100  0.51316200  0.92565800  1
  Sb  Sb32  1  0.08750400  0.01316200  0.14560100  1
  Sb  Sb33  1  0.86756100  0.94190200  0.85439900  1
  Sb  Sb34  1  0.02728100  0.80991800  0.50949200  1
  Sb  Sb35  1  0.30042600  0.51779000  0.49050800  1
  Sb  Sb36  1  0.52728100  0.01779000  0.21736400  1
  Sb  Sb37  1  0.80042600  0.30991800  0.78263600  1
  Sb  Sb38  1  0.47034900  0.97160800  0.85628100  1
  Sb  Sb39  1  0.11532700  0.61406800  0.14371900  1
  Sb  Sb40  1  0.97034900  0.11406800  0.49874100  1
  Sb  Sb41  1  0.61532700  0.47160800  0.50125900  1
