# generated using pymatgen
data_CeRe2SiC
_symmetry_space_group_name_H-M   'P 1'
_cell_length_a   5.84791837
_cell_length_b   5.84791837
_cell_length_c   7.32113000
_cell_angle_alpha   90.00000000
_cell_angle_beta   90.00000000
_cell_angle_gamma   140.07111854
_symmetry_Int_Tables_number   1
_chemical_formula_structural   CeRe2SiC
_chemical_formula_sum   'Ce2 Re4 Si2 C2'
_cell_volume   160.69596457
_cell_formula_units_Z   2
loop_
 _symmetry_equiv_pos_site_id
 _symmetry_equiv_pos_as_xyz
  1  'x, y, z'
loop_
 _atom_site_type_symbol
 _atom_site_label
 _atom_site_symmetry_multiplicity
 _atom_site_fract_x
 _atom_site_fract_y
 _atom_site_fract_z
 _atom_site_occupancy
  Ce  Ce0  1  0.54491100  0.45508900  0.25000000  1
  Ce  Ce1  1  0.45508900  0.54491100  0.75000000  1
  Re  Re2  1  0.82687200  0.17312800  0.06216700  1
  Re  Re3  1  0.17312800  0.82687200  0.93783300  1
  Re  Re4  1  0.17312800  0.82687200  0.56216700  1
  Re  Re5  1  0.82687200  0.17312800  0.43783300  1
  Si  Si6  1  0.26541600  0.73458400  0.25000000  1
  Si  Si7  1  0.73458400  0.26541600  0.75000000  1
  C  C8  1  0.00000000  0.00000000  0.00000000  1
  C  C9  1  0.00000000  0.00000000  0.50000000  1
