# generated using pymatgen
data_Fe3P3PbO13
_symmetry_space_group_name_H-M   'P 1'
_cell_length_a   6.45165900
_cell_length_b   7.70648100
_cell_length_c   10.56781048
_cell_angle_alpha   80.35869382
_cell_angle_beta   90.00000000
_cell_angle_gamma   90.00000000
_symmetry_Int_Tables_number   1
_chemical_formula_structural   Fe3P3PbO13
_chemical_formula_sum   'Fe6 P6 Pb2 O26'
_cell_volume   518.00580949
_cell_formula_units_Z   2
loop_
 _symmetry_equiv_pos_site_id
 _symmetry_equiv_pos_as_xyz
  1  'x, y, z'
loop_
 _atom_site_type_symbol
 _atom_site_label
 _atom_site_symmetry_multiplicity
 _atom_site_fract_x
 _atom_site_fract_y
 _atom_site_fract_z
 _atom_site_occupancy
  Fe  Fe0  1  0.25000000  0.15268000  0.69736200  1
  Fe  Fe1  1  0.75000000  0.84732000  0.30263800  1
  Fe  Fe2  1  0.00000000  0.50000000  0.50000000  1
  Fe  Fe3  1  0.50000000  0.50000000  0.50000000  1
  Fe  Fe4  1  0.75000000  0.28797300  0.05753900  1
  Fe  Fe5  1  0.25000000  0.71202700  0.94246100  1
  P  P6  1  0.25000000  0.81223800  0.61686700  1
  P  P7  1  0.75000000  0.18776200  0.38313300  1
  P  P8  1  0.75000000  0.24750700  0.73759000  1
  P  P9  1  0.25000000  0.75249300  0.26241000  1
  P  P10  1  0.25000000  0.28297000  0.97954400  1
  P  P11  1  0.75000000  0.71703000  0.02045600  1
  Pb  Pb12  1  0.25000000  0.16357400  0.29924700  1
  Pb  Pb13  1  0.75000000  0.83642600  0.70075300  1
  O  O14  1  0.05792100  0.24693800  0.07048100  1
  O  O15  1  0.55792100  0.75306200  0.92951900  1
  O  O16  1  0.94207900  0.75306200  0.92951900  1
  O  O17  1  0.44207900  0.24693800  0.07048100  1
  O  O18  1  0.05399300  0.71003400  0.58793800  1
  O  O19  1  0.55399300  0.28996600  0.41206200  1
  O  O20  1  0.94600700  0.28996600  0.41206200  1
  O  O21  1  0.44600700  0.71003400  0.58793800  1
  O  O22  1  0.75000000  0.29560000  0.87255100  1
  O  O23  1  0.25000000  0.70440000  0.12744900  1
  O  O24  1  0.93878400  0.13381200  0.71190200  1
  O  O25  1  0.43878400  0.86618800  0.28809800  1
  O  O26  1  0.06121600  0.86618800  0.28809800  1
  O  O27  1  0.56121600  0.13381200  0.71190200  1
  O  O28  1  0.25000000  0.47700700  0.91036400  1
  O  O29  1  0.75000000  0.52299300  0.08963600  1
  O  O30  1  0.25000000  0.37890100  0.58777900  1
  O  O31  1  0.75000000  0.62109900  0.41222100  1
  O  O32  1  0.75000000  0.42223600  0.63531800  1
  O  O33  1  0.25000000  0.57776400  0.36468200  1
  O  O34  1  0.25000000  0.84196400  0.75985200  1
  O  O35  1  0.75000000  0.15803600  0.24014800  1
  O  O36  1  0.25000000  0.00568300  0.54593900  1
  O  O37  1  0.75000000  0.99431700  0.45406100  1
  O  O38  1  0.25000000  0.15825400  0.88171000  1
  O  O39  1  0.75000000  0.84174600  0.11829000  1
