# generated using pymatgen
data_Na2Nd4NCl9O
_symmetry_space_group_name_H-M   'P 1'
_cell_length_a   11.38947500
_cell_length_b   8.18088700
_cell_length_c   9.44577627
_cell_angle_alpha   72.95549735
_cell_angle_beta   90.00000000
_cell_angle_gamma   90.00000000
_symmetry_Int_Tables_number   1
_chemical_formula_structural   Na2Nd4NCl9O
_chemical_formula_sum   'Na4 Nd8 N2 Cl18 O2'
_cell_volume   841.46255809
_cell_formula_units_Z   2
loop_
 _symmetry_equiv_pos_site_id
 _symmetry_equiv_pos_as_xyz
  1  'x, y, z'
loop_
 _atom_site_type_symbol
 _atom_site_label
 _atom_site_symmetry_multiplicity
 _atom_site_fract_x
 _atom_site_fract_y
 _atom_site_fract_z
 _atom_site_occupancy
  Na  Na0  1  0.99017700  0.77082500  0.42963200  1
  Na  Na1  1  0.49017700  0.22917500  0.57036800  1
  Na  Na2  1  0.00832200  0.22817500  0.57087000  1
  Na  Na3  1  0.50832200  0.77182500  0.42913000  1
  Nd  Nd4  1  0.24803700  0.38726400  0.21884000  1
  Nd  Nd5  1  0.74803700  0.61273600  0.78116000  1
  Nd  Nd6  1  0.04931300  0.71571800  0.95057700  1
  Nd  Nd7  1  0.54931300  0.28428200  0.04942300  1
  Nd  Nd8  1  0.95963300  0.27864700  0.05087700  1
  Nd  Nd9  1  0.45963300  0.72135300  0.94912300  1
  Nd  Nd10  1  0.24778700  0.40391000  0.82921000  1
  Nd  Nd11  1  0.74778700  0.59609000  0.17079000  1
  N  N12  1  0.12589600  0.43870500  0.01472200  1
  N  N13  1  0.62589600  0.56129500  0.98527800  1
  Cl  Cl14  1  0.25026100  0.76749600  0.74339200  1
  Cl  Cl15  1  0.75026100  0.23250400  0.25660800  1
  Cl  Cl16  1  0.99533600  0.49353200  0.30194000  1
  Cl  Cl17  1  0.49533600  0.50646800  0.69806000  1
  Cl  Cl18  1  0.00135900  0.50649100  0.69745200  1
  Cl  Cl19  1  0.50135900  0.49350900  0.30254800  1
  Cl  Cl20  1  0.24761900  0.36225100  0.53214800  1
  Cl  Cl21  1  0.74761900  0.63774900  0.46785200  1
  Cl  Cl22  1  0.40315100  0.11157700  0.87864200  1
  Cl  Cl23  1  0.90315100  0.88842300  0.12135800  1
  Cl  Cl24  1  0.59688000  0.89166600  0.12415200  1
  Cl  Cl25  1  0.09688000  0.10833400  0.87584800  1
  Cl  Cl26  1  0.08908800  0.09595800  0.31505700  1
  Cl  Cl27  1  0.58908800  0.90404200  0.68494300  1
  Cl  Cl28  1  0.90951900  0.90028100  0.68930700  1
  Cl  Cl29  1  0.40951900  0.09971900  0.31069300  1
  Cl  Cl30  1  0.25040400  0.74742400  0.13884200  1
  Cl  Cl31  1  0.75040400  0.25257600  0.86115800  1
  O  O32  1  0.87722000  0.55983800  0.98545400  1
  O  O33  1  0.37722000  0.44016200  0.01454600  1
