# generated using pymatgen
data_Yb(Al5Fe)2
_symmetry_space_group_name_H-M   'P 1'
_cell_length_a   6.77209756
_cell_length_b   6.77209756
_cell_length_c   8.98420700
_cell_angle_alpha   90.00000000
_cell_angle_beta   90.00000000
_cell_angle_gamma   97.26446591
_symmetry_Int_Tables_number   1
_chemical_formula_structural   Yb(Al5Fe)2
_chemical_formula_sum   'Yb2 Al20 Fe4'
_cell_volume   408.72013956
_cell_formula_units_Z   2
loop_
 _symmetry_equiv_pos_site_id
 _symmetry_equiv_pos_as_xyz
  1  'x, y, z'
loop_
 _atom_site_type_symbol
 _atom_site_label
 _atom_site_symmetry_multiplicity
 _atom_site_fract_x
 _atom_site_fract_y
 _atom_site_fract_z
 _atom_site_occupancy
  Yb  Yb0  1  0.87750500  0.12249500  0.25000000  1
  Yb  Yb1  1  0.12249500  0.87750500  0.75000000  1
  Al  Al2  1  0.22706000  0.22706000  0.50000000  1
  Al  Al3  1  0.77294000  0.77294000  0.00000000  1
  Al  Al4  1  0.77294000  0.77294000  0.50000000  1
  Al  Al5  1  0.22706000  0.22706000  0.00000000  1
  Al  Al6  1  0.37445500  0.62554500  0.54673200  1
  Al  Al7  1  0.62554500  0.37445500  0.04673200  1
  Al  Al8  1  0.58555000  0.86778000  0.75000000  1
  Al  Al9  1  0.41445000  0.13222000  0.25000000  1
  Al  Al10  1  0.86778000  0.58555000  0.25000000  1
  Al  Al11  1  0.13222000  0.41445000  0.75000000  1
  Al  Al12  1  0.47444400  0.22024100  0.75000000  1
  Al  Al13  1  0.52555600  0.77975900  0.25000000  1
  Al  Al14  1  0.22024100  0.47444400  0.25000000  1
  Al  Al15  1  0.77975900  0.52555600  0.75000000  1
  Al  Al16  1  0.15801700  0.84198300  0.40337900  1
  Al  Al17  1  0.84198300  0.15801700  0.90337900  1
  Al  Al18  1  0.84198300  0.15801700  0.59662100  1
  Al  Al19  1  0.15801700  0.84198300  0.09662100  1
  Al  Al20  1  0.37445500  0.62554500  0.95326800  1
  Al  Al21  1  0.62554500  0.37445500  0.45326800  1
  Fe  Fe22  1  0.00000000  0.50000000  0.50000000  1
  Fe  Fe23  1  0.00000000  0.50000000  0.00000000  1
  Fe  Fe24  1  0.50000000  0.00000000  0.50000000  1
  Fe  Fe25  1  0.50000000  0.00000000  0.00000000  1
