# generated using pymatgen
data_Sr3(GaN2)2
_symmetry_space_group_name_H-M   'P 1'
_cell_length_a   5.99245800
_cell_length_b   9.62331200
_cell_length_c   10.36935700
_cell_angle_alpha   90.00000000
_cell_angle_beta   90.00000000
_cell_angle_gamma   90.00000000
_symmetry_Int_Tables_number   1
_chemical_formula_structural   Sr3(GaN2)2
_chemical_formula_sum   'Sr12 Ga8 N16'
_cell_volume   597.97274814
_cell_formula_units_Z   4
loop_
 _symmetry_equiv_pos_site_id
 _symmetry_equiv_pos_as_xyz
  1  'x, y, z'
loop_
 _atom_site_type_symbol
 _atom_site_label
 _atom_site_symmetry_multiplicity
 _atom_site_fract_x
 _atom_site_fract_y
 _atom_site_fract_z
 _atom_site_occupancy
  Sr  Sr0  1  0.25000000  0.59500500  0.50000000  1
  Sr  Sr1  1  0.25000000  0.90499500  0.00000000  1
  Sr  Sr2  1  0.75000000  0.40499500  0.50000000  1
  Sr  Sr3  1  0.75000000  0.09500500  0.00000000  1
  Sr  Sr4  1  0.39219000  0.58846400  0.15405500  1
  Sr  Sr5  1  0.39219000  0.91153600  0.34594500  1
  Sr  Sr6  1  0.10781000  0.58846400  0.84594500  1
  Sr  Sr7  1  0.10781000  0.91153600  0.65405500  1
  Sr  Sr8  1  0.60781000  0.41153600  0.84594500  1
  Sr  Sr9  1  0.60781000  0.08846400  0.65405500  1
  Sr  Sr10  1  0.89219000  0.41153600  0.15405500  1
  Sr  Sr11  1  0.89219000  0.08846400  0.34594500  1
  Ga  Ga12  1  0.83908400  0.75000000  0.25000000  1
  Ga  Ga13  1  0.66091600  0.75000000  0.75000000  1
  Ga  Ga14  1  0.16091600  0.25000000  0.75000000  1
  Ga  Ga15  1  0.33908400  0.25000000  0.25000000  1
  Ga  Ga16  1  0.25000000  0.23044300  0.00000000  1
  Ga  Ga17  1  0.75000000  0.73044300  0.50000000  1
  Ga  Ga18  1  0.75000000  0.76955700  0.00000000  1
  Ga  Ga19  1  0.25000000  0.26955700  0.50000000  1
  N  N20  1  0.49276700  0.16726900  0.40384400  1
  N  N21  1  0.49276700  0.33273100  0.09615600  1
  N  N22  1  0.00723300  0.16726900  0.59615600  1
  N  N23  1  0.00723300  0.33273100  0.90384400  1
  N  N24  1  0.50723300  0.83273100  0.59615600  1
  N  N25  1  0.50723300  0.66726900  0.90384400  1
  N  N26  1  0.99276700  0.83273100  0.40384400  1
  N  N27  1  0.99276700  0.66726900  0.09615600  1
  N  N28  1  0.12206900  0.37462800  0.35388600  1
  N  N29  1  0.12206900  0.12537200  0.14611400  1
  N  N30  1  0.37793100  0.37462800  0.64611400  1
  N  N31  1  0.37793100  0.12537200  0.85388600  1
  N  N32  1  0.87793100  0.87462800  0.85388600  1
  N  N33  1  0.62206900  0.62537200  0.35388600  1
  N  N34  1  0.62206900  0.87462800  0.14611400  1
  N  N35  1  0.87793100  0.62537200  0.64611400  1
