# generated using pymatgen
data_TlCuPS3
_symmetry_space_group_name_H-M   'P 1'
_cell_length_a   7.36067700
_cell_length_b   9.16704100
_cell_length_c   10.90091760
_cell_angle_alpha   90.00000000
_cell_angle_beta   129.87860972
_cell_angle_gamma   90.00000000
_symmetry_Int_Tables_number   1
_chemical_formula_structural   TlCuPS3
_chemical_formula_sum   'Tl4 Cu4 P4 S12'
_cell_volume   564.46156185
_cell_formula_units_Z   4
loop_
 _symmetry_equiv_pos_site_id
 _symmetry_equiv_pos_as_xyz
  1  'x, y, z'
loop_
 _atom_site_type_symbol
 _atom_site_label
 _atom_site_symmetry_multiplicity
 _atom_site_fract_x
 _atom_site_fract_y
 _atom_site_fract_z
 _atom_site_occupancy
  Tl  Tl0  1  0.19960000  0.48137200  0.76276900  1
  Tl  Tl1  1  0.80040000  0.98137200  0.73723100  1
  Tl  Tl2  1  0.80040000  0.51862800  0.23723100  1
  Tl  Tl3  1  0.19960000  0.01862800  0.26276900  1
  Cu  Cu4  1  0.41463100  0.16671900  0.73749200  1
  Cu  Cu5  1  0.58536900  0.66671900  0.76250800  1
  Cu  Cu6  1  0.58536900  0.83328100  0.26250800  1
  Cu  Cu7  1  0.41463100  0.33328100  0.23749200  1
  P  P8  1  0.57123700  0.39838000  0.57483200  1
  P  P9  1  0.42876300  0.89838000  0.92516800  1
  P  P10  1  0.42876300  0.60162000  0.42516800  1
  P  P11  1  0.57123700  0.10162000  0.07483200  1
  S  S12  1  0.72113300  0.28283900  0.49853400  1
  S  S13  1  0.27886700  0.78283900  0.00146600  1
  S  S14  1  0.27886700  0.71716100  0.50146600  1
  S  S15  1  0.72113300  0.21716100  0.99853400  1
  S  S16  1  0.19448800  0.97109200  0.69654300  1
  S  S17  1  0.80551200  0.47109200  0.80345700  1
  S  S18  1  0.80551200  0.02890800  0.30345700  1
  S  S19  1  0.19448800  0.52890800  0.19654300  1
  S  S20  1  0.28136900  0.28716200  0.51758800  1
  S  S21  1  0.71863100  0.78716200  0.98241200  1
  S  S22  1  0.71863100  0.71283800  0.48241200  1
  S  S23  1  0.28136900  0.21283800  0.01758800  1
