# generated using pymatgen
data_Na3TiP8O23
_symmetry_space_group_name_H-M   'P 1'
_cell_length_a   12.19252600
_cell_length_b   12.19252600
_cell_length_c   12.19252600
_cell_angle_alpha   90.00000000
_cell_angle_beta   90.00000000
_cell_angle_gamma   90.00000000
_symmetry_Int_Tables_number   1
_chemical_formula_structural   Na3TiP8O23
_chemical_formula_sum   'Na12 Ti4 P32 O92'
_cell_volume   1812.51275360
_cell_formula_units_Z   4
loop_
 _symmetry_equiv_pos_site_id
 _symmetry_equiv_pos_as_xyz
  1  'x, y, z'
loop_
 _atom_site_type_symbol
 _atom_site_label
 _atom_site_symmetry_multiplicity
 _atom_site_fract_x
 _atom_site_fract_y
 _atom_site_fract_z
 _atom_site_occupancy
  Na  Na0  1  0.37500000  0.95566700  0.79433300  1
  Na  Na1  1  0.87500000  0.54433300  0.20566700  1
  Na  Na2  1  0.04433300  0.29433300  0.12500000  1
  Na  Na3  1  0.95566700  0.79433300  0.37500000  1
  Na  Na4  1  0.20566700  0.87500000  0.54433300  1
  Na  Na5  1  0.29433300  0.12500000  0.04433300  1
  Na  Na6  1  0.45566700  0.70566700  0.62500000  1
  Na  Na7  1  0.79433300  0.37500000  0.95566700  1
  Na  Na8  1  0.70566700  0.62500000  0.45566700  1
  Na  Na9  1  0.54433300  0.20566700  0.87500000  1
  Na  Na10  1  0.62500000  0.45566700  0.70566700  1
  Na  Na11  1  0.12500000  0.04433300  0.29433300  1
  Ti  Ti12  1  0.87500000  0.12500000  0.62500000  1
  Ti  Ti13  1  0.12500000  0.62500000  0.87500000  1
  Ti  Ti14  1  0.62500000  0.87500000  0.12500000  1
  Ti  Ti15  1  0.37500000  0.37500000  0.37500000  1
  P  P16  1  0.06831600  0.35803900  0.85407300  1
  P  P17  1  0.89592700  0.39196100  0.68168400  1
  P  P18  1  0.35803900  0.85407300  0.06831600  1
  P  P19  1  0.85803900  0.64592700  0.93168400  1
  P  P20  1  0.64196100  0.35407300  0.43168400  1
  P  P21  1  0.64592700  0.93168400  0.85803900  1
  P  P22  1  0.43168400  0.64196100  0.35407300  1
  P  P23  1  0.93168400  0.85803900  0.64592700  1
  P  P24  1  0.85407300  0.06831600  0.35803900  1
  P  P25  1  0.60407300  0.60803900  0.18168400  1
  P  P26  1  0.35407300  0.43168400  0.64196100  1
  P  P27  1  0.14592700  0.56831600  0.14196100  1
  P  P28  1  0.81831600  0.10407300  0.89196100  1
  P  P29  1  0.39592700  0.10803900  0.31831600  1
  P  P30  1  0.10407300  0.89196100  0.81831600  1
  P  P31  1  0.68168400  0.89592700  0.39196100  1
  P  P32  1  0.31831600  0.39592700  0.10803900  1
  P  P33  1  0.89196100  0.81831600  0.10407300  1
  P  P34  1  0.39196100  0.68168400  0.89592700  1
  P  P35  1  0.14196100  0.14592700  0.56831600  1
  P  P36  1  0.18168400  0.60407300  0.60803900  1
  P  P37  1  0.10803900  0.31831600  0.39592700  1
  P  P38  1  0.60803900  0.18168400  0.60407300  1
  P  P39  1  0.01721400  0.01721400  0.01721400  1
  P  P40  1  0.26721400  0.23278600  0.76721400  1
  P  P41  1  0.76721400  0.26721400  0.23278600  1
  P  P42  1  0.23278600  0.76721400  0.26721400  1
  P  P43  1  0.48278600  0.98278600  0.51721400  1
  P  P44  1  0.51721400  0.48278600  0.98278600  1
  P  P45  1  0.98278600  0.51721400  0.48278600  1
  P  P46  1  0.73278600  0.73278600  0.73278600  1
  P  P47  1  0.56831600  0.14196100  0.14592700  1
  O  O48  1  0.66255700  0.66255700  0.66255700  1
  O  O49  1  0.91255700  0.58744300  0.41255700  1
  O  O50  1  0.58744300  0.41255700  0.91255700  1
  O  O51  1  0.41255700  0.91255700  0.58744300  1
  O  O52  1  0.16255700  0.83744300  0.33744300  1
  O  O53  1  0.83744300  0.33744300  0.16255700  1
  O  O54  1  0.33744300  0.16255700  0.83744300  1
  O  O55  1  0.08744300  0.08744300  0.08744300  1
  O  O56  1  0.43660000  0.51133100  0.68328200  1
  O  O57  1  0.93660000  0.98866900  0.31671800  1
  O  O58  1  0.51133100  0.68328200  0.43660000  1
  O  O59  1  0.48866900  0.18328200  0.06340000  1
  O  O60  1  0.68328200  0.43660000  0.51133100  1
  O  O61  1  0.81671800  0.56340000  0.01133100  1
  O  O62  1  0.18660000  0.93328200  0.73866900  1
  O  O63  1  0.68660000  0.56671800  0.26133100  1
  O  O64  1  0.81340000  0.43328200  0.76133100  1
  O  O65  1  0.56671800  0.26133100  0.68660000  1
  O  O66  1  0.76133100  0.81340000  0.43328200  1
  O  O67  1  0.26133100  0.68660000  0.56671800  1
  O  O68  1  0.93328200  0.73866900  0.18660000  1
  O  O69  1  0.73866900  0.18660000  0.93328200  1
  O  O70  1  0.43328200  0.76133100  0.81340000  1
  O  O71  1  0.06671800  0.23866900  0.31340000  1
  O  O72  1  0.23866900  0.31340000  0.06671800  1
  O  O73  1  0.31671800  0.93660000  0.98866900  1
  O  O74  1  0.18328200  0.06340000  0.48866900  1
  O  O75  1  0.01133100  0.81671800  0.56340000  1
  O  O76  1  0.98866900  0.31671800  0.93660000  1
  O  O77  1  0.06340000  0.48866900  0.18328200  1
  O  O78  1  0.56340000  0.01133100  0.81671800  1
  O  O79  1  0.31340000  0.06671800  0.23866900  1
  O  O80  1  0.62500000  0.23432200  0.48432200  1
  O  O81  1  0.76567800  0.98432200  0.87500000  1
  O  O82  1  0.74113900  0.32458100  0.34596900  1
  O  O83  1  0.48432200  0.62500000  0.23432200  1
  O  O84  1  0.23432200  0.48432200  0.62500000  1
  O  O85  1  0.51567800  0.12500000  0.26567800  1
  O  O86  1  0.98432200  0.87500000  0.76567800  1
  O  O87  1  0.73432200  0.01567800  0.37500000  1
  O  O88  1  0.26567800  0.51567800  0.12500000  1
  O  O89  1  0.87500000  0.76567800  0.98432200  1
  O  O90  1  0.37500000  0.73432200  0.01567800  1
  O  O91  1  0.12500000  0.26567800  0.51567800  1
  O  O92  1  0.32458100  0.34596900  0.74113900  1
  O  O93  1  0.82458100  0.15403100  0.25886100  1
  O  O94  1  0.34596900  0.74113900  0.32458100  1
  O  O95  1  0.65403100  0.24113900  0.17541900  1
  O  O96  1  0.04160600  0.12037800  0.63519100  1
  O  O97  1  0.29160600  0.61480900  0.87037800  1
  O  O98  1  0.79160600  0.88519100  0.12962200  1
  O  O99  1  0.38519100  0.37037800  0.20839400  1
  O  O100  1  0.61480900  0.87037800  0.29160600  1
  O  O101  1  0.12962200  0.79160600  0.88519100  1
  O  O102  1  0.37037800  0.20839400  0.38519100  1
  O  O103  1  0.63519100  0.04160600  0.12037800  1
  O  O104  1  0.12037800  0.63519100  0.04160600  1
  O  O105  1  0.37962200  0.36480900  0.54160600  1
  O  O106  1  0.13519100  0.45839400  0.87962200  1
  O  O107  1  0.87962200  0.13519100  0.45839400  1
  O  O108  1  0.86480900  0.95839400  0.62037800  1
  O  O109  1  0.36480900  0.54160600  0.37962200  1
  O  O110  1  0.62037800  0.86480900  0.95839400  1
  O  O111  1  0.54160600  0.37962200  0.36480900  1
  O  O112  1  0.95839400  0.62037800  0.86480900  1
  O  O113  1  0.45839400  0.87962200  0.13519100  1
  O  O114  1  0.87037800  0.29160600  0.61480900  1
  O  O115  1  0.62962200  0.70839400  0.11480900  1
  O  O116  1  0.88519100  0.12962200  0.79160600  1
  O  O117  1  0.11480900  0.62962200  0.70839400  1
  O  O118  1  0.20839400  0.38519100  0.37037800  1
  O  O119  1  0.70839400  0.11480900  0.62962200  1
  O  O120  1  0.42541900  0.00886100  0.40403100  1
  O  O121  1  0.67541900  0.84596900  0.75886100  1
  O  O122  1  0.17541900  0.65403100  0.24113900  1
  O  O123  1  0.15403100  0.25886100  0.82458100  1
  O  O124  1  0.84596900  0.75886100  0.67541900  1
  O  O125  1  0.24113900  0.17541900  0.65403100  1
  O  O126  1  0.25886100  0.82458100  0.15403100  1
  O  O127  1  0.40403100  0.42541900  0.00886100  1
  O  O128  1  0.00886100  0.40403100  0.42541900  1
  O  O129  1  0.49113900  0.59596900  0.92541900  1
  O  O130  1  0.90403100  0.07458100  0.99113900  1
  O  O131  1  0.99113900  0.90403100  0.07458100  1
  O  O132  1  0.09596900  0.57458100  0.50886100  1
  O  O133  1  0.59596900  0.92541900  0.49113900  1
  O  O134  1  0.50886100  0.09596900  0.57458100  1
  O  O135  1  0.92541900  0.49113900  0.59596900  1
  O  O136  1  0.57458100  0.50886100  0.09596900  1
  O  O137  1  0.07458100  0.99113900  0.90403100  1
  O  O138  1  0.75886100  0.67541900  0.84596900  1
  O  O139  1  0.01567800  0.37500000  0.73432200  1
