# generated using pymatgen
data_Ce2Ni7
_symmetry_space_group_name_H-M   'P 1'
_cell_length_a   4.90906252
_cell_length_b   4.90906252
_cell_length_c   24.46252800
_cell_angle_alpha   90.00000000
_cell_angle_beta   90.00000000
_cell_angle_gamma   120.00000699
_symmetry_Int_Tables_number   1
_chemical_formula_structural   Ce2Ni7
_chemical_formula_sum   'Ce8 Ni28'
_cell_volume   510.53916409
_cell_formula_units_Z   4
loop_
 _symmetry_equiv_pos_site_id
 _symmetry_equiv_pos_as_xyz
  1  'x, y, z'
loop_
 _atom_site_type_symbol
 _atom_site_label
 _atom_site_symmetry_multiplicity
 _atom_site_fract_x
 _atom_site_fract_y
 _atom_site_fract_z
 _atom_site_occupancy
  Ce  Ce0  1  0.33333300  0.66666700  0.46934100  1
  Ce  Ce1  1  0.66666700  0.33333300  0.53065900  1
  Ce  Ce2  1  0.66666700  0.33333300  0.96934100  1
  Ce  Ce3  1  0.33333300  0.66666700  0.03065900  1
  Ce  Ce4  1  0.33333300  0.66666700  0.32526900  1
  Ce  Ce5  1  0.66666700  0.33333300  0.67473100  1
  Ce  Ce6  1  0.66666700  0.33333300  0.82526900  1
  Ce  Ce7  1  0.33333300  0.66666700  0.17473100  1
  Ni  Ni8  1  0.00000000  0.00000000  0.50000000  1
  Ni  Ni9  1  0.00000000  0.00000000  0.00000000  1
  Ni  Ni10  1  0.00000000  0.00000000  0.33244100  1
  Ni  Ni11  1  0.00000000  0.00000000  0.66755900  1
  Ni  Ni12  1  0.00000000  0.00000000  0.83244100  1
  Ni  Ni13  1  0.00000000  0.00000000  0.16755900  1
  Ni  Ni14  1  0.33333300  0.66666700  0.66741300  1
  Ni  Ni15  1  0.66666700  0.33333300  0.33258700  1
  Ni  Ni16  1  0.66666700  0.33333300  0.16741300  1
  Ni  Ni17  1  0.33333300  0.66666700  0.83258700  1
  Ni  Ni18  1  0.83366300  0.16633700  0.25000000  1
  Ni  Ni19  1  0.83366300  0.66732700  0.25000000  1
  Ni  Ni20  1  0.33267300  0.16633700  0.25000000  1
  Ni  Ni21  1  0.16633700  0.83366300  0.75000000  1
  Ni  Ni22  1  0.16633700  0.33267300  0.75000000  1
  Ni  Ni23  1  0.66732700  0.83366300  0.75000000  1
  Ni  Ni24  1  0.83305900  0.16694100  0.41485100  1
  Ni  Ni25  1  0.83305900  0.66611800  0.41485100  1
  Ni  Ni26  1  0.33388200  0.16694100  0.41485100  1
  Ni  Ni27  1  0.16694100  0.83305900  0.58514900  1
  Ni  Ni28  1  0.16694100  0.33388200  0.58514900  1
  Ni  Ni29  1  0.66611800  0.83305900  0.58514900  1
  Ni  Ni30  1  0.16694100  0.83305900  0.91485100  1
  Ni  Ni31  1  0.16694100  0.33388200  0.91485100  1
  Ni  Ni32  1  0.66611800  0.83305900  0.91485100  1
  Ni  Ni33  1  0.83305900  0.16694100  0.08514900  1
  Ni  Ni34  1  0.83305900  0.66611800  0.08514900  1
  Ni  Ni35  1  0.33388200  0.16694100  0.08514900  1
