# generated using pymatgen
data_Sm12(MnC3)5
_symmetry_space_group_name_H-M   'P 1'
_cell_length_a   5.20923200
_cell_length_b   10.65130327
_cell_length_c   10.65130327
_cell_angle_alpha   119.99999544
_cell_angle_beta   90.00000000
_cell_angle_gamma   90.00000000
_symmetry_Int_Tables_number   1
_chemical_formula_structural   Sm12(MnC3)5
_chemical_formula_sum   'Sm12 Mn5 C15'
_cell_volume   511.81127825
_cell_formula_units_Z   1
loop_
 _symmetry_equiv_pos_site_id
 _symmetry_equiv_pos_as_xyz
  1  'x, y, z'
loop_
 _atom_site_type_symbol
 _atom_site_label
 _atom_site_symmetry_multiplicity
 _atom_site_fract_x
 _atom_site_fract_y
 _atom_site_fract_z
 _atom_site_occupancy
  Sm  Sm0  1  0.50000000  0.20667600  0.20667600  1
  Sm  Sm1  1  0.50000000  0.00000000  0.79332400  1
  Sm  Sm2  1  0.50000000  0.79332400  0.00000000  1
  Sm  Sm3  1  0.00000000  0.72910800  0.18580700  1
  Sm  Sm4  1  0.00000000  0.45669900  0.27089200  1
  Sm  Sm5  1  0.00000000  0.54330100  0.81419300  1
  Sm  Sm6  1  0.00000000  0.81419300  0.54330100  1
  Sm  Sm7  1  0.00000000  0.18580700  0.72910800  1
  Sm  Sm8  1  0.00000000  0.27089200  0.45669900  1
  Sm  Sm9  1  0.50000000  0.57552200  0.57552200  1
  Sm  Sm10  1  0.50000000  0.00000000  0.42447800  1
  Sm  Sm11  1  0.50000000  0.42447800  0.00000000  1
  Mn  Mn12  1  0.00000000  0.84715000  0.84715000  1
  Mn  Mn13  1  0.00000000  0.00000000  0.15285000  1
  Mn  Mn14  1  0.00000000  0.15285000  0.00000000  1
  Mn  Mn15  1  0.50000000  0.66666700  0.33333300  1
  Mn  Mn16  1  0.50000000  0.33333300  0.66666700  1
  C  C17  1  0.00000000  0.67827600  0.67827600  1
  C  C18  1  0.00000000  0.00000000  0.32172400  1
  C  C19  1  0.00000000  0.32172400  0.00000000  1
  C  C20  1  0.00000000  0.19610500  0.19610500  1
  C  C21  1  0.00000000  0.00000000  0.80389500  1
  C  C22  1  0.00000000  0.80389500  0.00000000  1
  C  C23  1  0.00000000  0.55151100  0.55151100  1
  C  C24  1  0.00000000  0.00000000  0.44848900  1
  C  C25  1  0.00000000  0.44848900  0.00000000  1
  C  C26  1  0.50000000  0.71225600  0.19340400  1
  C  C27  1  0.50000000  0.48114800  0.28774400  1
  C  C28  1  0.50000000  0.51885200  0.80659600  1
  C  C29  1  0.50000000  0.80659600  0.51885200  1
  C  C30  1  0.50000000  0.19340400  0.71225600  1
  C  C31  1  0.50000000  0.28774400  0.48114800  1
