# generated using pymatgen
data_La5Ir2
_symmetry_space_group_name_H-M   'P 1'
_cell_length_a   9.18235801
_cell_length_b   9.18235801
_cell_length_c   7.41594157
_cell_angle_alpha   84.00703536
_cell_angle_beta   84.00703536
_cell_angle_gamma   43.32801547
_symmetry_Int_Tables_number   1
_chemical_formula_structural   La5Ir2
_chemical_formula_sum   'La10 Ir4'
_cell_volume   426.33511054
_cell_formula_units_Z   2
loop_
 _symmetry_equiv_pos_site_id
 _symmetry_equiv_pos_as_xyz
  1  'x, y, z'
loop_
 _atom_site_type_symbol
 _atom_site_label
 _atom_site_symmetry_multiplicity
 _atom_site_fract_x
 _atom_site_fract_y
 _atom_site_fract_z
 _atom_site_occupancy
  La  La0  1  0.01428000  0.79934000  0.91158400  1
  La  La1  1  0.20066000  0.98572000  0.58841600  1
  La  La2  1  0.98572000  0.20066000  0.08841600  1
  La  La3  1  0.79934000  0.01428000  0.41158400  1
  La  La4  1  0.35633300  0.21283100  0.81674600  1
  La  La5  1  0.78716900  0.64366700  0.68325400  1
  La  La6  1  0.64366700  0.78716900  0.18325400  1
  La  La7  1  0.21283100  0.35633300  0.31674600  1
  La  La8  1  0.57785200  0.42214800  0.75000000  1
  La  La9  1  0.42214800  0.57785200  0.25000000  1
  Ir  Ir10  1  0.18391100  0.59286500  0.58004300  1
  Ir  Ir11  1  0.40713500  0.81608900  0.91995700  1
  Ir  Ir12  1  0.81608900  0.40713500  0.41995700  1
  Ir  Ir13  1  0.59286500  0.18391100  0.08004300  1
