# generated using pymatgen
data_Ti7P4
_symmetry_space_group_name_H-M   'P 1'
_cell_length_a   7.53361717
_cell_length_b   7.53361717
_cell_length_c   13.62574473
_cell_angle_alpha   75.66097927
_cell_angle_beta   75.66097927
_cell_angle_gamma   26.14801053
_symmetry_Int_Tables_number   1
_chemical_formula_structural   Ti7P4
_chemical_formula_sum   'Ti14 P8'
_cell_volume   329.60272031
_cell_formula_units_Z   2
loop_
 _symmetry_equiv_pos_site_id
 _symmetry_equiv_pos_as_xyz
  1  'x, y, z'
loop_
 _atom_site_type_symbol
 _atom_site_label
 _atom_site_symmetry_multiplicity
 _atom_site_fract_x
 _atom_site_fract_y
 _atom_site_fract_z
 _atom_site_occupancy
  Ti  Ti0  1  0.00000000  0.00000000  0.00000000  1
  Ti  Ti1  1  0.50000000  0.50000000  0.50000000  1
  Ti  Ti2  1  0.43115300  0.43115300  0.17157500  1
  Ti  Ti3  1  0.56884700  0.56884700  0.82842500  1
  Ti  Ti4  1  0.19634900  0.19634900  0.69181500  1
  Ti  Ti5  1  0.80365100  0.80365100  0.30818500  1
  Ti  Ti6  1  0.20642200  0.20642200  0.20628100  1
  Ti  Ti7  1  0.79357800  0.79357800  0.79371900  1
  Ti  Ti8  1  0.34011000  0.34011000  0.97009300  1
  Ti  Ti9  1  0.65989000  0.65989000  0.02990700  1
  Ti  Ti10  1  0.00369100  0.00369100  0.33680100  1
  Ti  Ti11  1  0.99630900  0.99630900  0.66319900  1
  Ti  Ti12  1  0.17819800  0.17819800  0.45848400  1
  Ti  Ti13  1  0.82180200  0.82180200  0.54151600  1
  P  P14  1  0.17620000  0.17620000  0.88886000  1
  P  P15  1  0.82380000  0.82380000  0.11114000  1
  P  P16  1  0.37275000  0.37275000  0.39583700  1
  P  P17  1  0.62725000  0.62725000  0.60416300  1
  P  P18  1  0.36961100  0.36961100  0.65797900  1
  P  P19  1  0.63038900  0.63038900  0.34202100  1
  P  P20  1  0.06277000  0.06277000  0.14999800  1
  P  P21  1  0.93723000  0.93723000  0.85000200  1
