# generated using pymatgen
data_ZnCr2O4
_symmetry_space_group_name_H-M   'P 1'
_cell_length_a   5.99589900
_cell_length_b   5.99526398
_cell_length_c   5.99526536
_cell_angle_alpha   90.01183423
_cell_angle_beta   59.99648867
_cell_angle_gamma   120.00344762
_symmetry_Int_Tables_number   1
_chemical_formula_structural   ZnCr2O4
_chemical_formula_sum   'Zn2 Cr4 O8'
_cell_volume   152.38955148
_cell_formula_units_Z   2
loop_
 _symmetry_equiv_pos_site_id
 _symmetry_equiv_pos_as_xyz
  1  'x, y, z'
loop_
 _atom_site_type_symbol
 _atom_site_label
 _atom_site_symmetry_multiplicity
 _atom_site_fract_x
 _atom_site_fract_y
 _atom_site_fract_z
 _atom_site_occupancy
  Zn  Zn0  1  0.75000000  0.87500100  0.87500000  1
  Zn  Zn1  1  0.25000000  0.12500000  0.12499900  1
  Cr  Cr2  1  0.49999900  0.49999900  0.50000200  1
  Cr  Cr3  1  0.99999900  0.50000200  0.50000200  1
  Cr  Cr4  1  0.00000100  0.49999900  0.99999700  1
  Cr  Cr5  1  0.50000100  0.99999800  0.49999900  1
  O  O6  1  0.47719900  0.73879000  0.73878900  1
  O  O7  1  0.97719800  0.26121100  0.26121100  1
  O  O8  1  0.52280000  0.26158900  0.71598900  1
  O  O9  1  0.97720000  0.71598900  0.26158800  1
  O  O10  1  0.47720000  0.73841200  0.28401100  1
  O  O11  1  0.02280000  0.28401200  0.73841100  1
  O  O12  1  0.52280100  0.26121100  0.26121100  1
  O  O13  1  0.02280100  0.73878900  0.73878900  1
