# generated using pymatgen
data_KCO3
_symmetry_space_group_name_H-M   'P 1'
_cell_length_a   5.78696600
_cell_length_b   4.00571100
_cell_length_c   15.32873122
_cell_angle_alpha   80.49497619
_cell_angle_beta   90.00000000
_cell_angle_gamma   90.00000000
_symmetry_Int_Tables_number   1
_chemical_formula_structural   KCO3
_chemical_formula_sum   'K4 C4 O12'
_cell_volume   350.45565478
_cell_formula_units_Z   4
loop_
 _symmetry_equiv_pos_site_id
 _symmetry_equiv_pos_as_xyz
  1  'x, y, z'
loop_
 _atom_site_type_symbol
 _atom_site_label
 _atom_site_symmetry_multiplicity
 _atom_site_fract_x
 _atom_site_fract_y
 _atom_site_fract_z
 _atom_site_occupancy
  K  K0  1  0.47313300  0.69585700  0.64980700  1
  K  K1  1  0.97313300  0.30414300  0.85019300  1
  K  K2  1  0.52686700  0.30414300  0.35019300  1
  K  K3  1  0.02686700  0.69585700  0.14980700  1
  C  C4  1  0.97058700  0.13521400  0.62862100  1
  C  C5  1  0.47058700  0.86478600  0.87137900  1
  C  C6  1  0.02941300  0.86478600  0.37137900  1
  C  C7  1  0.52941300  0.13521400  0.12862100  1
  O  O8  1  0.96189300  0.91260000  0.69995300  1
  O  O9  1  0.46189300  0.08740000  0.80004700  1
  O  O10  1  0.03810700  0.08740000  0.30004700  1
  O  O11  1  0.53810700  0.91260000  0.19995300  1
  O  O12  1  0.78155900  0.25976800  0.59405000  1
  O  O13  1  0.28155900  0.74023200  0.90595000  1
  O  O14  1  0.21844100  0.74023200  0.40595000  1
  O  O15  1  0.71844100  0.25976800  0.09405000  1
  O  O16  1  0.16749000  0.22637600  0.59509400  1
  O  O17  1  0.66749000  0.77362400  0.90490600  1
  O  O18  1  0.83251000  0.77362400  0.40490600  1
  O  O19  1  0.33251000  0.22637600  0.09509400  1
