# generated using pymatgen
data_K3Sm(PO4)2
_symmetry_space_group_name_H-M   'P 1'
_cell_length_a   5.73040000
_cell_length_b   7.56000800
_cell_length_c   9.57348012
_cell_angle_alpha   88.88272650
_cell_angle_beta   90.00000000
_cell_angle_gamma   90.00000000
_symmetry_Int_Tables_number   1
_chemical_formula_structural   K3Sm(PO4)2
_chemical_formula_sum   'K6 Sm2 P4 O16'
_cell_volume   414.66220870
_cell_formula_units_Z   2
loop_
 _symmetry_equiv_pos_site_id
 _symmetry_equiv_pos_as_xyz
  1  'x, y, z'
loop_
 _atom_site_type_symbol
 _atom_site_label
 _atom_site_symmetry_multiplicity
 _atom_site_fract_x
 _atom_site_fract_y
 _atom_site_fract_z
 _atom_site_occupancy
  K  K0  1  0.25000000  0.49479000  0.19062300  1
  K  K1  1  0.75000000  0.50521000  0.80937700  1
  K  K2  1  0.25000000  0.64086800  0.59025400  1
  K  K3  1  0.75000000  0.35913200  0.40974600  1
  K  K4  1  0.75000000  0.79533000  0.08390300  1
  K  K5  1  0.25000000  0.20467000  0.91609700  1
  Sm  Sm6  1  0.25000000  0.99424400  0.28939900  1
  Sm  Sm7  1  0.75000000  0.00575600  0.71060100  1
  P  P8  1  0.75000000  0.81128300  0.42813800  1
  P  P9  1  0.75000000  0.23035500  0.08754500  1
  P  P10  1  0.25000000  0.76964500  0.91245500  1
  P  P11  1  0.25000000  0.18871700  0.57186200  1
  O  O12  1  0.75000000  0.43281300  0.10246500  1
  O  O13  1  0.47193800  0.84910400  0.83935100  1
  O  O14  1  0.97193800  0.15089600  0.16064900  1
  O  O15  1  0.52806200  0.15089600  0.16064900  1
  O  O16  1  0.75000000  0.71744500  0.57522400  1
  O  O17  1  0.25000000  0.28255500  0.42477600  1
  O  O18  1  0.75000000  0.01292200  0.45582500  1
  O  O19  1  0.25000000  0.98707800  0.54417500  1
  O  O20  1  0.02813400  0.24121200  0.65603800  1
  O  O21  1  0.52813400  0.75878800  0.34396200  1
  O  O22  1  0.97186600  0.75878800  0.34396200  1
  O  O23  1  0.47186600  0.24121200  0.65603800  1
  O  O24  1  0.25000000  0.82274200  0.06923000  1
  O  O25  1  0.75000000  0.17725800  0.93077000  1
  O  O26  1  0.25000000  0.56718700  0.89753500  1
  O  O27  1  0.02806200  0.84910400  0.83935100  1
