# generated using pymatgen
data_Ca3Ga3(SnO6)2
_symmetry_space_group_name_H-M   'P 1'
_cell_length_a   11.06095960
_cell_length_b   11.06095960
_cell_length_c   11.06095960
_cell_angle_alpha   109.47122063
_cell_angle_beta   109.47122063
_cell_angle_gamma   109.47122063
_symmetry_Int_Tables_number   1
_chemical_formula_structural   Ca3Ga3(SnO6)2
_chemical_formula_sum   'Ca12 Ga12 Sn8 O48'
_cell_volume   1041.73325185
_cell_formula_units_Z   4
loop_
 _symmetry_equiv_pos_site_id
 _symmetry_equiv_pos_as_xyz
  1  'x, y, z'
loop_
 _atom_site_type_symbol
 _atom_site_label
 _atom_site_symmetry_multiplicity
 _atom_site_fract_x
 _atom_site_fract_y
 _atom_site_fract_z
 _atom_site_occupancy
  Ca  Ca0  1  0.25000000  0.37500000  0.12500000  1
  Ca  Ca1  1  0.75000000  0.62500000  0.87500000  1
  Ca  Ca2  1  0.75000000  0.12500000  0.37500000  1
  Ca  Ca3  1  0.12500000  0.25000000  0.37500000  1
  Ca  Ca4  1  0.37500000  0.75000000  0.12500000  1
  Ca  Ca5  1  0.25000000  0.87500000  0.62500000  1
  Ca  Ca6  1  0.87500000  0.75000000  0.62500000  1
  Ca  Ca7  1  0.62500000  0.25000000  0.87500000  1
  Ca  Ca8  1  0.37500000  0.12500000  0.25000000  1
  Ca  Ca9  1  0.62500000  0.87500000  0.75000000  1
  Ca  Ca10  1  0.12500000  0.37500000  0.75000000  1
  Ca  Ca11  1  0.87500000  0.62500000  0.25000000  1
  Ga  Ga12  1  0.25000000  0.62500000  0.37500000  1
  Ga  Ga13  1  0.75000000  0.37500000  0.62500000  1
  Ga  Ga14  1  0.75000000  0.87500000  0.12500000  1
  Ga  Ga15  1  0.37500000  0.25000000  0.62500000  1
  Ga  Ga16  1  0.62500000  0.75000000  0.37500000  1
  Ga  Ga17  1  0.25000000  0.12500000  0.87500000  1
  Ga  Ga18  1  0.12500000  0.75000000  0.87500000  1
  Ga  Ga19  1  0.87500000  0.25000000  0.12500000  1
  Ga  Ga20  1  0.62500000  0.37500000  0.25000000  1
  Ga  Ga21  1  0.37500000  0.62500000  0.75000000  1
  Ga  Ga22  1  0.87500000  0.12500000  0.75000000  1
  Ga  Ga23  1  0.12500000  0.87500000  0.25000000  1
  Sn  Sn24  1  0.00000000  0.00000000  0.00000000  1
  Sn  Sn25  1  0.50000000  0.00000000  0.50000000  1
  Sn  Sn26  1  0.00000000  0.50000000  0.50000000  1
  Sn  Sn27  1  0.50000000  0.00000000  0.00000000  1
  Sn  Sn28  1  0.50000000  0.50000000  0.00000000  1
  Sn  Sn29  1  0.50000000  0.50000000  0.50000000  1
  Sn  Sn30  1  0.00000000  0.00000000  0.50000000  1
  Sn  Sn31  1  0.00000000  0.50000000  0.00000000  1
  O  O32  1  0.47708900  0.37743700  0.29562500  1
  O  O33  1  0.52291100  0.62256300  0.70437500  1
  O  O34  1  0.58181200  0.18146400  0.20437500  1
  O  O35  1  0.91818800  0.12256300  0.59965200  1
  O  O36  1  0.29562500  0.47708900  0.37743700  1
  O  O37  1  0.31853600  0.91818800  0.29562500  1
  O  O38  1  0.41818800  0.81853600  0.79562500  1
  O  O39  1  0.08181200  0.87743700  0.40034800  1
  O  O40  1  0.70437500  0.52291100  0.62256300  1
  O  O41  1  0.68146400  0.08181200  0.70437500  1
  O  O42  1  0.02291100  0.31853600  0.90034800  1
  O  O43  1  0.20437500  0.58181200  0.18146400  1
  O  O44  1  0.12256300  0.02291100  0.20437500  1
  O  O45  1  0.97708900  0.68146400  0.09965200  1
  O  O46  1  0.79562500  0.41818800  0.81853600  1
  O  O47  1  0.87743700  0.97708900  0.79562500  1
  O  O48  1  0.59965200  0.91818800  0.12256300  1
  O  O49  1  0.18146400  0.47708900  0.59965200  1
  O  O50  1  0.40034800  0.08181200  0.87743700  1
  O  O51  1  0.81853600  0.52291100  0.40034800  1
  O  O52  1  0.90034800  0.02291100  0.31853600  1
  O  O53  1  0.37743700  0.58181200  0.90034800  1
  O  O54  1  0.09965200  0.97708900  0.68146400  1
  O  O55  1  0.62256300  0.41818800  0.09965200  1
  O  O56  1  0.37743700  0.29562500  0.47708900  1
  O  O57  1  0.58181200  0.90034800  0.37743700  1
  O  O58  1  0.62256300  0.70437500  0.52291100  1
  O  O59  1  0.41818800  0.09965200  0.62256300  1
  O  O60  1  0.12256300  0.59965200  0.91818800  1
  O  O61  1  0.02291100  0.20437500  0.12256300  1
  O  O62  1  0.87743700  0.40034800  0.08181200  1
  O  O63  1  0.97708900  0.79562500  0.87743700  1
  O  O64  1  0.31853600  0.90034800  0.02291100  1
  O  O65  1  0.91818800  0.29562500  0.31853600  1
  O  O66  1  0.68146400  0.09965200  0.97708900  1
  O  O67  1  0.08181200  0.70437500  0.68146400  1
  O  O68  1  0.18146400  0.20437500  0.58181200  1
  O  O69  1  0.47708900  0.59965200  0.18146400  1
  O  O70  1  0.81853600  0.79562500  0.41818800  1
  O  O71  1  0.52291100  0.40034800  0.81853600  1
  O  O72  1  0.29562500  0.31853600  0.91818800  1
  O  O73  1  0.70437500  0.68146400  0.08181200  1
  O  O74  1  0.20437500  0.12256300  0.02291100  1
  O  O75  1  0.79562500  0.87743700  0.97708900  1
  O  O76  1  0.90034800  0.37743700  0.58181200  1
  O  O77  1  0.09965200  0.62256300  0.41818800  1
  O  O78  1  0.59965200  0.18146400  0.47708900  1
  O  O79  1  0.40034800  0.81853600  0.52291100  1
