# generated using pymatgen
data_K2Cd3SnAs4
_symmetry_space_group_name_H-M   'P 1'
_cell_length_a   9.46235964
_cell_length_b   9.46235964
_cell_length_c   7.81685928
_cell_angle_alpha   65.88344627
_cell_angle_beta   65.88344627
_cell_angle_gamma   27.47165720
_symmetry_Int_Tables_number   1
_chemical_formula_structural   K2Cd3SnAs4
_chemical_formula_sum   'K2 Cd3 Sn1 As4'
_cell_volume   292.91644222
_cell_formula_units_Z   1
loop_
 _symmetry_equiv_pos_site_id
 _symmetry_equiv_pos_as_xyz
  1  'x, y, z'
loop_
 _atom_site_type_symbol
 _atom_site_label
 _atom_site_symmetry_multiplicity
 _atom_site_fract_x
 _atom_site_fract_y
 _atom_site_fract_z
 _atom_site_occupancy
  K  K0  1  0.50711300  0.50711300  0.49224800  1
  K  K1  1  0.00470100  0.00470100  0.99700900  1
  Cd  Cd2  1  0.80505700  0.80505700  0.51721600  1
  Cd  Cd3  1  0.67757300  0.67757300  0.97444500  1
  Cd  Cd4  1  0.18326300  0.18326300  0.49850200  1
  Sn  Sn5  1  0.31293500  0.31293500  0.03189200  1
  As  As6  1  0.63235300  0.63235300  0.69730700  1
  As  As7  1  0.15159500  0.15159500  0.18684800  1
  As  As8  1  0.36803600  0.36803600  0.30046500  1
  As  As9  1  0.86327800  0.86327800  0.80406900  1
