# generated using pymatgen
data_Er2(Ga3Ir)3
_symmetry_space_group_name_H-M   'P 1'
_cell_length_a   7.58082244
_cell_length_b   7.58082244
_cell_length_c   9.48123300
_cell_angle_alpha   90.00000000
_cell_angle_beta   90.00000000
_cell_angle_gamma   120.03145425
_symmetry_Int_Tables_number   1
_chemical_formula_structural   Er2(Ga3Ir)3
_chemical_formula_sum   'Er4 Ga18 Ir6'
_cell_volume   471.72659546
_cell_formula_units_Z   2
loop_
 _symmetry_equiv_pos_site_id
 _symmetry_equiv_pos_as_xyz
  1  'x, y, z'
loop_
 _atom_site_type_symbol
 _atom_site_label
 _atom_site_symmetry_multiplicity
 _atom_site_fract_x
 _atom_site_fract_y
 _atom_site_fract_z
 _atom_site_occupancy
  Er  Er0  1  0.99699000  0.66766100  0.75000000  1
  Er  Er1  1  0.00301000  0.33233900  0.25000000  1
  Er  Er2  1  0.66766100  0.99699000  0.75000000  1
  Er  Er3  1  0.33233900  0.00301000  0.25000000  1
  Ga  Ga4  1  0.12647100  0.12647100  0.75000000  1
  Ga  Ga5  1  0.87352900  0.87352900  0.25000000  1
  Ga  Ga6  1  0.99890900  0.33367200  0.58002200  1
  Ga  Ga7  1  0.00109100  0.66632800  0.41997800  1
  Ga  Ga8  1  0.00109100  0.66632800  0.08002200  1
  Ga  Ga9  1  0.33367200  0.99890900  0.91997800  1
  Ga  Ga10  1  0.99890900  0.33367200  0.91997800  1
  Ga  Ga11  1  0.66632800  0.00109100  0.08002200  1
  Ga  Ga12  1  0.66632800  0.00109100  0.41997800  1
  Ga  Ga13  1  0.33367200  0.99890900  0.58002200  1
  Ga  Ga14  1  0.33284300  0.33284300  0.06442400  1
  Ga  Ga15  1  0.66715700  0.66715700  0.93557600  1
  Ga  Ga16  1  0.66715700  0.66715700  0.56442400  1
  Ga  Ga17  1  0.33284300  0.33284300  0.43557600  1
  Ga  Ga18  1  0.33851400  0.54633100  0.75000000  1
  Ga  Ga19  1  0.66148600  0.45366900  0.25000000  1
  Ga  Ga20  1  0.54633100  0.33851400  0.75000000  1
  Ga  Ga21  1  0.45366900  0.66148600  0.25000000  1
  Ir  Ir22  1  0.67178700  0.32821300  0.50000000  1
  Ir  Ir23  1  0.32821300  0.67178700  0.50000000  1
  Ir  Ir24  1  0.32821300  0.67178700  0.00000000  1
  Ir  Ir25  1  0.67178700  0.32821300  0.00000000  1
  Ir  Ir26  1  0.00000000  0.00000000  0.50000000  1
  Ir  Ir27  1  0.00000000  0.00000000  0.00000000  1
