# generated using pymatgen
data_LiScS2
_symmetry_space_group_name_H-M   'P 1'
_cell_length_a   6.44268809
_cell_length_b   6.44268809
_cell_length_c   6.44268864
_cell_angle_alpha   33.28254842
_cell_angle_beta   33.28254842
_cell_angle_gamma   33.28254360
_symmetry_Int_Tables_number   1
_chemical_formula_structural   LiScS2
_chemical_formula_sum   'Li1 Sc1 S2'
_cell_volume   71.70123744
_cell_formula_units_Z   1
loop_
 _symmetry_equiv_pos_site_id
 _symmetry_equiv_pos_as_xyz
  1  'x, y, z'
loop_
 _atom_site_type_symbol
 _atom_site_label
 _atom_site_symmetry_multiplicity
 _atom_site_fract_x
 _atom_site_fract_y
 _atom_site_fract_z
 _atom_site_occupancy
  Li  Li0  1  0.00000000  0.00000000  0.00000000  1
  Sc  Sc1  1  0.50000000  0.50000000  0.50000000  1
  S  S2  1  0.75315900  0.75315900  0.75315900  1
  S  S3  1  0.24684100  0.24684100  0.24684100  1
