# generated using pymatgen
data_Tm5P12Ir19
_symmetry_space_group_name_H-M   'P 1'
_cell_length_a   12.70157695
_cell_length_b   12.70157695
_cell_length_c   3.96387200
_cell_angle_alpha   90.00000000
_cell_angle_beta   90.00000000
_cell_angle_gamma   119.99999451
_symmetry_Int_Tables_number   1
_chemical_formula_structural   Tm5P12Ir19
_chemical_formula_sum   'Tm5 P12 Ir19'
_cell_volume   553.81608438
_cell_formula_units_Z   1
loop_
 _symmetry_equiv_pos_site_id
 _symmetry_equiv_pos_as_xyz
  1  'x, y, z'
loop_
 _atom_site_type_symbol
 _atom_site_label
 _atom_site_symmetry_multiplicity
 _atom_site_fract_x
 _atom_site_fract_y
 _atom_site_fract_z
 _atom_site_occupancy
  Tm  Tm0  1  0.33333300  0.66666700  0.50000000  1
  Tm  Tm1  1  0.66666700  0.33333300  0.50000000  1
  Tm  Tm2  1  0.18490800  0.18490800  0.00000000  1
  Tm  Tm3  1  0.81509200  0.00000000  0.00000000  1
  Tm  Tm4  1  0.00000000  0.81509200  0.00000000  1
  P  P5  1  0.31154800  0.82899600  0.00000000  1
  P  P6  1  0.17100400  0.48255200  0.00000000  1
  P  P7  1  0.51744800  0.68845200  0.00000000  1
  P  P8  1  0.82899600  0.31154800  0.00000000  1
  P  P9  1  0.48255200  0.17100400  0.00000000  1
  P  P10  1  0.68845200  0.51744800  0.00000000  1
  P  P11  1  0.35698800  0.35698800  0.50000000  1
  P  P12  1  0.64301200  0.00000000  0.50000000  1
  P  P13  1  0.00000000  0.64301200  0.50000000  1
  P  P14  1  0.82246000  0.82246000  0.50000000  1
  P  P15  1  0.17754000  0.00000000  0.50000000  1
  P  P16  1  0.00000000  0.17754000  0.50000000  1
  Ir  Ir17  1  0.19284600  0.81904900  0.50000000  1
  Ir  Ir18  1  0.18095100  0.37379700  0.50000000  1
  Ir  Ir19  1  0.62620300  0.80715400  0.50000000  1
  Ir  Ir20  1  0.81904900  0.19284600  0.50000000  1
  Ir  Ir21  1  0.37379700  0.18095100  0.50000000  1
  Ir  Ir22  1  0.80715400  0.62620300  0.50000000  1
  Ir  Ir23  1  0.13397800  0.63933300  0.00000000  1
  Ir  Ir24  1  0.36066700  0.49464400  0.00000000  1
  Ir  Ir25  1  0.50535600  0.86602200  0.00000000  1
  Ir  Ir26  1  0.63933300  0.13397800  0.00000000  1
  Ir  Ir27  1  0.49464400  0.36066700  0.00000000  1
  Ir  Ir28  1  0.86602200  0.50535600  0.00000000  1
  Ir  Ir29  1  0.53715800  0.53715800  0.50000000  1
  Ir  Ir30  1  0.46284200  0.00000000  0.50000000  1
  Ir  Ir31  1  0.00000000  0.46284200  0.50000000  1
  Ir  Ir32  1  0.71640800  0.71640800  0.00000000  1
  Ir  Ir33  1  0.28359200  0.00000000  0.00000000  1
  Ir  Ir34  1  0.00000000  0.28359200  0.00000000  1
  Ir  Ir35  1  0.00000000  0.00000000  0.50000000  1
