# generated using pymatgen
data_CeTiNbO6
_symmetry_space_group_name_H-M   'P 1'
_cell_length_a   5.35731700
_cell_length_b   7.55207800
_cell_length_c   11.18033000
_cell_angle_alpha   90.00000000
_cell_angle_beta   90.00000000
_cell_angle_gamma   90.00000000
_symmetry_Int_Tables_number   1
_chemical_formula_structural   CeTiNbO6
_chemical_formula_sum   'Ce4 Ti4 Nb4 O24'
_cell_volume   452.34358348
_cell_formula_units_Z   4
loop_
 _symmetry_equiv_pos_site_id
 _symmetry_equiv_pos_as_xyz
  1  'x, y, z'
loop_
 _atom_site_type_symbol
 _atom_site_label
 _atom_site_symmetry_multiplicity
 _atom_site_fract_x
 _atom_site_fract_y
 _atom_site_fract_z
 _atom_site_occupancy
  Ce  Ce0  1  0.54735400  0.74970700  0.04185300  1
  Ce  Ce1  1  0.95264600  0.74970700  0.54185300  1
  Ce  Ce2  1  0.45264600  0.24970700  0.95814700  1
  Ce  Ce3  1  0.04735400  0.24970700  0.45814700  1
  Ti  Ti4  1  0.52808900  0.99143100  0.35869900  1
  Ti  Ti5  1  0.47191100  0.49143100  0.64130100  1
  Ti  Ti6  1  0.02808900  0.49143100  0.14130100  1
  Ti  Ti7  1  0.97191100  0.99143100  0.85869900  1
  Nb  Nb8  1  0.96638100  0.50558200  0.85282000  1
  Nb  Nb9  1  0.03361900  0.00558200  0.14718000  1
  Nb  Nb10  1  0.46638100  0.00558200  0.64718000  1
  Nb  Nb11  1  0.53361900  0.50558200  0.35282000  1
  O  O12  1  0.87461400  0.43820500  0.28801800  1
  O  O13  1  0.63316200  0.06451200  0.79087000  1
  O  O14  1  0.12538600  0.93820500  0.71198200  1
  O  O15  1  0.36683800  0.56451200  0.20913000  1
  O  O16  1  0.13316200  0.56451200  0.70913000  1
  O  O17  1  0.37461400  0.93820500  0.21198200  1
  O  O18  1  0.86683800  0.06451200  0.29087000  1
  O  O19  1  0.62538600  0.43820500  0.78801800  1
  O  O20  1  0.93830300  0.74749000  0.14458800  1
  O  O21  1  0.56169700  0.74749000  0.64458800  1
  O  O22  1  0.06169700  0.24749000  0.85541200  1
  O  O23  1  0.43830300  0.24749000  0.35541200  1
  O  O24  1  0.65990200  0.75292100  0.38130300  1
  O  O25  1  0.84009800  0.75292100  0.88130300  1
  O  O26  1  0.34009800  0.25292100  0.61869700  1
  O  O27  1  0.15990200  0.25292100  0.11869700  1
  O  O28  1  0.76172900  0.46012500  0.02624400  1
  O  O29  1  0.73483300  0.04002800  0.52474300  1
  O  O30  1  0.23827100  0.96012500  0.97375600  1
  O  O31  1  0.26516700  0.54002800  0.47525700  1
  O  O32  1  0.23483300  0.54002800  0.97525700  1
  O  O33  1  0.26172900  0.96012500  0.47375600  1
  O  O34  1  0.76516700  0.04002800  0.02474300  1
  O  O35  1  0.73827100  0.46012500  0.52624400  1
