# generated using pymatgen
data_CsSi
_symmetry_space_group_name_H-M   'P 1'
_cell_length_a   13.71878600
_cell_length_b   13.71878600
_cell_length_c   13.71878600
_cell_angle_alpha   90.00000000
_cell_angle_beta   90.00000000
_cell_angle_gamma   90.00000000
_symmetry_Int_Tables_number   1
_chemical_formula_structural   CsSi
_chemical_formula_sum   'Cs32 Si32'
_cell_volume   2581.94534441
_cell_formula_units_Z   32
loop_
 _symmetry_equiv_pos_site_id
 _symmetry_equiv_pos_as_xyz
  1  'x, y, z'
loop_
 _atom_site_type_symbol
 _atom_site_label
 _atom_site_symmetry_multiplicity
 _atom_site_fract_x
 _atom_site_fract_y
 _atom_site_fract_z
 _atom_site_occupancy
  Cs  Cs0  1  0.06767200  0.33848300  0.13987600  1
  Cs  Cs1  1  0.83848300  0.43232800  0.36012400  1
  Cs  Cs2  1  0.56767200  0.63987600  0.83848300  1
  Cs  Cs3  1  0.43232800  0.63987600  0.16151700  1
  Cs  Cs4  1  0.63987600  0.83848300  0.56767200  1
  Cs  Cs5  1  0.36012400  0.16151700  0.56767200  1
  Cs  Cs6  1  0.66151700  0.86012400  0.06767200  1
  Cs  Cs7  1  0.66151700  0.13987600  0.93232800  1
  Cs  Cs8  1  0.33848300  0.86012400  0.93232800  1
  Cs  Cs9  1  0.13987600  0.93232800  0.66151700  1
  Cs  Cs10  1  0.93232800  0.33848300  0.86012400  1
  Cs  Cs11  1  0.93232800  0.66151700  0.13987600  1
  Cs  Cs12  1  0.86012400  0.06767200  0.66151700  1
  Cs  Cs13  1  0.06767200  0.66151700  0.86012400  1
  Cs  Cs14  1  0.86012400  0.93232800  0.33848300  1
  Cs  Cs15  1  0.13987600  0.06767200  0.33848300  1
  Cs  Cs16  1  0.83848300  0.56767200  0.63987600  1
  Cs  Cs17  1  0.36012400  0.83848300  0.43232800  1
  Cs  Cs18  1  0.63987600  0.16151700  0.43232800  1
  Cs  Cs19  1  0.56767200  0.36012400  0.16151700  1
  Cs  Cs20  1  0.43232800  0.36012400  0.83848300  1
  Cs  Cs21  1  0.16151700  0.43232800  0.63987600  1
  Cs  Cs22  1  0.16151700  0.56767200  0.36012400  1
  Cs  Cs23  1  0.33848300  0.13987600  0.06767200  1
  Cs  Cs24  1  0.83494800  0.83494800  0.83494800  1
  Cs  Cs25  1  0.66505200  0.33494800  0.66505200  1
  Cs  Cs26  1  0.33494800  0.66505200  0.66505200  1
  Cs  Cs27  1  0.66505200  0.66505200  0.33494800  1
  Cs  Cs28  1  0.83494800  0.16505200  0.16505200  1
  Cs  Cs29  1  0.16505200  0.16505200  0.83494800  1
  Cs  Cs30  1  0.16505200  0.83494800  0.16505200  1
  Cs  Cs31  1  0.33494800  0.33494800  0.33494800  1
  Si  Si32  1  0.55863500  0.93233900  0.81190800  1
  Si  Si33  1  0.55863500  0.06766100  0.18809200  1
  Si  Si34  1  0.93233900  0.81190800  0.55863500  1
  Si  Si35  1  0.06766100  0.81190800  0.44136500  1
  Si  Si36  1  0.81190800  0.55863500  0.93233900  1
  Si  Si37  1  0.18809200  0.44136500  0.93233900  1
  Si  Si38  1  0.94136500  0.68809200  0.43233900  1
  Si  Si39  1  0.94136500  0.31190800  0.56766100  1
  Si  Si40  1  0.05863500  0.68809200  0.56766100  1
  Si  Si41  1  0.31190800  0.56766100  0.94136500  1
  Si  Si42  1  0.56766100  0.05863500  0.68809200  1
  Si  Si43  1  0.56766100  0.94136500  0.31190800  1
  Si  Si44  1  0.68809200  0.43233900  0.94136500  1
  Si  Si45  1  0.43233900  0.94136500  0.68809200  1
  Si  Si46  1  0.68809200  0.56766100  0.05863500  1
  Si  Si47  1  0.06289700  0.06289700  0.06289700  1
  Si  Si48  1  0.43233900  0.05863500  0.31190800  1
  Si  Si49  1  0.18809200  0.55863500  0.06766100  1
  Si  Si50  1  0.81190800  0.44136500  0.06766100  1
  Si  Si51  1  0.93233900  0.18809200  0.44136500  1
  Si  Si52  1  0.06766100  0.18809200  0.55863500  1
  Si  Si53  1  0.44136500  0.06766100  0.81190800  1
  Si  Si54  1  0.44136500  0.93233900  0.18809200  1
  Si  Si55  1  0.05863500  0.31190800  0.43233900  1
  Si  Si56  1  0.56289700  0.56289700  0.56289700  1
  Si  Si57  1  0.93710300  0.06289700  0.93710300  1
  Si  Si58  1  0.06289700  0.93710300  0.93710300  1
  Si  Si59  1  0.93710300  0.93710300  0.06289700  1
  Si  Si60  1  0.56289700  0.43710300  0.43710300  1
  Si  Si61  1  0.43710300  0.43710300  0.56289700  1
  Si  Si62  1  0.43710300  0.56289700  0.43710300  1
  Si  Si63  1  0.31190800  0.43233900  0.05863500  1
