# generated using pymatgen
data_TbGaI
_symmetry_space_group_name_H-M   'P 1'
_cell_length_a   4.20900453
_cell_length_b   4.20900453
_cell_length_c   11.68600900
_cell_angle_alpha   90.00000000
_cell_angle_beta   90.00000000
_cell_angle_gamma   120.00000832
_symmetry_Int_Tables_number   1
_chemical_formula_structural   TbGaI
_chemical_formula_sum   'Tb2 Ga2 I2'
_cell_volume   179.28980627
_cell_formula_units_Z   2
loop_
 _symmetry_equiv_pos_site_id
 _symmetry_equiv_pos_as_xyz
  1  'x, y, z'
loop_
 _atom_site_type_symbol
 _atom_site_label
 _atom_site_symmetry_multiplicity
 _atom_site_fract_x
 _atom_site_fract_y
 _atom_site_fract_z
 _atom_site_occupancy
  Tb  Tb0  1  0.00000000  0.00000000  0.17359900  1
  Tb  Tb1  1  0.00000000  0.00000000  0.82640100  1
  Ga  Ga2  1  0.33333300  0.66666700  0.02987000  1
  Ga  Ga3  1  0.66666700  0.33333300  0.97013000  1
  I  I4  1  0.33333300  0.66666700  0.65461900  1
  I  I5  1  0.66666700  0.33333300  0.34538100  1
