# generated using pymatgen
data_Yb(Al4Co)2
_symmetry_space_group_name_H-M   'P 1'
_cell_length_a   3.96464500
_cell_length_b   12.42794500
_cell_length_c   14.41908000
_cell_angle_alpha   90.00000000
_cell_angle_beta   90.00000000
_cell_angle_gamma   90.00000000
_symmetry_Int_Tables_number   1
_chemical_formula_structural   Yb(Al4Co)2
_chemical_formula_sum   'Yb4 Al32 Co8'
_cell_volume   710.46253327
_cell_formula_units_Z   4
loop_
 _symmetry_equiv_pos_site_id
 _symmetry_equiv_pos_as_xyz
  1  'x, y, z'
loop_
 _atom_site_type_symbol
 _atom_site_label
 _atom_site_symmetry_multiplicity
 _atom_site_fract_x
 _atom_site_fract_y
 _atom_site_fract_z
 _atom_site_occupancy
  Yb  Yb0  1  0.00000000  0.15914300  0.81876900  1
  Yb  Yb1  1  0.00000000  0.84085700  0.18123100  1
  Yb  Yb2  1  0.00000000  0.65914300  0.68123100  1
  Yb  Yb3  1  0.00000000  0.34085700  0.31876900  1
  Al  Al4  1  0.50000000  0.02455800  0.13273000  1
  Al  Al5  1  0.50000000  0.97544200  0.86727000  1
  Al  Al6  1  0.50000000  0.52455800  0.36727000  1
  Al  Al7  1  0.50000000  0.47544200  0.63273000  1
  Al  Al8  1  0.50000000  0.16810100  0.99227500  1
  Al  Al9  1  0.50000000  0.83189900  0.00772500  1
  Al  Al10  1  0.50000000  0.66810100  0.50772500  1
  Al  Al11  1  0.50000000  0.33189900  0.49227500  1
  Al  Al12  1  0.50000000  0.16077800  0.38000700  1
  Al  Al13  1  0.50000000  0.83922200  0.61999300  1
  Al  Al14  1  0.50000000  0.66077800  0.11999300  1
  Al  Al15  1  0.50000000  0.33922200  0.88000700  1
  Al  Al16  1  0.50000000  0.23571200  0.17411100  1
  Al  Al17  1  0.50000000  0.76428800  0.82588900  1
  Al  Al18  1  0.50000000  0.73571200  0.32588900  1
  Al  Al19  1  0.50000000  0.26428800  0.67411100  1
  Al  Al20  1  0.50000000  0.45148700  0.18002100  1
  Al  Al21  1  0.50000000  0.54851300  0.81997900  1
  Al  Al22  1  0.50000000  0.95148700  0.31997900  1
  Al  Al23  1  0.50000000  0.04851300  0.68002100  1
  Al  Al24  1  0.00000000  0.00000000  0.00000000  1
  Al  Al25  1  0.50000000  0.50000000  0.00000000  1
  Al  Al26  1  0.00000000  0.50000000  0.50000000  1
  Al  Al27  1  0.50000000  0.00000000  0.50000000  1
  Al  Al28  1  0.00000000  0.09589300  0.25418200  1
  Al  Al29  1  0.00000000  0.90410700  0.74581800  1
  Al  Al30  1  0.00000000  0.59589300  0.24581800  1
  Al  Al31  1  0.00000000  0.40410700  0.75418200  1
  Al  Al32  1  0.00000000  0.16168500  0.54504500  1
  Al  Al33  1  0.00000000  0.83831500  0.45495500  1
  Al  Al34  1  0.00000000  0.66168500  0.95495500  1
  Al  Al35  1  0.00000000  0.33831500  0.04504600  1
  Co  Co36  1  0.00000000  0.53420900  0.09296500  1
  Co  Co37  1  0.00000000  0.03420900  0.40703500  1
  Co  Co38  1  0.00000000  0.96579100  0.59296500  1
  Co  Co39  1  0.00000000  0.46579100  0.90703500  1
  Co  Co40  1  0.00000000  0.35024200  0.59804000  1
  Co  Co41  1  0.00000000  0.64975800  0.40196000  1
  Co  Co42  1  0.00000000  0.85024200  0.90196000  1
  Co  Co43  1  0.00000000  0.14975800  0.09804000  1
