# generated using pymatgen
data_Sc3As2
_symmetry_space_group_name_H-M   'P 1'
_cell_length_a   3.88764500
_cell_length_b   7.13451500
_cell_length_c   14.84566900
_cell_angle_alpha   90.00000000
_cell_angle_beta   90.00000000
_cell_angle_gamma   90.00000000
_symmetry_Int_Tables_number   1
_chemical_formula_structural   Sc3As2
_chemical_formula_sum   'Sc12 As8'
_cell_volume   411.76632766
_cell_formula_units_Z   4
loop_
 _symmetry_equiv_pos_site_id
 _symmetry_equiv_pos_as_xyz
  1  'x, y, z'
loop_
 _atom_site_type_symbol
 _atom_site_label
 _atom_site_symmetry_multiplicity
 _atom_site_fract_x
 _atom_site_fract_y
 _atom_site_fract_z
 _atom_site_occupancy
  Sc  Sc0  1  0.25000000  0.00098600  0.39599000  1
  Sc  Sc1  1  0.25000000  0.50098600  0.10401000  1
  Sc  Sc2  1  0.75000000  0.99901400  0.60401000  1
  Sc  Sc3  1  0.75000000  0.49901400  0.89599000  1
  Sc  Sc4  1  0.25000000  0.16951700  0.77633900  1
  Sc  Sc5  1  0.25000000  0.66951700  0.72366100  1
  Sc  Sc6  1  0.75000000  0.83048300  0.22366100  1
  Sc  Sc7  1  0.75000000  0.33048300  0.27633900  1
  Sc  Sc8  1  0.25000000  0.36509900  0.56950000  1
  Sc  Sc9  1  0.25000000  0.86509900  0.93050000  1
  Sc  Sc10  1  0.75000000  0.63490100  0.43050000  1
  Sc  Sc11  1  0.75000000  0.13490100  0.06950000  1
  As  As12  1  0.25000000  0.11555700  0.20589400  1
  As  As13  1  0.25000000  0.61555700  0.29410600  1
  As  As14  1  0.75000000  0.88444300  0.79410600  1
  As  As15  1  0.75000000  0.38444300  0.70589400  1
  As  As16  1  0.25000000  0.25612000  0.95696100  1
  As  As17  1  0.25000000  0.75612000  0.54303900  1
  As  As18  1  0.75000000  0.74388000  0.04303900  1
  As  As19  1  0.75000000  0.24388000  0.45696100  1
