# generated using pymatgen
data_CeMgSn
_symmetry_space_group_name_H-M   'P 1'
_cell_length_a   4.64548300
_cell_length_b   7.72917600
_cell_length_c   9.09967700
_cell_angle_alpha   90.00000000
_cell_angle_beta   90.00000000
_cell_angle_gamma   90.00000000
_symmetry_Int_Tables_number   1
_chemical_formula_structural   CeMgSn
_chemical_formula_sum   'Ce4 Mg4 Sn4'
_cell_volume   326.73077942
_cell_formula_units_Z   4
loop_
 _symmetry_equiv_pos_site_id
 _symmetry_equiv_pos_as_xyz
  1  'x, y, z'
loop_
 _atom_site_type_symbol
 _atom_site_label
 _atom_site_symmetry_multiplicity
 _atom_site_fract_x
 _atom_site_fract_y
 _atom_site_fract_z
 _atom_site_occupancy
  Ce  Ce0  1  0.25000000  0.01921000  0.31821400  1
  Ce  Ce1  1  0.25000000  0.51921000  0.18178600  1
  Ce  Ce2  1  0.75000000  0.98079000  0.68178600  1
  Ce  Ce3  1  0.75000000  0.48079000  0.81821400  1
  Mg  Mg4  1  0.25000000  0.15564700  0.93140700  1
  Mg  Mg5  1  0.25000000  0.65564700  0.56859300  1
  Mg  Mg6  1  0.75000000  0.84435300  0.06859300  1
  Mg  Mg7  1  0.75000000  0.34435300  0.43140700  1
  Sn  Sn8  1  0.25000000  0.27165400  0.61265300  1
  Sn  Sn9  1  0.25000000  0.77165400  0.88734700  1
  Sn  Sn10  1  0.75000000  0.72834600  0.38734700  1
  Sn  Sn11  1  0.75000000  0.22834600  0.11265300  1
