# generated using pymatgen
data_Ga2PbS4
_symmetry_space_group_name_H-M   'P 1'
_cell_length_a   14.80998835
_cell_length_b   12.25379237
_cell_length_c   12.04080265
_cell_angle_alpha   75.11546411
_cell_angle_beta   53.09549848
_cell_angle_gamma   51.78903741
_symmetry_Int_Tables_number   1
_chemical_formula_structural   Ga2PbS4
_chemical_formula_sum   'Ga16 Pb8 S32'
_cell_volume   1349.92571395
_cell_formula_units_Z   8
loop_
 _symmetry_equiv_pos_site_id
 _symmetry_equiv_pos_as_xyz
  1  'x, y, z'
loop_
 _atom_site_type_symbol
 _atom_site_label
 _atom_site_symmetry_multiplicity
 _atom_site_fract_x
 _atom_site_fract_y
 _atom_site_fract_z
 _atom_site_occupancy
  Ga  Ga0  1  0.48959300  0.75981300  0.73706900  1
  Ga  Ga1  1  0.75981300  0.48959300  0.01352500  1
  Ga  Ga2  1  0.73706900  0.01352500  0.48959300  1
  Ga  Ga3  1  0.01352500  0.73706900  0.75981300  1
  Ga  Ga4  1  0.76040700  0.49018700  0.51293100  1
  Ga  Ga5  1  0.49018700  0.76040700  0.23647500  1
  Ga  Ga6  1  0.51293100  0.23647500  0.76040700  1
  Ga  Ga7  1  0.23647500  0.51293100  0.49018700  1
  Ga  Ga8  1  0.98491600  0.26491600  0.65539800  1
  Ga  Ga9  1  0.26491600  0.98491600  0.09477000  1
  Ga  Ga10  1  0.65539800  0.09477000  0.98491600  1
  Ga  Ga11  1  0.09477000  0.65539800  0.26491600  1
  Ga  Ga12  1  0.26508400  0.98508400  0.59460200  1
  Ga  Ga13  1  0.98508400  0.26508400  0.15523000  1
  Ga  Ga14  1  0.59460200  0.15523000  0.26508400  1
  Ga  Ga15  1  0.15523000  0.59460200  0.98508400  1
  Pb  Pb16  1  0.49642700  0.49642700  0.00357300  1
  Pb  Pb17  1  0.00357400  0.00357400  0.49642600  1
  Pb  Pb18  1  0.75357400  0.75357400  0.24642600  1
  Pb  Pb19  1  0.24642700  0.24642700  0.75357400  1
  Pb  Pb20  1  0.25000000  0.25000000  0.25000000  1
  Pb  Pb21  1  0.00000000  0.00000000  0.00000000  1
  Pb  Pb22  1  0.75000000  0.75000000  0.75000000  1
  Pb  Pb23  1  0.50000000  0.50000000  0.50000000  1
  S  S24  1  0.47178000  0.27620400  0.96613000  1
  S  S25  1  0.27620400  0.47178000  0.28588500  1
  S  S26  1  0.96613000  0.28588500  0.47178000  1
  S  S27  1  0.28588500  0.96613000  0.27620400  1
  S  S28  1  0.77822000  0.97379600  0.28387000  1
  S  S29  1  0.97379600  0.77822000  0.96411500  1
  S  S30  1  0.28387000  0.96411500  0.77822000  1
  S  S31  1  0.96411500  0.28387000  0.97379600  1
  S  S32  1  0.46824300  0.77962900  0.93950200  1
  S  S33  1  0.77962800  0.46824300  0.81262600  1
  S  S34  1  0.93950200  0.81262600  0.46824300  1
  S  S35  1  0.81262600  0.93950200  0.77962800  1
  S  S36  1  0.78175700  0.47037200  0.31049800  1
  S  S37  1  0.47037200  0.78175700  0.43737400  1
  S  S38  1  0.31049800  0.43737400  0.78175700  1
  S  S39  1  0.43737400  0.31049800  0.47037100  1
  S  S40  1  0.04204900  0.54354900  0.70812500  1
  S  S41  1  0.54354900  0.04204900  0.70627800  1
  S  S42  1  0.70812500  0.70627800  0.04204900  1
  S  S43  1  0.70627800  0.70812500  0.54354900  1
  S  S44  1  0.20795100  0.70645100  0.54187500  1
  S  S45  1  0.70645100  0.20795100  0.54372200  1
  S  S46  1  0.54187500  0.54372200  0.20795100  1
  S  S47  1  0.54372200  0.54187500  0.70645100  1
  S  S48  1  0.20786300  0.70602800  0.04214000  1
  S  S49  1  0.70602800  0.20786300  0.04396900  1
  S  S50  1  0.04214000  0.04396900  0.20786300  1
  S  S51  1  0.04396900  0.04214000  0.70602800  1
  S  S52  1  0.04213700  0.54397200  0.20786000  1
  S  S53  1  0.54397200  0.04213700  0.20603100  1
  S  S54  1  0.20786000  0.20603100  0.04213700  1
  S  S55  1  0.20603100  0.20786000  0.54397200  1
