# generated using pymatgen
data_Rb(Ti3Se4)2
_symmetry_space_group_name_H-M   'P 1'
_cell_length_a   3.59583800
_cell_length_b   9.97144800
_cell_length_c   9.97648704
_cell_angle_alpha   119.99430229
_cell_angle_beta   90.00113525
_cell_angle_gamma   90.00217087
_symmetry_Int_Tables_number   1
_chemical_formula_structural   Rb(Ti3Se4)2
_chemical_formula_sum   'Rb1 Ti6 Se8'
_cell_volume   309.80723230
_cell_formula_units_Z   1
loop_
 _symmetry_equiv_pos_site_id
 _symmetry_equiv_pos_as_xyz
  1  'x, y, z'
loop_
 _atom_site_type_symbol
 _atom_site_label
 _atom_site_symmetry_multiplicity
 _atom_site_fract_x
 _atom_site_fract_y
 _atom_site_fract_z
 _atom_site_occupancy
  Rb  Rb0  1  0.50000000  0.00000000  0.00000000  1
  Ti  Ti1  1  0.74973500  0.36218500  0.87000300  1
  Ti  Ti2  1  0.74974200  0.13009500  0.49226600  1
  Ti  Ti3  1  0.74967800  0.50783000  0.63795500  1
  Ti  Ti4  1  0.25026500  0.63781500  0.12999700  1
  Ti  Ti5  1  0.25025800  0.86990500  0.50773400  1
  Ti  Ti6  1  0.25032200  0.49217000  0.36204500  1
  Se  Se7  1  0.74998000  0.66664600  0.33329800  1
  Se  Se8  1  0.25002000  0.33335400  0.66670200  1
  Se  Se9  1  0.75173100  0.05127300  0.69876300  1
  Se  Se10  1  0.75181900  0.30123600  0.35239200  1
  Se  Se11  1  0.75169000  0.64762600  0.94896500  1
  Se  Se12  1  0.24826900  0.94872700  0.30123700  1
  Se  Se13  1  0.24818100  0.69876400  0.64760800  1
  Se  Se14  1  0.24831000  0.35237400  0.05103500  1
