# generated using pymatgen
data_Cs3BO3
_symmetry_space_group_name_H-M   'P 1'
_cell_length_a   10.61512200
_cell_length_b   11.15245100
_cell_length_c   11.19763500
_cell_angle_alpha   90.00000000
_cell_angle_beta   90.00000000
_cell_angle_gamma   90.00000000
_symmetry_Int_Tables_number   1
_chemical_formula_structural   Cs3BO3
_chemical_formula_sum   'Cs24 B8 O24'
_cell_volume   1325.62785355
_cell_formula_units_Z   8
loop_
 _symmetry_equiv_pos_site_id
 _symmetry_equiv_pos_as_xyz
  1  'x, y, z'
loop_
 _atom_site_type_symbol
 _atom_site_label
 _atom_site_symmetry_multiplicity
 _atom_site_fract_x
 _atom_site_fract_y
 _atom_site_fract_z
 _atom_site_occupancy
  Cs  Cs0  1  0.24948500  0.75335700  0.25593100  1
  Cs  Cs1  1  0.24948500  0.24664300  0.74406900  1
  Cs  Cs2  1  0.75051500  0.25335700  0.24406900  1
  Cs  Cs3  1  0.75051500  0.74664300  0.75593100  1
  Cs  Cs4  1  0.75051500  0.24664300  0.74406900  1
  Cs  Cs5  1  0.75051500  0.75335700  0.25593100  1
  Cs  Cs6  1  0.24948500  0.74664300  0.75593100  1
  Cs  Cs7  1  0.24948500  0.25335700  0.24406900  1
  Cs  Cs8  1  0.50000000  0.66945400  0.48352700  1
  Cs  Cs9  1  0.50000000  0.33054600  0.51647300  1
  Cs  Cs10  1  0.50000000  0.16945400  0.01647300  1
  Cs  Cs11  1  0.50000000  0.83054600  0.98352700  1
  Cs  Cs12  1  0.00000000  0.52043500  0.16939600  1
  Cs  Cs13  1  0.00000000  0.47956500  0.83060400  1
  Cs  Cs14  1  0.00000000  0.02043500  0.33060400  1
  Cs  Cs15  1  0.00000000  0.97956500  0.66939600  1
  Cs  Cs16  1  0.31529700  0.50000000  0.00000000  1
  Cs  Cs17  1  0.68470300  0.00000000  0.50000000  1
  Cs  Cs18  1  0.68470300  0.50000000  0.00000000  1
  Cs  Cs19  1  0.31529700  0.00000000  0.50000000  1
  Cs  Cs20  1  0.18430000  0.50000000  0.50000000  1
  Cs  Cs21  1  0.81570000  0.00000000  0.00000000  1
  Cs  Cs22  1  0.81570000  0.50000000  0.50000000  1
  Cs  Cs23  1  0.18430000  0.00000000  0.00000000  1
  B  B24  1  0.00000000  0.75599600  0.46676200  1
  B  B25  1  0.00000000  0.24400400  0.53323800  1
  B  B26  1  0.00000000  0.25599600  0.03323800  1
  B  B27  1  0.00000000  0.74400400  0.96676200  1
  B  B28  1  0.50000000  0.96606500  0.24415000  1
  B  B29  1  0.50000000  0.03393500  0.75585000  1
  B  B30  1  0.50000000  0.46606500  0.25585000  1
  B  B31  1  0.50000000  0.53393500  0.74415000  1
  O  O32  1  0.11569200  0.69741900  0.00862100  1
  O  O33  1  0.11569200  0.30258100  0.99137900  1
  O  O34  1  0.88430800  0.19741900  0.49137900  1
  O  O35  1  0.88430800  0.80258100  0.50862100  1
  O  O36  1  0.88430800  0.30258100  0.99137900  1
  O  O37  1  0.88430800  0.69741900  0.00862100  1
  O  O38  1  0.11569200  0.80258100  0.50862100  1
  O  O39  1  0.11569200  0.19741900  0.49137900  1
  O  O40  1  0.00000000  0.66541900  0.38008100  1
  O  O41  1  0.00000000  0.33458100  0.61991900  1
  O  O42  1  0.00000000  0.16541900  0.11991900  1
  O  O43  1  0.00000000  0.83458100  0.88008100  1
  O  O44  1  0.50000000  0.88078400  0.33586100  1
  O  O45  1  0.50000000  0.11921600  0.66413900  1
  O  O46  1  0.50000000  0.38078400  0.16413900  1
  O  O47  1  0.50000000  0.61921600  0.83586100  1
  O  O48  1  0.38436100  0.50732100  0.30328900  1
  O  O49  1  0.38436100  0.49267900  0.69671100  1
  O  O50  1  0.61563900  0.00732100  0.19671100  1
  O  O51  1  0.61563900  0.99267900  0.80328900  1
  O  O52  1  0.61563900  0.49267900  0.69671100  1
  O  O53  1  0.61563900  0.50732100  0.30328900  1
  O  O54  1  0.38436100  0.99267900  0.80328900  1
  O  O55  1  0.38436100  0.00732100  0.19671100  1
