# generated using pymatgen
data_Nd2Ni12P5
_symmetry_space_group_name_H-M   'P 1'
_cell_length_a   3.67112500
_cell_length_b   10.85760400
_cell_length_c   13.15189425
_cell_angle_alpha   72.03473095
_cell_angle_beta   90.00000000
_cell_angle_gamma   90.00000000
_symmetry_Int_Tables_number   1
_chemical_formula_structural   Nd2Ni12P5
_chemical_formula_sum   'Nd4 Ni24 P10'
_cell_volume   498.67001268
_cell_formula_units_Z   2
loop_
 _symmetry_equiv_pos_site_id
 _symmetry_equiv_pos_as_xyz
  1  'x, y, z'
loop_
 _atom_site_type_symbol
 _atom_site_label
 _atom_site_symmetry_multiplicity
 _atom_site_fract_x
 _atom_site_fract_y
 _atom_site_fract_z
 _atom_site_occupancy
  Nd  Nd0  1  0.25000000  0.28005000  0.68295400  1
  Nd  Nd1  1  0.75000000  0.71995000  0.31704600  1
  Nd  Nd2  1  0.25000000  0.24750900  0.18702800  1
  Nd  Nd3  1  0.75000000  0.75249100  0.81297200  1
  Ni  Ni4  1  0.25000000  0.84260000  0.13566800  1
  Ni  Ni5  1  0.75000000  0.15740000  0.86433200  1
  Ni  Ni6  1  0.25000000  0.28802600  0.43814300  1
  Ni  Ni7  1  0.75000000  0.71197400  0.56185700  1
  Ni  Ni8  1  0.25000000  0.07154700  0.01473000  1
  Ni  Ni9  1  0.75000000  0.92845300  0.98527000  1
  Ni  Ni10  1  0.25000000  0.06586000  0.44777500  1
  Ni  Ni11  1  0.75000000  0.93414000  0.55222500  1
  Ni  Ni12  1  0.25000000  0.59609600  0.69560500  1
  Ni  Ni13  1  0.75000000  0.40390400  0.30439500  1
  Ni  Ni14  1  0.25000000  0.58193200  0.00819800  1
  Ni  Ni15  1  0.75000000  0.41806800  0.99180200  1
  Ni  Ni16  1  0.25000000  0.57925200  0.50960500  1
  Ni  Ni17  1  0.75000000  0.42074800  0.49039500  1
  Ni  Ni18  1  0.25000000  0.29853500  0.91839900  1
  Ni  Ni19  1  0.75000000  0.70146500  0.08160100  1
  Ni  Ni20  1  0.25000000  0.99257600  0.65969300  1
  Ni  Ni21  1  0.75000000  0.00742400  0.34030700  1
  Ni  Ni22  1  0.25000000  0.84187500  0.43810500  1
  Ni  Ni23  1  0.75000000  0.15812500  0.56189500  1
  Ni  Ni24  1  0.25000000  0.98846400  0.84926400  1
  Ni  Ni25  1  0.75000000  0.01153600  0.15073600  1
  Ni  Ni26  1  0.25000000  0.56256100  0.20356100  1
  Ni  Ni27  1  0.75000000  0.43743900  0.79643900  1
  P  P28  1  0.25000000  0.50822900  0.87092900  1
  P  P29  1  0.75000000  0.49177100  0.12907100  1
  P  P30  1  0.25000000  0.79877100  0.98344500  1
  P  P31  1  0.75000000  0.20122900  0.01655500  1
  P  P32  1  0.25000000  0.49415300  0.37836500  1
  P  P33  1  0.75000000  0.50584700  0.62163500  1
  P  P34  1  0.25000000  0.81067800  0.61198700  1
  P  P35  1  0.75000000  0.18932200  0.38801300  1
  P  P36  1  0.25000000  0.95002800  0.25986700  1
  P  P37  1  0.75000000  0.04997200  0.74013300  1
