# generated using pymatgen
data_Mn2VPO7
_symmetry_space_group_name_H-M   'P 1'
_cell_length_a   4.85037262
_cell_length_b   5.52417685
_cell_length_c   5.52419564
_cell_angle_alpha   105.84175237
_cell_angle_beta   97.75803318
_cell_angle_gamma   97.75799271
_symmetry_Int_Tables_number   1
_chemical_formula_structural   Mn2VPO7
_chemical_formula_sum   'Mn2 V1 P1 O7'
_cell_volume   138.78034354
_cell_formula_units_Z   1
loop_
 _symmetry_equiv_pos_site_id
 _symmetry_equiv_pos_as_xyz
  1  'x, y, z'
loop_
 _atom_site_type_symbol
 _atom_site_label
 _atom_site_symmetry_multiplicity
 _atom_site_fract_x
 _atom_site_fract_y
 _atom_site_fract_z
 _atom_site_occupancy
  Mn  Mn0  1  0.28045700  0.31527600  0.93428000  1
  Mn  Mn1  1  0.28045900  0.93428100  0.31527900  1
  V  V2  1  0.68511700  0.85243700  0.85243700  1
  P  P3  1  0.87525800  0.39516400  0.39516400  1
  O  O4  1  0.60536700  0.21622800  0.21622800  1
  O  O5  1  0.02808900  0.00056400  0.00056700  1
  O  O6  1  0.75437200  0.59492300  0.59492100  1
  O  O7  1  0.49051400  0.69477800  0.02350000  1
  O  O8  1  0.49051800  0.02350400  0.69478000  1
  O  O9  1  0.05492600  0.53916300  0.24928000  1
  O  O10  1  0.05492600  0.24928100  0.53916300  1
