# generated using pymatgen
data_Cd4As2Cl3
_symmetry_space_group_name_H-M   'P 1'
_cell_length_a   12.72310600
_cell_length_b   12.72310600
_cell_length_c   12.72310600
_cell_angle_alpha   90.00000000
_cell_angle_beta   90.00000000
_cell_angle_gamma   90.00000000
_symmetry_Int_Tables_number   1
_chemical_formula_structural   Cd4As2Cl3
_chemical_formula_sum   'Cd32 As16 Cl24'
_cell_volume   2059.58365366
_cell_formula_units_Z   8
loop_
 _symmetry_equiv_pos_site_id
 _symmetry_equiv_pos_as_xyz
  1  'x, y, z'
loop_
 _atom_site_type_symbol
 _atom_site_label
 _atom_site_symmetry_multiplicity
 _atom_site_fract_x
 _atom_site_fract_y
 _atom_site_fract_z
 _atom_site_occupancy
  Cd  Cd0  1  0.98707900  0.24738900  0.01969100  1
  Cd  Cd1  1  0.01292100  0.75261100  0.98030900  1
  Cd  Cd2  1  0.51292100  0.75261100  0.51969100  1
  Cd  Cd3  1  0.01292100  0.74738900  0.48030900  1
  Cd  Cd4  1  0.01969100  0.98707900  0.24738900  1
  Cd  Cd5  1  0.48707900  0.24738900  0.48030900  1
  Cd  Cd6  1  0.98707900  0.25261100  0.51969100  1
  Cd  Cd7  1  0.98030900  0.01292100  0.75261100  1
  Cd  Cd8  1  0.48707900  0.25261100  0.98030900  1
  Cd  Cd9  1  0.51969100  0.51292100  0.75261100  1
  Cd  Cd10  1  0.51292100  0.74738900  0.01969100  1
  Cd  Cd11  1  0.48030900  0.48707900  0.24738900  1
  Cd  Cd12  1  0.48030900  0.01292100  0.74738900  1
  Cd  Cd13  1  0.51969100  0.98707900  0.25261100  1
  Cd  Cd14  1  0.98030900  0.48707900  0.25261100  1
  Cd  Cd15  1  0.01969100  0.51292100  0.74738900  1
  Cd  Cd16  1  0.24738900  0.01969100  0.98707900  1
  Cd  Cd17  1  0.75261100  0.98030900  0.01292100  1
  Cd  Cd18  1  0.74738900  0.48030900  0.01292100  1
  Cd  Cd19  1  0.25261100  0.51969100  0.98707900  1
  Cd  Cd20  1  0.25261100  0.98030900  0.48707900  1
  Cd  Cd21  1  0.74738900  0.01969100  0.51292100  1
  Cd  Cd22  1  0.75261100  0.51969100  0.51292100  1
  Cd  Cd23  1  0.24738900  0.48030900  0.48707900  1
  Cd  Cd24  1  0.22473300  0.22473300  0.22473300  1
  Cd  Cd25  1  0.77526700  0.77526700  0.77526700  1
  Cd  Cd26  1  0.27526700  0.77526700  0.72473300  1
  Cd  Cd27  1  0.77526700  0.72473300  0.27526700  1
  Cd  Cd28  1  0.72473300  0.22473300  0.27526700  1
  Cd  Cd29  1  0.22473300  0.27526700  0.72473300  1
  Cd  Cd30  1  0.72473300  0.27526700  0.77526700  1
  Cd  Cd31  1  0.27526700  0.72473300  0.22473300  1
  As  As32  1  0.44497300  0.44497300  0.44497300  1
  As  As33  1  0.55502700  0.55502700  0.55502700  1
  As  As34  1  0.05502700  0.55502700  0.94497300  1
  As  As35  1  0.55502700  0.94497300  0.05502700  1
  As  As36  1  0.94497300  0.44497300  0.05502700  1
  As  As37  1  0.44497300  0.05502700  0.94497300  1
  As  As38  1  0.94497300  0.05502700  0.55502700  1
  As  As39  1  0.05502700  0.94497300  0.44497300  1
  As  As40  1  0.10643900  0.10643900  0.10643900  1
  As  As41  1  0.89356100  0.89356100  0.89356100  1
  As  As42  1  0.39356100  0.89356100  0.60643900  1
  As  As43  1  0.89356100  0.60643900  0.39356100  1
  As  As44  1  0.60643900  0.10643900  0.39356100  1
  As  As45  1  0.10643900  0.39356100  0.60643900  1
  As  As46  1  0.60643900  0.39356100  0.89356100  1
  As  As47  1  0.39356100  0.60643900  0.10643900  1
  Cl  Cl48  1  0.18351400  0.42556000  0.27120400  1
  Cl  Cl49  1  0.81648600  0.57444000  0.72879600  1
  Cl  Cl50  1  0.31648600  0.57444000  0.77120400  1
  Cl  Cl51  1  0.81648600  0.92556000  0.22879600  1
  Cl  Cl52  1  0.27120400  0.18351400  0.42556000  1
  Cl  Cl53  1  0.68351400  0.42556000  0.22879600  1
  Cl  Cl54  1  0.18351400  0.07444000  0.77120400  1
  Cl  Cl55  1  0.72879600  0.81648600  0.57444000  1
  Cl  Cl56  1  0.68351400  0.07444000  0.72879600  1
  Cl  Cl57  1  0.77120400  0.31648600  0.57444000  1
  Cl  Cl58  1  0.31648600  0.92556000  0.27120400  1
  Cl  Cl59  1  0.22879600  0.68351400  0.42556000  1
  Cl  Cl60  1  0.22879600  0.81648600  0.92556000  1
  Cl  Cl61  1  0.77120400  0.18351400  0.07444000  1
  Cl  Cl62  1  0.72879600  0.68351400  0.07444000  1
  Cl  Cl63  1  0.27120400  0.31648600  0.92556000  1
  Cl  Cl64  1  0.42556000  0.27120400  0.18351400  1
  Cl  Cl65  1  0.57444000  0.72879600  0.81648600  1
  Cl  Cl66  1  0.92556000  0.22879600  0.81648600  1
  Cl  Cl67  1  0.07444000  0.77120400  0.18351400  1
  Cl  Cl68  1  0.07444000  0.72879600  0.68351400  1
  Cl  Cl69  1  0.92556000  0.27120400  0.31648600  1
  Cl  Cl70  1  0.57444000  0.77120400  0.31648600  1
  Cl  Cl71  1  0.42556000  0.22879600  0.68351400  1
