# generated using pymatgen
data_Nd6Ti4Al43
_symmetry_space_group_name_H-M   'P 1'
_cell_length_a   11.16686272
_cell_length_b   11.16686272
_cell_length_c   17.98429000
_cell_angle_alpha   90.00000000
_cell_angle_beta   90.00000000
_cell_angle_gamma   120.00000425
_symmetry_Int_Tables_number   1
_chemical_formula_structural   Nd6Ti4Al43
_chemical_formula_sum   'Nd12 Ti8 Al86'
_cell_volume   1942.16562977
_cell_formula_units_Z   2
loop_
 _symmetry_equiv_pos_site_id
 _symmetry_equiv_pos_as_xyz
  1  'x, y, z'
loop_
 _atom_site_type_symbol
 _atom_site_label
 _atom_site_symmetry_multiplicity
 _atom_site_fract_x
 _atom_site_fract_y
 _atom_site_fract_z
 _atom_site_occupancy
  Nd  Nd0  1  0.52975100  0.00000000  0.59617700  1
  Nd  Nd1  1  0.47024900  0.00000000  0.40382300  1
  Nd  Nd2  1  0.00000000  0.52975100  0.59617700  1
  Nd  Nd3  1  0.47024900  0.00000000  0.09617700  1
  Nd  Nd4  1  0.00000000  0.52975100  0.90382300  1
  Nd  Nd5  1  0.00000000  0.47024900  0.40382300  1
  Nd  Nd6  1  0.52975100  0.00000000  0.90382300  1
  Nd  Nd7  1  0.00000000  0.47024900  0.09617700  1
  Nd  Nd8  1  0.47024900  0.47024900  0.59617700  1
  Nd  Nd9  1  0.52975100  0.52975100  0.40382300  1
  Nd  Nd10  1  0.52975100  0.52975100  0.09617700  1
  Nd  Nd11  1  0.47024900  0.47024900  0.90382300  1
  Ti  Ti12  1  0.00000000  0.00000000  0.50000000  1
  Ti  Ti13  1  0.00000000  0.00000000  0.00000000  1
  Ti  Ti14  1  0.72891400  0.00000000  0.75000000  1
  Ti  Ti15  1  0.27108600  0.00000000  0.25000000  1
  Ti  Ti16  1  0.00000000  0.72891400  0.75000000  1
  Ti  Ti17  1  0.00000000  0.27108600  0.25000000  1
  Ti  Ti18  1  0.27108600  0.27108600  0.75000000  1
  Ti  Ti19  1  0.72891400  0.72891400  0.25000000  1
  Al  Al20  1  0.15084300  0.59793500  0.75000000  1
  Al  Al21  1  0.84915700  0.40206500  0.25000000  1
  Al  Al22  1  0.40206500  0.55290800  0.75000000  1
  Al  Al23  1  0.59793500  0.15084300  0.75000000  1
  Al  Al24  1  0.59793500  0.44709200  0.25000000  1
  Al  Al25  1  0.40206500  0.84915700  0.25000000  1
  Al  Al26  1  0.44709200  0.84915700  0.75000000  1
  Al  Al27  1  0.55290800  0.40206500  0.75000000  1
  Al  Al28  1  0.55290800  0.15084300  0.25000000  1
  Al  Al29  1  0.44709200  0.59793500  0.25000000  1
  Al  Al30  1  0.84915700  0.44709200  0.75000000  1
  Al  Al31  1  0.15084300  0.55290800  0.25000000  1
  Al  Al32  1  0.15606700  0.00000000  0.11631500  1
  Al  Al33  1  0.84393300  0.00000000  0.88368500  1
  Al  Al34  1  0.00000000  0.15606700  0.11631500  1
  Al  Al35  1  0.84393300  0.00000000  0.61631500  1
  Al  Al36  1  0.00000000  0.15606700  0.38368500  1
  Al  Al37  1  0.00000000  0.84393300  0.88368500  1
  Al  Al38  1  0.15606700  0.00000000  0.38368500  1
  Al  Al39  1  0.00000000  0.84393300  0.61631500  1
  Al  Al40  1  0.84393300  0.84393300  0.11631500  1
  Al  Al41  1  0.15606700  0.15606700  0.88368500  1
  Al  Al42  1  0.15606700  0.15606700  0.61631500  1
  Al  Al43  1  0.84393300  0.84393300  0.38368500  1
  Al  Al44  1  0.24729100  0.49458300  0.50000000  1
  Al  Al45  1  0.75270900  0.50541700  0.50000000  1
  Al  Al46  1  0.50541700  0.75270900  0.50000000  1
  Al  Al47  1  0.75270900  0.50541700  0.00000000  1
  Al  Al48  1  0.49458300  0.24729100  0.00000000  1
  Al  Al49  1  0.49458300  0.24729100  0.50000000  1
  Al  Al50  1  0.24729100  0.49458300  0.00000000  1
  Al  Al51  1  0.50541700  0.75270900  0.00000000  1
  Al  Al52  1  0.24729100  0.75270900  0.50000000  1
  Al  Al53  1  0.75270900  0.24729100  0.50000000  1
  Al  Al54  1  0.75270900  0.24729100  0.00000000  1
  Al  Al55  1  0.24729100  0.75270900  0.00000000  1
  Al  Al56  1  0.14563900  0.00000000  0.75000000  1
  Al  Al57  1  0.85436100  0.00000000  0.25000000  1
  Al  Al58  1  0.00000000  0.14563900  0.75000000  1
  Al  Al59  1  0.00000000  0.85436100  0.25000000  1
  Al  Al60  1  0.85436100  0.85436100  0.75000000  1
  Al  Al61  1  0.14563900  0.14563900  0.25000000  1
  Al  Al62  1  0.33333300  0.66666700  0.62712300  1
  Al  Al63  1  0.66666700  0.33333300  0.37287700  1
  Al  Al64  1  0.66666700  0.33333300  0.12712300  1
  Al  Al65  1  0.66666700  0.33333300  0.87287700  1
  Al  Al66  1  0.33333300  0.66666700  0.87287700  1
  Al  Al67  1  0.33333300  0.66666700  0.12712300  1
  Al  Al68  1  0.33333300  0.66666700  0.37287700  1
  Al  Al69  1  0.66666700  0.33333300  0.62712300  1
  Al  Al70  1  0.25122800  0.00000000  0.52968300  1
  Al  Al71  1  0.74877200  0.00000000  0.47031700  1
  Al  Al72  1  0.00000000  0.25122800  0.52968300  1
  Al  Al73  1  0.74877200  0.00000000  0.02968300  1
  Al  Al74  1  0.00000000  0.25122800  0.97031700  1
  Al  Al75  1  0.00000000  0.74877200  0.47031700  1
  Al  Al76  1  0.25122800  0.00000000  0.97031700  1
  Al  Al77  1  0.00000000  0.74877200  0.02968300  1
  Al  Al78  1  0.74877200  0.74877200  0.52968300  1
  Al  Al79  1  0.25122800  0.25122800  0.47031700  1
  Al  Al80  1  0.25122800  0.25122800  0.02968300  1
  Al  Al81  1  0.74877200  0.74877200  0.97031700  1
  Al  Al82  1  0.15800800  0.39192900  0.66607700  1
  Al  Al83  1  0.84199200  0.60807100  0.33392300  1
  Al  Al84  1  0.60807100  0.76607900  0.66607700  1
  Al  Al85  1  0.84199200  0.60807100  0.16607700  1
  Al  Al86  1  0.39192900  0.15800800  0.83392300  1
  Al  Al87  1  0.39192900  0.23392100  0.33392300  1
  Al  Al88  1  0.15800800  0.39192900  0.83392300  1
  Al  Al89  1  0.60807100  0.84199200  0.16607700  1
  Al  Al90  1  0.23392100  0.84199200  0.66607700  1
  Al  Al91  1  0.39192900  0.23392100  0.16607700  1
  Al  Al92  1  0.76607900  0.60807100  0.83392300  1
  Al  Al93  1  0.76607900  0.15800800  0.33392300  1
  Al  Al94  1  0.60807100  0.76607900  0.83392300  1
  Al  Al95  1  0.23392100  0.39192900  0.16607700  1
  Al  Al96  1  0.60807100  0.84199200  0.33392300  1
  Al  Al97  1  0.39192900  0.15800800  0.66607700  1
  Al  Al98  1  0.76607900  0.15800800  0.16607700  1
  Al  Al99  1  0.23392100  0.39192900  0.33392300  1
  Al  Al100  1  0.23392100  0.84199200  0.83392300  1
  Al  Al101  1  0.76607900  0.60807100  0.66607700  1
  Al  Al102  1  0.84199200  0.23392100  0.83392300  1
  Al  Al103  1  0.15800800  0.76607900  0.16607700  1
  Al  Al104  1  0.15800800  0.76607900  0.33392300  1
  Al  Al105  1  0.84199200  0.23392100  0.66607700  1
