# generated using pymatgen
data_Nd3Co
_symmetry_space_group_name_H-M   'P 1'
_cell_length_a   6.40242100
_cell_length_b   7.09271500
_cell_length_c   9.87518700
_cell_angle_alpha   90.00000000
_cell_angle_beta   90.00000000
_cell_angle_gamma   90.00000000
_symmetry_Int_Tables_number   1
_chemical_formula_structural   Nd3Co
_chemical_formula_sum   'Nd12 Co4'
_cell_volume   448.43764797
_cell_formula_units_Z   4
loop_
 _symmetry_equiv_pos_site_id
 _symmetry_equiv_pos_as_xyz
  1  'x, y, z'
loop_
 _atom_site_type_symbol
 _atom_site_label
 _atom_site_symmetry_multiplicity
 _atom_site_fract_x
 _atom_site_fract_y
 _atom_site_fract_z
 _atom_site_occupancy
  Nd  Nd0  1  0.35857700  0.53934800  0.25000000  1
  Nd  Nd1  1  0.14142300  0.03934800  0.25000000  1
  Nd  Nd2  1  0.64142300  0.46065200  0.75000000  1
  Nd  Nd3  1  0.85857700  0.96065200  0.75000000  1
  Nd  Nd4  1  0.82374900  0.66675800  0.07023700  1
  Nd  Nd5  1  0.67625100  0.16675800  0.42976300  1
  Nd  Nd6  1  0.17625100  0.33324200  0.57023700  1
  Nd  Nd7  1  0.32374900  0.83324200  0.92976300  1
  Nd  Nd8  1  0.17625100  0.33324200  0.92976300  1
  Nd  Nd9  1  0.32374900  0.83324200  0.57023700  1
  Nd  Nd10  1  0.82374900  0.66675800  0.42976300  1
  Nd  Nd11  1  0.67625100  0.16675800  0.07023700  1
  Co  Co12  1  0.56131600  0.88405200  0.25000000  1
  Co  Co13  1  0.93868400  0.38405200  0.25000000  1
  Co  Co14  1  0.43868400  0.11594800  0.75000000  1
  Co  Co15  1  0.06131600  0.61594800  0.75000000  1
