# generated using pymatgen
data_CaIn2Ni
_symmetry_space_group_name_H-M   'P 1'
_cell_length_a   5.63990697
_cell_length_b   5.63990697
_cell_length_c   7.68946200
_cell_angle_alpha   90.00000000
_cell_angle_beta   90.00000000
_cell_angle_gamma   134.35805127
_symmetry_Int_Tables_number   1
_chemical_formula_structural   CaIn2Ni
_chemical_formula_sum   'Ca2 In4 Ni2'
_cell_volume   174.87857680
_cell_formula_units_Z   2
loop_
 _symmetry_equiv_pos_site_id
 _symmetry_equiv_pos_as_xyz
  1  'x, y, z'
loop_
 _atom_site_type_symbol
 _atom_site_label
 _atom_site_symmetry_multiplicity
 _atom_site_fract_x
 _atom_site_fract_y
 _atom_site_fract_z
 _atom_site_occupancy
  Ca  Ca0  1  0.56376900  0.43623100  0.25000000  1
  Ca  Ca1  1  0.43623100  0.56376900  0.75000000  1
  In  In2  1  0.85140900  0.14859100  0.44712700  1
  In  In3  1  0.14859100  0.85140900  0.55287300  1
  In  In4  1  0.85140900  0.14859100  0.05287300  1
  In  In5  1  0.14859100  0.85140900  0.94712700  1
  Ni  Ni6  1  0.28139900  0.71860100  0.25000000  1
  Ni  Ni7  1  0.71860100  0.28139900  0.75000000  1
