# generated using pymatgen
data_HoAlPt
_symmetry_space_group_name_H-M   'P 1'
_cell_length_a   4.42079100
_cell_length_b   6.87540500
_cell_length_c   7.74118800
_cell_angle_alpha   90.00000000
_cell_angle_beta   90.00000000
_cell_angle_gamma   90.00000000
_symmetry_Int_Tables_number   1
_chemical_formula_structural   HoAlPt
_chemical_formula_sum   'Ho4 Al4 Pt4'
_cell_volume   235.29130788
_cell_formula_units_Z   4
loop_
 _symmetry_equiv_pos_site_id
 _symmetry_equiv_pos_as_xyz
  1  'x, y, z'
loop_
 _atom_site_type_symbol
 _atom_site_label
 _atom_site_symmetry_multiplicity
 _atom_site_fract_x
 _atom_site_fract_y
 _atom_site_fract_z
 _atom_site_occupancy
  Ho  Ho0  1  0.25000000  0.03182200  0.68039600  1
  Ho  Ho1  1  0.25000000  0.53182200  0.81960400  1
  Ho  Ho2  1  0.75000000  0.96817800  0.31960400  1
  Ho  Ho3  1  0.75000000  0.46817800  0.18039600  1
  Al  Al4  1  0.25000000  0.14531000  0.06325700  1
  Al  Al5  1  0.25000000  0.64531000  0.43674300  1
  Al  Al6  1  0.75000000  0.85469000  0.93674300  1
  Al  Al7  1  0.75000000  0.35469000  0.56325700  1
  Pt  Pt8  1  0.25000000  0.27368200  0.38241600  1
  Pt  Pt9  1  0.25000000  0.77368200  0.11758400  1
  Pt  Pt10  1  0.75000000  0.72631800  0.61758400  1
  Pt  Pt11  1  0.75000000  0.22631800  0.88241600  1
