# generated using pymatgen
data_KNa4GeAs3
_symmetry_space_group_name_H-M   'P 1'
_cell_length_a   4.82358900
_cell_length_b   13.24266800
_cell_length_c   15.29391600
_cell_angle_alpha   90.00000000
_cell_angle_beta   90.00000000
_cell_angle_gamma   90.00000000
_symmetry_Int_Tables_number   1
_chemical_formula_structural   KNa4GeAs3
_chemical_formula_sum   'K4 Na16 Ge4 As12'
_cell_volume   976.93234293
_cell_formula_units_Z   4
loop_
 _symmetry_equiv_pos_site_id
 _symmetry_equiv_pos_as_xyz
  1  'x, y, z'
loop_
 _atom_site_type_symbol
 _atom_site_label
 _atom_site_symmetry_multiplicity
 _atom_site_fract_x
 _atom_site_fract_y
 _atom_site_fract_z
 _atom_site_occupancy
  K  K0  1  0.25000000  0.12861500  0.51646500  1
  K  K1  1  0.75000000  0.87138500  0.48353500  1
  K  K2  1  0.75000000  0.62861500  0.98353500  1
  K  K3  1  0.25000000  0.37138500  0.01646500  1
  Na  Na4  1  0.25000000  0.42800700  0.56227500  1
  Na  Na5  1  0.75000000  0.57199300  0.43772500  1
  Na  Na6  1  0.75000000  0.92800700  0.93772500  1
  Na  Na7  1  0.25000000  0.07199300  0.06227500  1
  Na  Na8  1  0.25000000  0.80973700  0.08071400  1
  Na  Na9  1  0.75000000  0.19026300  0.91928600  1
  Na  Na10  1  0.75000000  0.30973700  0.41928600  1
  Na  Na11  1  0.25000000  0.69026300  0.58071400  1
  Na  Na12  1  0.25000000  0.23726800  0.25589900  1
  Na  Na13  1  0.75000000  0.76273200  0.74410100  1
  Na  Na14  1  0.75000000  0.73726800  0.24410100  1
  Na  Na15  1  0.25000000  0.26273200  0.75589900  1
  Na  Na16  1  0.25000000  0.94062900  0.28724000  1
  Na  Na17  1  0.75000000  0.05937100  0.71276000  1
  Na  Na18  1  0.75000000  0.44062900  0.21276000  1
  Na  Na19  1  0.25000000  0.55937100  0.78724000  1
  Ge  Ge20  1  0.25000000  0.58434500  0.29400000  1
  Ge  Ge21  1  0.75000000  0.41565500  0.70600000  1
  Ge  Ge22  1  0.75000000  0.08434500  0.20600000  1
  Ge  Ge23  1  0.25000000  0.91565500  0.79400000  1
  As  As24  1  0.25000000  0.59137700  0.13965600  1
  As  As25  1  0.75000000  0.40862300  0.86034400  1
  As  As26  1  0.75000000  0.09137700  0.36034400  1
  As  As27  1  0.25000000  0.90862300  0.63965600  1
  As  As28  1  0.25000000  0.42417300  0.36580800  1
  As  As29  1  0.75000000  0.57582700  0.63419200  1
  As  As30  1  0.75000000  0.92417300  0.13419200  1
  As  As31  1  0.25000000  0.07582700  0.86580800  1
  As  As32  1  0.25000000  0.73215300  0.38274900  1
  As  As33  1  0.75000000  0.26784700  0.61725100  1
  As  As34  1  0.75000000  0.23215300  0.11725100  1
  As  As35  1  0.25000000  0.76784700  0.88274900  1
