# generated using pymatgen
data_Na2SrV4O12
_symmetry_space_group_name_H-M   'P 1'
_cell_length_a   10.76081100
_cell_length_b   10.76081100
_cell_length_c   5.09283900
_cell_angle_alpha   90.00000000
_cell_angle_beta   90.00000000
_cell_angle_gamma   90.00000000
_symmetry_Int_Tables_number   1
_chemical_formula_structural   Na2SrV4O12
_chemical_formula_sum   'Na4 Sr2 V8 O24'
_cell_volume   589.72556385
_cell_formula_units_Z   2
loop_
 _symmetry_equiv_pos_site_id
 _symmetry_equiv_pos_as_xyz
  1  'x, y, z'
loop_
 _atom_site_type_symbol
 _atom_site_label
 _atom_site_symmetry_multiplicity
 _atom_site_fract_x
 _atom_site_fract_y
 _atom_site_fract_z
 _atom_site_occupancy
  Na  Na0  1  0.75000000  0.75000000  0.50000000  1
  Na  Na1  1  0.75000000  0.25000000  0.50000000  1
  Na  Na2  1  0.25000000  0.75000000  0.50000000  1
  Na  Na3  1  0.25000000  0.25000000  0.50000000  1
  Sr  Sr4  1  0.50000000  0.50000000  0.50000000  1
  Sr  Sr5  1  0.00000000  0.00000000  0.50000000  1
  V  V6  1  0.71738900  0.00000000  0.00000000  1
  V  V7  1  0.00000000  0.28261100  0.00000000  1
  V  V8  1  0.28261100  0.00000000  0.00000000  1
  V  V9  1  0.50000000  0.78261100  0.00000000  1
  V  V10  1  0.78261100  0.50000000  0.00000000  1
  V  V11  1  0.21738900  0.50000000  0.00000000  1
  V  V12  1  0.50000000  0.21738900  0.00000000  1
  V  V13  1  0.00000000  0.71738900  0.00000000  1
  O  O14  1  0.43335200  0.30341300  0.23698700  1
  O  O15  1  0.56664800  0.69658700  0.23698700  1
  O  O16  1  0.69658700  0.43335200  0.23698700  1
  O  O17  1  0.30341300  0.56664800  0.23698700  1
  O  O18  1  0.30341300  0.43335200  0.76301300  1
  O  O19  1  0.43335200  0.69658700  0.76301300  1
  O  O20  1  0.56664800  0.30341300  0.76301300  1
  O  O21  1  0.69658700  0.56664800  0.76301300  1
  O  O22  1  0.06664800  0.19658700  0.76301300  1
  O  O23  1  0.93335200  0.80341300  0.76301300  1
  O  O24  1  0.80341300  0.06664800  0.76301300  1
  O  O25  1  0.19658700  0.93335200  0.76301300  1
  O  O26  1  0.19658700  0.06664800  0.23698700  1
  O  O27  1  0.06664800  0.80341300  0.23698700  1
  O  O28  1  0.11838600  0.38161400  0.15046200  1
  O  O29  1  0.38161400  0.88161400  0.15046200  1
  O  O30  1  0.61838600  0.11838600  0.15046200  1
  O  O31  1  0.88161400  0.61838600  0.15046200  1
  O  O32  1  0.88161400  0.38161400  0.84953800  1
  O  O33  1  0.11838600  0.61838600  0.84953800  1
  O  O34  1  0.38161400  0.11838600  0.84953800  1
  O  O35  1  0.61838600  0.88161400  0.84953800  1
  O  O36  1  0.80341300  0.93335200  0.23698700  1
  O  O37  1  0.93335200  0.19658700  0.23698700  1
