# generated using pymatgen
data_HgAs2H2F14
_symmetry_space_group_name_H-M   'P 1'
_cell_length_a   5.03278700
_cell_length_b   6.68005781
_cell_length_c   7.84268761
_cell_angle_alpha   86.13193218
_cell_angle_beta   79.76811164
_cell_angle_gamma   78.66980981
_symmetry_Int_Tables_number   1
_chemical_formula_structural   HgAs2H2F14
_chemical_formula_sum   'Hg1 As2 H2 F14'
_cell_volume   254.27094205
_cell_formula_units_Z   1
loop_
 _symmetry_equiv_pos_site_id
 _symmetry_equiv_pos_as_xyz
  1  'x, y, z'
loop_
 _atom_site_type_symbol
 _atom_site_label
 _atom_site_symmetry_multiplicity
 _atom_site_fract_x
 _atom_site_fract_y
 _atom_site_fract_z
 _atom_site_occupancy
  Hg  Hg0  1  0.00000000  0.00000000  0.00000000  1
  As  As1  1  0.63090700  0.72553400  0.72475800  1
  As  As2  1  0.36909300  0.27446600  0.27524200  1
  H  H3  1  0.04749300  0.38726600  0.81732000  1
  H  H4  1  0.95250700  0.61273400  0.18268000  1
  F  F5  1  0.55994100  0.48560300  0.69707600  1
  F  F6  1  0.44005900  0.51439700  0.30292400  1
  F  F7  1  0.34853000  0.85887500  0.63786600  1
  F  F8  1  0.65147000  0.14112500  0.36213400  1
  F  F9  1  0.85840900  0.72563500  0.53181000  1
  F  F10  1  0.14159100  0.27436500  0.46819000  1
  F  F11  1  0.41124900  0.73509200  0.93800700  1
  F  F12  1  0.58875100  0.26490800  0.06199300  1
  F  F13  1  0.71547400  0.96077200  0.78150800  1
  F  F14  1  0.28452600  0.03922800  0.21849200  1
  F  F15  1  0.91209700  0.59756600  0.83774700  1
  F  F16  1  0.08790300  0.40243400  0.16225300  1
  F  F17  1  0.14904600  0.24252000  0.81216100  1
  F  F18  1  0.85095400  0.75748000  0.18783900  1
