# generated using pymatgen
data_Tb3S3N
_symmetry_space_group_name_H-M   'P 1'
_cell_length_a   3.85133700
_cell_length_b   12.01223200
_cell_length_c   12.97669800
_cell_angle_alpha   90.00000000
_cell_angle_beta   90.00000000
_cell_angle_gamma   90.00000000
_symmetry_Int_Tables_number   1
_chemical_formula_structural   Tb3S3N
_chemical_formula_sum   'Tb12 S12 N4'
_cell_volume   600.34297220
_cell_formula_units_Z   4
loop_
 _symmetry_equiv_pos_site_id
 _symmetry_equiv_pos_as_xyz
  1  'x, y, z'
loop_
 _atom_site_type_symbol
 _atom_site_label
 _atom_site_symmetry_multiplicity
 _atom_site_fract_x
 _atom_site_fract_y
 _atom_site_fract_z
 _atom_site_occupancy
  Tb  Tb0  1  0.25000000  0.54826300  0.64246500  1
  Tb  Tb1  1  0.75000000  0.45173700  0.35753500  1
  Tb  Tb2  1  0.25000000  0.04826300  0.85753500  1
  Tb  Tb3  1  0.75000000  0.95173700  0.14246500  1
  Tb  Tb4  1  0.25000000  0.71140700  0.35963800  1
  Tb  Tb5  1  0.75000000  0.28859300  0.64036200  1
  Tb  Tb6  1  0.25000000  0.21140700  0.14036200  1
  Tb  Tb7  1  0.75000000  0.78859300  0.85963800  1
  Tb  Tb8  1  0.25000000  0.06538400  0.36748000  1
  Tb  Tb9  1  0.75000000  0.93461600  0.63252000  1
  Tb  Tb10  1  0.25000000  0.56538400  0.13252000  1
  Tb  Tb11  1  0.75000000  0.43461600  0.86748000  1
  S  S12  1  0.75000000  0.72365700  0.19213700  1
  S  S13  1  0.75000000  0.90617000  0.40026800  1
  S  S14  1  0.25000000  0.59383000  0.90026800  1
  S  S15  1  0.25000000  0.09383000  0.59973200  1
  S  S16  1  0.25000000  0.86686600  0.99035100  1
  S  S17  1  0.75000000  0.13313400  0.00964900  1
  S  S18  1  0.25000000  0.36686600  0.50964900  1
  S  S19  1  0.75000000  0.63313400  0.49035100  1
  S  S20  1  0.25000000  0.27634300  0.80786300  1
  S  S21  1  0.75000000  0.22365700  0.30786300  1
  S  S22  1  0.25000000  0.77634300  0.69213700  1
  S  S23  1  0.75000000  0.40617000  0.09973200  1
  N  N24  1  0.75000000  0.96576500  0.79864000  1
  N  N25  1  0.25000000  0.53423500  0.29864000  1
  N  N26  1  0.75000000  0.46576500  0.70136000  1
  N  N27  1  0.25000000  0.03423500  0.20136000  1
