# generated using pymatgen
data_TmGaPd
_symmetry_space_group_name_H-M   'P 1'
_cell_length_a   4.43952900
_cell_length_b   6.82182700
_cell_length_c   7.64732700
_cell_angle_alpha   90.00000000
_cell_angle_beta   90.00000000
_cell_angle_gamma   90.00000000
_symmetry_Int_Tables_number   1
_chemical_formula_structural   TmGaPd
_chemical_formula_sum   'Tm4 Ga4 Pd4'
_cell_volume   231.60464214
_cell_formula_units_Z   4
loop_
 _symmetry_equiv_pos_site_id
 _symmetry_equiv_pos_as_xyz
  1  'x, y, z'
loop_
 _atom_site_type_symbol
 _atom_site_label
 _atom_site_symmetry_multiplicity
 _atom_site_fract_x
 _atom_site_fract_y
 _atom_site_fract_z
 _atom_site_occupancy
  Tm  Tm0  1  0.25000000  0.98402300  0.30259400  1
  Tm  Tm1  1  0.25000000  0.48402300  0.19740600  1
  Tm  Tm2  1  0.75000000  0.01597700  0.69740600  1
  Tm  Tm3  1  0.75000000  0.51597700  0.80259400  1
  Ga  Ga4  1  0.25000000  0.32610200  0.57314700  1
  Ga  Ga5  1  0.25000000  0.82610200  0.92685300  1
  Ga  Ga6  1  0.75000000  0.67389800  0.42685300  1
  Ga  Ga7  1  0.75000000  0.17389800  0.07314700  1
  Pd  Pd8  1  0.25000000  0.22441000  0.90065500  1
  Pd  Pd9  1  0.25000000  0.72441000  0.59934500  1
  Pd  Pd10  1  0.75000000  0.77559000  0.09934500  1
  Pd  Pd11  1  0.75000000  0.27559000  0.40065500  1
