# generated using pymatgen
data_Nd6Al5Fe9
_symmetry_space_group_name_H-M   'P 1'
_cell_length_a   8.15169500
_cell_length_b   8.15169500
_cell_length_c   13.05756308
_cell_angle_alpha   108.18851796
_cell_angle_beta   108.18851796
_cell_angle_gamma   90.00000000
_symmetry_Int_Tables_number   1
_chemical_formula_structural   Nd6Al5Fe9
_chemical_formula_sum   'Nd12 Al10 Fe18'
_cell_volume   778.55877787
_cell_formula_units_Z   2
loop_
 _symmetry_equiv_pos_site_id
 _symmetry_equiv_pos_as_xyz
  1  'x, y, z'
loop_
 _atom_site_type_symbol
 _atom_site_label
 _atom_site_symmetry_multiplicity
 _atom_site_fract_x
 _atom_site_fract_y
 _atom_site_fract_z
 _atom_site_occupancy
  Nd  Nd0  1  0.10589500  0.10589500  0.21179000  1
  Nd  Nd1  1  0.89410500  0.89410500  0.78821000  1
  Nd  Nd2  1  0.39410500  0.39410500  0.78821000  1
  Nd  Nd3  1  0.60589500  0.60589500  0.21179000  1
  Nd  Nd4  1  0.35695000  0.85695000  0.38047700  1
  Nd  Nd5  1  0.64305000  0.14305000  0.61952300  1
  Nd  Nd6  1  0.02352700  0.52352700  0.38047700  1
  Nd  Nd7  1  0.52352700  0.35695000  0.38047700  1
  Nd  Nd8  1  0.14305000  0.97647300  0.61952300  1
  Nd  Nd9  1  0.97647300  0.47647300  0.61952300  1
  Nd  Nd10  1  0.47647300  0.64305000  0.61952300  1
  Nd  Nd11  1  0.85695000  0.02352700  0.38047700  1
  Al  Al12  1  0.71276200  0.21276100  0.18728500  1
  Al  Al13  1  0.28723900  0.78723800  0.81271500  1
  Al  Al14  1  0.47452300  0.97452300  0.18728500  1
  Al  Al15  1  0.97452300  0.71276200  0.18728500  1
  Al  Al16  1  0.78723800  0.52547700  0.81271500  1
  Al  Al17  1  0.52547700  0.02547700  0.81271500  1
  Al  Al18  1  0.02547700  0.28723900  0.81271500  1
  Al  Al19  1  0.21276100  0.47452300  0.18728500  1
  Al  Al20  1  0.25000000  0.25000000  0.50000000  1
  Al  Al21  1  0.75000000  0.75000000  0.50000000  1
  Fe  Fe22  1  0.23289500  0.73289500  0.11386000  1
  Fe  Fe23  1  0.76710500  0.26710500  0.88614000  1
  Fe  Fe24  1  0.88096500  0.38096500  0.11386000  1
  Fe  Fe25  1  0.38096500  0.23289500  0.11386000  1
  Fe  Fe26  1  0.26710500  0.11903500  0.88614000  1
  Fe  Fe27  1  0.11903500  0.61903500  0.88614000  1
  Fe  Fe28  1  0.61903500  0.76710500  0.88614000  1
  Fe  Fe29  1  0.73289500  0.88096500  0.11386000  1
  Fe  Fe30  1  0.00000000  0.50000000  0.00000000  1
  Fe  Fe31  1  0.50000000  0.00000000  0.00000000  1
  Fe  Fe32  1  0.06829900  0.21128300  0.00000000  1
  Fe  Fe33  1  0.93170100  0.78871700  0.00000000  1
  Fe  Fe34  1  0.78871700  0.06829900  0.00000000  1
  Fe  Fe35  1  0.43170100  0.71128300  0.00000000  1
  Fe  Fe36  1  0.21128300  0.93170100  0.00000000  1
  Fe  Fe37  1  0.56829900  0.28871700  0.00000000  1
  Fe  Fe38  1  0.71128300  0.56829900  0.00000000  1
  Fe  Fe39  1  0.28871700  0.43170100  0.00000000  1
