# generated using pymatgen
data_Al2B3HO8
_symmetry_space_group_name_H-M   'P 1'
_cell_length_a   7.68540500
_cell_length_b   8.91321000
_cell_length_c   10.60354800
_cell_angle_alpha   90.00000000
_cell_angle_beta   90.00000000
_cell_angle_gamma   90.00000000
_symmetry_Int_Tables_number   1
_chemical_formula_structural   Al2B3HO8
_chemical_formula_sum   'Al8 B12 H4 O32'
_cell_volume   726.36030800
_cell_formula_units_Z   4
loop_
 _symmetry_equiv_pos_site_id
 _symmetry_equiv_pos_as_xyz
  1  'x, y, z'
loop_
 _atom_site_type_symbol
 _atom_site_label
 _atom_site_symmetry_multiplicity
 _atom_site_fract_x
 _atom_site_fract_y
 _atom_site_fract_z
 _atom_site_occupancy
  Al  Al0  1  0.56223100  0.43005300  0.88612700  1
  Al  Al1  1  0.06223100  0.06994700  0.61387300  1
  Al  Al2  1  0.43776900  0.56994700  0.38612700  1
  Al  Al3  1  0.93776900  0.93005300  0.11387300  1
  Al  Al4  1  0.43776900  0.56994700  0.11387300  1
  Al  Al5  1  0.93776900  0.93005300  0.38612700  1
  Al  Al6  1  0.56223100  0.43005300  0.61387300  1
  Al  Al7  1  0.06223100  0.06994700  0.88612700  1
  B  B8  1  0.77003400  0.65676100  0.75000000  1
  B  B9  1  0.27003400  0.84323900  0.75000000  1
  B  B10  1  0.22996600  0.34323900  0.25000000  1
  B  B11  1  0.72996600  0.15676100  0.25000000  1
  B  B12  1  0.74526600  0.69907300  0.98109200  1
  B  B13  1  0.24526600  0.80092700  0.51890800  1
  B  B14  1  0.25473400  0.30092700  0.48109200  1
  B  B15  1  0.75473400  0.19907300  0.01890800  1
  B  B16  1  0.25473400  0.30092700  0.01890800  1
  B  B17  1  0.75473400  0.19907300  0.48109200  1
  B  B18  1  0.74526600  0.69907300  0.51890800  1
  B  B19  1  0.24526600  0.80092700  0.98109200  1
  H  H20  1  0.32422900  0.31880500  0.75000000  1
  H  H21  1  0.82422900  0.18119500  0.75000000  1
  H  H22  1  0.67577100  0.68119500  0.25000000  1
  H  H23  1  0.17577100  0.81880500  0.25000000  1
  O  O24  1  0.42841600  0.38204500  0.75000000  1
  O  O25  1  0.92841600  0.11795500  0.75000000  1
  O  O26  1  0.57158400  0.61795500  0.25000000  1
  O  O27  1  0.07158400  0.88204500  0.25000000  1
  O  O28  1  0.68105400  0.52331000  0.75000000  1
  O  O29  1  0.18105400  0.97669000  0.75000000  1
  O  O30  1  0.31894600  0.47669000  0.25000000  1
  O  O31  1  0.81894600  0.02331000  0.25000000  1
  O  O32  1  0.81638500  0.72569400  0.86148900  1
  O  O33  1  0.31638500  0.77430600  0.63851100  1
  O  O34  1  0.18361500  0.27430600  0.36148900  1
  O  O35  1  0.68361500  0.22569400  0.13851100  1
  O  O36  1  0.18361500  0.27430600  0.13851100  1
  O  O37  1  0.68361500  0.22569400  0.36148900  1
  O  O38  1  0.81638500  0.72569400  0.63851100  1
  O  O39  1  0.31638500  0.77430600  0.86148900  1
  O  O40  1  0.61747000  0.58777900  0.99364100  1
  O  O41  1  0.11747000  0.91222100  0.50635900  1
  O  O42  1  0.38253000  0.41222100  0.49364100  1
  O  O43  1  0.88253000  0.08777900  0.00635900  1
  O  O44  1  0.38253000  0.41222100  0.00635900  1
  O  O45  1  0.88253000  0.08777900  0.49364100  1
  O  O46  1  0.61747000  0.58777900  0.50635900  1
  O  O47  1  0.11747000  0.91222100  0.99364100  1
  O  O48  1  0.70431400  0.27946900  0.91862600  1
  O  O49  1  0.20431400  0.22053100  0.58137400  1
  O  O50  1  0.29568600  0.72053100  0.41862600  1
  O  O51  1  0.79568600  0.77946900  0.08137400  1
  O  O52  1  0.29568600  0.72053100  0.08137400  1
  O  O53  1  0.79568600  0.77946900  0.41862600  1
  O  O54  1  0.70431400  0.27946900  0.58137400  1
  O  O55  1  0.20431400  0.22053100  0.91862600  1
