# generated using pymatgen
data_Hf2Rh
_symmetry_space_group_name_H-M   'P 1'
_cell_length_a   8.73318735
_cell_length_b   8.73318735
_cell_length_c   8.73318735
_cell_angle_alpha   60.00000000
_cell_angle_beta   60.00000000
_cell_angle_gamma   60.00000000
_symmetry_Int_Tables_number   1
_chemical_formula_structural   Hf2Rh
_chemical_formula_sum   'Hf16 Rh8'
_cell_volume   470.98094199
_cell_formula_units_Z   8
loop_
 _symmetry_equiv_pos_site_id
 _symmetry_equiv_pos_as_xyz
  1  'x, y, z'
loop_
 _atom_site_type_symbol
 _atom_site_label
 _atom_site_symmetry_multiplicity
 _atom_site_fract_x
 _atom_site_fract_y
 _atom_site_fract_z
 _atom_site_occupancy
  Hf  Hf0  1  0.12500000  0.62500000  0.62500000  1
  Hf  Hf1  1  0.62500000  0.12500000  0.62500000  1
  Hf  Hf2  1  0.62500000  0.62500000  0.12500000  1
  Hf  Hf3  1  0.62500000  0.62500000  0.62500000  1
  Hf  Hf4  1  0.81414500  0.81414500  0.18585500  1
  Hf  Hf5  1  0.18585500  0.18585500  0.81414500  1
  Hf  Hf6  1  0.81414500  0.18585500  0.81414500  1
  Hf  Hf7  1  0.18585500  0.81414500  0.18585500  1
  Hf  Hf8  1  0.18585500  0.81414500  0.81414500  1
  Hf  Hf9  1  0.81414500  0.18585500  0.18585500  1
  Hf  Hf10  1  0.43585500  0.43585500  0.06414500  1
  Hf  Hf11  1  0.06414500  0.06414500  0.43585500  1
  Hf  Hf12  1  0.43585500  0.06414500  0.43585500  1
  Hf  Hf13  1  0.06414500  0.43585500  0.06414500  1
  Hf  Hf14  1  0.06414500  0.43585500  0.43585500  1
  Hf  Hf15  1  0.43585500  0.06414500  0.06414500  1
  Rh  Rh16  1  0.79021200  0.40326300  0.40326300  1
  Rh  Rh17  1  0.40326300  0.79021200  0.40326300  1
  Rh  Rh18  1  0.40326300  0.40326300  0.79021200  1
  Rh  Rh19  1  0.40326300  0.40326300  0.40326300  1
  Rh  Rh20  1  0.45978800  0.84673700  0.84673700  1
  Rh  Rh21  1  0.84673700  0.45978800  0.84673700  1
  Rh  Rh22  1  0.84673700  0.84673700  0.45978800  1
  Rh  Rh23  1  0.84673700  0.84673700  0.84673700  1
