# generated using pymatgen
data_LiYb(CuP)2
_symmetry_space_group_name_H-M   'P 1'
_cell_length_a   3.98336004
_cell_length_b   3.98336004
_cell_length_c   6.60895400
_cell_angle_alpha   90.00000000
_cell_angle_beta   90.00000000
_cell_angle_gamma   120.00000068
_symmetry_Int_Tables_number   1
_chemical_formula_structural   LiYb(CuP)2
_chemical_formula_sum   'Li1 Yb1 Cu2 P2'
_cell_volume   90.81602368
_cell_formula_units_Z   1
loop_
 _symmetry_equiv_pos_site_id
 _symmetry_equiv_pos_as_xyz
  1  'x, y, z'
loop_
 _atom_site_type_symbol
 _atom_site_label
 _atom_site_symmetry_multiplicity
 _atom_site_fract_x
 _atom_site_fract_y
 _atom_site_fract_z
 _atom_site_occupancy
  Li  Li0  1  0.00000000  0.00000000  0.50000000  1
  Yb  Yb1  1  0.00000000  0.00000000  0.00000000  1
  Cu  Cu2  1  0.33333300  0.66666700  0.66421200  1
  Cu  Cu3  1  0.66666700  0.33333300  0.33578800  1
  P  P4  1  0.33333300  0.66666700  0.27236500  1
  P  P5  1  0.66666700  0.33333300  0.72763500  1
