# generated using pymatgen
data_NdAg2
_symmetry_space_group_name_H-M   'P 1'
_cell_length_a   6.01191609
_cell_length_b   6.01191609
_cell_length_c   6.01191609
_cell_angle_alpha   133.01396569
_cell_angle_beta   105.61584412
_cell_angle_gamma   92.78780839
_symmetry_Int_Tables_number   1
_chemical_formula_structural   NdAg2
_chemical_formula_sum   'Nd2 Ag4'
_cell_volume   144.45185273
_cell_formula_units_Z   2
loop_
 _symmetry_equiv_pos_site_id
 _symmetry_equiv_pos_as_xyz
  1  'x, y, z'
loop_
 _atom_site_type_symbol
 _atom_site_label
 _atom_site_symmetry_multiplicity
 _atom_site_fract_x
 _atom_site_fract_y
 _atom_site_fract_z
 _atom_site_occupancy
  Nd  Nd0  1  0.71454900  0.96454900  0.75000000  1
  Nd  Nd1  1  0.28545100  0.03545100  0.25000000  1
  Ag  Ag2  1  0.70338800  0.66494700  0.03844100  1
  Ag  Ag3  1  0.29661200  0.33505300  0.96155900  1
  Ag  Ag4  1  0.87349300  0.33505300  0.53844100  1
  Ag  Ag5  1  0.12650700  0.66494700  0.46155900  1
