# generated using pymatgen
data_Sm2Hf2(MoO4)7
_symmetry_space_group_name_H-M   'P 1'
_cell_length_a   11.72935493
_cell_length_b   11.72935493
_cell_length_c   14.10602184
_cell_angle_alpha   69.31195201
_cell_angle_beta   69.31195201
_cell_angle_gamma   50.50724640
_symmetry_Int_Tables_number   1
_chemical_formula_structural   Sm2Hf2(MoO4)7
_chemical_formula_sum   'Sm4 Hf4 Mo14 O56'
_cell_volume   1378.65070533
_cell_formula_units_Z   2
loop_
 _symmetry_equiv_pos_site_id
 _symmetry_equiv_pos_as_xyz
  1  'x, y, z'
loop_
 _atom_site_type_symbol
 _atom_site_label
 _atom_site_symmetry_multiplicity
 _atom_site_fract_x
 _atom_site_fract_y
 _atom_site_fract_z
 _atom_site_occupancy
  Sm  Sm0  1  0.14971600  0.12454900  0.06250000  1
  Sm  Sm1  1  0.85028400  0.87545100  0.93750000  1
  Sm  Sm2  1  0.87545100  0.85028400  0.43750000  1
  Sm  Sm3  1  0.12454900  0.14971600  0.56250000  1
  Hf  Hf4  1  0.41967300  0.34817200  0.18795300  1
  Hf  Hf5  1  0.58032700  0.65182800  0.81204700  1
  Hf  Hf6  1  0.65182800  0.58032700  0.31204700  1
  Hf  Hf7  1  0.34817200  0.41967300  0.68795300  1
  Mo  Mo8  1  0.49934800  0.98740200  0.17488800  1
  Mo  Mo9  1  0.50065200  0.01259800  0.82511200  1
  Mo  Mo10  1  0.01259800  0.50065200  0.32511200  1
  Mo  Mo11  1  0.98740200  0.49934800  0.67488800  1
  Mo  Mo12  1  0.45519300  0.22950000  0.47662500  1
  Mo  Mo13  1  0.54480700  0.77050000  0.52337500  1
  Mo  Mo14  1  0.77050000  0.54480700  0.02337500  1
  Mo  Mo15  1  0.22950000  0.45519300  0.97662500  1
  Mo  Mo16  1  0.81065300  0.06825800  0.14670400  1
  Mo  Mo17  1  0.18934700  0.93174200  0.85329600  1
  Mo  Mo18  1  0.93174200  0.18934700  0.35329600  1
  Mo  Mo19  1  0.06825800  0.81065300  0.64670400  1
  Mo  Mo20  1  0.29884100  0.70115900  0.25000000  1
  Mo  Mo21  1  0.70115900  0.29884100  0.75000000  1
  O  O22  1  0.48673800  0.12680400  0.21717000  1
  O  O23  1  0.51326200  0.87319600  0.78283000  1
  O  O24  1  0.87319600  0.51326200  0.28283000  1
  O  O25  1  0.12680400  0.48673800  0.71717000  1
  O  O26  1  0.63960400  0.07357100  0.49582700  1
  O  O27  1  0.36039600  0.92642900  0.50417300  1
  O  O28  1  0.92642900  0.36039600  0.00417300  1
  O  O29  1  0.07357100  0.63960400  0.99582700  1
  O  O30  1  0.31782500  0.05981100  0.16675100  1
  O  O31  1  0.68217500  0.94018900  0.83324900  1
  O  O32  1  0.94018900  0.68217500  0.33324900  1
  O  O33  1  0.05981100  0.31782500  0.66675100  1
  O  O34  1  0.93436900  0.02726600  0.39789200  1
  O  O35  1  0.06563100  0.97273400  0.60210800  1
  O  O36  1  0.97273400  0.06563100  0.10210800  1
  O  O37  1  0.02726600  0.93436900  0.89789200  1
  O  O38  1  0.79629800  0.99884300  0.28116200  1
  O  O39  1  0.20370200  0.00115700  0.71883800  1
  O  O40  1  0.00115700  0.20370200  0.21883800  1
  O  O41  1  0.99884300  0.79629800  0.78116200  1
  O  O42  1  0.57728600  0.80506500  0.26041900  1
  O  O43  1  0.42271400  0.19493500  0.73958100  1
  O  O44  1  0.19493500  0.42271400  0.23958100  1
  O  O45  1  0.80506500  0.57728600  0.76041900  1
  O  O46  1  0.66396600  0.82867200  0.47183500  1
  O  O47  1  0.33603400  0.17132800  0.52816500  1
  O  O48  1  0.17132800  0.33603400  0.02816500  1
  O  O49  1  0.82867200  0.66396600  0.97183500  1
  O  O50  1  0.82888400  0.94774400  0.08459100  1
  O  O51  1  0.17111600  0.05225600  0.91540900  1
  O  O52  1  0.05225600  0.17111600  0.41540900  1
  O  O53  1  0.94774400  0.82888400  0.58459100  1
  O  O54  1  0.60854300  0.96075200  0.05067000  1
  O  O55  1  0.39145700  0.03924800  0.94933000  1
  O  O56  1  0.03924800  0.39145700  0.44933000  1
  O  O57  1  0.96075200  0.60854300  0.55067000  1
  O  O58  1  0.37483500  0.38994600  0.04443700  1
  O  O59  1  0.62516500  0.61005400  0.95556300  1
  O  O60  1  0.61005400  0.62516500  0.45556300  1
  O  O61  1  0.38994600  0.37483500  0.54443700  1
  O  O62  1  0.26058100  0.86477700  0.15879900  1
  O  O63  1  0.73941900  0.13522300  0.84120100  1
  O  O64  1  0.13522300  0.73941900  0.34120100  1
  O  O65  1  0.86477700  0.26058100  0.65879900  1
  O  O66  1  0.44179500  0.63840400  0.31833600  1
  O  O67  1  0.55820500  0.36159600  0.68166400  1
  O  O68  1  0.36159600  0.55820500  0.18166400  1
  O  O69  1  0.63840400  0.44179500  0.81833600  1
  O  O70  1  0.64037900  0.26394300  0.12566900  1
  O  O71  1  0.35962100  0.73605700  0.87433100  1
  O  O72  1  0.73605700  0.35962100  0.37433100  1
  O  O73  1  0.26394300  0.64037900  0.62566900  1
  O  O74  1  0.44735500  0.30352500  0.33972100  1
  O  O75  1  0.55264500  0.69647500  0.66027900  1
  O  O76  1  0.69647500  0.55264500  0.16027900  1
  O  O77  1  0.30352500  0.44735500  0.83972100  1
