# generated using pymatgen
data_NdMg149
_symmetry_space_group_name_H-M   'P 1'
_cell_length_a   16.03861444
_cell_length_b   16.03861920
_cell_length_c   15.66761301
_cell_angle_alpha   90.00000000
_cell_angle_beta   90.00000000
_cell_angle_gamma   120.00001195
_symmetry_Int_Tables_number   1
_chemical_formula_structural   NdMg149
_chemical_formula_sum   'Nd1 Mg149'
_cell_volume   3490.33601750
_cell_formula_units_Z   1
loop_
 _symmetry_equiv_pos_site_id
 _symmetry_equiv_pos_as_xyz
  1  'x, y, z'
loop_
 _atom_site_type_symbol
 _atom_site_label
 _atom_site_symmetry_multiplicity
 _atom_site_fract_x
 _atom_site_fract_y
 _atom_site_fract_z
 _atom_site_occupancy
  Nd  Nd0  1  -0.00000000  -0.00000000  -0.00000000  1
  Mg  Mg1  1  0.60014893  0.20029886  -0.00000000  1
  Mg  Mg2  1  0.40156366  0.20078233  -0.00000000  1
  Mg  Mg3  1  0.79921867  0.20078233  -0.00000000  1
  Mg  Mg4  1  0.00339795  0.20668638  -0.00000000  1
  Mg  Mg5  1  0.20328843  0.20668638  -0.00000000  1
  Mg  Mg6  1  0.60014893  0.39985007  -0.00000000  1
  Mg  Mg7  1  0.79970114  0.39985007  -0.00000000  1
  Mg  Mg8  1  0.40038260  0.40058172  -0.00000000  1
  Mg  Mg9  1  0.00020012  0.40058172  -0.00000000  1
  Mg  Mg10  1  0.20185980  0.40371860  -0.00000000  1
  Mg  Mg11  1  0.79921867  0.59843534  -0.00000000  1
  Mg  Mg12  1  0.00020012  0.59961740  -0.00000000  1
  Mg  Mg13  1  0.59941828  0.59961740  -0.00000000  1
  Mg  Mg14  1  0.39964809  0.60035291  -0.00000000  1
  Mg  Mg15  1  0.20070481  0.60035291  -0.00000000  1
  Mg  Mg16  1  0.00339795  0.79671157  -0.00000000  1
  Mg  Mg17  1  0.79331362  0.79671157  -0.00000000  1
  Mg  Mg18  1  0.20185980  0.79814120  -0.00000000  1
  Mg  Mg19  1  0.59628140  0.79814120  -0.00000000  1
  Mg  Mg20  1  0.39964809  0.79929519  -0.00000000  1
  Mg  Mg21  1  0.79331362  0.99660205  -0.00000000  1
  Mg  Mg22  1  0.20328843  0.99660205  -0.00000000  1
  Mg  Mg23  1  0.59941828  0.99979988  -0.00000000  1
  Mg  Mg24  1  0.40038260  0.99980088  -0.00000000  1
  Mg  Mg25  1  0.26331380  0.13165740  0.16434136  1
  Mg  Mg26  1  0.86834360  0.13165740  0.16434136  1
  Mg  Mg27  1  0.86834360  0.73668620  0.16434136  1
  Mg  Mg28  1  0.66666700  0.33333300  0.16602280  1
  Mg  Mg29  1  0.46550900  0.13298279  0.16650704  1
  Mg  Mg30  1  0.66747380  0.13298279  0.16650704  1
  Mg  Mg31  1  0.86701721  0.33252620  0.16650704  1
  Mg  Mg32  1  0.46550900  0.33252620  0.16650704  1
  Mg  Mg33  1  0.66747380  0.53449100  0.16650704  1
  Mg  Mg34  1  0.86701721  0.53449100  0.16650704  1
  Mg  Mg35  1  0.46661021  0.53338979  0.16737911  1
  Mg  Mg36  1  0.06678057  0.53339079  0.16737911  1
  Mg  Mg37  1  0.46661021  0.93321943  0.16737911  1
  Mg  Mg38  1  0.26720458  0.53440915  0.16735660  1
  Mg  Mg39  1  0.26720458  0.73279542  0.16735660  1
  Mg  Mg40  1  0.46559085  0.73279542  0.16735660  1
  Mg  Mg41  1  0.06820783  0.33606221  0.16788435  1
  Mg  Mg42  1  0.26785538  0.33606221  0.16788435  1
  Mg  Mg43  1  0.06820783  0.73214462  0.16788435  1
  Mg  Mg44  1  0.66393779  0.73214462  0.16788435  1
  Mg  Mg45  1  0.66393779  0.93179317  0.16788435  1
  Mg  Mg46  1  0.26785538  0.93179317  0.16788435  1
  Mg  Mg47  1  0.06854492  0.13709084  0.17102652  1
  Mg  Mg48  1  0.06854492  0.93145408  0.17102652  1
  Mg  Mg49  1  0.86291016  0.93145508  0.17102652  1
  Mg  Mg50  1  0.80018435  0.19981565  0.33271880  1
  Mg  Mg51  1  0.39963029  0.19981565  0.33271880  1
  Mg  Mg52  1  0.80018435  0.60036971  0.33271880  1
  Mg  Mg53  1  0.59997720  0.19995341  0.33271341  1
  Mg  Mg54  1  0.80004659  0.40002380  0.33271341  1
  Mg  Mg55  1  0.59997720  0.40002380  0.33271341  1
  Mg  Mg56  1  0.20086554  0.00010299  0.33374126  1
  Mg  Mg57  1  0.79923744  0.00010299  0.33374126  1
  Mg  Mg58  1  0.99989701  0.20076156  0.33374126  1
  Mg  Mg59  1  0.20086554  0.20076256  0.33374126  1
  Mg  Mg60  1  0.79923744  0.79913446  0.33374126  1
  Mg  Mg61  1  0.99989701  0.79913446  0.33374126  1
  Mg  Mg62  1  0.59964750  0.00016947  0.33380281  1
  Mg  Mg63  1  0.40052196  0.00016947  0.33380281  1
  Mg  Mg64  1  0.40052196  0.40035250  0.33380281  1
  Mg  Mg65  1  0.99983053  0.40035250  0.33380281  1
  Mg  Mg66  1  0.99983053  0.59947804  0.33380281  1
  Mg  Mg67  1  0.59964750  0.59947804  0.33380281  1
  Mg  Mg68  1  0.40007203  0.59992797  0.33366359  1
  Mg  Mg69  1  0.19985694  0.59992897  0.33366359  1
  Mg  Mg70  1  0.40007203  0.80014306  0.33366359  1
  Mg  Mg71  1  0.20020114  0.40040128  0.33419464  1
  Mg  Mg72  1  0.20020114  0.79979886  0.33419464  1
  Mg  Mg73  1  0.59959872  0.79979986  0.33419464  1
  Mg  Mg74  1  -0.00000000  -0.00000000  0.33470144  1
  Mg  Mg75  1  0.86636189  0.13363711  0.50000000  1
  Mg  Mg76  1  0.26727522  0.13363811  0.50000000  1
  Mg  Mg77  1  0.06679156  0.13358412  0.50000000  1
  Mg  Mg78  1  0.46704842  0.13425555  0.50000000  1
  Mg  Mg79  1  0.66720813  0.13425655  0.50000000  1
  Mg  Mg80  1  0.86574345  0.33279187  0.50000000  1
  Mg  Mg81  1  0.46704842  0.33279187  0.50000000  1
  Mg  Mg82  1  0.66666700  0.33333300  0.50000000  1
  Mg  Mg83  1  0.26675204  0.33368034  0.50000000  1
  Mg  Mg84  1  0.06692930  0.33368134  0.50000000  1
  Mg  Mg85  1  0.86574345  0.53295158  0.50000000  1
  Mg  Mg86  1  0.66720813  0.53295258  0.50000000  1
  Mg  Mg87  1  0.46700492  0.53299508  0.50000000  1
  Mg  Mg88  1  0.06599016  0.53299508  0.50000000  1
  Mg  Mg89  1  0.26679579  0.53359158  0.50000000  1
  Mg  Mg90  1  0.86636189  0.73272478  0.50000000  1
  Mg  Mg91  1  0.66631866  0.73324796  0.50000000  1
  Mg  Mg92  1  0.06692930  0.73324796  0.50000000  1
  Mg  Mg93  1  0.26679579  0.73320421  0.50000000  1
  Mg  Mg94  1  0.46640842  0.73320421  0.50000000  1
  Mg  Mg95  1  0.06679156  0.93320844  0.50000000  1
  Mg  Mg96  1  0.86641688  0.93320844  0.50000000  1
  Mg  Mg97  1  0.66631866  0.93307070  0.50000000  1
  Mg  Mg98  1  0.26675204  0.93307070  0.50000000  1
  Mg  Mg99  1  0.46700492  0.93400984  0.50000000  1
  Mg  Mg100  1  -0.00000000  -0.00000000  0.66529856  1
  Mg  Mg101  1  0.20020114  0.40040128  0.66580536  1
  Mg  Mg102  1  0.20020114  0.79979886  0.66580536  1
  Mg  Mg103  1  0.59959872  0.79979986  0.66580536  1
  Mg  Mg104  1  0.40007203  0.59992797  0.66633641  1
  Mg  Mg105  1  0.19985694  0.59992897  0.66633641  1
  Mg  Mg106  1  0.40007203  0.80014306  0.66633641  1
  Mg  Mg107  1  0.59964750  0.00016947  0.66619719  1
  Mg  Mg108  1  0.40052196  0.00016947  0.66619719  1
  Mg  Mg109  1  0.40052196  0.40035250  0.66619719  1
  Mg  Mg110  1  0.99983053  0.40035250  0.66619719  1
  Mg  Mg111  1  0.99983053  0.59947804  0.66619719  1
  Mg  Mg112  1  0.59964750  0.59947804  0.66619719  1
  Mg  Mg113  1  0.20086554  0.00010299  0.66625874  1
  Mg  Mg114  1  0.79923744  0.00010299  0.66625874  1
  Mg  Mg115  1  0.99989701  0.20076156  0.66625874  1
  Mg  Mg116  1  0.20086554  0.20076256  0.66625874  1
  Mg  Mg117  1  0.79923744  0.79913446  0.66625874  1
  Mg  Mg118  1  0.99989701  0.79913446  0.66625874  1
  Mg  Mg119  1  0.59997720  0.19995341  0.66728659  1
  Mg  Mg120  1  0.80004659  0.40002380  0.66728659  1
  Mg  Mg121  1  0.59997720  0.40002380  0.66728659  1
  Mg  Mg122  1  0.80018435  0.19981565  0.66728120  1
  Mg  Mg123  1  0.39963029  0.19981565  0.66728120  1
  Mg  Mg124  1  0.80018435  0.60036971  0.66728120  1
  Mg  Mg125  1  0.06854492  0.13709084  0.82897248  1
  Mg  Mg126  1  0.06854492  0.93145408  0.82897248  1
  Mg  Mg127  1  0.86291016  0.93145508  0.82897248  1
  Mg  Mg128  1  0.06820783  0.33606221  0.83211565  1
  Mg  Mg129  1  0.26785538  0.33606221  0.83211565  1
  Mg  Mg130  1  0.06820783  0.73214462  0.83211565  1
  Mg  Mg131  1  0.66393779  0.73214462  0.83211565  1
  Mg  Mg132  1  0.66393779  0.93179317  0.83211565  1
  Mg  Mg133  1  0.26785538  0.93179317  0.83211565  1
  Mg  Mg134  1  0.26720458  0.53440915  0.83264340  1
  Mg  Mg135  1  0.26720458  0.73279542  0.83264340  1
  Mg  Mg136  1  0.46559085  0.73279542  0.83264340  1
  Mg  Mg137  1  0.46661021  0.53338979  0.83262089  1
  Mg  Mg138  1  0.06678057  0.53339079  0.83262089  1
  Mg  Mg139  1  0.46661021  0.93321943  0.83262089  1
  Mg  Mg140  1  0.46550900  0.13298279  0.83349296  1
  Mg  Mg141  1  0.66747380  0.13298279  0.83349296  1
  Mg  Mg142  1  0.86701721  0.33252620  0.83349296  1
  Mg  Mg143  1  0.46550900  0.33252620  0.83349296  1
  Mg  Mg144  1  0.66747380  0.53449100  0.83349296  1
  Mg  Mg145  1  0.86701721  0.53449100  0.83349296  1
  Mg  Mg146  1  0.66666700  0.33333300  0.83397720  1
  Mg  Mg147  1  0.26331380  0.13165740  0.83565864  1
  Mg  Mg148  1  0.86834360  0.13165740  0.83565864  1
  Mg  Mg149  1  0.86834360  0.73668620  0.83565864  1
