# generated using pymatgen
data_LiTaN2
_symmetry_space_group_name_H-M   'P 1'
_cell_length_a   18.63614000
_cell_length_b   4.18725400
_cell_length_c   4.20300503
_cell_angle_alpha   89.99362018
_cell_angle_beta   90.00000000
_cell_angle_gamma   90.00000000
_symmetry_Int_Tables_number   1
_chemical_formula_structural   LiTaN2
_chemical_formula_sum   'Li8 Ta8 N16'
_cell_volume   327.97835032
_cell_formula_units_Z   8
loop_
 _symmetry_equiv_pos_site_id
 _symmetry_equiv_pos_as_xyz
  1  'x, y, z'
loop_
 _atom_site_type_symbol
 _atom_site_label
 _atom_site_symmetry_multiplicity
 _atom_site_fract_x
 _atom_site_fract_y
 _atom_site_fract_z
 _atom_site_occupancy
  Li  Li0  1  0.18705300  0.99782200  0.74621600  1
  Li  Li1  1  0.81294700  0.00217800  0.25378400  1
  Li  Li2  1  0.31294700  0.99782200  0.24621600  1
  Li  Li3  1  0.68705300  0.00217800  0.75378400  1
  Li  Li4  1  0.06271100  0.49905700  0.74853100  1
  Li  Li5  1  0.93728900  0.50094300  0.25146900  1
  Li  Li6  1  0.43728900  0.49905700  0.24853100  1
  Li  Li7  1  0.56271100  0.50094300  0.75146900  1
  Ta  Ta8  1  0.43755200  0.99032200  0.75895200  1
  Ta  Ta9  1  0.56244800  0.00967800  0.24104800  1
  Ta  Ta10  1  0.06244800  0.99032200  0.25895200  1
  Ta  Ta11  1  0.93755200  0.00967800  0.74104800  1
  Ta  Ta12  1  0.31246300  0.49353000  0.72990300  1
  Ta  Ta13  1  0.68753700  0.50647000  0.27009700  1
  Ta  Ta14  1  0.18753700  0.49353000  0.22990300  1
  Ta  Ta15  1  0.81246300  0.50647000  0.77009700  1
  N  N16  1  0.32427900  0.99990800  0.75001900  1
  N  N17  1  0.67572100  0.00009200  0.24998100  1
  N  N18  1  0.17572100  0.99990800  0.25001900  1
  N  N19  1  0.82427900  0.00009200  0.74998100  1
  N  N20  1  0.42565500  0.50093200  0.74538700  1
  N  N21  1  0.57434500  0.49906800  0.25461300  1
  N  N22  1  0.07434500  0.50093200  0.24538700  1
  N  N23  1  0.92565500  0.49906800  0.75461300  1
  N  N24  1  0.05071000  0.00034000  0.74681800  1
  N  N25  1  0.94929000  0.99966000  0.25318200  1
  N  N26  1  0.44929000  0.00034000  0.24681800  1
  N  N27  1  0.55071000  0.99966000  0.75318200  1
  N  N28  1  0.19925500  0.49892800  0.75019600  1
  N  N29  1  0.80074500  0.50107200  0.24980400  1
  N  N30  1  0.30074500  0.49892800  0.25019600  1
  N  N31  1  0.69925500  0.50107200  0.74980400  1
