# generated using pymatgen
data_NdGa3Au
_symmetry_space_group_name_H-M   'P 1'
_cell_length_a   4.31890000
_cell_length_b   4.31890000
_cell_length_c   6.35649467
_cell_angle_alpha   70.13998642
_cell_angle_beta   70.13998642
_cell_angle_gamma   90.00000000
_symmetry_Int_Tables_number   1
_chemical_formula_structural   NdGa3Au
_chemical_formula_sum   'Nd1 Ga3 Au1'
_cell_volume   103.98648847
_cell_formula_units_Z   1
loop_
 _symmetry_equiv_pos_site_id
 _symmetry_equiv_pos_as_xyz
  1  'x, y, z'
loop_
 _atom_site_type_symbol
 _atom_site_label
 _atom_site_symmetry_multiplicity
 _atom_site_fract_x
 _atom_site_fract_y
 _atom_site_fract_z
 _atom_site_occupancy
  Nd  Nd0  1  0.99326900  0.99326900  0.01346200  1
  Ga  Ga1  1  0.74986300  0.24986300  0.50027400  1
  Ga  Ga2  1  0.24986300  0.74986300  0.50027400  1
  Ga  Ga3  1  0.39049900  0.39049900  0.21900200  1
  Au  Au4  1  0.61650500  0.61650500  0.76698900  1
