# generated using pymatgen
data_Bi2S2O9
_symmetry_space_group_name_H-M   'P 1'
_cell_length_a   16.83360951
_cell_length_b   16.83360951
_cell_length_c   23.32148984
_cell_angle_alpha   60.65511062
_cell_angle_beta   60.65511062
_cell_angle_gamma   23.57943186
_symmetry_Int_Tables_number   1
_chemical_formula_structural   Bi2S2O9
_chemical_formula_sum   'Bi24 S24 O108'
_cell_volume   2288.45056146
_cell_formula_units_Z   12
loop_
 _symmetry_equiv_pos_site_id
 _symmetry_equiv_pos_as_xyz
  1  'x, y, z'
loop_
 _atom_site_type_symbol
 _atom_site_label
 _atom_site_symmetry_multiplicity
 _atom_site_fract_x
 _atom_site_fract_y
 _atom_site_fract_z
 _atom_site_occupancy
  Bi  Bi0  1  0.90983700  0.79686800  0.20491300  1
  Bi  Bi1  1  0.20313200  0.09016300  0.29508700  1
  Bi  Bi2  1  0.09016300  0.20313200  0.79508700  1
  Bi  Bi3  1  0.79686800  0.90983700  0.70491300  1
  Bi  Bi4  1  0.90349300  0.88854800  0.01709900  1
  Bi  Bi5  1  0.11145200  0.09650700  0.48290100  1
  Bi  Bi6  1  0.09650700  0.11145200  0.98290100  1
  Bi  Bi7  1  0.88854800  0.90349300  0.51709900  1
  Bi  Bi8  1  0.83529000  0.71119900  0.12735600  1
  Bi  Bi9  1  0.28880100  0.16471000  0.37264400  1
  Bi  Bi10  1  0.16471000  0.28880100  0.87264400  1
  Bi  Bi11  1  0.71119900  0.83529000  0.62735600  1
  Bi  Bi12  1  0.77631700  0.85171800  0.94168500  1
  Bi  Bi13  1  0.14828200  0.22368300  0.55831500  1
  Bi  Bi14  1  0.22368300  0.14828200  0.05831500  1
  Bi  Bi15  1  0.85171800  0.77631700  0.44168500  1
  Bi  Bi16  1  0.48416700  0.46688400  0.12221700  1
  Bi  Bi17  1  0.53311600  0.51583300  0.37778300  1
  Bi  Bi18  1  0.51583300  0.53311600  0.87778300  1
  Bi  Bi19  1  0.46688400  0.48416700  0.62221700  1
  Bi  Bi20  1  0.59748700  0.52395600  0.19230000  1
  Bi  Bi21  1  0.47604400  0.40251300  0.30770000  1
  Bi  Bi22  1  0.40251300  0.47604400  0.80770000  1
  Bi  Bi23  1  0.52395600  0.59748700  0.69230000  1
  S  S24  1  0.39417300  0.32090500  0.22527800  1
  S  S25  1  0.67909500  0.60582700  0.27472200  1
  S  S26  1  0.60582700  0.67909500  0.77472200  1
  S  S27  1  0.32090500  0.39417300  0.72527800  1
  S  S28  1  0.41399600  0.41871700  0.99616600  1
  S  S29  1  0.58128300  0.58600400  0.50383400  1
  S  S30  1  0.58600400  0.58128300  0.00383400  1
  S  S31  1  0.41871700  0.41399600  0.49616600  1
  S  S32  1  0.30067600  0.19987900  0.17574600  1
  S  S33  1  0.80012100  0.69932400  0.32425400  1
  S  S34  1  0.69932400  0.80012100  0.82425400  1
  S  S35  1  0.19987900  0.30067600  0.67574600  1
  S  S36  1  0.27079500  0.33175400  0.95855900  1
  S  S37  1  0.66824600  0.72920500  0.54144100  1
  S  S38  1  0.72920500  0.66824600  0.04144100  1
  S  S39  1  0.33175400  0.27079500  0.45855900  1
  S  S40  1  0.01230600  0.93538900  0.10331500  1
  S  S41  1  0.06461100  0.98769400  0.39668500  1
  S  S42  1  0.98769400  0.06461100  0.89668500  1
  S  S43  1  0.93538900  0.01230600  0.60331500  1
  S  S44  1  0.12546700  0.03480600  0.17536100  1
  S  S45  1  0.96519400  0.87453300  0.32463900  1
  S  S46  1  0.87453300  0.96519400  0.82463900  1
  S  S47  1  0.03480600  0.12546700  0.67536100  1
  O  O48  1  0.52944700  0.45213500  0.20238500  1
  O  O49  1  0.54786500  0.47055300  0.29761500  1
  O  O50  1  0.47055300  0.54786500  0.79761500  1
  O  O51  1  0.45213500  0.52944700  0.70238500  1
  O  O52  1  0.88214400  0.80244300  0.12115800  1
  O  O53  1  0.19755700  0.11785600  0.37884200  1
  O  O54  1  0.11785600  0.19755700  0.87884200  1
  O  O55  1  0.80244300  0.88214400  0.62115800  1
  O  O56  1  0.82921300  0.82441000  0.02355200  1
  O  O57  1  0.17559000  0.17078700  0.47644800  1
  O  O58  1  0.17078700  0.17559000  0.97644800  1
  O  O59  1  0.82441000  0.82921300  0.52355200  1
  O  O60  1  0.26631100  0.47748800  0.16939100  1
  O  O61  1  0.52251200  0.73368900  0.33060900  1
  O  O62  1  0.73368900  0.52251200  0.83060900  1
  O  O63  1  0.47748800  0.26631100  0.66939100  1
  O  O64  1  0.55440800  0.12213600  0.21220700  1
  O  O65  1  0.87786400  0.44559200  0.28779300  1
  O  O66  1  0.44559200  0.87786400  0.78779300  1
  O  O67  1  0.12213600  0.55440800  0.71220700  1
  O  O68  1  0.27126900  0.37618800  0.28838500  1
  O  O69  1  0.62381200  0.72873100  0.21161500  1
  O  O70  1  0.72873100  0.62381200  0.71161500  1
  O  O71  1  0.37618800  0.27126900  0.78838500  1
  O  O72  1  0.49418900  0.31173300  0.22444400  1
  O  O73  1  0.68826700  0.50581100  0.27555600  1
  O  O74  1  0.50581100  0.68826700  0.77555600  1
  O  O75  1  0.31173300  0.49418900  0.72444400  1
  O  O76  1  0.22254800  0.54405900  0.00444700  1
  O  O77  1  0.45594100  0.77745200  0.49555300  1
  O  O78  1  0.77745200  0.45594100  0.99555300  1
  O  O79  1  0.54405900  0.22254800  0.50444700  1
  O  O80  1  0.38755200  0.51379500  0.01561900  1
  O  O81  1  0.48620500  0.61244800  0.48438100  1
  O  O82  1  0.61244800  0.48620500  0.98438100  1
  O  O83  1  0.51379500  0.38755200  0.51561900  1
  O  O84  1  0.48980700  0.39906500  0.92154400  1
  O  O85  1  0.60093500  0.51019300  0.57845600  1
  O  O86  1  0.51019300  0.60093500  0.07845600  1
  O  O87  1  0.39906500  0.48980700  0.42154400  1
  O  O88  1  0.55895500  0.21845300  0.03272300  1
  O  O89  1  0.78154700  0.44104500  0.46727700  1
  O  O90  1  0.44104500  0.78154700  0.96727700  1
  O  O91  1  0.21845300  0.55895500  0.53272300  1
  O  O92  1  0.20992500  0.21209100  0.16462500  1
  O  O93  1  0.78790900  0.79007500  0.33537500  1
  O  O94  1  0.79007500  0.78790900  0.83537500  1
  O  O95  1  0.21209100  0.20992500  0.66462500  1
  O  O96  1  0.31171500  0.14269800  0.25093300  1
  O  O97  1  0.85730200  0.68828500  0.24906700  1
  O  O98  1  0.68828500  0.85730200  0.74906700  1
  O  O99  1  0.14269800  0.31171500  0.75093300  1
  O  O100  1  0.50573700  0.04388000  0.14087100  1
  O  O101  1  0.95612000  0.49426300  0.35912900  1
  O  O102  1  0.49426300  0.95612000  0.85912900  1
  O  O103  1  0.04388000  0.50573700  0.64087100  1
  O  O104  1  0.17878800  0.39150300  0.15599200  1
  O  O105  1  0.60849700  0.82121200  0.34400800  1
  O  O106  1  0.82121200  0.60849700  0.84400800  1
  O  O107  1  0.39150300  0.17878800  0.65599200  1
  O  O108  1  0.46489500  0.20746000  0.94472600  1
  O  O109  1  0.79254000  0.53510500  0.55527400  1
  O  O110  1  0.53510500  0.79254000  0.05527400  1
  O  O111  1  0.20746000  0.46489500  0.44472600  1
  O  O112  1  0.32265600  0.20342200  0.94788600  1
  O  O113  1  0.79657800  0.67734400  0.55211400  1
  O  O114  1  0.67734400  0.79657800  0.05211400  1
  O  O115  1  0.20342200  0.32265600  0.44788600  1
  O  O116  1  0.17447600  0.38127800  0.02691500  1
  O  O117  1  0.61872200  0.82552400  0.47308500  1
  O  O118  1  0.82552400  0.61872200  0.97308500  1
  O  O119  1  0.38127800  0.17447600  0.52691500  1
  O  O120  1  0.13585100  0.51666500  0.90985900  1
  O  O121  1  0.48333500  0.86414900  0.59014100  1
  O  O122  1  0.86414900  0.48333500  0.09014100  1
  O  O123  1  0.51666500  0.13585100  0.40985900  1
  O  O124  1  0.13692700  0.77959700  0.16083500  1
  O  O125  1  0.22040300  0.86307200  0.33916500  1
  O  O126  1  0.86307200  0.22040300  0.83916500  1
  O  O127  1  0.77959700  0.13692800  0.66083500  1
  O  O128  1  0.14920200  0.86367900  0.04243400  1
  O  O129  1  0.13632100  0.85079800  0.45756600  1
  O  O130  1  0.85079800  0.13632100  0.95756600  1
  O  O131  1  0.86367900  0.14920200  0.54243400  1
  O  O132  1  0.90433700  0.95441700  0.10397100  1
  O  O133  1  0.04558300  0.09566300  0.39602900  1
  O  O134  1  0.09566300  0.04558300  0.89602900  1
  O  O135  1  0.95441700  0.90433700  0.60397100  1
  O  O136  1  0.85818700  0.13369000  0.11317500  1
  O  O137  1  0.86631000  0.14181300  0.38682500  1
  O  O138  1  0.14181300  0.86631000  0.88682500  1
  O  O139  1  0.13369000  0.85818700  0.61317500  1
  O  O140  1  0.10255000  0.10751900  0.10107800  1
  O  O141  1  0.89248100  0.89745000  0.39892200  1
  O  O142  1  0.89745000  0.89248100  0.89892200  1
  O  O143  1  0.10751900  0.10255000  0.60107800  1
  O  O144  1  0.25192400  0.84092300  0.18909400  1
  O  O145  1  0.15907700  0.74807600  0.31090600  1
  O  O146  1  0.74807600  0.15907700  0.81090600  1
  O  O147  1  0.84092300  0.25192400  0.68909400  1
  O  O148  1  0.92612300  0.18065400  0.21303000  1
  O  O149  1  0.81934600  0.07387700  0.28697000  1
  O  O150  1  0.07387700  0.81934600  0.78697000  1
  O  O151  1  0.18065400  0.92612300  0.71303000  1
  O  O152  1  0.21903600  0.01645100  0.18913700  1
  O  O153  1  0.98354900  0.78096400  0.31086300  1
  O  O154  1  0.78096400  0.98354900  0.81086300  1
  O  O155  1  0.01645100  0.21903600  0.68913700  1
