# generated using pymatgen
data_Ba2EuNbO6
_symmetry_space_group_name_H-M   'P 1'
_cell_length_a   6.11469163
_cell_length_b   6.11469163
_cell_length_c   6.11469163
_cell_angle_alpha   120.45278518
_cell_angle_beta   120.45278518
_cell_angle_gamma   89.21752598
_symmetry_Int_Tables_number   1
_chemical_formula_structural   Ba2EuNbO6
_chemical_formula_sum   'Ba2 Eu1 Nb1 O6'
_cell_volume   160.53965078
_cell_formula_units_Z   1
loop_
 _symmetry_equiv_pos_site_id
 _symmetry_equiv_pos_as_xyz
  1  'x, y, z'
loop_
 _atom_site_type_symbol
 _atom_site_label
 _atom_site_symmetry_multiplicity
 _atom_site_fract_x
 _atom_site_fract_y
 _atom_site_fract_z
 _atom_site_occupancy
  Ba  Ba0  1  0.25000000  0.75000000  0.50000000  1
  Ba  Ba1  1  0.75000000  0.25000000  0.50000000  1
  Eu  Eu2  1  0.00000000  0.00000000  0.00000000  1
  Nb  Nb3  1  0.50000000  0.50000000  0.00000000  1
  O  O4  1  0.77425600  0.69099500  0.46525100  1
  O  O5  1  0.69099500  0.22574400  0.91674000  1
  O  O6  1  0.30900500  0.77425600  0.08326000  1
  O  O7  1  0.22574400  0.30900500  0.53474900  1
  O  O8  1  0.26665900  0.26665900  0.00000000  1
  O  O9  1  0.73334100  0.73334100  0.00000000  1
