# generated using pymatgen
data_SmInNi
_symmetry_space_group_name_H-M   'P 1'
_cell_length_a   7.51839469
_cell_length_b   7.51839469
_cell_length_c   3.91640400
_cell_angle_alpha   90.00000000
_cell_angle_beta   90.00000000
_cell_angle_gamma   120.00000610
_symmetry_Int_Tables_number   1
_chemical_formula_structural   SmInNi
_chemical_formula_sum   'Sm3 In3 Ni3'
_cell_volume   191.72040278
_cell_formula_units_Z   3
loop_
 _symmetry_equiv_pos_site_id
 _symmetry_equiv_pos_as_xyz
  1  'x, y, z'
loop_
 _atom_site_type_symbol
 _atom_site_label
 _atom_site_symmetry_multiplicity
 _atom_site_fract_x
 _atom_site_fract_y
 _atom_site_fract_z
 _atom_site_occupancy
  Sm  Sm0  1  0.00000000  0.41355700  0.50000000  1
  Sm  Sm1  1  0.58644300  0.58644300  0.50000000  1
  Sm  Sm2  1  0.41355700  0.00000000  0.50000000  1
  In  In3  1  0.00000000  0.75033200  0.00000000  1
  In  In4  1  0.24966800  0.24966800  0.00000000  1
  In  In5  1  0.75033200  0.00000000  0.00000000  1
  Ni  Ni6  1  0.33333300  0.66666700  0.00000000  1
  Ni  Ni7  1  0.66666700  0.33333300  0.00000000  1
  Ni  Ni8  1  0.00000000  0.00000000  0.50000000  1
