# generated using pymatgen
data_Sc11Os4
_symmetry_space_group_name_H-M   'P 1'
_cell_length_a   9.46286216
_cell_length_b   9.46286216
_cell_length_c   9.46286216
_cell_angle_alpha   60.00000000
_cell_angle_beta   60.00000000
_cell_angle_gamma   60.00000000
_symmetry_Int_Tables_number   1
_chemical_formula_structural   Sc11Os4
_chemical_formula_sum   'Sc22 Os8'
_cell_volume   599.17342602
_cell_formula_units_Z   2
loop_
 _symmetry_equiv_pos_site_id
 _symmetry_equiv_pos_as_xyz
  1  'x, y, z'
loop_
 _atom_site_type_symbol
 _atom_site_label
 _atom_site_symmetry_multiplicity
 _atom_site_fract_x
 _atom_site_fract_y
 _atom_site_fract_z
 _atom_site_occupancy
  Sc  Sc0  1  0.84427400  0.84427400  0.84427400  1
  Sc  Sc1  1  0.53282100  0.15572600  0.15572600  1
  Sc  Sc2  1  0.15572600  0.15572600  0.53282100  1
  Sc  Sc3  1  0.15572600  0.53282100  0.15572600  1
  Sc  Sc4  1  0.84427400  0.84427400  0.46717900  1
  Sc  Sc5  1  0.84427400  0.46717900  0.84427400  1
  Sc  Sc6  1  0.46717900  0.84427400  0.84427400  1
  Sc  Sc7  1  0.15572600  0.15572600  0.15572600  1
  Sc  Sc8  1  0.19883000  0.80117000  0.19883000  1
  Sc  Sc9  1  0.19883000  0.80117000  0.80117000  1
  Sc  Sc10  1  0.80117000  0.19883000  0.19883000  1
  Sc  Sc11  1  0.80117000  0.80117000  0.19883000  1
  Sc  Sc12  1  0.19883000  0.19883000  0.80117000  1
  Sc  Sc13  1  0.80117000  0.19883000  0.80117000  1
  Sc  Sc14  1  0.38279800  0.38279800  0.38279800  1
  Sc  Sc15  1  0.14839500  0.61720200  0.61720200  1
  Sc  Sc16  1  0.61720200  0.14839500  0.61720200  1
  Sc  Sc17  1  0.61720200  0.61720200  0.14839500  1
  Sc  Sc18  1  0.38279800  0.85160500  0.38279800  1
  Sc  Sc19  1  0.38279800  0.38279800  0.85160500  1
  Sc  Sc20  1  0.85160500  0.38279800  0.38279800  1
  Sc  Sc21  1  0.61720200  0.61720200  0.61720200  1
  Os  Os22  1  0.50000000  0.50000000  0.00000000  1
  Os  Os23  1  0.00000000  0.00000000  0.50000000  1
  Os  Os24  1  0.50000000  0.00000000  0.50000000  1
  Os  Os25  1  0.00000000  0.50000000  0.50000000  1
  Os  Os26  1  0.50000000  0.00000000  0.00000000  1
  Os  Os27  1  0.00000000  0.50000000  0.00000000  1
  Os  Os28  1  0.50000000  0.50000000  0.50000000  1
  Os  Os29  1  0.00000000  0.00000000  0.00000000  1
