# generated using pymatgen
data_Ho12In3Fe2
_symmetry_space_group_name_H-M   'P 1'
_cell_length_a   8.41018458
_cell_length_b   8.41018458
_cell_length_c   8.41018458
_cell_angle_alpha   110.32462477
_cell_angle_beta   110.32462477
_cell_angle_gamma   107.77757231
_symmetry_Int_Tables_number   1
_chemical_formula_structural   Ho12In3Fe2
_chemical_formula_sum   'Ho12 In3 Fe2'
_cell_volume   457.62635408
_cell_formula_units_Z   1
loop_
 _symmetry_equiv_pos_site_id
 _symmetry_equiv_pos_as_xyz
  1  'x, y, z'
loop_
 _atom_site_type_symbol
 _atom_site_label
 _atom_site_symmetry_multiplicity
 _atom_site_fract_x
 _atom_site_fract_y
 _atom_site_fract_z
 _atom_site_occupancy
  Ho  Ho0  1  0.45554400  0.20772900  0.24781500  1
  Ho  Ho1  1  0.54445600  0.79227100  0.75218500  1
  Ho  Ho2  1  0.95991400  0.20772900  0.75218500  1
  Ho  Ho3  1  0.20772900  0.95991400  0.75218500  1
  Ho  Ho4  1  0.04008600  0.79227100  0.24781500  1
  Ho  Ho5  1  0.79227100  0.04008600  0.24781500  1
  Ho  Ho6  1  0.20772900  0.45554400  0.24781500  1
  Ho  Ho7  1  0.79227100  0.54445600  0.75218500  1
  Ho  Ho8  1  0.30505300  0.30505300  0.61010600  1
  Ho  Ho9  1  0.69494700  0.69494700  0.38989400  1
  Ho  Ho10  1  0.30505300  0.69494700  0.00000000  1
  Ho  Ho11  1  0.69494700  0.30505300  0.00000000  1
  In  In12  1  0.50000000  0.00000000  0.50000000  1
  In  In13  1  0.00000000  0.50000000  0.50000000  1
  In  In14  1  0.00000000  0.00000000  0.00000000  1
  Fe  Fe15  1  0.38865100  0.38865100  0.00000000  1
  Fe  Fe16  1  0.61134900  0.61134900  0.00000000  1
