# generated using pymatgen
data_Na2Er2B2TeO10
_symmetry_space_group_name_H-M   'P 1'
_cell_length_a   9.97563500
_cell_length_b   6.34853000
_cell_length_c   6.75724419
_cell_angle_alpha   76.04281867
_cell_angle_beta   90.00000000
_cell_angle_gamma   90.00000000
_symmetry_Int_Tables_number   1
_chemical_formula_structural   Na2Er2B2TeO10
_chemical_formula_sum   'Na4 Er4 B4 Te2 O20'
_cell_volume   415.30604397
_cell_formula_units_Z   2
loop_
 _symmetry_equiv_pos_site_id
 _symmetry_equiv_pos_as_xyz
  1  'x, y, z'
loop_
 _atom_site_type_symbol
 _atom_site_label
 _atom_site_symmetry_multiplicity
 _atom_site_fract_x
 _atom_site_fract_y
 _atom_site_fract_z
 _atom_site_occupancy
  Na  Na0  1  0.61109800  0.41490200  0.16657600  1
  Na  Na1  1  0.11109800  0.58509800  0.33342400  1
  Na  Na2  1  0.38890200  0.58509800  0.83342400  1
  Na  Na3  1  0.88890200  0.41490200  0.66657600  1
  Er  Er4  1  0.83424400  0.87306600  0.02388300  1
  Er  Er5  1  0.33424400  0.12693400  0.47611700  1
  Er  Er6  1  0.16575600  0.12693400  0.97611700  1
  Er  Er7  1  0.66575600  0.87306600  0.52388300  1
  B  B8  1  0.40017600  0.66328400  0.37339400  1
  B  B9  1  0.90017600  0.33671600  0.12660600  1
  B  B10  1  0.59982400  0.33671600  0.62660600  1
  B  B11  1  0.09982400  0.66328400  0.87339400  1
  Te  Te12  1  0.50000000  0.00000000  0.00000000  1
  Te  Te13  1  0.00000000  0.00000000  0.50000000  1
  O  O14  1  0.82908500  0.52121200  0.05546200  1
  O  O15  1  0.32908500  0.47878800  0.44453800  1
  O  O16  1  0.17091500  0.47878800  0.94453800  1
  O  O17  1  0.67091500  0.52121200  0.55546200  1
  O  O18  1  0.65108400  0.00313800  0.17931300  1
  O  O19  1  0.15108400  0.99686200  0.32068700  1
  O  O20  1  0.34891600  0.99686200  0.82068700  1
  O  O21  1  0.84891600  0.00313800  0.67931300  1
  O  O22  1  0.43740200  0.70962000  0.16355000  1
  O  O23  1  0.93740200  0.29038000  0.33645000  1
  O  O24  1  0.56259800  0.29038000  0.83645000  1
  O  O25  1  0.06259800  0.70962000  0.66355000  1
  O  O26  1  0.93751500  0.19801100  0.00810400  1
  O  O27  1  0.43751500  0.80198900  0.49189600  1
  O  O28  1  0.06248500  0.80198900  0.99189600  1
  O  O29  1  0.56248500  0.19801100  0.50810400  1
  O  O30  1  0.38297600  0.16191500  0.13612400  1
  O  O31  1  0.88297600  0.83808500  0.36387600  1
  O  O32  1  0.61702400  0.83808500  0.86387600  1
  O  O33  1  0.11702400  0.16191500  0.63612400  1
