# generated using pymatgen
data_Y12Co5Bi
_symmetry_space_group_name_H-M   'P 1'
_cell_length_a   8.38297332
_cell_length_b   8.38297332
_cell_length_c   8.38297332
_cell_angle_alpha   110.74158344
_cell_angle_beta   110.59951875
_cell_angle_gamma   107.09833489
_symmetry_Int_Tables_number   1
_chemical_formula_structural   Y12Co5Bi
_chemical_formula_sum   'Y12 Co5 Bi1'
_cell_volume   452.91378020
_cell_formula_units_Z   1
loop_
 _symmetry_equiv_pos_site_id
 _symmetry_equiv_pos_as_xyz
  1  'x, y, z'
loop_
 _atom_site_type_symbol
 _atom_site_label
 _atom_site_symmetry_multiplicity
 _atom_site_fract_x
 _atom_site_fract_y
 _atom_site_fract_z
 _atom_site_occupancy
  Y  Y0  1  0.28870800  0.18286000  0.47156800  1
  Y  Y1  1  0.71129200  0.81714000  0.52843200  1
  Y  Y2  1  0.28870800  0.81714000  0.10584900  1
  Y  Y3  1  0.71129200  0.18286000  0.89415100  1
  Y  Y4  1  0.62101500  0.31161600  0.30939900  1
  Y  Y5  1  0.37898500  0.68838400  0.69060100  1
  Y  Y6  1  0.00221700  0.31161600  0.69060100  1
  Y  Y7  1  0.99778300  0.68838400  0.30939900  1
  Y  Y8  1  0.20690000  0.40204900  0.19514900  1
  Y  Y9  1  0.79310000  0.59795100  0.80485100  1
  Y  Y10  1  0.20690000  0.01175100  0.80485100  1
  Y  Y11  1  0.79310000  0.98824900  0.19514900  1
  Co  Co12  1  0.00000000  0.37924700  0.37924700  1
  Co  Co13  1  0.00000000  0.62075300  0.62075300  1
  Co  Co14  1  0.39023700  0.89023700  0.50000000  1
  Co  Co15  1  0.60976300  0.10976300  0.50000000  1
  Co  Co16  1  0.00000000  0.00000000  0.00000000  1
  Bi  Bi17  1  0.50000000  0.50000000  0.00000000  1
