# generated using pymatgen
data_RbTa3(TeO6)2
_symmetry_space_group_name_H-M   'P 1'
_cell_length_a   3.98979900
_cell_length_b   15.21514400
_cell_length_c   17.76537100
_cell_angle_alpha   90.00000000
_cell_angle_beta   90.00000000
_cell_angle_gamma   90.00000000
_symmetry_Int_Tables_number   1
_chemical_formula_structural   RbTa3(TeO6)2
_chemical_formula_sum   'Rb4 Ta12 Te8 O48'
_cell_volume   1078.45335430
_cell_formula_units_Z   4
loop_
 _symmetry_equiv_pos_site_id
 _symmetry_equiv_pos_as_xyz
  1  'x, y, z'
loop_
 _atom_site_type_symbol
 _atom_site_label
 _atom_site_symmetry_multiplicity
 _atom_site_fract_x
 _atom_site_fract_y
 _atom_site_fract_z
 _atom_site_occupancy
  Rb  Rb0  1  0.21464000  0.07409000  0.75000000  1
  Rb  Rb1  1  0.78536000  0.92591000  0.25000000  1
  Rb  Rb2  1  0.21464000  0.42591000  0.25000000  1
  Rb  Rb3  1  0.78536000  0.57409000  0.75000000  1
  Ta  Ta4  1  0.25754600  0.79381300  0.75000000  1
  Ta  Ta5  1  0.74245400  0.20618700  0.25000000  1
  Ta  Ta6  1  0.25754600  0.70618700  0.25000000  1
  Ta  Ta7  1  0.74245400  0.29381300  0.75000000  1
  Ta  Ta8  1  0.74820200  0.15057700  0.56936100  1
  Ta  Ta9  1  0.25179800  0.84942300  0.06936100  1
  Ta  Ta10  1  0.74820200  0.34942300  0.43063900  1
  Ta  Ta11  1  0.25179800  0.65057700  0.93063900  1
  Ta  Ta12  1  0.25179800  0.84942300  0.43063900  1
  Ta  Ta13  1  0.74820200  0.15057700  0.93063900  1
  Ta  Ta14  1  0.25179800  0.65057700  0.56936100  1
  Ta  Ta15  1  0.74820200  0.34942300  0.06936100  1
  Te  Te16  1  0.62309800  0.91350200  0.59686600  1
  Te  Te17  1  0.37690200  0.08649800  0.09686600  1
  Te  Te18  1  0.62309800  0.58649800  0.40313400  1
  Te  Te19  1  0.37690200  0.41350200  0.90313400  1
  Te  Te20  1  0.37690200  0.08649800  0.40313400  1
  Te  Te21  1  0.62309800  0.91350200  0.90313400  1
  Te  Te22  1  0.37690200  0.41350200  0.59686600  1
  Te  Te23  1  0.62309800  0.58649800  0.09686600  1
  O  O24  1  0.28228500  0.93179600  0.52358300  1
  O  O25  1  0.71771500  0.06820400  0.02358300  1
  O  O26  1  0.28228500  0.56820400  0.47641700  1
  O  O27  1  0.71771500  0.43179600  0.97641700  1
  O  O28  1  0.71771500  0.06820400  0.47641700  1
  O  O29  1  0.28228500  0.93179600  0.97641700  1
  O  O30  1  0.71771500  0.43179600  0.52358300  1
  O  O31  1  0.28228500  0.56820400  0.02358300  1
  O  O32  1  0.70337500  0.03134800  0.62671700  1
  O  O33  1  0.29662500  0.96865200  0.12671700  1
  O  O34  1  0.70337500  0.46865200  0.37328300  1
  O  O35  1  0.29662500  0.53134800  0.87328300  1
  O  O36  1  0.29662500  0.96865200  0.37328300  1
  O  O37  1  0.70337500  0.03134800  0.87328300  1
  O  O38  1  0.29662500  0.53134800  0.62671700  1
  O  O39  1  0.70337500  0.46865200  0.12671700  1
  O  O40  1  0.29448000  0.89565600  0.67372100  1
  O  O41  1  0.70552000  0.10434400  0.17372100  1
  O  O42  1  0.29448000  0.60434400  0.32627900  1
  O  O43  1  0.70552000  0.39565600  0.82627900  1
  O  O44  1  0.70552000  0.10434400  0.32627900  1
  O  O45  1  0.29448000  0.89565600  0.82627900  1
  O  O46  1  0.70552000  0.39565600  0.67372100  1
  O  O47  1  0.29448000  0.60434400  0.17372100  1
  O  O48  1  0.28932400  0.70807100  0.66782700  1
  O  O49  1  0.71067600  0.29192900  0.16782700  1
  O  O50  1  0.28932400  0.79192900  0.33217300  1
  O  O51  1  0.71067600  0.20807100  0.83217300  1
  O  O52  1  0.71067600  0.29192900  0.33217300  1
  O  O53  1  0.28932400  0.70807100  0.83217300  1
  O  O54  1  0.71067600  0.20807100  0.66782700  1
  O  O55  1  0.28932400  0.79192900  0.16782700  1
  O  O56  1  0.78827000  0.80149900  0.75000000  1
  O  O57  1  0.21173000  0.19850100  0.25000000  1
  O  O58  1  0.78827000  0.69850100  0.25000000  1
  O  O59  1  0.21173000  0.30149900  0.75000000  1
  O  O60  1  0.70537400  0.25000000  0.50000000  1
  O  O61  1  0.29462600  0.75000000  0.00000000  1
  O  O62  1  0.29462600  0.75000000  0.50000000  1
  O  O63  1  0.70537400  0.25000000  0.00000000  1
  O  O64  1  0.21577100  0.14600900  0.56733400  1
  O  O65  1  0.78422900  0.85399100  0.06733400  1
  O  O66  1  0.21577100  0.35399100  0.43266600  1
  O  O67  1  0.78422900  0.64600900  0.93266600  1
  O  O68  1  0.78422900  0.85399100  0.43266600  1
  O  O69  1  0.21577100  0.14600900  0.93266600  1
  O  O70  1  0.78422900  0.64600900  0.56733400  1
  O  O71  1  0.21577100  0.35399100  0.06733400  1
