# generated using pymatgen
data_Al7Cu2Rh
_symmetry_space_group_name_H-M   'P 1'
_cell_length_a   6.44453100
_cell_length_b   6.44453100
_cell_length_c   14.77915400
_cell_angle_alpha   90.00000000
_cell_angle_beta   90.00000000
_cell_angle_gamma   90.00000000
_symmetry_Int_Tables_number   1
_chemical_formula_structural   Al7Cu2Rh
_chemical_formula_sum   'Al28 Cu8 Rh4'
_cell_volume   613.80752554
_cell_formula_units_Z   4
loop_
 _symmetry_equiv_pos_site_id
 _symmetry_equiv_pos_as_xyz
  1  'x, y, z'
loop_
 _atom_site_type_symbol
 _atom_site_label
 _atom_site_symmetry_multiplicity
 _atom_site_fract_x
 _atom_site_fract_y
 _atom_site_fract_z
 _atom_site_occupancy
  Al  Al0  1  0.14902100  0.64902100  0.25000000  1
  Al  Al1  1  0.85097900  0.35097900  0.75000000  1
  Al  Al2  1  0.85097900  0.35097900  0.25000000  1
  Al  Al3  1  0.35097900  0.14902100  0.25000000  1
  Al  Al4  1  0.14902100  0.64902100  0.75000000  1
  Al  Al5  1  0.64902100  0.85097900  0.75000000  1
  Al  Al6  1  0.64902100  0.85097900  0.25000000  1
  Al  Al7  1  0.35097900  0.14902100  0.75000000  1
  Al  Al8  1  0.00000000  0.00000000  0.12748900  1
  Al  Al9  1  0.00000000  0.00000000  0.87251100  1
  Al  Al10  1  0.50000000  0.50000000  0.37251100  1
  Al  Al11  1  0.50000000  0.50000000  0.62748900  1
  Al  Al12  1  0.19850400  0.41290900  0.09764800  1
  Al  Al13  1  0.80149600  0.58709100  0.90235200  1
  Al  Al14  1  0.80149600  0.58709100  0.09764800  1
  Al  Al15  1  0.58709100  0.19850400  0.09764800  1
  Al  Al16  1  0.30149600  0.91290900  0.40235200  1
  Al  Al17  1  0.19850400  0.41290900  0.90235200  1
  Al  Al18  1  0.41290900  0.80149600  0.90235200  1
  Al  Al19  1  0.69850400  0.08709100  0.59764800  1
  Al  Al20  1  0.41290900  0.80149600  0.09764800  1
  Al  Al21  1  0.69850400  0.08709100  0.40235200  1
  Al  Al22  1  0.58709100  0.19850400  0.90235200  1
  Al  Al23  1  0.30149600  0.91290900  0.59764800  1
  Al  Al24  1  0.91290900  0.69850400  0.40235200  1
  Al  Al25  1  0.08709100  0.30149600  0.59764800  1
  Al  Al26  1  0.08709100  0.30149600  0.40235200  1
  Al  Al27  1  0.91290900  0.69850400  0.59764800  1
  Cu  Cu28  1  0.26767800  0.09437300  0.00000000  1
  Cu  Cu29  1  0.73232200  0.90562700  0.00000000  1
  Cu  Cu30  1  0.90562700  0.26767800  0.00000000  1
  Cu  Cu31  1  0.23232200  0.59437300  0.50000000  1
  Cu  Cu32  1  0.09437300  0.73232200  0.00000000  1
  Cu  Cu33  1  0.76767800  0.40562700  0.50000000  1
  Cu  Cu34  1  0.59437300  0.76767800  0.50000000  1
  Cu  Cu35  1  0.40562700  0.23232200  0.50000000  1
  Rh  Rh36  1  0.00000000  0.00000000  0.29806400  1
  Rh  Rh37  1  0.00000000  0.00000000  0.70193600  1
  Rh  Rh38  1  0.50000000  0.50000000  0.20193600  1
  Rh  Rh39  1  0.50000000  0.50000000  0.79806400  1
