# generated using pymatgen
data_Sc2Se3O10
_symmetry_space_group_name_H-M   'P 1'
_cell_length_a   11.05261700
_cell_length_b   6.63940700
_cell_length_c   12.92111003
_cell_angle_alpha   76.77419546
_cell_angle_beta   90.00000000
_cell_angle_gamma   90.00000000
_symmetry_Int_Tables_number   1
_chemical_formula_structural   Sc2Se3O10
_chemical_formula_sum   'Sc8 Se12 O40'
_cell_volume   923.03776295
_cell_formula_units_Z   4
loop_
 _symmetry_equiv_pos_site_id
 _symmetry_equiv_pos_as_xyz
  1  'x, y, z'
loop_
 _atom_site_type_symbol
 _atom_site_label
 _atom_site_symmetry_multiplicity
 _atom_site_fract_x
 _atom_site_fract_y
 _atom_site_fract_z
 _atom_site_occupancy
  Sc  Sc0  1  0.84233400  0.19923500  0.59074000  1
  Sc  Sc1  1  0.34233400  0.80076500  0.90926000  1
  Sc  Sc2  1  0.15766600  0.80076500  0.40926000  1
  Sc  Sc3  1  0.65766600  0.19923500  0.09074000  1
  Sc  Sc4  1  0.70622600  0.73732300  0.53412900  1
  Sc  Sc5  1  0.20622600  0.26267700  0.96587100  1
  Sc  Sc6  1  0.29377400  0.26267700  0.46587100  1
  Sc  Sc7  1  0.79377400  0.73732300  0.03412900  1
  Se  Se8  1  0.96967800  0.67989300  0.64905900  1
  Se  Se9  1  0.46967800  0.32010700  0.85094100  1
  Se  Se10  1  0.03032200  0.32010700  0.35094100  1
  Se  Se11  1  0.53032200  0.67989300  0.14905900  1
  Se  Se12  1  0.60499200  0.28805800  0.45567200  1
  Se  Se13  1  0.10499200  0.71194200  0.04432800  1
  Se  Se14  1  0.39500800  0.71194200  0.54432800  1
  Se  Se15  1  0.89500800  0.28805800  0.95567200  1
  Se  Se16  1  0.64908100  0.86405400  0.77869200  1
  Se  Se17  1  0.14908100  0.13594600  0.72130800  1
  Se  Se18  1  0.35091900  0.13594600  0.22130800  1
  Se  Se19  1  0.85091900  0.86405400  0.27869200  1
  O  O20  1  0.86567200  0.87204100  0.58852700  1
  O  O21  1  0.36567200  0.12795900  0.91147300  1
  O  O22  1  0.13432800  0.12795900  0.41147300  1
  O  O23  1  0.63432800  0.87204100  0.08852700  1
  O  O24  1  0.07381200  0.69266500  0.55175800  1
  O  O25  1  0.57381200  0.30733500  0.94824200  1
  O  O26  1  0.92618800  0.30733500  0.44824200  1
  O  O27  1  0.42618800  0.69266500  0.05175800  1
  O  O28  1  0.87256000  0.48394200  0.63444400  1
  O  O29  1  0.37256000  0.51605800  0.86555600  1
  O  O30  1  0.12744000  0.51605800  0.36555600  1
  O  O31  1  0.62744000  0.48394200  0.13444400  1
  O  O32  1  0.68461300  0.41643600  0.53857700  1
  O  O33  1  0.18461300  0.58356400  0.96142300  1
  O  O34  1  0.31538700  0.58356400  0.46142300  1
  O  O35  1  0.81538700  0.41643600  0.03857700  1
  O  O36  1  0.69638500  0.07161000  0.49844800  1
  O  O37  1  0.19638500  0.92839000  0.00155200  1
  O  O38  1  0.30361500  0.92839000  0.50155200  1
  O  O39  1  0.80361500  0.07161000  0.99844800  1
  O  O40  1  0.47322300  0.23161700  0.52382500  1
  O  O41  1  0.97322300  0.76838300  0.97617500  1
  O  O42  1  0.52677700  0.76838300  0.47617500  1
  O  O43  1  0.02677700  0.23161700  0.02382500  1
  O  O44  1  0.63367100  0.71308800  0.69100600  1
  O  O45  1  0.13367100  0.28691200  0.80899400  1
  O  O46  1  0.36632900  0.28691200  0.30899400  1
  O  O47  1  0.86632900  0.71308800  0.19100600  1
  O  O48  1  0.72087300  0.08466400  0.72729300  1
  O  O49  1  0.22087300  0.91533600  0.77270700  1
  O  O50  1  0.27912700  0.91533600  0.27270700  1
  O  O51  1  0.77912700  0.08466400  0.22729300  1
  O  O52  1  0.72922100  0.73203100  0.88079800  1
  O  O53  1  0.22922100  0.26796900  0.61920200  1
  O  O54  1  0.27077900  0.26796900  0.11920200  1
  O  O55  1  0.77077900  0.73203100  0.38079800  1
  O  O56  1  0.51133000  0.91357800  0.81796100  1
  O  O57  1  0.01133000  0.08642200  0.68203900  1
  O  O58  1  0.48867000  0.08642200  0.18203900  1
  O  O59  1  0.98867000  0.91357800  0.31796100  1
