# generated using pymatgen
data_LuMnO3
_symmetry_space_group_name_H-M   'P 1'
_cell_length_a   6.10284405
_cell_length_b   6.10284405
_cell_length_c   11.44529800
_cell_angle_alpha   90.00000000
_cell_angle_beta   90.00000000
_cell_angle_gamma   120.00000057
_symmetry_Int_Tables_number   1
_chemical_formula_structural   LuMnO3
_chemical_formula_sum   'Lu6 Mn6 O18'
_cell_volume   369.16649564
_cell_formula_units_Z   6
loop_
 _symmetry_equiv_pos_site_id
 _symmetry_equiv_pos_as_xyz
  1  'x, y, z'
loop_
 _atom_site_type_symbol
 _atom_site_label
 _atom_site_symmetry_multiplicity
 _atom_site_fract_x
 _atom_site_fract_y
 _atom_site_fract_z
 _atom_site_occupancy
  Lu  Lu0  1  0.66666700  0.33333300  0.23150000  1
  Lu  Lu1  1  0.33333300  0.66666700  0.73150000  1
  Lu  Lu2  1  0.66666700  0.33333300  0.73150000  1
  Lu  Lu3  1  0.33333300  0.66666700  0.23150000  1
  Lu  Lu4  1  0.00000000  0.00000000  0.77526500  1
  Lu  Lu5  1  0.00000000  0.00000000  0.27526500  1
  Mn  Mn6  1  0.66672500  0.00000000  0.50073600  1
  Mn  Mn7  1  0.66672500  0.66672500  0.00073600  1
  Mn  Mn8  1  0.00000000  0.33327500  0.00073600  1
  Mn  Mn9  1  0.00000000  0.66672500  0.50073600  1
  Mn  Mn10  1  0.33327500  0.33327500  0.50073600  1
  Mn  Mn11  1  0.33327500  0.00000000  0.00073600  1
  O  O12  1  0.66666700  0.33333300  0.02397700  1
  O  O13  1  0.33333300  0.66666700  0.52397700  1
  O  O14  1  0.66666700  0.33333300  0.52397700  1
  O  O15  1  0.33333300  0.66666700  0.02397700  1
  O  O16  1  0.00000000  0.00000000  0.97324500  1
  O  O17  1  0.00000000  0.00000000  0.47324500  1
  O  O18  1  0.36079100  0.00000000  0.83437600  1
  O  O19  1  0.36079100  0.36079100  0.33437600  1
  O  O20  1  0.00000000  0.63920900  0.33437600  1
  O  O21  1  0.00000000  0.36079100  0.83437600  1
  O  O22  1  0.63920900  0.63920900  0.83437600  1
  O  O23  1  0.63920900  0.00000000  0.33437600  1
  O  O24  1  0.30585900  0.00000000  0.16740000  1
  O  O25  1  0.30585900  0.30585900  0.66740000  1
  O  O26  1  0.00000000  0.69414100  0.66740000  1
  O  O27  1  0.00000000  0.30585900  0.16740000  1
  O  O28  1  0.69414100  0.69414100  0.16740000  1
  O  O29  1  0.69414100  0.00000000  0.66740000  1
