# generated using pymatgen
data_La(Al4Fe)2
_symmetry_space_group_name_H-M   'P 1'
_cell_length_a   4.05385100
_cell_length_b   12.61911500
_cell_length_c   14.41448100
_cell_angle_alpha   90.00000000
_cell_angle_beta   90.00000000
_cell_angle_gamma   90.00000000
_symmetry_Int_Tables_number   1
_chemical_formula_structural   La(Al4Fe)2
_chemical_formula_sum   'La4 Al32 Fe8'
_cell_volume   737.38736246
_cell_formula_units_Z   4
loop_
 _symmetry_equiv_pos_site_id
 _symmetry_equiv_pos_as_xyz
  1  'x, y, z'
loop_
 _atom_site_type_symbol
 _atom_site_label
 _atom_site_symmetry_multiplicity
 _atom_site_fract_x
 _atom_site_fract_y
 _atom_site_fract_z
 _atom_site_occupancy
  La  La0  1  0.00000000  0.83992800  0.18095800  1
  La  La1  1  0.00000000  0.16007200  0.81904200  1
  La  La2  1  0.00000000  0.33992800  0.31904200  1
  La  La3  1  0.00000000  0.66007200  0.68095800  1
  Al  Al4  1  0.50000000  0.50000000  0.00000000  1
  Al  Al5  1  0.50000000  0.00000000  0.50000000  1
  Al  Al6  1  0.50000000  0.83218700  0.00633800  1
  Al  Al7  1  0.50000000  0.16781300  0.99366200  1
  Al  Al8  1  0.50000000  0.33218700  0.49366200  1
  Al  Al9  1  0.50000000  0.66781300  0.50633800  1
  Al  Al10  1  0.00000000  0.50000000  0.50000000  1
  Al  Al11  1  0.00000000  0.00000000  0.00000000  1
  Al  Al12  1  0.50000000  0.52691900  0.36804600  1
  Al  Al13  1  0.50000000  0.47308100  0.63195400  1
  Al  Al14  1  0.50000000  0.02691900  0.13195400  1
  Al  Al15  1  0.50000000  0.97308100  0.86804600  1
  Al  Al16  1  0.50000000  0.65769600  0.12000700  1
  Al  Al17  1  0.50000000  0.34230400  0.87999300  1
  Al  Al18  1  0.50000000  0.15769600  0.37999300  1
  Al  Al19  1  0.50000000  0.84230400  0.62000700  1
  Al  Al20  1  0.00000000  0.59373900  0.24614200  1
  Al  Al21  1  0.00000000  0.40626100  0.75385800  1
  Al  Al22  1  0.00000000  0.09373900  0.25385800  1
  Al  Al23  1  0.00000000  0.90626100  0.74614200  1
  Al  Al24  1  0.50000000  0.73359700  0.32891600  1
  Al  Al25  1  0.50000000  0.26640300  0.67108400  1
  Al  Al26  1  0.50000000  0.23359700  0.17108500  1
  Al  Al27  1  0.50000000  0.76640300  0.82891600  1
  Al  Al28  1  0.50000000  0.95233700  0.32170400  1
  Al  Al29  1  0.50000000  0.04766200  0.67829600  1
  Al  Al30  1  0.50000000  0.45233800  0.17829600  1
  Al  Al31  1  0.50000000  0.54766300  0.82170400  1
  Al  Al32  1  0.00000000  0.83522300  0.45373300  1
  Al  Al33  1  0.00000000  0.16477700  0.54626700  1
  Al  Al34  1  0.00000000  0.33522300  0.04626700  1
  Al  Al35  1  0.00000000  0.66477700  0.95373300  1
  Fe  Fe36  1  0.00000000  0.64926000  0.40201400  1
  Fe  Fe37  1  0.00000000  0.35074000  0.59798600  1
  Fe  Fe38  1  0.00000000  0.14926000  0.09798600  1
  Fe  Fe39  1  0.00000000  0.85074000  0.90201400  1
  Fe  Fe40  1  0.00000000  0.53361600  0.09005400  1
  Fe  Fe41  1  0.00000000  0.46638400  0.90994600  1
  Fe  Fe42  1  0.00000000  0.03361600  0.40994600  1
  Fe  Fe43  1  0.00000000  0.96638400  0.59005400  1
