# generated using pymatgen
data_HoGa2Ni3
_symmetry_space_group_name_H-M   'P 1'
_cell_length_a   4.09274000
_cell_length_b   8.73269773
_cell_length_c   8.74724528
_cell_angle_alpha   119.94500218
_cell_angle_beta   90.00000000
_cell_angle_gamma   90.00000000
_symmetry_Int_Tables_number   1
_chemical_formula_structural   HoGa2Ni3
_chemical_formula_sum   'Ho3 Ga6 Ni9'
_cell_volume   270.89746254
_cell_formula_units_Z   3
loop_
 _symmetry_equiv_pos_site_id
 _symmetry_equiv_pos_as_xyz
  1  'x, y, z'
loop_
 _atom_site_type_symbol
 _atom_site_label
 _atom_site_symmetry_multiplicity
 _atom_site_fract_x
 _atom_site_fract_y
 _atom_site_fract_z
 _atom_site_occupancy
  Ho  Ho0  1  0.50000000  0.33286900  0.66632900  1
  Ho  Ho1  1  0.50000000  0.66654100  0.33367100  1
  Ho  Ho2  1  0.00000000  0.99985300  0.00000000  1
  Ga  Ga3  1  0.00000000  0.51469200  0.00000000  1
  Ga  Ga4  1  0.00000000  0.48542000  0.48538200  1
  Ga  Ga5  1  0.00000000  0.00003800  0.51461800  1
  Ga  Ga6  1  0.50000000  0.27108000  0.00000000  1
  Ga  Ga7  1  0.50000000  0.72777900  0.72794700  1
  Ga  Ga8  1  0.50000000  0.99983100  0.27205300  1
  Ni  Ni9  1  0.00000000  0.17680300  0.37084800  1
  Ni  Ni10  1  0.00000000  0.19473300  0.82328300  1
  Ni  Ni11  1  0.00000000  0.62850300  0.80535400  1
  Ni  Ni12  1  0.00000000  0.80595600  0.62915200  1
  Ni  Ni13  1  0.00000000  0.37145000  0.17671700  1
  Ni  Ni14  1  0.00000000  0.82314900  0.19464600  1
  Ni  Ni15  1  0.50000000  0.70493300  0.00000000  1
  Ni  Ni16  1  0.50000000  0.29593000  0.29558900  1
  Ni  Ni17  1  0.50000000  0.00034000  0.70441100  1
