# generated using pymatgen
data_Ba2V2O7
_symmetry_space_group_name_H-M   'P 1'
_cell_length_a   7.49826800
_cell_length_b   7.51992198
_cell_length_c   13.77056323
_cell_angle_alpha   81.34343736
_cell_angle_beta   88.05790074
_cell_angle_gamma   89.46243479
_symmetry_Int_Tables_number   1
_chemical_formula_structural   Ba2V2O7
_chemical_formula_sum   'Ba8 V8 O28'
_cell_volume   767.17885605
_cell_formula_units_Z   4
loop_
 _symmetry_equiv_pos_site_id
 _symmetry_equiv_pos_as_xyz
  1  'x, y, z'
loop_
 _atom_site_type_symbol
 _atom_site_label
 _atom_site_symmetry_multiplicity
 _atom_site_fract_x
 _atom_site_fract_y
 _atom_site_fract_z
 _atom_site_occupancy
  Ba  Ba0  1  0.58428900  0.33373300  0.15695500  1
  Ba  Ba1  1  0.41571100  0.66626700  0.84304500  1
  Ba  Ba2  1  0.16801200  0.71748200  0.13986000  1
  Ba  Ba3  1  0.83198800  0.28251800  0.86014000  1
  Ba  Ba4  1  0.26822100  0.26818500  0.65233900  1
  Ba  Ba5  1  0.73177900  0.73181500  0.34766100  1
  Ba  Ba6  1  0.86223700  0.87174400  0.63974400  1
  Ba  Ba7  1  0.13776300  0.12825600  0.36025600  1
  V  V8  1  0.34197200  0.19130700  0.91450100  1
  V  V9  1  0.65802800  0.80869300  0.08549900  1
  V  V10  1  0.07131400  0.19910500  0.10705000  1
  V  V11  1  0.92868600  0.80089500  0.89295000  1
  V  V12  1  0.32987700  0.80604800  0.58698400  1
  V  V13  1  0.67012300  0.19395200  0.41301600  1
  V  V14  1  0.27178200  0.60274700  0.39408900  1
  V  V15  1  0.72821800  0.39725300  0.60591100  1
  O  O16  1  0.79880200  0.66237300  0.83420600  1
  O  O17  1  0.20119800  0.33762700  0.16579400  1
  O  O18  1  0.79384200  0.91687900  0.97840800  1
  O  O19  1  0.20615800  0.08312100  0.02159200  1
  O  O20  1  0.56422700  0.95733400  0.15364400  1
  O  O21  1  0.43577300  0.04266600  0.84635600  1
  O  O22  1  0.18730200  0.98687400  0.55521000  1
  O  O23  1  0.81269800  0.01312600  0.44479000  1
  O  O24  1  0.40990800  0.56904000  0.29603700  1
  O  O25  1  0.59009200  0.43096000  0.70396300  1
  O  O26  1  0.80449100  0.59615000  0.54286500  1
  O  O27  1  0.19550900  0.40385000  0.45713500  1
  O  O28  1  0.20741600  0.64949700  0.66317900  1
  O  O29  1  0.79258400  0.35050300  0.33682100  1
  O  O30  1  0.79274900  0.66329900  0.16016000  1
  O  O31  1  0.20725100  0.33670100  0.83984000  1
  O  O32  1  0.99495500  0.03134800  0.19645300  1
  O  O33  1  0.00504500  0.96865200  0.80354700  1
  O  O34  1  0.50207200  0.12549000  0.34656500  1
  O  O35  1  0.49792800  0.87451000  0.65343500  1
  O  O36  1  0.90045900  0.26226400  0.65452700  1
  O  O37  1  0.09954100  0.73773600  0.34547300  1
  O  O38  1  0.59288400  0.27962600  0.52619000  1
  O  O39  1  0.40711600  0.72037400  0.47381000  1
  O  O40  1  0.50733700  0.32329500  0.95142700  1
  O  O41  1  0.49266300  0.67670500  0.04857300  1
  O  O42  1  0.89527800  0.31196600  0.05058300  1
  O  O43  1  0.10472200  0.68803400  0.94941700  1
