# generated using pymatgen
data_Na3Mo2N5
_symmetry_space_group_name_H-M   'P 1'
_cell_length_a   9.62472447
_cell_length_b   9.62472447
_cell_length_c   9.62472447
_cell_angle_alpha   101.78707972
_cell_angle_beta   101.78707972
_cell_angle_gamma   126.25992811
_symmetry_Int_Tables_number   1
_chemical_formula_structural   Na3Mo2N5
_chemical_formula_sum   'Na12 Mo8 N20'
_cell_volume   641.30656536
_cell_formula_units_Z   4
loop_
 _symmetry_equiv_pos_site_id
 _symmetry_equiv_pos_as_xyz
  1  'x, y, z'
loop_
 _atom_site_type_symbol
 _atom_site_label
 _atom_site_symmetry_multiplicity
 _atom_site_fract_x
 _atom_site_fract_y
 _atom_site_fract_z
 _atom_site_occupancy
  Na  Na0  1  0.49968100  0.61914800  0.66677400  1
  Na  Na1  1  0.95237400  0.83290600  0.33322600  1
  Na  Na2  1  0.86914800  0.70237400  0.61946700  1
  Na  Na3  1  0.08290600  0.24968100  0.38053300  1
  Na  Na4  1  0.28379800  0.91397800  0.22525400  1
  Na  Na5  1  0.68872400  0.05854300  0.77474600  1
  Na  Na6  1  0.16397800  0.43872400  0.13018100  1
  Na  Na7  1  0.30854300  0.03379800  0.86981900  1
  Na  Na8  1  0.56226700  0.56226700  0.00000000  1
  Na  Na9  1  0.81226700  0.31226700  0.50000000  1
  Na  Na10  1  0.22558300  0.72558300  0.50000000  1
  Na  Na11  1  0.97558300  0.97558300  0.00000000  1
  Mo  Mo12  1  0.63830900  0.86113300  0.39992400  1
  Mo  Mo13  1  0.46120900  0.23838500  0.60007600  1
  Mo  Mo14  1  0.11113300  0.21120900  0.72282400  1
  Mo  Mo15  1  0.48838500  0.38830900  0.27717600  1
  Mo  Mo16  1  0.23213600  0.61486700  0.81341400  1
  Mo  Mo17  1  0.80145300  0.41872100  0.18658600  1
  Mo  Mo18  1  0.86486700  0.55145300  0.88273100  1
  Mo  Mo19  1  0.66872100  0.98213600  0.11726900  1
  N  N20  1  0.51424700  0.80658300  0.51849900  1
  N  N21  1  0.28808400  0.99574800  0.48150100  1
  N  N22  1  0.05658300  0.03808400  0.79233600  1
  N  N23  1  0.24574800  0.26424700  0.20766400  1
  N  N24  1  0.75681100  0.64335500  0.83943500  1
  N  N25  1  0.80392000  0.91737600  0.16056500  1
  N  N26  1  0.89335500  0.55392000  0.38654400  1
  N  N27  1  0.16737600  0.50681100  0.61345600  1
  N  N28  1  0.61022700  0.64441000  0.31099600  1
  N  N29  1  0.33341300  0.29923100  0.68900400  1
  N  N30  1  0.89441000  0.08341300  0.53418200  1
  N  N31  1  0.54923100  0.36022700  0.46581800  1
  N  N32  1  0.08334100  0.68563700  0.83502000  1
  N  N33  1  0.85061700  0.24832100  0.16498000  1
  N  N34  1  0.93563700  0.60061700  0.10229600  1
  N  N35  1  0.49832100  0.83334100  0.89770400  1
  N  N36  1  0.17890900  0.42642300  0.88873600  1
  N  N37  1  0.53768700  0.29017400  0.11126400  1
  N  N38  1  0.67642300  0.28768700  0.74751400  1
  N  N39  1  0.54017400  0.92890900  0.25248600  1
