# generated using pymatgen
data_Rb2SnHgTe4
_symmetry_space_group_name_H-M   'P 1'
_cell_length_a   7.45896872
_cell_length_b   7.45896872
_cell_length_c   7.45896872
_cell_angle_alpha   105.07117597
_cell_angle_beta   105.07117597
_cell_angle_gamma   118.68295007
_symmetry_Int_Tables_number   1
_chemical_formula_structural   Rb2SnHgTe4
_chemical_formula_sum   'Rb2 Sn1 Hg1 Te4'
_cell_volume   313.17667413
_cell_formula_units_Z   1
loop_
 _symmetry_equiv_pos_site_id
 _symmetry_equiv_pos_as_xyz
  1  'x, y, z'
loop_
 _atom_site_type_symbol
 _atom_site_label
 _atom_site_symmetry_multiplicity
 _atom_site_fract_x
 _atom_site_fract_y
 _atom_site_fract_z
 _atom_site_occupancy
  Rb  Rb0  1  0.50000000  0.00000000  0.50000000  1
  Rb  Rb1  1  0.00000000  0.50000000  0.50000000  1
  Sn  Sn2  1  0.50000000  0.50000000  0.00000000  1
  Hg  Hg3  1  0.00000000  0.00000000  0.00000000  1
  Te  Te4  1  0.90428400  0.90428400  0.33529900  1
  Te  Te5  1  0.56898500  0.56898500  0.66470100  1
  Te  Te6  1  0.43101500  0.09571600  0.00000000  1
  Te  Te7  1  0.09571600  0.43101500  0.00000000  1
