# generated using pymatgen
data_ZnPd5Se
_symmetry_space_group_name_H-M   'P 1'
_cell_length_a   4.00516200
_cell_length_b   4.00516200
_cell_length_c   7.06954600
_cell_angle_alpha   90.00000000
_cell_angle_beta   90.00000000
_cell_angle_gamma   90.00000000
_symmetry_Int_Tables_number   1
_chemical_formula_structural   ZnPd5Se
_chemical_formula_sum   'Zn1 Pd5 Se1'
_cell_volume   113.40486835
_cell_formula_units_Z   1
loop_
 _symmetry_equiv_pos_site_id
 _symmetry_equiv_pos_as_xyz
  1  'x, y, z'
loop_
 _atom_site_type_symbol
 _atom_site_label
 _atom_site_symmetry_multiplicity
 _atom_site_fract_x
 _atom_site_fract_y
 _atom_site_fract_z
 _atom_site_occupancy
  Zn  Zn0  1  0.50000000  0.50000000  0.00000000  1
  Pd  Pd1  1  0.00000000  0.50000000  0.27362100  1
  Pd  Pd2  1  0.00000000  0.50000000  0.72637900  1
  Pd  Pd3  1  0.50000000  0.00000000  0.27362100  1
  Pd  Pd4  1  0.50000000  0.00000000  0.72637900  1
  Pd  Pd5  1  0.00000000  0.00000000  0.00000000  1
  Se  Se6  1  0.00000000  0.00000000  0.50000000  1
