# generated using pymatgen
data_PH18PtC6S3BrF6
_symmetry_space_group_name_H-M   'P 1'
_cell_length_a   25.03111300
_cell_length_b   8.72195900
_cell_length_c   8.96830524
_cell_angle_alpha   75.63633276
_cell_angle_beta   90.00000000
_cell_angle_gamma   90.00000000
_symmetry_Int_Tables_number   1
_chemical_formula_structural   PH18PtC6S3BrF6
_chemical_formula_sum   'P4 H72 Pt4 C24 S12 Br4 F24'
_cell_volume   1896.75882913
_cell_formula_units_Z   4
loop_
 _symmetry_equiv_pos_site_id
 _symmetry_equiv_pos_as_xyz
  1  'x, y, z'
loop_
 _atom_site_type_symbol
 _atom_site_label
 _atom_site_symmetry_multiplicity
 _atom_site_fract_x
 _atom_site_fract_y
 _atom_site_fract_z
 _atom_site_occupancy
  P  P0  1  0.33705500  0.99373500  0.02791300  1
  P  P1  1  0.83705500  0.50626500  0.97208700  1
  P  P2  1  0.66294500  0.00626500  0.97208700  1
  P  P3  1  0.16294500  0.49373500  0.02791300  1
  H  H4  1  0.48708700  0.04454000  0.66974500  1
  H  H5  1  0.98708700  0.45546000  0.33025500  1
  H  H6  1  0.51291300  0.95546000  0.33025500  1
  H  H7  1  0.01291300  0.54454000  0.66974500  1
  H  H8  1  0.52630700  0.06297600  0.83211400  1
  H  H9  1  0.02630700  0.43702400  0.16788600  1
  H  H10  1  0.47369300  0.93702400  0.16788600  1
  H  H11  1  0.97369300  0.56297600  0.83211400  1
  H  H12  1  0.45390600  0.06087000  0.84379600  1
  H  H13  1  0.95390600  0.43913000  0.15620400  1
  H  H14  1  0.54609400  0.93913000  0.15620400  1
  H  H15  1  0.04609400  0.56087000  0.84379600  1
  H  H16  1  0.42355500  0.78494400  0.55992500  1
  H  H17  1  0.92355500  0.71505600  0.44007500  1
  H  H18  1  0.57644500  0.21505600  0.44007500  1
  H  H19  1  0.07644500  0.28494400  0.55992500  1
  H  H20  1  0.35502700  0.75536000  0.51380500  1
  H  H21  1  0.85502700  0.74464000  0.48619500  1
  H  H22  1  0.64497300  0.24464000  0.48619500  1
  H  H23  1  0.14497300  0.25536000  0.51380500  1
  H  H24  1  0.37108700  0.82198600  0.68374600  1
  H  H25  1  0.87108700  0.67801400  0.31625400  1
  H  H26  1  0.62891300  0.17801400  0.31625400  1
  H  H27  1  0.12891300  0.32198600  0.68374600  1
  H  H28  1  0.50455200  0.49093700  0.84831600  1
  H  H29  1  0.00455200  0.00906300  0.15168400  1
  H  H30  1  0.49544800  0.50906300  0.15168400  1
  H  H31  1  0.99544800  0.99093700  0.84831600  1
  H  H32  1  0.46457400  0.32469000  0.95025600  1
  H  H33  1  0.96457400  0.17531000  0.04974400  1
  H  H34  1  0.53542600  0.67531000  0.04974400  1
  H  H35  1  0.03542600  0.82469000  0.95025600  1
  H  H36  1  0.53549200  0.30248300  0.92677100  1
  H  H37  1  0.03549200  0.19751700  0.07322900  1
  H  H38  1  0.46450800  0.69751700  0.07322900  1
  H  H39  1  0.96450800  0.80248300  0.92677100  1
  H  H40  1  0.31988300  0.39853400  0.87190500  1
  H  H41  1  0.81988300  0.10146600  0.12809500  1
  H  H42  1  0.68011700  0.60146600  0.12809500  1
  H  H43  1  0.18011700  0.89853400  0.87190500  1
  H  H44  1  0.31293300  0.60817900  0.85354500  1
  H  H45  1  0.81293300  0.89182100  0.14645500  1
  H  H46  1  0.68706700  0.39182100  0.14645500  1
  H  H47  1  0.18706700  0.10817900  0.85354500  1
  H  H48  1  0.29441600  0.52552200  0.69654800  1
  H  H49  1  0.79441600  0.97447800  0.30345200  1
  H  H50  1  0.70558400  0.47447800  0.30345200  1
  H  H51  1  0.20558400  0.02552200  0.69654800  1
  H  H52  1  0.36028900  0.60507400  0.19154800  1
  H  H53  1  0.86028900  0.89492600  0.80845200  1
  H  H54  1  0.63971100  0.39492600  0.80845200  1
  H  H55  1  0.13971100  0.10507400  0.19154800  1
  H  H56  1  0.36464500  0.39622300  0.19773700  1
  H  H57  1  0.86464500  0.10377700  0.80226300  1
  H  H58  1  0.63535500  0.60377700  0.80226300  1
  H  H59  1  0.13535500  0.89622300  0.19773700  1
  H  H60  1  0.30054700  0.49463600  0.18102800  1
  H  H61  1  0.80054700  0.00536400  0.81897200  1
  H  H62  1  0.69945300  0.50536400  0.81897200  1
  H  H63  1  0.19945300  0.99463600  0.18102800  1
  H  H64  1  0.28921200  0.21704700  0.58660700  1
  H  H65  1  0.78921200  0.28295300  0.41339300  1
  H  H66  1  0.71078800  0.78295300  0.41339300  1
  H  H67  1  0.21078800  0.71704700  0.58660700  1
  H  H68  1  0.26139000  0.28236500  0.39426900  1
  H  H69  1  0.76139000  0.21763500  0.60573100  1
  H  H70  1  0.73861000  0.71763500  0.60573100  1
  H  H71  1  0.23861000  0.78236500  0.39426900  1
  H  H72  1  0.32320000  0.17324200  0.42496400  1
  H  H73  1  0.82320000  0.32675800  0.57503600  1
  H  H74  1  0.67680000  0.82675800  0.57503600  1
  H  H75  1  0.17680000  0.67324200  0.42496400  1
  Pt  Pt76  1  0.41209600  0.38685300  0.56790900  1
  Pt  Pt77  1  0.91209600  0.11314700  0.43209100  1
  Pt  Pt78  1  0.58790400  0.61314700  0.43209100  1
  Pt  Pt79  1  0.08790400  0.88685300  0.56790900  1
  C  C80  1  0.48887000  0.09592800  0.76926500  1
  C  C81  1  0.98887000  0.40407200  0.23073500  1
  C  C82  1  0.51113000  0.90407200  0.23073500  1
  C  C83  1  0.01113000  0.59592800  0.76926500  1
  C  C84  1  0.38391700  0.74824100  0.60739900  1
  C  C85  1  0.88391700  0.75175900  0.39260100  1
  C  C86  1  0.61608300  0.25175900  0.39260100  1
  C  C87  1  0.11608300  0.24824100  0.60739900  1
  C  C88  1  0.49906300  0.36244300  0.87470000  1
  C  C89  1  0.99906300  0.13755700  0.12530000  1
  C  C90  1  0.50093700  0.63755700  0.12530000  1
  C  C91  1  0.00093700  0.86244300  0.87470000  1
  C  C92  1  0.32209300  0.51666100  0.79293600  1
  C  C93  1  0.82209300  0.98333900  0.20706400  1
  C  C94  1  0.67790700  0.48333900  0.20706400  1
  C  C95  1  0.17790700  0.01666100  0.79293600  1
  C  C96  1  0.34094600  0.48910200  0.22897200  1
  C  C97  1  0.84094600  0.01089800  0.77102800  1
  C  C98  1  0.65905400  0.51089800  0.77102800  1
  C  C99  1  0.15905400  0.98910200  0.22897200  1
  C  C100  1  0.29796600  0.25909100  0.46312500  1
  C  C101  1  0.79796600  0.24090900  0.53687500  1
  C  C102  1  0.70203400  0.74090900  0.53687500  1
  C  C103  1  0.20203400  0.75909100  0.46312500  1
  S  S104  1  0.49233600  0.30807700  0.69438300  1
  S  S105  1  0.99233600  0.19192300  0.30561700  1
  S  S106  1  0.50766400  0.69192300  0.30561700  1
  S  S107  1  0.00766400  0.80807700  0.69438300  1
  S  S108  1  0.39015300  0.54867800  0.72632600  1
  S  S109  1  0.89015300  0.95132200  0.27367400  1
  S  S110  1  0.60984700  0.45132200  0.27367400  1
  S  S111  1  0.10984700  0.04867800  0.72632600  1
  S  S112  1  0.33234800  0.44626600  0.43479400  1
  S  S113  1  0.83234800  0.05373400  0.56520600  1
  S  S114  1  0.66765200  0.55373400  0.56520600  1
  S  S115  1  0.16765200  0.94626600  0.43479400  1
  Br  Br116  1  0.44283800  0.22578500  0.39266600  1
  Br  Br117  1  0.94283800  0.27421500  0.60733400  1
  Br  Br118  1  0.55716200  0.77421500  0.60733400  1
  Br  Br119  1  0.05716200  0.72578500  0.39266600  1
  F  F120  1  0.38467300  0.12600400  0.02043300  1
  F  F121  1  0.88467300  0.37399600  0.97956700  1
  F  F122  1  0.61532700  0.87399600  0.97956700  1
  F  F123  1  0.11532700  0.62600400  0.02043300  1
  F  F124  1  0.38154100  0.87407400  0.97883000  1
  F  F125  1  0.88154100  0.62592600  0.02117000  1
  F  F126  1  0.61845900  0.12592600  0.02117000  1
  F  F127  1  0.11845900  0.37407400  0.97883000  1
  F  F128  1  0.29054800  0.86153100  0.03369700  1
  F  F129  1  0.79054800  0.63846900  0.96630300  1
  F  F130  1  0.70945200  0.13846900  0.96630300  1
  F  F131  1  0.20945200  0.36153100  0.03369700  1
  F  F132  1  0.29384500  0.11318100  0.07650000  1
  F  F133  1  0.79384500  0.38681900  0.92350000  1
  F  F134  1  0.70615500  0.88681900  0.92350000  1
  F  F135  1  0.20615500  0.61318100  0.07650000  1
  F  F136  1  0.32413800  0.07059300  0.84432800  1
  F  F137  1  0.82413800  0.42940700  0.15567200  1
  F  F138  1  0.67586200  0.92940700  0.15567200  1
  F  F139  1  0.17586200  0.57059300  0.84432800  1
  F  F140  1  0.35095900  0.91601100  0.21027400  1
  F  F141  1  0.85095900  0.58398900  0.78972600  1
  F  F142  1  0.64904100  0.08398900  0.78972600  1
  F  F143  1  0.14904100  0.41601100  0.21027400  1
