# generated using pymatgen
data_Ba3(LiBi)4
_symmetry_space_group_name_H-M   'P 1'
_cell_length_a   9.64371240
_cell_length_b   9.64371240
_cell_length_c   9.64371240
_cell_angle_alpha   148.99072749
_cell_angle_beta   131.90788340
_cell_angle_gamma   58.33048455
_symmetry_Int_Tables_number   1
_chemical_formula_structural   Ba3(LiBi)4
_chemical_formula_sum   'Ba3 Li4 Bi4'
_cell_volume   341.22234146
_cell_formula_units_Z   1
loop_
 _symmetry_equiv_pos_site_id
 _symmetry_equiv_pos_as_xyz
  1  'x, y, z'
loop_
 _atom_site_type_symbol
 _atom_site_label
 _atom_site_symmetry_multiplicity
 _atom_site_fract_x
 _atom_site_fract_y
 _atom_site_fract_z
 _atom_site_occupancy
  Ba  Ba0  1  0.63139800  0.13139800  0.50000000  1
  Ba  Ba1  1  0.36860200  0.86860200  0.50000000  1
  Ba  Ba2  1  0.00000000  0.00000000  0.00000000  1
  Li  Li3  1  0.98010200  0.67495100  0.30515100  1
  Li  Li4  1  0.01989800  0.32504900  0.69484900  1
  Li  Li5  1  0.63020000  0.32504900  0.30515100  1
  Li  Li6  1  0.36980000  0.67495100  0.69484900  1
  Bi  Bi7  1  0.78645100  0.78645100  0.00000000  1
  Bi  Bi8  1  0.21354900  0.21354900  0.00000000  1
  Bi  Bi9  1  0.69269500  0.50000000  0.19269500  1
  Bi  Bi10  1  0.30730500  0.50000000  0.80730500  1
