# generated using pymatgen
data_HoTl(WO4)2
_symmetry_space_group_name_H-M   'P 1'
_cell_length_a   7.60507060
_cell_length_b   7.60507060
_cell_length_c   7.48457901
_cell_angle_alpha   62.52866857
_cell_angle_beta   62.52866857
_cell_angle_gamma   88.58411517
_symmetry_Int_Tables_number   1
_chemical_formula_structural   HoTl(WO4)2
_chemical_formula_sum   'Ho2 Tl2 W4 O16'
_cell_volume   330.89672245
_cell_formula_units_Z   2
loop_
 _symmetry_equiv_pos_site_id
 _symmetry_equiv_pos_as_xyz
  1  'x, y, z'
loop_
 _atom_site_type_symbol
 _atom_site_label
 _atom_site_symmetry_multiplicity
 _atom_site_fract_x
 _atom_site_fract_y
 _atom_site_fract_z
 _atom_site_occupancy
  Ho  Ho0  1  0.77590200  0.22409800  0.75000000  1
  Ho  Ho1  1  0.22409800  0.77590200  0.25000000  1
  Tl  Tl2  1  0.20315900  0.79684100  0.75000000  1
  Tl  Tl3  1  0.79684100  0.20315900  0.25000000  1
  W  W4  1  0.70094200  0.69032700  0.77971800  1
  W  W5  1  0.29905800  0.30967300  0.22028200  1
  W  W6  1  0.30967300  0.29905800  0.72028200  1
  W  W7  1  0.69032700  0.70094200  0.27971800  1
  O  O8  1  0.61898300  0.75791900  0.55749100  1
  O  O9  1  0.38101700  0.24208100  0.44250900  1
  O  O10  1  0.24208100  0.38101700  0.94250900  1
  O  O11  1  0.75791900  0.61898300  0.05749100  1
  O  O12  1  0.37599800  0.06221900  0.87909000  1
  O  O13  1  0.62400200  0.93778100  0.12091000  1
  O  O14  1  0.93778100  0.62400200  0.62091000  1
  O  O15  1  0.06221900  0.37599800  0.37909000  1
  O  O16  1  0.58929000  0.36968000  0.96545400  1
  O  O17  1  0.41071000  0.63032000  0.03454600  1
  O  O18  1  0.63032000  0.41071000  0.53454600  1
  O  O19  1  0.36968000  0.58929000  0.46545400  1
  O  O20  1  0.78561400  0.95582700  0.69068700  1
  O  O21  1  0.21438600  0.04417300  0.30931300  1
  O  O22  1  0.04417300  0.21438600  0.80931300  1
  O  O23  1  0.95582700  0.78561400  0.19068700  1
