# generated using pymatgen
data_Dy4CdPt
_symmetry_space_group_name_H-M   'P 1'
_cell_length_a   9.70413548
_cell_length_b   9.70413548
_cell_length_c   9.70413548
_cell_angle_alpha   60.00000000
_cell_angle_beta   60.00000000
_cell_angle_gamma   60.00000000
_symmetry_Int_Tables_number   1
_chemical_formula_structural   Dy4CdPt
_chemical_formula_sum   'Dy16 Cd4 Pt4'
_cell_volume   646.18303955
_cell_formula_units_Z   4
loop_
 _symmetry_equiv_pos_site_id
 _symmetry_equiv_pos_as_xyz
  1  'x, y, z'
loop_
 _atom_site_type_symbol
 _atom_site_label
 _atom_site_symmetry_multiplicity
 _atom_site_fract_x
 _atom_site_fract_y
 _atom_site_fract_z
 _atom_site_occupancy
  Dy  Dy0  1  0.35158600  0.35158600  0.35158600  1
  Dy  Dy1  1  0.35158600  0.35158600  0.94524300  1
  Dy  Dy2  1  0.35158600  0.94524300  0.35158600  1
  Dy  Dy3  1  0.94524300  0.35158600  0.35158600  1
  Dy  Dy4  1  0.81030600  0.18969400  0.18969400  1
  Dy  Dy5  1  0.18969400  0.81030600  0.81030600  1
  Dy  Dy6  1  0.18969400  0.81030600  0.18969400  1
  Dy  Dy7  1  0.81030600  0.18969400  0.81030600  1
  Dy  Dy8  1  0.18969400  0.18969400  0.81030600  1
  Dy  Dy9  1  0.81030600  0.81030600  0.18969400  1
  Dy  Dy10  1  0.93492400  0.56507600  0.56507600  1
  Dy  Dy11  1  0.56507600  0.93492400  0.93492400  1
  Dy  Dy12  1  0.56507600  0.93492400  0.56507600  1
  Dy  Dy13  1  0.93492400  0.56507500  0.93492400  1
  Dy  Dy14  1  0.56507600  0.56507600  0.93492400  1
  Dy  Dy15  1  0.93492400  0.93492400  0.56507500  1
  Cd  Cd16  1  0.58186100  0.58186100  0.58186100  1
  Cd  Cd17  1  0.58186100  0.58186100  0.25441600  1
  Cd  Cd18  1  0.58186100  0.25441600  0.58186100  1
  Cd  Cd19  1  0.25441600  0.58186100  0.58186100  1
  Pt  Pt20  1  0.14299600  0.14299600  0.14299600  1
  Pt  Pt21  1  0.14299600  0.14299600  0.57101300  1
  Pt  Pt22  1  0.14299600  0.57101300  0.14299600  1
  Pt  Pt23  1  0.57101300  0.14299600  0.14299600  1
