# generated using pymatgen
data_ErBrO
_symmetry_space_group_name_H-M   'P 1'
_cell_length_a   3.82204500
_cell_length_b   3.82204500
_cell_length_c   8.62345300
_cell_angle_alpha   90.00000000
_cell_angle_beta   90.00000000
_cell_angle_gamma   90.00000000
_symmetry_Int_Tables_number   1
_chemical_formula_structural   ErBrO
_chemical_formula_sum   'Er2 Br2 O2'
_cell_volume   125.97164273
_cell_formula_units_Z   2
loop_
 _symmetry_equiv_pos_site_id
 _symmetry_equiv_pos_as_xyz
  1  'x, y, z'
loop_
 _atom_site_type_symbol
 _atom_site_label
 _atom_site_symmetry_multiplicity
 _atom_site_fract_x
 _atom_site_fract_y
 _atom_site_fract_z
 _atom_site_occupancy
  Er  Er0  1  0.00000000  0.50000000  0.13006200  1
  Er  Er1  1  0.50000000  0.00000000  0.86993800  1
  Br  Br2  1  0.00000000  0.50000000  0.67441200  1
  Br  Br3  1  0.50000000  0.00000000  0.32558800  1
  O  O4  1  0.00000000  0.00000000  0.00000000  1
  O  O5  1  0.50000000  0.50000000  0.00000000  1
