# generated using pymatgen
data_La20Mn8Te7C12
_symmetry_space_group_name_H-M   'P 1'
_cell_length_a   11.57654150
_cell_length_b   11.57654150
_cell_length_c   11.57654150
_cell_angle_alpha   60.00000000
_cell_angle_beta   60.00000000
_cell_angle_gamma   60.00000000
_symmetry_Int_Tables_number   1
_chemical_formula_structural   La20Mn8Te7C12
_chemical_formula_sum   'La20 Mn8 Te7 C12'
_cell_volume   1097.03757133
_cell_formula_units_Z   1
loop_
 _symmetry_equiv_pos_site_id
 _symmetry_equiv_pos_as_xyz
  1  'x, y, z'
loop_
 _atom_site_type_symbol
 _atom_site_label
 _atom_site_symmetry_multiplicity
 _atom_site_fract_x
 _atom_site_fract_y
 _atom_site_fract_z
 _atom_site_occupancy
  La  La0  1  0.50000000  0.50000000  0.84152500  1
  La  La1  1  0.15847500  0.50000000  0.84152500  1
  La  La2  1  0.50000000  0.15847500  0.84152500  1
  La  La3  1  0.15847500  0.84152500  0.50000000  1
  La  La4  1  0.50000000  0.84152500  0.50000000  1
  La  La5  1  0.50000000  0.84152500  0.15847500  1
  La  La6  1  0.84152500  0.15847500  0.50000000  1
  La  La7  1  0.84152500  0.50000000  0.15847500  1
  La  La8  1  0.84152500  0.50000000  0.50000000  1
  La  La9  1  0.50000000  0.50000000  0.15847500  1
  La  La10  1  0.50000000  0.15847500  0.50000000  1
  La  La11  1  0.15847500  0.50000000  0.50000000  1
  La  La12  1  0.13547100  0.13547100  0.59358700  1
  La  La13  1  0.13547100  0.59358700  0.13547100  1
  La  La14  1  0.59358700  0.13547100  0.13547100  1
  La  La15  1  0.13547100  0.13547100  0.13547100  1
  La  La16  1  0.86452900  0.86452900  0.40641300  1
  La  La17  1  0.86452900  0.40641300  0.86452900  1
  La  La18  1  0.40641300  0.86452900  0.86452900  1
  La  La19  1  0.86452900  0.86452900  0.86452900  1
  Mn  Mn20  1  0.30369800  0.30369800  0.08890700  1
  Mn  Mn21  1  0.30369800  0.08890700  0.30369800  1
  Mn  Mn22  1  0.08890700  0.30369800  0.30369800  1
  Mn  Mn23  1  0.30369800  0.30369800  0.30369800  1
  Mn  Mn24  1  0.69630200  0.69630200  0.91109300  1
  Mn  Mn25  1  0.69630200  0.91109300  0.69630200  1
  Mn  Mn26  1  0.91109300  0.69630200  0.69630200  1
  Mn  Mn27  1  0.69630200  0.69630200  0.69630200  1
  Te  Te28  1  0.21410300  0.21410300  0.78589700  1
  Te  Te29  1  0.78589700  0.21410300  0.78589700  1
  Te  Te30  1  0.21410300  0.78589700  0.78589700  1
  Te  Te31  1  0.78589700  0.78589700  0.21410300  1
  Te  Te32  1  0.21410300  0.78589700  0.21410300  1
  Te  Te33  1  0.78589700  0.21410300  0.21410300  1
  Te  Te34  1  0.50000000  0.50000000  0.50000000  1
  C  C35  1  0.39428300  0.39428300  0.10571700  1
  C  C36  1  0.10571700  0.39428300  0.10571700  1
  C  C37  1  0.39428300  0.10571700  0.10571700  1
  C  C38  1  0.10571700  0.10571700  0.39428300  1
  C  C39  1  0.39428300  0.10571700  0.39428300  1
  C  C40  1  0.10571700  0.39428300  0.39428300  1
  C  C41  1  0.60571700  0.60571700  0.89428300  1
  C  C42  1  0.89428300  0.60571700  0.89428300  1
  C  C43  1  0.60571700  0.89428300  0.89428300  1
  C  C44  1  0.89428300  0.89428300  0.60571700  1
  C  C45  1  0.60571700  0.89428300  0.60571700  1
  C  C46  1  0.89428300  0.60571700  0.60571700  1
