# generated using pymatgen
data_CsVP3HO10
_symmetry_space_group_name_H-M   'P 1'
_cell_length_a   8.87119702
_cell_length_b   9.21705287
_cell_length_c   12.31539665
_cell_angle_alpha   69.04856279
_cell_angle_beta   89.99398037
_cell_angle_gamma   90.00321420
_symmetry_Int_Tables_number   1
_chemical_formula_structural   CsVP3HO10
_chemical_formula_sum   'Cs4 V4 P12 H4 O40'
_cell_volume   940.40636834
_cell_formula_units_Z   4
loop_
 _symmetry_equiv_pos_site_id
 _symmetry_equiv_pos_as_xyz
  1  'x, y, z'
loop_
 _atom_site_type_symbol
 _atom_site_label
 _atom_site_symmetry_multiplicity
 _atom_site_fract_x
 _atom_site_fract_y
 _atom_site_fract_z
 _atom_site_occupancy
  Cs  Cs0  1  0.56409500  0.24991500  0.50006000  1
  Cs  Cs1  1  0.06401600  0.24992400  0.00001200  1
  Cs  Cs2  1  0.43602800  0.75006800  0.49999800  1
  Cs  Cs3  1  0.93595000  0.75006800  0.99990700  1
  V  V4  1  0.75003300  0.50000800  0.74997700  1
  V  V5  1  0.74995000  0.00004600  0.25000900  1
  V  V6  1  0.25006100  0.50007600  0.25006300  1
  V  V7  1  0.25003100  0.00018200  0.75004300  1
  P  P8  1  0.12405300  0.24985700  0.49998300  1
  P  P9  1  0.62413700  0.24996000  0.99993100  1
  P  P10  1  0.87588100  0.75004700  0.50006400  1
  P  P11  1  0.37597900  0.75002100  0.00000600  1
  P  P12  1  0.93970500  0.20011700  0.70734800  1
  P  P13  1  0.43978500  0.20008700  0.20731100  1
  P  P14  1  0.93970000  0.29976300  0.29258600  1
  P  P15  1  0.43972900  0.29998400  0.79262700  1
  P  P16  1  0.06012700  0.79989600  0.29263400  1
  P  P17  1  0.56024600  0.79997700  0.79259900  1
  P  P18  1  0.06035600  0.70012100  0.70741600  1
  P  P19  1  0.56034100  0.70021900  0.20735100  1
  H  H20  1  0.24993800  0.99980200  0.25005800  1
  H  H21  1  0.75007400  0.00003300  0.74997600  1
  H  H22  1  0.75006200  0.49997900  0.24999400  1
  H  H23  1  0.24997900  0.50008100  0.74995800  1
  O  O24  1  0.01384200  0.19661400  0.41770900  1
  O  O25  1  0.51391300  0.19673300  0.91766700  1
  O  O26  1  0.01392100  0.30324100  0.58227300  1
  O  O27  1  0.51405500  0.30327800  0.08229100  1
  O  O28  1  0.98612600  0.80323500  0.58235100  1
  O  O29  1  0.48616400  0.80335200  0.08228000  1
  O  O30  1  0.98600800  0.69673900  0.41772900  1
  O  O31  1  0.48612000  0.69670700  0.91768600  1
  O  O32  1  0.81820000  0.10213900  0.67741400  1
  O  O33  1  0.31833300  0.10202100  0.17743200  1
  O  O34  1  0.81796300  0.39753100  0.32247200  1
  O  O35  1  0.31818700  0.39789100  0.82259200  1
  O  O36  1  0.18161500  0.89799300  0.32252400  1
  O  O37  1  0.68183200  0.89783700  0.82253800  1
  O  O38  1  0.18176200  0.60203400  0.67744000  1
  O  O39  1  0.68205000  0.60241500  0.17750300  1
  O  O40  1  0.87809100  0.31595500  0.75791300  1
  O  O41  1  0.37815500  0.31584600  0.25787900  1
  O  O42  1  0.87826100  0.18387600  0.24199100  1
  O  O43  1  0.37807800  0.18422800  0.74208200  1
  O  O44  1  0.12179400  0.68413300  0.24206600  1
  O  O45  1  0.62182200  0.68415800  0.74201900  1
  O  O46  1  0.12201300  0.81591000  0.75793200  1
  O  O47  1  0.62164400  0.81599200  0.25808300  1
  O  O48  1  0.21289400  0.39148200  0.42834100  1
  O  O49  1  0.71286300  0.39166200  0.92825000  1
  O  O50  1  0.21291200  0.10841700  0.57165900  1
  O  O51  1  0.71297900  0.10845100  0.07144200  1
  O  O52  1  0.78708900  0.60835700  0.57167700  1
  O  O53  1  0.28712500  0.60845700  0.07176600  1
  O  O54  1  0.78698000  0.89150600  0.42854000  1
  O  O55  1  0.28710100  0.89149600  0.92842200  1
  O  O56  1  0.06523900  0.39717600  0.21385400  1
  O  O57  1  0.56519300  0.39726600  0.71363800  1
  O  O58  1  0.06508300  0.10277600  0.78626000  1
  O  O59  1  0.56523900  0.10278200  0.28624800  1
  O  O60  1  0.93479900  0.60275300  0.78623800  1
  O  O61  1  0.43492400  0.60276700  0.28623000  1
  O  O62  1  0.93457400  0.89724200  0.21386000  1
  O  O63  1  0.43480100  0.89732400  0.71380000  1
