# generated using pymatgen
data_Pr3Sc2(FeO4)3
_symmetry_space_group_name_H-M   'P 1'
_cell_length_a   11.21885508
_cell_length_b   11.21885508
_cell_length_c   11.21885508
_cell_angle_alpha   109.47122063
_cell_angle_beta   109.47122063
_cell_angle_gamma   109.47122063
_symmetry_Int_Tables_number   1
_chemical_formula_structural   Pr3Sc2(FeO4)3
_chemical_formula_sum   'Pr12 Sc8 Fe12 O48'
_cell_volume   1086.98543116
_cell_formula_units_Z   4
loop_
 _symmetry_equiv_pos_site_id
 _symmetry_equiv_pos_as_xyz
  1  'x, y, z'
loop_
 _atom_site_type_symbol
 _atom_site_label
 _atom_site_symmetry_multiplicity
 _atom_site_fract_x
 _atom_site_fract_y
 _atom_site_fract_z
 _atom_site_occupancy
  Pr  Pr0  1  0.25000000  0.37500000  0.12500000  1
  Pr  Pr1  1  0.75000000  0.62500000  0.87500000  1
  Pr  Pr2  1  0.75000000  0.12500000  0.37500000  1
  Pr  Pr3  1  0.12500000  0.25000000  0.37500000  1
  Pr  Pr4  1  0.37500000  0.75000000  0.12500000  1
  Pr  Pr5  1  0.25000000  0.87500000  0.62500000  1
  Pr  Pr6  1  0.87500000  0.75000000  0.62500000  1
  Pr  Pr7  1  0.62500000  0.25000000  0.87500000  1
  Pr  Pr8  1  0.37500000  0.12500000  0.25000000  1
  Pr  Pr9  1  0.62500000  0.87500000  0.75000000  1
  Pr  Pr10  1  0.12500000  0.37500000  0.75000000  1
  Pr  Pr11  1  0.87500000  0.62500000  0.25000000  1
  Sc  Sc12  1  0.00000000  0.00000000  0.00000000  1
  Sc  Sc13  1  0.50000000  0.00000000  0.50000000  1
  Sc  Sc14  1  0.00000000  0.50000000  0.50000000  1
  Sc  Sc15  1  0.50000000  0.00000000  0.00000000  1
  Sc  Sc16  1  0.50000000  0.50000000  0.00000000  1
  Sc  Sc17  1  0.50000000  0.50000000  0.50000000  1
  Sc  Sc18  1  0.00000000  0.00000000  0.50000000  1
  Sc  Sc19  1  0.00000000  0.50000000  0.00000000  1
  Fe  Fe20  1  0.25000000  0.62500000  0.37500000  1
  Fe  Fe21  1  0.75000000  0.37500000  0.62500000  1
  Fe  Fe22  1  0.75000000  0.87500000  0.12500000  1
  Fe  Fe23  1  0.37500000  0.25000000  0.62500000  1
  Fe  Fe24  1  0.62500000  0.75000000  0.37500000  1
  Fe  Fe25  1  0.25000000  0.12500000  0.87500000  1
  Fe  Fe26  1  0.12500000  0.75000000  0.87500000  1
  Fe  Fe27  1  0.87500000  0.25000000  0.12500000  1
  Fe  Fe28  1  0.62500000  0.37500000  0.25000000  1
  Fe  Fe29  1  0.37500000  0.62500000  0.75000000  1
  Fe  Fe30  1  0.87500000  0.12500000  0.75000000  1
  Fe  Fe31  1  0.12500000  0.87500000  0.25000000  1
  O  O32  1  0.47414000  0.37730200  0.29237800  1
  O  O33  1  0.52586000  0.62269800  0.70762200  1
  O  O34  1  0.58492400  0.18176300  0.20762200  1
  O  O35  1  0.91507600  0.12269800  0.59683900  1
  O  O36  1  0.29237800  0.47414000  0.37730200  1
  O  O37  1  0.31823700  0.91507600  0.29237800  1
  O  O38  1  0.41507600  0.81823700  0.79237800  1
  O  O39  1  0.08492400  0.87730200  0.40316100  1
  O  O40  1  0.70762200  0.52586000  0.62269800  1
  O  O41  1  0.68176300  0.08492400  0.70762200  1
  O  O42  1  0.02586000  0.31823700  0.90316100  1
  O  O43  1  0.20762200  0.58492400  0.18176300  1
  O  O44  1  0.12269800  0.02586000  0.20762200  1
  O  O45  1  0.97414000  0.68176300  0.09683900  1
  O  O46  1  0.79237800  0.41507600  0.81823700  1
  O  O47  1  0.87730200  0.97414000  0.79237800  1
  O  O48  1  0.59683900  0.91507600  0.12269800  1
  O  O49  1  0.18176300  0.47414000  0.59683900  1
  O  O50  1  0.40316100  0.08492400  0.87730200  1
  O  O51  1  0.81823700  0.52586000  0.40316100  1
  O  O52  1  0.90316100  0.02586000  0.31823700  1
  O  O53  1  0.37730200  0.58492400  0.90316100  1
  O  O54  1  0.09683900  0.97414000  0.68176300  1
  O  O55  1  0.62269800  0.41507600  0.09683900  1
  O  O56  1  0.37730200  0.29237800  0.47414000  1
  O  O57  1  0.58492400  0.90316100  0.37730200  1
  O  O58  1  0.62269800  0.70762200  0.52586000  1
  O  O59  1  0.41507600  0.09683900  0.62269800  1
  O  O60  1  0.12269800  0.59683900  0.91507600  1
  O  O61  1  0.02586000  0.20762200  0.12269800  1
  O  O62  1  0.87730200  0.40316100  0.08492400  1
  O  O63  1  0.97414000  0.79237800  0.87730200  1
  O  O64  1  0.31823700  0.90316100  0.02586000  1
  O  O65  1  0.91507600  0.29237800  0.31823700  1
  O  O66  1  0.68176300  0.09683900  0.97414000  1
  O  O67  1  0.08492400  0.70762200  0.68176300  1
  O  O68  1  0.18176300  0.20762200  0.58492400  1
  O  O69  1  0.47414000  0.59683900  0.18176300  1
  O  O70  1  0.81823700  0.79237800  0.41507600  1
  O  O71  1  0.52586000  0.40316100  0.81823700  1
  O  O72  1  0.29237800  0.31823700  0.91507600  1
  O  O73  1  0.70762200  0.68176300  0.08492400  1
  O  O74  1  0.20762200  0.12269800  0.02586000  1
  O  O75  1  0.79237800  0.87730200  0.97414000  1
  O  O76  1  0.90316100  0.37730200  0.58492400  1
  O  O77  1  0.09683900  0.62269800  0.41507600  1
  O  O78  1  0.59683900  0.18176300  0.47414000  1
  O  O79  1  0.40316100  0.81823700  0.52586000  1
