# generated using pymatgen
data_Y8In3Co
_symmetry_space_group_name_H-M   'P 1'
_cell_length_a   10.37847835
_cell_length_b   10.37847835
_cell_length_c   7.05831000
_cell_angle_alpha   90.00000000
_cell_angle_beta   90.00000000
_cell_angle_gamma   120.00000220
_symmetry_Int_Tables_number   1
_chemical_formula_structural   Y8In3Co
_chemical_formula_sum   'Y16 In6 Co2'
_cell_volume   658.41348591
_cell_formula_units_Z   2
loop_
 _symmetry_equiv_pos_site_id
 _symmetry_equiv_pos_as_xyz
  1  'x, y, z'
loop_
 _atom_site_type_symbol
 _atom_site_label
 _atom_site_symmetry_multiplicity
 _atom_site_fract_x
 _atom_site_fract_y
 _atom_site_fract_z
 _atom_site_occupancy
  Y  Y0  1  0.46430900  0.53569100  0.48234200  1
  Y  Y1  1  0.07138200  0.53569100  0.48234200  1
  Y  Y2  1  0.46430900  0.92861800  0.48234200  1
  Y  Y3  1  0.53569100  0.46430900  0.98234200  1
  Y  Y4  1  0.92861800  0.46430900  0.98234200  1
  Y  Y5  1  0.53569100  0.07138200  0.98234200  1
  Y  Y6  1  0.82241600  0.17758400  0.27549900  1
  Y  Y7  1  0.35516800  0.17758400  0.27549900  1
  Y  Y8  1  0.82241600  0.64483200  0.27549900  1
  Y  Y9  1  0.17758400  0.82241600  0.77549900  1
  Y  Y10  1  0.64483200  0.82241600  0.77549900  1
  Y  Y11  1  0.17758400  0.35516800  0.77549900  1
  Y  Y12  1  0.33333300  0.66666700  0.09069800  1
  Y  Y13  1  0.66666700  0.33333300  0.59069800  1
  Y  Y14  1  0.00000000  0.00000000  0.49736500  1
  Y  Y15  1  0.00000000  0.00000000  0.99736500  1
  In  In16  1  0.16349200  0.83650800  0.23423700  1
  In  In17  1  0.67301600  0.83650800  0.23423700  1
  In  In18  1  0.16349200  0.32698400  0.23423700  1
  In  In19  1  0.83650800  0.16349200  0.73423700  1
  In  In20  1  0.32698400  0.16349200  0.73423700  1
  In  In21  1  0.83650800  0.67301600  0.73423700  1
  Co  Co22  1  0.33333300  0.66666700  0.70798000  1
  Co  Co23  1  0.66666700  0.33333300  0.20798000  1
