# generated using pymatgen
data_Tb20In40Rh19
_symmetry_space_group_name_H-M   'P 1'
_cell_length_a   13.61223400
_cell_length_b   13.61223400
_cell_length_c   9.43492300
_cell_angle_alpha   90.00000000
_cell_angle_beta   90.00000000
_cell_angle_gamma   90.00000000
_symmetry_Int_Tables_number   1
_chemical_formula_structural   Tb20In40Rh19
_chemical_formula_sum   'Tb20 In40 Rh19'
_cell_volume   1748.22438048
_cell_formula_units_Z   1
loop_
 _symmetry_equiv_pos_site_id
 _symmetry_equiv_pos_as_xyz
  1  'x, y, z'
loop_
 _atom_site_type_symbol
 _atom_site_label
 _atom_site_symmetry_multiplicity
 _atom_site_fract_x
 _atom_site_fract_y
 _atom_site_fract_z
 _atom_site_occupancy
  Tb  Tb0  1  0.70412400  0.79864600  0.26464500  1
  Tb  Tb1  1  0.29587600  0.79864600  0.26464500  1
  Tb  Tb2  1  0.70412400  0.20135400  0.26464500  1
  Tb  Tb3  1  0.29587600  0.20135400  0.26464500  1
  Tb  Tb4  1  0.79864600  0.70412400  0.73535500  1
  Tb  Tb5  1  0.20135400  0.70412400  0.73535500  1
  Tb  Tb6  1  0.79864600  0.29587600  0.73535500  1
  Tb  Tb7  1  0.20135400  0.29587600  0.73535500  1
  Tb  Tb8  1  0.50000000  0.00000000  0.35725400  1
  Tb  Tb9  1  0.00000000  0.50000000  0.64274600  1
  Tb  Tb10  1  0.77517600  0.00000000  0.76967200  1
  Tb  Tb11  1  0.22482400  0.00000000  0.76967200  1
  Tb  Tb12  1  0.50000000  0.72201500  0.76617800  1
  Tb  Tb13  1  0.50000000  0.27798500  0.76617800  1
  Tb  Tb14  1  0.72201500  0.50000000  0.23382200  1
  Tb  Tb15  1  0.27798500  0.50000000  0.23382200  1
  Tb  Tb16  1  0.00000000  0.77517600  0.23032800  1
  Tb  Tb17  1  0.00000000  0.22482400  0.23032800  1
  Tb  Tb18  1  0.50000000  0.00000000  0.85141600  1
  Tb  Tb19  1  0.00000000  0.50000000  0.14858400  1
  In  In20  1  0.11372800  0.00000000  0.23715800  1
  In  In21  1  0.88627200  0.00000000  0.23715800  1
  In  In22  1  0.50000000  0.38544100  0.23905400  1
  In  In23  1  0.50000000  0.61455900  0.23905400  1
  In  In24  1  0.38544100  0.50000000  0.76094600  1
  In  In25  1  0.61455900  0.50000000  0.76094600  1
  In  In26  1  0.00000000  0.11372800  0.76284200  1
  In  In27  1  0.00000000  0.88627200  0.76284200  1
  In  In28  1  0.63985100  0.63985100  0.50000000  1
  In  In29  1  0.36014900  0.63985100  0.50000000  1
  In  In30  1  0.63985100  0.36014900  0.50000000  1
  In  In31  1  0.36014900  0.36014900  0.50000000  1
  In  In32  1  0.86906600  0.86906600  0.50000000  1
  In  In33  1  0.13093400  0.86906600  0.50000000  1
  In  In34  1  0.86906600  0.13093400  0.50000000  1
  In  In35  1  0.13093400  0.13093400  0.50000000  1
  In  In36  1  0.62936900  0.87062500  0.59480100  1
  In  In37  1  0.37063100  0.87062500  0.59480100  1
  In  In38  1  0.62936900  0.12937500  0.59480100  1
  In  In39  1  0.37063100  0.12937500  0.59480100  1
  In  In40  1  0.87062500  0.62936900  0.40519900  1
  In  In41  1  0.12937500  0.62936900  0.40519900  1
  In  In42  1  0.87062500  0.37063100  0.40519900  1
  In  In43  1  0.12937500  0.37063100  0.40519900  1
  In  In44  1  0.15113800  0.15113800  0.00000000  1
  In  In45  1  0.84886200  0.15113800  0.00000000  1
  In  In46  1  0.15113800  0.84886200  0.00000000  1
  In  In47  1  0.84886200  0.84886200  0.00000000  1
  In  In48  1  0.34920400  0.34920400  0.00000000  1
  In  In49  1  0.65079600  0.34920400  0.00000000  1
  In  In50  1  0.34920400  0.65079600  0.00000000  1
  In  In51  1  0.65079600  0.65079600  0.00000000  1
  In  In52  1  0.33057700  0.00000000  0.09918800  1
  In  In53  1  0.66942300  0.00000000  0.09918800  1
  In  In54  1  0.50000000  0.16981600  0.09922500  1
  In  In55  1  0.50000000  0.83018400  0.09922500  1
  In  In56  1  0.16981600  0.50000000  0.90077500  1
  In  In57  1  0.83018400  0.50000000  0.90077500  1
  In  In58  1  0.00000000  0.33057700  0.90081200  1
  In  In59  1  0.00000000  0.66942300  0.90081200  1
  Rh  Rh60  1  0.27591900  0.00000000  0.40814000  1
  Rh  Rh61  1  0.72408100  0.00000000  0.40814000  1
  Rh  Rh62  1  0.50000000  0.22168500  0.40742300  1
  Rh  Rh63  1  0.50000000  0.77831500  0.40742300  1
  Rh  Rh64  1  0.22168500  0.50000000  0.59257700  1
  Rh  Rh65  1  0.77831500  0.50000000  0.59257700  1
  Rh  Rh66  1  0.00000000  0.27591900  0.59186000  1
  Rh  Rh67  1  0.00000000  0.72408100  0.59186000  1
  Rh  Rh68  1  0.84518400  0.65401300  0.10423300  1
  Rh  Rh69  1  0.15481600  0.65401300  0.10423300  1
  Rh  Rh70  1  0.84518400  0.34598700  0.10423300  1
  Rh  Rh71  1  0.15481600  0.34598700  0.10423300  1
  Rh  Rh72  1  0.65401300  0.84518400  0.89576700  1
  Rh  Rh73  1  0.34598700  0.84518400  0.89576700  1
  Rh  Rh74  1  0.65401300  0.15481600  0.89576700  1
  Rh  Rh75  1  0.34598700  0.15481600  0.89576700  1
  Rh  Rh76  1  0.00000000  0.00000000  0.00000000  1
  Rh  Rh77  1  0.50000000  0.50000000  0.00000000  1
  Rh  Rh78  1  0.50000000  0.50000000  0.50000000  1
