# generated using pymatgen
data_InH12(NF2)3
_symmetry_space_group_name_H-M   'P 1'
_cell_length_a   6.55179900
_cell_length_b   11.63995100
_cell_length_c   11.66419847
_cell_angle_alpha   68.74334966
_cell_angle_beta   90.00000000
_cell_angle_gamma   90.00000000
_symmetry_Int_Tables_number   1
_chemical_formula_structural   InH12(NF2)3
_chemical_formula_sum   'In4 H48 N12 F24'
_cell_volume   829.02302253
_cell_formula_units_Z   4
loop_
 _symmetry_equiv_pos_site_id
 _symmetry_equiv_pos_as_xyz
  1  'x, y, z'
loop_
 _atom_site_type_symbol
 _atom_site_label
 _atom_site_symmetry_multiplicity
 _atom_site_fract_x
 _atom_site_fract_y
 _atom_site_fract_z
 _atom_site_occupancy
  In  In0  1  0.00000000  0.50000000  0.50000000  1
  In  In1  1  0.50000000  0.50000000  0.00000000  1
  In  In2  1  0.00000000  0.00000000  0.00000000  1
  In  In3  1  0.50000000  0.00000000  0.50000000  1
  H  H4  1  0.14111700  0.84292000  0.44641000  1
  H  H5  1  0.64111700  0.15708000  0.05359000  1
  H  H6  1  0.85888300  0.15708000  0.55359000  1
  H  H7  1  0.35888300  0.84292000  0.94641000  1
  H  H8  1  0.89731000  0.87941600  0.45490700  1
  H  H9  1  0.39731000  0.12058400  0.04509300  1
  H  H10  1  0.10269000  0.12058400  0.54509300  1
  H  H11  1  0.60269000  0.87941600  0.95490700  1
  H  H12  1  0.95846900  0.78346000  0.37909300  1
  H  H13  1  0.45846900  0.21654000  0.12090700  1
  H  H14  1  0.04153100  0.21654000  0.62090700  1
  H  H15  1  0.54153100  0.78346000  0.87909300  1
  H  H16  1  0.02222100  0.93520700  0.31474300  1
  H  H17  1  0.52222100  0.06479300  0.18525700  1
  H  H18  1  0.97777900  0.06479300  0.68525700  1
  H  H19  1  0.47777900  0.93520700  0.81474300  1
  H  H20  1  0.49556400  0.53878500  0.72443400  1
  H  H21  1  0.99556400  0.46121500  0.77556600  1
  H  H22  1  0.50443600  0.46121500  0.27556600  1
  H  H23  1  0.00443600  0.53878500  0.22443400  1
  H  H24  1  0.68763400  0.60972500  0.62937100  1
  H  H25  1  0.18763400  0.39027500  0.87062900  1
  H  H26  1  0.31236600  0.39027500  0.37062900  1
  H  H27  1  0.81236600  0.60972500  0.12937100  1
  H  H28  1  0.45778800  0.58882100  0.56903600  1
  H  H29  1  0.95778800  0.41117900  0.93096400  1
  H  H30  1  0.54221200  0.41117900  0.43096400  1
  H  H31  1  0.04221200  0.58882100  0.06903600  1
  H  H32  1  0.47567800  0.69189700  0.63781100  1
  H  H33  1  0.97567800  0.30810300  0.86218900  1
  H  H34  1  0.52432200  0.30810300  0.36218900  1
  H  H35  1  0.02432200  0.69189700  0.13781100  1
  H  H36  1  0.40661300  0.69516600  0.32954900  1
  H  H37  1  0.90661300  0.30483400  0.17045100  1
  H  H38  1  0.59338700  0.30483400  0.67045100  1
  H  H39  1  0.09338700  0.69516600  0.82954900  1
  H  H40  1  0.50250300  0.84131500  0.28721800  1
  H  H41  1  0.00250300  0.15868500  0.21278200  1
  H  H42  1  0.49749700  0.15868500  0.71278200  1
  H  H43  1  0.99749700  0.84131500  0.78721800  1
  H  H44  1  0.37967900  0.79567800  0.18170900  1
  H  H45  1  0.87967900  0.20432200  0.31829100  1
  H  H46  1  0.62032100  0.20432200  0.81829100  1
  H  H47  1  0.12032100  0.79567800  0.68170900  1
  H  H48  1  0.61258900  0.73911500  0.23633800  1
  H  H49  1  0.11258900  0.26088500  0.26366200  1
  H  H50  1  0.38741100  0.26088500  0.76366200  1
  H  H51  1  0.88741100  0.73911500  0.73633800  1
  N  N52  1  0.00558400  0.86082700  0.39757700  1
  N  N53  1  0.50558400  0.13917300  0.10242300  1
  N  N54  1  0.99441600  0.13917300  0.60242300  1
  N  N55  1  0.49441600  0.86082700  0.89757700  1
  N  N56  1  0.52953400  0.60751800  0.64014400  1
  N  N57  1  0.02953400  0.39248200  0.85985600  1
  N  N58  1  0.47046600  0.39248200  0.35985600  1
  N  N59  1  0.97046600  0.60751800  0.14014400  1
  N  N60  1  0.47526900  0.76754300  0.25851200  1
  N  N61  1  0.97526900  0.23245700  0.24148800  1
  N  N62  1  0.52473100  0.23245700  0.74148800  1
  N  N63  1  0.02473100  0.76754300  0.75851200  1
  F  F64  1  0.13892700  0.34833100  0.63609600  1
  F  F65  1  0.63892700  0.65166900  0.86390400  1
  F  F66  1  0.86107300  0.65166900  0.36390400  1
  F  F67  1  0.36107300  0.34833100  0.13609600  1
  F  F68  1  0.05011600  0.41711200  0.36718700  1
  F  F69  1  0.55011600  0.58288800  0.13281300  1
  F  F70  1  0.94988400  0.58288800  0.63281300  1
  F  F71  1  0.44988400  0.41711200  0.86718700  1
  F  F72  1  0.71105900  0.41217600  0.54978900  1
  F  F73  1  0.21105900  0.58782400  0.95021100  1
  F  F74  1  0.28894100  0.58782400  0.45021100  1
  F  F75  1  0.78894100  0.41217600  0.04978900  1
  F  F76  1  0.18048800  0.83570300  0.07306800  1
  F  F77  1  0.68048800  0.16429700  0.42693200  1
  F  F78  1  0.81951200  0.16429700  0.92693200  1
  F  F79  1  0.31951200  0.83570300  0.57306800  1
  F  F80  1  0.26030700  0.10356400  0.93055000  1
  F  F81  1  0.76030700  0.89643600  0.56945000  1
  F  F82  1  0.73969300  0.89643600  0.06945000  1
  F  F83  1  0.23969300  0.10356400  0.43055000  1
  F  F84  1  0.95810400  0.96227200  0.83527900  1
  F  F85  1  0.45810400  0.03772800  0.66472100  1
  F  F86  1  0.04189600  0.03772800  0.16472100  1
  F  F87  1  0.54189600  0.96227200  0.33527900  1
