# generated using pymatgen
data_Ca5P12Rh19
_symmetry_space_group_name_H-M   'P 1'
_cell_length_a   12.71013183
_cell_length_b   12.71013183
_cell_length_c   3.93527800
_cell_angle_alpha   90.00000000
_cell_angle_beta   90.00000000
_cell_angle_gamma   119.99999911
_symmetry_Int_Tables_number   1
_chemical_formula_structural   Ca5P12Rh19
_chemical_formula_sum   'Ca5 P12 Rh19'
_cell_volume   550.56191184
_cell_formula_units_Z   1
loop_
 _symmetry_equiv_pos_site_id
 _symmetry_equiv_pos_as_xyz
  1  'x, y, z'
loop_
 _atom_site_type_symbol
 _atom_site_label
 _atom_site_symmetry_multiplicity
 _atom_site_fract_x
 _atom_site_fract_y
 _atom_site_fract_z
 _atom_site_occupancy
  Ca  Ca0  1  0.00000000  0.18401800  0.50000000  1
  Ca  Ca1  1  0.81598200  0.81598200  0.50000000  1
  Ca  Ca2  1  0.18401800  0.00000000  0.50000000  1
  Ca  Ca3  1  0.66666700  0.33333300  0.00000000  1
  Ca  Ca4  1  0.33333300  0.66666700  0.00000000  1
  P  P5  1  0.48187000  0.31392500  0.50000000  1
  P  P6  1  0.81896600  0.00000000  0.00000000  1
  P  P7  1  0.18103400  0.18103400  0.00000000  1
  P  P8  1  0.00000000  0.81896600  0.00000000  1
  P  P9  1  0.36599400  0.00000000  0.00000000  1
  P  P10  1  0.68607500  0.16794500  0.50000000  1
  P  P11  1  0.83205500  0.51813000  0.50000000  1
  P  P12  1  0.51813000  0.83205500  0.50000000  1
  P  P13  1  0.16794500  0.68607500  0.50000000  1
  P  P14  1  0.31392500  0.48187000  0.50000000  1
  P  P15  1  0.00000000  0.36599400  0.00000000  1
  P  P16  1  0.63400600  0.63400600  0.00000000  1
  Rh  Rh17  1  0.80416400  0.18066300  0.00000000  1
  Rh  Rh18  1  0.37649900  0.19583600  0.00000000  1
  Rh  Rh19  1  0.64096800  0.51147100  0.50000000  1
  Rh  Rh20  1  0.87050300  0.35903200  0.50000000  1
  Rh  Rh21  1  0.35903200  0.87050300  0.50000000  1
  Rh  Rh22  1  0.51147100  0.64096800  0.50000000  1
  Rh  Rh23  1  0.12949700  0.48852900  0.50000000  1
  Rh  Rh24  1  0.81933700  0.62350100  0.00000000  1
  Rh  Rh25  1  0.62350100  0.81933700  0.00000000  1
  Rh  Rh26  1  0.18066300  0.80416400  0.00000000  1
  Rh  Rh27  1  0.19583600  0.37649900  0.00000000  1
  Rh  Rh28  1  0.00000000  0.71627600  0.50000000  1
  Rh  Rh29  1  0.28372400  0.28372400  0.50000000  1
  Rh  Rh30  1  0.71627600  0.00000000  0.50000000  1
  Rh  Rh31  1  0.00000000  0.54630200  0.00000000  1
  Rh  Rh32  1  0.45369800  0.45369800  0.00000000  1
  Rh  Rh33  1  0.54630200  0.00000000  0.00000000  1
  Rh  Rh34  1  0.00000000  0.00000000  0.00000000  1
  Rh  Rh35  1  0.48852900  0.12949700  0.50000000  1
