# generated using pymatgen
data_UTl4C3O11
_symmetry_space_group_name_H-M   'P 1'
_cell_length_a   7.23969426
_cell_length_b   7.23969426
_cell_length_c   13.06352216
_cell_angle_alpha   86.63191110
_cell_angle_beta   86.63191110
_cell_angle_gamma   82.16644339
_symmetry_Int_Tables_number   1
_chemical_formula_structural   UTl4C3O11
_chemical_formula_sum   'U2 Tl8 C6 O22'
_cell_volume   676.24757315
_cell_formula_units_Z   2
loop_
 _symmetry_equiv_pos_site_id
 _symmetry_equiv_pos_as_xyz
  1  'x, y, z'
loop_
 _atom_site_type_symbol
 _atom_site_label
 _atom_site_symmetry_multiplicity
 _atom_site_fract_x
 _atom_site_fract_y
 _atom_site_fract_z
 _atom_site_occupancy
  U  U0  1  0.79876000  0.20124000  0.75000000  1
  U  U1  1  0.20124000  0.79876000  0.25000000  1
  Tl  Tl2  1  0.32961100  0.04289800  0.64940400  1
  Tl  Tl3  1  0.95710200  0.67038900  0.85059600  1
  Tl  Tl4  1  0.41419300  0.79901900  0.94622600  1
  Tl  Tl5  1  0.20098100  0.58580700  0.55377400  1
  Tl  Tl6  1  0.58580700  0.20098100  0.05377400  1
  Tl  Tl7  1  0.79901900  0.41419300  0.44622600  1
  Tl  Tl8  1  0.04289800  0.32961100  0.14940400  1
  Tl  Tl9  1  0.67038900  0.95710200  0.35059600  1
  C  C10  1  0.84097000  0.93178000  0.59032700  1
  C  C11  1  0.15903000  0.06822000  0.40967300  1
  C  C12  1  0.93178000  0.84097000  0.09032700  1
  C  C13  1  0.06822000  0.15903000  0.90967300  1
  C  C14  1  0.50494400  0.49505600  0.25000000  1
  C  C15  1  0.49505600  0.50494400  0.75000000  1
  O  O16  1  0.85018800  0.80659600  0.52587000  1
  O  O17  1  0.19340400  0.14981200  0.97413000  1
  O  O18  1  0.63855000  0.36145000  0.25000000  1
  O  O19  1  0.36145000  0.63855000  0.75000000  1
  O  O20  1  0.80659600  0.85018800  0.02587000  1
  O  O21  1  0.14981200  0.19340400  0.47413000  1
  O  O22  1  0.95305200  0.35369000  0.67925600  1
  O  O23  1  0.35369000  0.95305200  0.17925600  1
  O  O24  1  0.64631000  0.04694800  0.82074400  1
  O  O25  1  0.04694800  0.64631000  0.32074400  1
  O  O26  1  0.61710900  0.47670700  0.82201300  1
  O  O27  1  0.52329300  0.38289100  0.67798700  1
  O  O28  1  0.38289100  0.52329300  0.17798700  1
  O  O29  1  0.47670700  0.61710900  0.32201300  1
  O  O30  1  0.91631300  0.28222300  0.91246100  1
  O  O31  1  0.71777700  0.08368700  0.58753900  1
  O  O32  1  0.08368700  0.71777700  0.08753900  1
  O  O33  1  0.28222300  0.91631300  0.41246100  1
  O  O34  1  0.07886500  0.04592400  0.83348700  1
  O  O35  1  0.95407600  0.92113500  0.66651300  1
  O  O36  1  0.92113500  0.95407600  0.16651300  1
  O  O37  1  0.04592400  0.07886500  0.33348700  1
