# generated using pymatgen
data_Zr6Be15Co8
_symmetry_space_group_name_H-M   'P 1'
_cell_length_a   7.78099453
_cell_length_b   7.78099453
_cell_length_c   7.78099453
_cell_angle_alpha   60.00000000
_cell_angle_beta   60.00000000
_cell_angle_gamma   60.00000000
_symmetry_Int_Tables_number   1
_chemical_formula_structural   Zr6Be15Co8
_chemical_formula_sum   'Zr6 Be15 Co8'
_cell_volume   333.11204223
_cell_formula_units_Z   1
loop_
 _symmetry_equiv_pos_site_id
 _symmetry_equiv_pos_as_xyz
  1  'x, y, z'
loop_
 _atom_site_type_symbol
 _atom_site_label
 _atom_site_symmetry_multiplicity
 _atom_site_fract_x
 _atom_site_fract_y
 _atom_site_fract_z
 _atom_site_occupancy
  Zr  Zr0  1  0.71199900  0.28800100  0.28800100  1
  Zr  Zr1  1  0.28800100  0.71199900  0.71199900  1
  Zr  Zr2  1  0.28800100  0.71199900  0.28800100  1
  Zr  Zr3  1  0.71199900  0.28800100  0.71199900  1
  Zr  Zr4  1  0.28800100  0.28800100  0.71199900  1
  Zr  Zr5  1  0.71199900  0.71199900  0.28800100  1
  Be  Be6  1  0.32125400  0.32125400  0.32125400  1
  Be  Be7  1  0.67874600  0.67874600  0.67874600  1
  Be  Be8  1  0.32125400  0.32125400  0.03623900  1
  Be  Be9  1  0.32125400  0.03623900  0.32125400  1
  Be  Be10  1  0.67874600  0.67874600  0.96376100  1
  Be  Be11  1  0.67874600  0.96376100  0.67874600  1
  Be  Be12  1  0.03623900  0.32125400  0.32125400  1
  Be  Be13  1  0.96376100  0.67874600  0.67874600  1
  Be  Be14  1  0.50000000  0.00000000  0.00000000  1
  Be  Be15  1  0.00000000  0.50000000  0.50000000  1
  Be  Be16  1  0.00000000  0.50000000  0.00000000  1
  Be  Be17  1  0.50000000  0.00000000  0.50000000  1
  Be  Be18  1  0.00000000  0.00000000  0.50000000  1
  Be  Be19  1  0.50000000  0.50000000  0.00000000  1
  Be  Be20  1  0.00000000  0.00000000  0.00000000  1
  Co  Co21  1  0.12489700  0.12489700  0.12489600  1
  Co  Co22  1  0.87510400  0.87510400  0.87510300  1
  Co  Co23  1  0.12489700  0.12489700  0.62531000  1
  Co  Co24  1  0.12489700  0.62531100  0.12489600  1
  Co  Co25  1  0.87510400  0.87510400  0.37468900  1
  Co  Co26  1  0.87510400  0.37468900  0.87510400  1
  Co  Co27  1  0.62531100  0.12489700  0.12489600  1
  Co  Co28  1  0.37468900  0.87510400  0.87510300  1
