# generated using pymatgen
data_Tb2InCu2
_symmetry_space_group_name_H-M   'P 1'
_cell_length_a   7.63944700
_cell_length_b   7.63944700
_cell_length_c   3.64553600
_cell_angle_alpha   90.00000000
_cell_angle_beta   90.00000000
_cell_angle_gamma   90.00000000
_symmetry_Int_Tables_number   1
_chemical_formula_structural   Tb2InCu2
_chemical_formula_sum   'Tb4 In2 Cu4'
_cell_volume   212.75767502
_cell_formula_units_Z   2
loop_
 _symmetry_equiv_pos_site_id
 _symmetry_equiv_pos_as_xyz
  1  'x, y, z'
loop_
 _atom_site_type_symbol
 _atom_site_label
 _atom_site_symmetry_multiplicity
 _atom_site_fract_x
 _atom_site_fract_y
 _atom_site_fract_z
 _atom_site_occupancy
  Tb  Tb0  1  0.67425000  0.17425000  0.50000000  1
  Tb  Tb1  1  0.32575000  0.82575000  0.50000000  1
  Tb  Tb2  1  0.17425000  0.32575000  0.50000000  1
  Tb  Tb3  1  0.82575000  0.67425000  0.50000000  1
  In  In4  1  0.50000000  0.50000000  0.00000000  1
  In  In5  1  0.00000000  0.00000000  0.00000000  1
  Cu  Cu6  1  0.11875700  0.61875700  0.00000000  1
  Cu  Cu7  1  0.88124300  0.38124300  0.00000000  1
  Cu  Cu8  1  0.61875700  0.88124300  0.00000000  1
  Cu  Cu9  1  0.38124300  0.11875700  0.00000000  1
