# generated using pymatgen
data_Cs4U3Si4O17
_symmetry_space_group_name_H-M   'P 1'
_cell_length_a   6.97833262
_cell_length_b   6.97833262
_cell_length_c   11.97001871
_cell_angle_alpha   75.45627748
_cell_angle_beta   75.45627748
_cell_angle_gamma   66.22422741
_symmetry_Int_Tables_number   1
_chemical_formula_structural   Cs4U3Si4O17
_chemical_formula_sum   'Cs4 U3 Si4 O17'
_cell_volume   508.89651707
_cell_formula_units_Z   1
loop_
 _symmetry_equiv_pos_site_id
 _symmetry_equiv_pos_as_xyz
  1  'x, y, z'
loop_
 _atom_site_type_symbol
 _atom_site_label
 _atom_site_symmetry_multiplicity
 _atom_site_fract_x
 _atom_site_fract_y
 _atom_site_fract_z
 _atom_site_occupancy
  Cs  Cs0  1  0.82084600  0.82084600  0.51766600  1
  Cs  Cs1  1  0.17915400  0.17915400  0.48233400  1
  Cs  Cs2  1  0.85120100  0.85120100  0.92049700  1
  Cs  Cs3  1  0.14879900  0.14879900  0.07950300  1
  U  U4  1  0.44971300  0.44971300  0.68696200  1
  U  U5  1  0.55028700  0.55028700  0.31303800  1
  U  U6  1  0.50000000  0.50000000  0.00000000  1
  Si  Si7  1  0.95432900  0.36713200  0.76646800  1
  Si  Si8  1  0.36713200  0.95432900  0.76646800  1
  Si  Si9  1  0.04567100  0.63286800  0.23353200  1
  Si  Si10  1  0.63286800  0.04567100  0.23353200  1
  O  O11  1  0.82553400  0.42142400  0.89645000  1
  O  O12  1  0.42142400  0.82553400  0.89645000  1
  O  O13  1  0.17446600  0.57857600  0.10355000  1
  O  O14  1  0.57857600  0.17446600  0.10355000  1
  O  O15  1  0.10147000  0.51105200  0.70287400  1
  O  O16  1  0.51105200  0.10147000  0.70287400  1
  O  O17  1  0.89853000  0.48894800  0.29712600  1
  O  O18  1  0.48894800  0.89853000  0.29712600  1
  O  O19  1  0.79156800  0.38996100  0.68164400  1
  O  O20  1  0.38996100  0.79156800  0.68164400  1
  O  O21  1  0.20843200  0.61003900  0.31835600  1
  O  O22  1  0.61003900  0.20843200  0.31835600  1
  O  O23  1  0.11353900  0.11353900  0.78614400  1
  O  O24  1  0.88646100  0.88646100  0.21385600  1
  O  O25  1  0.40582000  0.40582000  0.87711100  1
  O  O26  1  0.59418000  0.59418000  0.12288900  1
  O  O27  1  0.50000000  0.50000000  0.50000000  1
