# generated using pymatgen
data_Sr2CaUO6
_symmetry_space_group_name_H-M   'P 1'
_cell_length_a   6.13709500
_cell_length_b   5.97358500
_cell_length_c   10.39855606
_cell_angle_alpha   55.15899814
_cell_angle_beta   90.00000000
_cell_angle_gamma   90.00000000
_symmetry_Int_Tables_number   1
_chemical_formula_structural   Sr2CaUO6
_chemical_formula_sum   'Sr4 Ca2 U2 O12'
_cell_volume   312.87930745
_cell_formula_units_Z   2
loop_
 _symmetry_equiv_pos_site_id
 _symmetry_equiv_pos_as_xyz
  1  'x, y, z'
loop_
 _atom_site_type_symbol
 _atom_site_label
 _atom_site_symmetry_multiplicity
 _atom_site_fract_x
 _atom_site_fract_y
 _atom_site_fract_z
 _atom_site_occupancy
  Sr  Sr0  1  0.54738300  0.73389700  0.75294100  1
  Sr  Sr1  1  0.04738300  0.26610300  0.74705900  1
  Sr  Sr2  1  0.95261700  0.73389700  0.25294100  1
  Sr  Sr3  1  0.45261700  0.26610300  0.24705900  1
  Ca  Ca4  1  0.50000000  0.50000000  0.50000000  1
  Ca  Ca5  1  0.00000000  0.50000000  0.00000000  1
  U  U6  1  0.50000000  0.00000000  0.00000000  1
  U  U7  1  0.00000000  0.00000000  0.50000000  1
  O  O8  1  0.54390000  0.87038400  0.23352100  1
  O  O9  1  0.04390000  0.12961600  0.26647900  1
  O  O10  1  0.45610000  0.12961600  0.76647900  1
  O  O11  1  0.95610000  0.87038400  0.73352100  1
  O  O12  1  0.81149100  0.66834800  0.54899100  1
  O  O13  1  0.31149100  0.33165200  0.95100900  1
  O  O14  1  0.18850900  0.33165200  0.45100900  1
  O  O15  1  0.68850900  0.66834800  0.04899100  1
  O  O16  1  0.22090600  0.75181400  0.06179400  1
  O  O17  1  0.72090600  0.24818600  0.43820600  1
  O  O18  1  0.77909400  0.24818600  0.93820600  1
  O  O19  1  0.27909400  0.75181400  0.56179400  1
