# generated using pymatgen
data_Pr4CdPd
_symmetry_space_group_name_H-M   'P 1'
_cell_length_a   10.11355313
_cell_length_b   10.11355313
_cell_length_c   10.11355313
_cell_angle_alpha   60.00000000
_cell_angle_beta   60.00000000
_cell_angle_gamma   60.00000000
_symmetry_Int_Tables_number   1
_chemical_formula_structural   Pr4CdPd
_chemical_formula_sum   'Pr16 Cd4 Pd4'
_cell_volume   731.46960266
_cell_formula_units_Z   4
loop_
 _symmetry_equiv_pos_site_id
 _symmetry_equiv_pos_as_xyz
  1  'x, y, z'
loop_
 _atom_site_type_symbol
 _atom_site_label
 _atom_site_symmetry_multiplicity
 _atom_site_fract_x
 _atom_site_fract_y
 _atom_site_fract_z
 _atom_site_occupancy
  Pr  Pr0  1  0.35048000  0.35048000  0.35048000  1
  Pr  Pr1  1  0.35048000  0.35048000  0.94856100  1
  Pr  Pr2  1  0.35048000  0.94856100  0.35048000  1
  Pr  Pr3  1  0.94856100  0.35048000  0.35048000  1
  Pr  Pr4  1  0.80686900  0.19313100  0.19313100  1
  Pr  Pr5  1  0.19313100  0.80686900  0.80686900  1
  Pr  Pr6  1  0.19313100  0.80686900  0.19313100  1
  Pr  Pr7  1  0.80686900  0.19313100  0.80686900  1
  Pr  Pr8  1  0.19313100  0.19313100  0.80686900  1
  Pr  Pr9  1  0.80686900  0.80686900  0.19313100  1
  Pr  Pr10  1  0.93483200  0.56516800  0.56516800  1
  Pr  Pr11  1  0.56516800  0.93483200  0.93483200  1
  Pr  Pr12  1  0.56516800  0.93483200  0.56516800  1
  Pr  Pr13  1  0.93483200  0.56516800  0.93483200  1
  Pr  Pr14  1  0.56516800  0.56516800  0.93483200  1
  Pr  Pr15  1  0.93483200  0.93483200  0.56516800  1
  Cd  Cd16  1  0.57946600  0.57946600  0.57946600  1
  Cd  Cd17  1  0.57946600  0.57946600  0.26160100  1
  Cd  Cd18  1  0.57946600  0.26160100  0.57946600  1
  Cd  Cd19  1  0.26160100  0.57946600  0.57946600  1
  Pd  Pd20  1  0.14313000  0.14313000  0.14313000  1
  Pd  Pd21  1  0.14313000  0.14313000  0.57061000  1
  Pd  Pd22  1  0.14313000  0.57061000  0.14313000  1
  Pd  Pd23  1  0.57061000  0.14313000  0.14313000  1
