# generated using pymatgen
data_Eu5As3
_symmetry_space_group_name_H-M   'P 1'
_cell_length_a   8.87973914
_cell_length_b   8.87973914
_cell_length_c   6.88373300
_cell_angle_alpha   90.00000000
_cell_angle_beta   90.00000000
_cell_angle_gamma   120.00000847
_symmetry_Int_Tables_number   1
_chemical_formula_structural   Eu5As3
_chemical_formula_sum   'Eu10 As6'
_cell_volume   470.06187297
_cell_formula_units_Z   2
loop_
 _symmetry_equiv_pos_site_id
 _symmetry_equiv_pos_as_xyz
  1  'x, y, z'
loop_
 _atom_site_type_symbol
 _atom_site_label
 _atom_site_symmetry_multiplicity
 _atom_site_fract_x
 _atom_site_fract_y
 _atom_site_fract_z
 _atom_site_occupancy
  Eu  Eu0  1  0.66666700  0.33333300  0.00000000  1
  Eu  Eu1  1  0.33333300  0.66666700  0.00000000  1
  Eu  Eu2  1  0.33333300  0.66666700  0.50000000  1
  Eu  Eu3  1  0.66666700  0.33333300  0.50000000  1
  Eu  Eu4  1  0.74465800  0.74465800  0.75000000  1
  Eu  Eu5  1  0.25534200  0.00000000  0.75000000  1
  Eu  Eu6  1  0.00000000  0.25534200  0.75000000  1
  Eu  Eu7  1  0.25534200  0.25534200  0.25000000  1
  Eu  Eu8  1  0.74465800  0.00000000  0.25000000  1
  Eu  Eu9  1  0.00000000  0.74465800  0.25000000  1
  As  As10  1  0.38975800  0.38975800  0.75000000  1
  As  As11  1  0.61024200  0.00000000  0.75000000  1
  As  As12  1  0.00000000  0.61024200  0.75000000  1
  As  As13  1  0.61024200  0.61024200  0.25000000  1
  As  As14  1  0.38975800  0.00000000  0.25000000  1
  As  As15  1  0.00000000  0.38975800  0.25000000  1
