# generated using pymatgen
data_CaCd6
_symmetry_space_group_name_H-M   'P 1'
_cell_length_a   13.82227226
_cell_length_b   13.82227226
_cell_length_c   13.82227226
_cell_angle_alpha   109.92917719
_cell_angle_beta   109.60082600
_cell_angle_gamma   108.88541118
_symmetry_Int_Tables_number   1
_chemical_formula_structural   CaCd6
_chemical_formula_sum   'Ca12 Cd72'
_cell_volume   2032.72591814
_cell_formula_units_Z   12
loop_
 _symmetry_equiv_pos_site_id
 _symmetry_equiv_pos_as_xyz
  1  'x, y, z'
loop_
 _atom_site_type_symbol
 _atom_site_label
 _atom_site_symmetry_multiplicity
 _atom_site_fract_x
 _atom_site_fract_y
 _atom_site_fract_z
 _atom_site_occupancy
  Ca  Ca0  1  0.81167200  0.51594900  0.70427700  1
  Ca  Ca1  1  0.18832800  0.48405100  0.29572300  1
  Ca  Ca2  1  0.18832800  0.89260500  0.70427700  1
  Ca  Ca3  1  0.81167200  0.10739500  0.29572300  1
  Ca  Ca4  1  0.11196800  0.30277000  0.80919900  1
  Ca  Ca5  1  0.88803200  0.69723000  0.19080100  1
  Ca  Ca6  1  0.49357100  0.30277000  0.19080100  1
  Ca  Ca7  1  0.50642900  0.69723000  0.80919900  1
  Ca  Ca8  1  0.30036900  0.18974300  0.49011200  1
  Ca  Ca9  1  0.69963100  0.81025700  0.50988800  1
  Ca  Ca10  1  0.30036900  0.81025700  0.11062600  1
  Ca  Ca11  1  0.69963100  0.18974300  0.88937400  1
  Cd  Cd12  1  0.73877600  0.64323000  0.90445400  1
  Cd  Cd13  1  0.26122400  0.35677000  0.09554600  1
  Cd  Cd14  1  0.26122400  0.16567800  0.90445400  1
  Cd  Cd15  1  0.73877600  0.83432200  0.09554600  1
  Cd  Cd16  1  0.85842200  0.09271100  0.76571200  1
  Cd  Cd17  1  0.14157800  0.90728900  0.23428800  1
  Cd  Cd18  1  0.32699900  0.09271100  0.23428800  1
  Cd  Cd19  1  0.67300100  0.90728900  0.76571200  1
  Cd  Cd20  1  0.09700900  0.24168100  0.33869000  1
  Cd  Cd21  1  0.90299100  0.75831900  0.66131000  1
  Cd  Cd22  1  0.09700900  0.75831900  0.85532800  1
  Cd  Cd23  1  0.90299100  0.24168100  0.14467200  1
  Cd  Cd24  1  0.77686900  0.45395400  0.92008000  1
  Cd  Cd25  1  0.46612600  0.54604600  0.32291600  1
  Cd  Cd26  1  0.22313100  0.14321000  0.67708400  1
  Cd  Cd27  1  0.53387400  0.85679000  0.07992000  1
  Cd  Cd28  1  0.85721500  0.08178400  0.54000400  1
  Cd  Cd29  1  0.14278500  0.68279000  0.22456900  1
  Cd  Cd30  1  0.54177900  0.31721000  0.45999600  1
  Cd  Cd31  1  0.45822100  0.91821600  0.77543100  1
  Cd  Cd32  1  0.31557500  0.45991500  0.54232500  1
  Cd  Cd33  1  0.91759000  0.77325100  0.45767500  1
  Cd  Cd34  1  0.08241000  0.54008500  0.85566100  1
  Cd  Cd35  1  0.68442500  0.22674900  0.14433900  1
  Cd  Cd36  1  0.22313100  0.54604600  0.07992000  1
  Cd  Cd37  1  0.53387400  0.45395400  0.67708400  1
  Cd  Cd38  1  0.77686900  0.85679000  0.32291600  1
  Cd  Cd39  1  0.46612600  0.14321000  0.92008000  1
  Cd  Cd40  1  0.14278500  0.91821600  0.45999600  1
  Cd  Cd41  1  0.85721500  0.31721000  0.77543100  1
  Cd  Cd42  1  0.45822100  0.68279000  0.54000400  1
  Cd  Cd43  1  0.54177900  0.08178400  0.22456900  1
  Cd  Cd44  1  0.68442500  0.54008500  0.45767500  1
  Cd  Cd45  1  0.08241000  0.22674900  0.54232500  1
  Cd  Cd46  1  0.91759000  0.45991500  0.14433900  1
  Cd  Cd47  1  0.31557500  0.77325100  0.85566100  1
  Cd  Cd48  1  0.59463600  0.25095000  0.65631300  1
  Cd  Cd49  1  0.40536400  0.74905000  0.34368700  1
  Cd  Cd50  1  0.40536400  0.06167700  0.65631300  1
  Cd  Cd51  1  0.59463600  0.93832300  0.34368700  1
  Cd  Cd52  1  0.93980500  0.34392200  0.59588300  1
  Cd  Cd53  1  0.06019500  0.65607800  0.40411700  1
  Cd  Cd54  1  0.74803900  0.34392200  0.40411700  1
  Cd  Cd55  1  0.25196100  0.65607800  0.59588300  1
  Cd  Cd56  1  0.34176400  0.40345300  0.74521700  1
  Cd  Cd57  1  0.65823600  0.59654700  0.25478300  1
  Cd  Cd58  1  0.34176400  0.59654700  0.93831100  1
  Cd  Cd59  1  0.65823600  0.40345300  0.06168900  1
  Cd  Cd60  1  0.99828200  0.67406300  0.00121600  1
  Cd  Cd61  1  0.32715300  0.32593700  0.32421900  1
  Cd  Cd62  1  0.00171800  0.00293400  0.67578100  1
  Cd  Cd63  1  0.67284700  0.99706600  0.99878400  1
  Cd  Cd64  1  0.00171800  0.32593700  0.99878400  1
  Cd  Cd65  1  0.67284700  0.67406300  0.67578100  1
  Cd  Cd66  1  0.99828200  0.99706600  0.32421900  1
  Cd  Cd67  1  0.32715300  0.00293400  0.00121600  1
  Cd  Cd68  1  0.50000000  0.31558600  0.81558600  1
  Cd  Cd69  1  0.50000000  0.68441400  0.18441400  1
  Cd  Cd70  1  0.68894100  0.18894100  0.50000000  1
  Cd  Cd71  1  0.31105900  0.81105900  0.50000000  1
  Cd  Cd72  1  0.18372800  0.50000000  0.68372800  1
  Cd  Cd73  1  0.81627200  0.50000000  0.31627200  1
  Cd  Cd74  1  0.58856800  0.58856800  0.00000000  1
  Cd  Cd75  1  0.41143200  0.41143200  0.00000000  1
  Cd  Cd76  1  0.59659600  0.00000000  0.59659600  1
  Cd  Cd77  1  0.40340400  0.00000000  0.40340400  1
  Cd  Cd78  1  0.00000000  0.40401500  0.40401500  1
  Cd  Cd79  1  0.00000000  0.59598500  0.59598500  1
  Cd  Cd80  1  0.91333900  0.82179900  0.90845900  1
  Cd  Cd81  1  0.08666100  0.17820100  0.09154100  1
  Cd  Cd82  1  0.08666100  0.99512000  0.90845900  1
  Cd  Cd83  1  0.91333900  0.00488000  0.09154100  1
