# generated using pymatgen
data_PrSc3(BO3)4
_symmetry_space_group_name_H-M   'P 1'
_cell_length_a   6.30886933
_cell_length_b   6.30886933
_cell_length_c   12.15966678
_cell_angle_alpha   80.55853292
_cell_angle_beta   80.55853292
_cell_angle_gamma   103.62072538
_symmetry_Int_Tables_number   1
_chemical_formula_structural   PrSc3(BO3)4
_chemical_formula_sum   'Pr2 Sc6 B8 O24'
_cell_volume   453.50755814
_cell_formula_units_Z   2
loop_
 _symmetry_equiv_pos_site_id
 _symmetry_equiv_pos_as_xyz
  1  'x, y, z'
loop_
 _atom_site_type_symbol
 _atom_site_label
 _atom_site_symmetry_multiplicity
 _atom_site_fract_x
 _atom_site_fract_y
 _atom_site_fract_z
 _atom_site_occupancy
  Pr  Pr0  1  0.03214000  0.96786000  0.75000000  1
  Pr  Pr1  1  0.96786000  0.03214000  0.25000000  1
  Sc  Sc2  1  0.29696900  0.79764900  0.47552400  1
  Sc  Sc3  1  0.20235100  0.70303100  0.02447600  1
  Sc  Sc4  1  0.70303100  0.20235100  0.52447600  1
  Sc  Sc5  1  0.79764900  0.29696900  0.97552400  1
  Sc  Sc6  1  0.57419800  0.42580200  0.75000000  1
  Sc  Sc7  1  0.42580200  0.57419800  0.25000000  1
  B  B8  1  0.27032400  0.22166100  0.99958700  1
  B  B9  1  0.77833900  0.72967600  0.50041300  1
  B  B10  1  0.72967600  0.77833900  0.00041300  1
  B  B11  1  0.22166100  0.27032400  0.49958700  1
  B  B12  1  0.50498700  0.89895100  0.77375900  1
  B  B13  1  0.10104900  0.49501300  0.72624100  1
  B  B14  1  0.49501300  0.10104900  0.22624100  1
  B  B15  1  0.89895100  0.50498700  0.27375900  1
  O  O16  1  0.11101700  0.56869300  0.20473700  1
  O  O17  1  0.43130700  0.88898300  0.29526300  1
  O  O18  1  0.88898300  0.43130700  0.79526300  1
  O  O19  1  0.56869300  0.11101700  0.70473700  1
  O  O20  1  0.99105300  0.81311600  0.43226800  1
  O  O21  1  0.18688400  0.00894700  0.06773200  1
  O  O22  1  0.00894700  0.18688400  0.56773200  1
  O  O23  1  0.81311600  0.99105300  0.93226800  1
  O  O24  1  0.64340600  0.76038800  0.76091600  1
  O  O25  1  0.23961200  0.35659400  0.73908400  1
  O  O26  1  0.35659400  0.23961200  0.23908400  1
  O  O27  1  0.76038800  0.64340600  0.26091600  1
  O  O28  1  0.13287200  0.36398600  0.00362600  1
  O  O29  1  0.63601400  0.86712800  0.49637400  1
  O  O30  1  0.86712800  0.63601400  0.99637400  1
  O  O31  1  0.36398600  0.13287200  0.50362600  1
  O  O32  1  0.83675700  0.30346300  0.35089400  1
  O  O33  1  0.69653700  0.16324300  0.14910600  1
  O  O34  1  0.16324300  0.69653700  0.64910600  1
  O  O35  1  0.30346300  0.83675700  0.85089400  1
  O  O36  1  0.29228400  0.48366800  0.43184700  1
  O  O37  1  0.51633200  0.70771600  0.06815300  1
  O  O38  1  0.70771600  0.51633200  0.56815300  1
  O  O39  1  0.48366800  0.29228400  0.93184700  1
