# generated using pymatgen
data_Li4Re6S11
_symmetry_space_group_name_H-M   'P 1'
_cell_length_a   9.66013400
_cell_length_b   11.98810800
_cell_length_c   13.76111500
_cell_angle_alpha   90.00000000
_cell_angle_beta   90.00000000
_cell_angle_gamma   90.00000000
_symmetry_Int_Tables_number   1
_chemical_formula_structural   Li4Re6S11
_chemical_formula_sum   'Li16 Re24 S44'
_cell_volume   1593.62972499
_cell_formula_units_Z   4
loop_
 _symmetry_equiv_pos_site_id
 _symmetry_equiv_pos_as_xyz
  1  'x, y, z'
loop_
 _atom_site_type_symbol
 _atom_site_label
 _atom_site_symmetry_multiplicity
 _atom_site_fract_x
 _atom_site_fract_y
 _atom_site_fract_z
 _atom_site_occupancy
  Li  Li0  1  0.43332500  0.63193700  0.35559500  1
  Li  Li1  1  0.93332500  0.86806300  0.64440500  1
  Li  Li2  1  0.06667500  0.63193700  0.14440500  1
  Li  Li3  1  0.56667500  0.86806300  0.85559500  1
  Li  Li4  1  0.56667500  0.36806300  0.64440500  1
  Li  Li5  1  0.06667500  0.13193700  0.35559500  1
  Li  Li6  1  0.93332500  0.36806300  0.85559500  1
  Li  Li7  1  0.43332500  0.13193700  0.14440500  1
  Li  Li8  1  0.14294300  0.68839700  0.81422100  1
  Li  Li9  1  0.64294300  0.81160300  0.18577900  1
  Li  Li10  1  0.35705700  0.68839700  0.68577900  1
  Li  Li11  1  0.85705700  0.81160300  0.31422100  1
  Li  Li12  1  0.85705700  0.31160300  0.18577900  1
  Li  Li13  1  0.35705700  0.18839700  0.81422100  1
  Li  Li14  1  0.64294300  0.31160300  0.31422100  1
  Li  Li15  1  0.14294300  0.18839700  0.68577900  1
  Re  Re16  1  0.89071500  0.97690900  0.89023500  1
  Re  Re17  1  0.39071500  0.52309100  0.10976500  1
  Re  Re18  1  0.60928500  0.97690900  0.60976500  1
  Re  Re19  1  0.10928500  0.52309100  0.39023500  1
  Re  Re20  1  0.10928500  0.02309100  0.10976500  1
  Re  Re21  1  0.60928500  0.47690900  0.89023500  1
  Re  Re22  1  0.39071500  0.02309100  0.39023500  1
  Re  Re23  1  0.89071500  0.47690900  0.60976500  1
  Re  Re24  1  0.85764000  0.08586300  0.05523100  1
  Re  Re25  1  0.35764000  0.41413700  0.94476900  1
  Re  Re26  1  0.64236000  0.08586300  0.44476900  1
  Re  Re27  1  0.14236000  0.41413700  0.55523100  1
  Re  Re28  1  0.14236000  0.91413700  0.94476900  1
  Re  Re29  1  0.64236000  0.58586300  0.05523100  1
  Re  Re30  1  0.35764000  0.91413700  0.55523100  1
  Re  Re31  1  0.85764000  0.58586300  0.44476900  1
  Re  Re32  1  0.07351000  0.12798200  0.94406300  1
  Re  Re33  1  0.57351000  0.37201800  0.05593700  1
  Re  Re34  1  0.42649000  0.12798200  0.55593700  1
  Re  Re35  1  0.92649000  0.37201800  0.44406300  1
  Re  Re36  1  0.92649000  0.87201800  0.05593700  1
  Re  Re37  1  0.42649000  0.62798200  0.94406300  1
  Re  Re38  1  0.57351000  0.87201800  0.44406300  1
  Re  Re39  1  0.07351000  0.62798200  0.55593700  1
  S  S40  1  0.83678700  0.17195300  0.89831300  1
  S  S41  1  0.33678700  0.32804700  0.10168700  1
  S  S42  1  0.66321300  0.17195300  0.60168700  1
  S  S43  1  0.16321300  0.32804700  0.39831300  1
  S  S44  1  0.16321300  0.82804700  0.10168700  1
  S  S45  1  0.66321300  0.67195300  0.89831300  1
  S  S46  1  0.33678700  0.82804700  0.39831300  1
  S  S47  1  0.83678700  0.67195300  0.60168700  1
  S  S48  1  0.96058400  0.78287800  0.90095500  1
  S  S49  1  0.46058400  0.71712200  0.09904500  1
  S  S50  1  0.53941600  0.78287800  0.59904500  1
  S  S51  1  0.03941600  0.71712200  0.40095500  1
  S  S52  1  0.03941600  0.21712200  0.09904500  1
  S  S53  1  0.53941600  0.28287800  0.90095500  1
  S  S54  1  0.46058400  0.21712200  0.40095500  1
  S  S55  1  0.96058400  0.28287800  0.59904500  1
  S  S56  1  0.09438000  0.01796500  0.79540900  1
  S  S57  1  0.59438000  0.48203500  0.20459100  1
  S  S58  1  0.40562000  0.01796500  0.70459100  1
  S  S59  1  0.90562000  0.48203500  0.29540900  1
  S  S60  1  0.90562000  0.98203500  0.20459100  1
  S  S61  1  0.40562000  0.51796500  0.79540900  1
  S  S62  1  0.59438000  0.98203500  0.29540900  1
  S  S63  1  0.09438000  0.51796500  0.70459100  1
  S  S64  1  0.69907800  0.94006700  0.00586500  1
  S  S65  1  0.19907800  0.55993300  0.99413500  1
  S  S66  1  0.80092200  0.94006700  0.49413500  1
  S  S67  1  0.30092200  0.55993300  0.50586500  1
  S  S68  1  0.30092200  0.05993300  0.99413500  1
  S  S69  1  0.80092200  0.44006700  0.00586500  1
  S  S70  1  0.19907800  0.05993300  0.50586500  1
  S  S71  1  0.69907800  0.44006700  0.49413500  1
  S  S72  1  0.16676000  0.29939500  0.86645100  1
  S  S73  1  0.66676000  0.20060500  0.13354900  1
  S  S74  1  0.33324000  0.29939500  0.63354900  1
  S  S75  1  0.83324000  0.20060500  0.36645100  1
  S  S76  1  0.83324000  0.70060500  0.13354900  1
  S  S77  1  0.33324000  0.79939500  0.86645100  1
  S  S78  1  0.66676000  0.70060500  0.36645100  1
  S  S79  1  0.16676000  0.79939500  0.63354900  1
  S  S80  1  0.75000000  0.91946900  0.75000000  1
  S  S81  1  0.25000000  0.58053100  0.25000000  1
  S  S82  1  0.25000000  0.08053100  0.25000000  1
  S  S83  1  0.75000000  0.41946900  0.75000000  1
