# generated using pymatgen
data_Pr4CdPt
_symmetry_space_group_name_H-M   'P 1'
_cell_length_a   10.10078702
_cell_length_b   10.10078702
_cell_length_c   10.10078702
_cell_angle_alpha   60.00000000
_cell_angle_beta   60.00000000
_cell_angle_gamma   60.00000000
_symmetry_Int_Tables_number   1
_chemical_formula_structural   Pr4CdPt
_chemical_formula_sum   'Pr16 Cd4 Pt4'
_cell_volume   728.70314579
_cell_formula_units_Z   4
loop_
 _symmetry_equiv_pos_site_id
 _symmetry_equiv_pos_as_xyz
  1  'x, y, z'
loop_
 _atom_site_type_symbol
 _atom_site_label
 _atom_site_symmetry_multiplicity
 _atom_site_fract_x
 _atom_site_fract_y
 _atom_site_fract_z
 _atom_site_occupancy
  Pr  Pr0  1  0.34870500  0.34870500  0.34870500  1
  Pr  Pr1  1  0.34870500  0.34870500  0.95388500  1
  Pr  Pr2  1  0.34870500  0.95388500  0.34870500  1
  Pr  Pr3  1  0.95388500  0.34870500  0.34870500  1
  Pr  Pr4  1  0.80780500  0.19219500  0.19219500  1
  Pr  Pr5  1  0.19219500  0.80780500  0.80780500  1
  Pr  Pr6  1  0.19219500  0.80780500  0.19219500  1
  Pr  Pr7  1  0.80780500  0.19219500  0.80780500  1
  Pr  Pr8  1  0.19219500  0.19219500  0.80780500  1
  Pr  Pr9  1  0.80780500  0.80780500  0.19219500  1
  Pr  Pr10  1  0.93463200  0.56536800  0.56536800  1
  Pr  Pr11  1  0.56536800  0.93463200  0.93463200  1
  Pr  Pr12  1  0.56536800  0.93463200  0.56536800  1
  Pr  Pr13  1  0.93463200  0.56536800  0.93463200  1
  Pr  Pr14  1  0.56536800  0.56536800  0.93463200  1
  Pr  Pr15  1  0.93463200  0.93463200  0.56536800  1
  Cd  Cd16  1  0.57995900  0.57995900  0.57995900  1
  Cd  Cd17  1  0.57995900  0.57995900  0.26012200  1
  Cd  Cd18  1  0.57995900  0.26012200  0.57995900  1
  Cd  Cd19  1  0.26012200  0.57995900  0.57995900  1
  Pt  Pt20  1  0.14222200  0.14222200  0.14222200  1
  Pt  Pt21  1  0.14222200  0.14222200  0.57333400  1
  Pt  Pt22  1  0.14222200  0.57333400  0.14222200  1
  Pt  Pt23  1  0.57333400  0.14222200  0.14222200  1
