# generated using pymatgen
data_ErTeAs
_symmetry_space_group_name_H-M   'P 1'
_cell_length_a   4.05424300
_cell_length_b   7.50853600
_cell_length_c   9.86210800
_cell_angle_alpha   90.00000000
_cell_angle_beta   90.00000000
_cell_angle_gamma   90.00000000
_symmetry_Int_Tables_number   1
_chemical_formula_structural   ErTeAs
_chemical_formula_sum   'Er4 Te4 As4'
_cell_volume   300.21666558
_cell_formula_units_Z   4
loop_
 _symmetry_equiv_pos_site_id
 _symmetry_equiv_pos_as_xyz
  1  'x, y, z'
loop_
 _atom_site_type_symbol
 _atom_site_label
 _atom_site_symmetry_multiplicity
 _atom_site_fract_x
 _atom_site_fract_y
 _atom_site_fract_z
 _atom_site_occupancy
  Er  Er0  1  0.25000000  0.73177100  0.84107300  1
  Er  Er1  1  0.75000000  0.26822900  0.15892700  1
  Er  Er2  1  0.75000000  0.76822900  0.34107300  1
  Er  Er3  1  0.25000000  0.23177100  0.65892700  1
  Te  Te4  1  0.25000000  0.58457600  0.14805700  1
  Te  Te5  1  0.75000000  0.41542400  0.85194300  1
  Te  Te6  1  0.75000000  0.91542400  0.64805700  1
  Te  Te7  1  0.25000000  0.08457600  0.35194300  1
  As  As8  1  0.25000000  0.59856300  0.54000100  1
  As  As9  1  0.75000000  0.40143700  0.45999900  1
  As  As10  1  0.75000000  0.90143700  0.04000100  1
  As  As11  1  0.25000000  0.09856300  0.95999900  1
