# generated using pymatgen
data_NaCuF3
_symmetry_space_group_name_H-M   'P 1'
_cell_length_a   5.45997700
_cell_length_b   5.63379805
_cell_length_c   8.01577424
_cell_angle_alpha   89.29342718
_cell_angle_beta   87.60928453
_cell_angle_gamma   86.29998973
_symmetry_Int_Tables_number   1
_chemical_formula_structural   NaCuF3
_chemical_formula_sum   'Na4 Cu4 F12'
_cell_volume   245.82888280
_cell_formula_units_Z   4
loop_
 _symmetry_equiv_pos_site_id
 _symmetry_equiv_pos_as_xyz
  1  'x, y, z'
loop_
 _atom_site_type_symbol
 _atom_site_label
 _atom_site_symmetry_multiplicity
 _atom_site_fract_x
 _atom_site_fract_y
 _atom_site_fract_z
 _atom_site_occupancy
  Na  Na0  1  0.49171300  0.44542600  0.23984300  1
  Na  Na1  1  0.50828700  0.55457400  0.76015700  1
  Na  Na2  1  0.02603600  0.94033400  0.25809600  1
  Na  Na3  1  0.97396400  0.05966600  0.74190400  1
  Cu  Cu4  1  0.50000000  0.00000000  0.00000000  1
  Cu  Cu5  1  0.00000000  0.50000000  0.00000000  1
  Cu  Cu6  1  0.50000000  0.00000000  0.50000000  1
  Cu  Cu7  1  0.00000000  0.50000000  0.50000000  1
  F  F8  1  0.10620900  0.45786200  0.77192000  1
  F  F9  1  0.89379100  0.54213800  0.22808000  1
  F  F10  1  0.39068400  0.95809200  0.72713800  1
  F  F11  1  0.60931600  0.04190800  0.27286200  1
  F  F12  1  0.19654900  0.19865400  0.45280200  1
  F  F13  1  0.80345100  0.80134600  0.54719800  1
  F  F14  1  0.72326200  0.32253200  0.56253700  1
  F  F15  1  0.27673800  0.67746800  0.43746300  1
  F  F16  1  0.32054400  0.72643400  0.05367300  1
  F  F17  1  0.67945600  0.27356600  0.94632700  1
  F  F18  1  0.79426500  0.79206600  0.93690200  1
  F  F19  1  0.20573500  0.20793400  0.06309800  1
