# generated using pymatgen
data_SbH5(OF3)2
_symmetry_space_group_name_H-M   'P 1'
_cell_length_a   6.77612937
_cell_length_b   7.63089098
_cell_length_c   8.25785680
_cell_angle_alpha   116.84239695
_cell_angle_beta   93.51686378
_cell_angle_gamma   112.46328894
_symmetry_Int_Tables_number   1
_chemical_formula_structural   SbH5(OF3)2
_chemical_formula_sum   'Sb2 H10 O4 F12'
_cell_volume   337.62170601
_cell_formula_units_Z   2
loop_
 _symmetry_equiv_pos_site_id
 _symmetry_equiv_pos_as_xyz
  1  'x, y, z'
loop_
 _atom_site_type_symbol
 _atom_site_label
 _atom_site_symmetry_multiplicity
 _atom_site_fract_x
 _atom_site_fract_y
 _atom_site_fract_z
 _atom_site_occupancy
  Sb  Sb0  1  0.79215600  0.55746500  0.75682500  1
  Sb  Sb1  1  0.20722900  0.44230600  0.24262300  1
  H  H2  1  0.42587200  0.87339900  0.73199000  1
  H  H3  1  0.57252800  0.12439800  0.25368100  1
  H  H4  1  0.52310100  0.13716300  0.85782500  1
  H  H5  1  0.48220800  0.86309400  0.13172700  1
  H  H6  1  0.06003300  0.13079600  0.75958500  1
  H  H7  1  0.93971000  0.86937300  0.24043400  1
  H  H8  1  0.99978300  0.99976100  0.49973200  1
  H  H9  1  0.13300700  0.29266000  0.67909100  1
  H  H10  1  0.86795900  0.70744800  0.32082500  1
  H  H11  1  0.50034500  0.99820200  0.99076700  1
  O  O12  1  0.11609600  0.14961600  0.65793200  1
  O  O13  1  0.88401300  0.85032900  0.34209600  1
  O  O14  1  0.43399200  0.99611700  0.85231600  1
  O  O15  1  0.56847300  0.00281400  0.13514200  1
  F  F16  1  0.53682200  0.59951100  0.80571500  1
  F  F17  1  0.46263000  0.40035800  0.19413000  1
  F  F18  1  0.05102000  0.51460000  0.71562900  1
  F  F19  1  0.94895500  0.48577600  0.28541100  1
  F  F20  1  0.86904600  0.75465400  0.66301300  1
  F  F21  1  0.13138500  0.24620900  0.33750900  1
  F  F22  1  0.96823700  0.79683200  0.01008100  1
  F  F23  1  0.03061100  0.20227800  0.98972100  1
  F  F24  1  0.61873900  0.30794200  0.50753900  1
  F  F25  1  0.38187700  0.69175200  0.49251500  1
  F  F26  1  0.71630100  0.35692300  0.85156400  1
  F  F27  1  0.28337300  0.64382200  0.14948100  1
