# generated using pymatgen
data_Ho3(P3Pd10)2
_symmetry_space_group_name_H-M   'P 1'
_cell_length_a   8.67627940
_cell_length_b   8.67627940
_cell_length_c   8.67627940
_cell_angle_alpha   60.00000000
_cell_angle_beta   60.00000000
_cell_angle_gamma   60.00000000
_symmetry_Int_Tables_number   1
_chemical_formula_structural   Ho3(P3Pd10)2
_chemical_formula_sum   'Ho3 P6 Pd20'
_cell_volume   461.83366731
_cell_formula_units_Z   1
loop_
 _symmetry_equiv_pos_site_id
 _symmetry_equiv_pos_as_xyz
  1  'x, y, z'
loop_
 _atom_site_type_symbol
 _atom_site_label
 _atom_site_symmetry_multiplicity
 _atom_site_fract_x
 _atom_site_fract_y
 _atom_site_fract_z
 _atom_site_occupancy
  Ho  Ho0  1  0.25000000  0.25000000  0.25000000  1
  Ho  Ho1  1  0.75000000  0.75000000  0.75000000  1
  Ho  Ho2  1  0.00000000  0.00000000  0.00000000  1
  P  P3  1  0.73586200  0.26413800  0.26413800  1
  P  P4  1  0.26413800  0.73586200  0.73586200  1
  P  P5  1  0.26413800  0.73586200  0.26413800  1
  P  P6  1  0.73586200  0.26413800  0.73586200  1
  P  P7  1  0.26413800  0.26413800  0.73586200  1
  P  P8  1  0.73586200  0.73586200  0.26413800  1
  Pd  Pd9  1  0.38384900  0.38384900  0.38384900  1
  Pd  Pd10  1  0.61615100  0.61615100  0.61615100  1
  Pd  Pd11  1  0.38384900  0.38384900  0.84845400  1
  Pd  Pd12  1  0.38384900  0.84845400  0.38384900  1
  Pd  Pd13  1  0.61615100  0.61615100  0.15154600  1
  Pd  Pd14  1  0.61615100  0.15154600  0.61615100  1
  Pd  Pd15  1  0.84845400  0.38384900  0.38384900  1
  Pd  Pd16  1  0.15154600  0.61615100  0.61615100  1
  Pd  Pd17  1  0.34481700  0.00000000  0.00000000  1
  Pd  Pd18  1  0.65518300  0.00000000  0.00000000  1
  Pd  Pd19  1  0.00000000  0.34481700  0.65518300  1
  Pd  Pd20  1  0.00000000  0.65518300  0.34481700  1
  Pd  Pd21  1  0.00000000  0.34481700  0.00000000  1
  Pd  Pd22  1  0.65518300  0.00000000  0.34481700  1
  Pd  Pd23  1  0.00000000  0.65518300  0.00000000  1
  Pd  Pd24  1  0.34481700  0.00000000  0.65518300  1
  Pd  Pd25  1  0.00000000  0.00000000  0.34481700  1
  Pd  Pd26  1  0.00000000  0.00000000  0.65518300  1
  Pd  Pd27  1  0.65518300  0.34481700  0.00000000  1
  Pd  Pd28  1  0.34481700  0.65518300  0.00000000  1
