# generated using pymatgen
data_HoAl3Cu
_symmetry_space_group_name_H-M   'P 1'
_cell_length_a   4.12734400
_cell_length_b   4.13395000
_cell_length_c   6.08788678
_cell_angle_alpha   70.15221052
_cell_angle_beta   70.18525626
_cell_angle_gamma   90.00000000
_symmetry_Int_Tables_number   1
_chemical_formula_structural   HoAl3Cu
_chemical_formula_sum   'Ho1 Al3 Cu1'
_cell_volume   91.13730722
_cell_formula_units_Z   1
loop_
 _symmetry_equiv_pos_site_id
 _symmetry_equiv_pos_as_xyz
  1  'x, y, z'
loop_
 _atom_site_type_symbol
 _atom_site_label
 _atom_site_symmetry_multiplicity
 _atom_site_fract_x
 _atom_site_fract_y
 _atom_site_fract_z
 _atom_site_occupancy
  Ho  Ho0  1  0.99511700  0.99511700  0.00976600  1
  Al  Al1  1  0.40120500  0.40120500  0.19759000  1
  Al  Al2  1  0.74169800  0.24169800  0.51660400  1
  Al  Al3  1  0.24179300  0.74179300  0.51641400  1
  Cu  Cu4  1  0.62018700  0.62018700  0.75962600  1
