# generated using pymatgen
data_Al(PO3)3
_symmetry_space_group_name_H-M   'P 1'
_cell_length_a   15.24073500
_cell_length_b   6.15788000
_cell_length_c   8.28818586
_cell_angle_alpha   74.88982362
_cell_angle_beta   90.00000000
_cell_angle_gamma   90.00000000
_symmetry_Int_Tables_number   1
_chemical_formula_structural   Al(PO3)3
_chemical_formula_sum   'Al4 P12 O36'
_cell_volume   750.95819599
_cell_formula_units_Z   4
loop_
 _symmetry_equiv_pos_site_id
 _symmetry_equiv_pos_as_xyz
  1  'x, y, z'
loop_
 _atom_site_type_symbol
 _atom_site_label
 _atom_site_symmetry_multiplicity
 _atom_site_fract_x
 _atom_site_fract_y
 _atom_site_fract_z
 _atom_site_occupancy
  Al  Al0  1  0.63813600  0.38478800  0.37676800  1
  Al  Al1  1  0.13813600  0.61521200  0.12323200  1
  Al  Al2  1  0.36186400  0.61521200  0.62323200  1
  Al  Al3  1  0.86186400  0.38478800  0.87676800  1
  P  P4  1  0.83725900  0.29856300  0.51714200  1
  P  P5  1  0.33725900  0.70143700  0.98285800  1
  P  P6  1  0.16274100  0.70143700  0.48285800  1
  P  P7  1  0.66274100  0.29856300  0.01714200  1
  P  P8  1  0.54416400  0.35504200  0.71820400  1
  P  P9  1  0.04416400  0.64495800  0.78179600  1
  P  P10  1  0.45583600  0.64495800  0.28179600  1
  P  P11  1  0.95583600  0.35504200  0.21820400  1
  P  P12  1  0.61300800  0.91510600  0.29041700  1
  P  P13  1  0.11300800  0.08489400  0.20958300  1
  P  P14  1  0.38699200  0.08489400  0.70958300  1
  P  P15  1  0.88699200  0.91510600  0.79041700  1
  O  O16  1  0.65854100  0.69448300  0.35505000  1
  O  O17  1  0.15854100  0.30551700  0.14495000  1
  O  O18  1  0.34145900  0.30551700  0.64495000  1
  O  O19  1  0.84145900  0.69448300  0.85505000  1
  O  O20  1  0.61497600  0.07660300  0.39750800  1
  O  O21  1  0.11497600  0.92339700  0.10249200  1
  O  O22  1  0.38502400  0.92339700  0.60249200  1
  O  O23  1  0.88502400  0.07660300  0.89750800  1
  O  O24  1  0.75845100  0.32503500  0.40779800  1
  O  O25  1  0.25845100  0.67496500  0.09220200  1
  O  O26  1  0.24154900  0.67496500  0.59220200  1
  O  O27  1  0.74154900  0.32503500  0.90779800  1
  O  O28  1  0.62141700  0.33489800  0.61124200  1
  O  O29  1  0.12141700  0.66510200  0.88875800  1
  O  O30  1  0.37858300  0.66510200  0.38875800  1
  O  O31  1  0.87858300  0.33489800  0.11124200  1
  O  O32  1  0.84569200  0.43461600  0.64186700  1
  O  O33  1  0.34569200  0.56538400  0.85813300  1
  O  O34  1  0.15430800  0.56538400  0.35813300  1
  O  O35  1  0.65430800  0.43461600  0.14186700  1
  O  O36  1  0.48485800  0.55516700  0.66130500  1
  O  O37  1  0.98485700  0.44483300  0.83869500  1
  O  O38  1  0.51514200  0.44483300  0.33869500  1
  O  O39  1  0.01514200  0.55516700  0.16130500  1
  O  O40  1  0.92368800  0.35008700  0.40268500  1
  O  O41  1  0.42368800  0.64991300  0.09731500  1
  O  O42  1  0.07631200  0.64991300  0.59731500  1
  O  O43  1  0.57631200  0.35008700  0.90268500  1
  O  O44  1  0.48781700  0.12537500  0.75380300  1
  O  O45  1  0.98781700  0.87462500  0.74619700  1
  O  O46  1  0.51218300  0.87462500  0.24619700  1
  O  O47  1  0.01218300  0.12537500  0.25380300  1
  O  O48  1  0.84747400  0.03364100  0.60818000  1
  O  O49  1  0.34747400  0.96635900  0.89182000  1
  O  O50  1  0.15252600  0.96635900  0.39182000  1
  O  O51  1  0.65252600  0.03364100  0.10818000  1
