# generated using pymatgen
data_Rb2LiVCl6
_symmetry_space_group_name_H-M   'P 1'
_cell_length_a   7.12508199
_cell_length_b   7.12508199
_cell_length_c   6.07622500
_cell_angle_alpha   90.00000000
_cell_angle_beta   90.00000000
_cell_angle_gamma   119.99999987
_symmetry_Int_Tables_number   1
_chemical_formula_structural   Rb2LiVCl6
_chemical_formula_sum   'Rb2 Li1 V1 Cl6'
_cell_volume   267.14325387
_cell_formula_units_Z   1
loop_
 _symmetry_equiv_pos_site_id
 _symmetry_equiv_pos_as_xyz
  1  'x, y, z'
loop_
 _atom_site_type_symbol
 _atom_site_label
 _atom_site_symmetry_multiplicity
 _atom_site_fract_x
 _atom_site_fract_y
 _atom_site_fract_z
 _atom_site_occupancy
  Rb  Rb0  1  0.33333300  0.66666700  0.24290200  1
  Rb  Rb1  1  0.66666700  0.33333300  0.75709800  1
  Li  Li2  1  0.00000000  0.00000000  0.00000000  1
  V  V3  1  0.00000000  0.00000000  0.50000000  1
  Cl  Cl4  1  0.84302900  0.15697100  0.26776600  1
  Cl  Cl5  1  0.15697100  0.84302900  0.73223400  1
  Cl  Cl6  1  0.84302900  0.68605800  0.26776600  1
  Cl  Cl7  1  0.15697100  0.31394200  0.73223400  1
  Cl  Cl8  1  0.31394200  0.15697100  0.26776600  1
  Cl  Cl9  1  0.68605800  0.84302900  0.73223400  1
