# generated using pymatgen
data_EuAl3Cu2
_symmetry_space_group_name_H-M   'P 1'
_cell_length_a   5.42787866
_cell_length_b   5.42787866
_cell_length_c   4.11565700
_cell_angle_alpha   90.00000000
_cell_angle_beta   90.00000000
_cell_angle_gamma   120.00000806
_symmetry_Int_Tables_number   1
_chemical_formula_structural   EuAl3Cu2
_chemical_formula_sum   'Eu1 Al3 Cu2'
_cell_volume   105.00984826
_cell_formula_units_Z   1
loop_
 _symmetry_equiv_pos_site_id
 _symmetry_equiv_pos_as_xyz
  1  'x, y, z'
loop_
 _atom_site_type_symbol
 _atom_site_label
 _atom_site_symmetry_multiplicity
 _atom_site_fract_x
 _atom_site_fract_y
 _atom_site_fract_z
 _atom_site_occupancy
  Eu  Eu0  1  0.00000000  0.00000000  0.00000000  1
  Al  Al1  1  0.50000000  0.00000000  0.50000000  1
  Al  Al2  1  0.00000000  0.50000000  0.50000000  1
  Al  Al3  1  0.50000000  0.50000000  0.50000000  1
  Cu  Cu4  1  0.33333300  0.66666700  0.00000000  1
  Cu  Cu5  1  0.66666700  0.33333300  0.00000000  1
