# generated using pymatgen
data_Mg149Mn
_symmetry_space_group_name_H-M   'P 1'
_cell_length_a   15.88651248
_cell_length_b   15.88651804
_cell_length_c   15.62106887
_cell_angle_alpha   90.00000000
_cell_angle_beta   90.00000000
_cell_angle_gamma   120.00000938
_symmetry_Int_Tables_number   1
_chemical_formula_structural   Mg149Mn
_chemical_formula_sum   'Mg149 Mn1'
_cell_volume   3414.27600789
_cell_formula_units_Z   1
loop_
 _symmetry_equiv_pos_site_id
 _symmetry_equiv_pos_as_xyz
  1  'x, y, z'
loop_
 _atom_site_type_symbol
 _atom_site_label
 _atom_site_symmetry_multiplicity
 _atom_site_fract_x
 _atom_site_fract_y
 _atom_site_fract_z
 _atom_site_occupancy
  Mg  Mg0  1  0.60196374  0.00011115  -0.00000000  1
  Mg  Mg1  1  0.39814740  0.00011115  -0.00000000  1
  Mg  Mg2  1  0.80825786  0.00077210  -0.00000000  1
  Mg  Mg3  1  0.19251425  0.00077210  -0.00000000  1
  Mg  Mg4  1  0.99922890  0.19174214  -0.00000000  1
  Mg  Mg5  1  0.19251425  0.19174314  -0.00000000  1
  Mg  Mg6  1  0.59985257  0.19970614  -0.00000000  1
  Mg  Mg7  1  0.39893312  0.19946606  -0.00000000  1
  Mg  Mg8  1  0.80053394  0.19946606  -0.00000000  1
  Mg  Mg9  1  0.39814740  0.39803626  -0.00000000  1
  Mg  Mg10  1  0.99988885  0.39803726  -0.00000000  1
  Mg  Mg11  1  0.19916288  0.39832476  -0.00000000  1
  Mg  Mg12  1  0.59985257  0.40014643  -0.00000000  1
  Mg  Mg13  1  0.80029386  0.40014643  -0.00000000  1
  Mg  Mg14  1  0.39999944  0.60000056  -0.00000000  1
  Mg  Mg15  1  0.20000211  0.60000156  -0.00000000  1
  Mg  Mg16  1  0.80053394  0.60106688  -0.00000000  1
  Mg  Mg17  1  0.99988885  0.60185160  -0.00000000  1
  Mg  Mg18  1  0.60196374  0.60185260  -0.00000000  1
  Mg  Mg19  1  0.39999944  0.79999789  -0.00000000  1
  Mg  Mg20  1  0.19916288  0.80083712  -0.00000000  1
  Mg  Mg21  1  0.60167524  0.80083712  -0.00000000  1
  Mg  Mg22  1  0.80825786  0.80748575  -0.00000000  1
  Mg  Mg23  1  0.99922890  0.80748575  -0.00000000  1
  Mg  Mg24  1  0.06402355  0.12804810  0.15775965  1
  Mg  Mg25  1  0.06402355  0.93597545  0.15775965  1
  Mg  Mg26  1  0.87195190  0.93597645  0.15775965  1
  Mg  Mg27  1  0.26583308  0.33259275  0.16599794  1
  Mg  Mg28  1  0.06676067  0.33259375  0.16599794  1
  Mg  Mg29  1  0.66740625  0.73416692  0.16599794  1
  Mg  Mg30  1  0.06676067  0.73416692  0.16599794  1
  Mg  Mg31  1  0.26583308  0.93323933  0.16599794  1
  Mg  Mg32  1  0.66740625  0.93324033  0.16599794  1
  Mg  Mg33  1  0.46668390  0.53331610  0.16644427  1
  Mg  Mg34  1  0.06663220  0.53331610  0.16644427  1
  Mg  Mg35  1  0.46668390  0.93336780  0.16644427  1
  Mg  Mg36  1  0.66666700  0.33333300  0.16607429  1
  Mg  Mg37  1  0.26671204  0.53342407  0.16623235  1
  Mg  Mg38  1  0.46657593  0.73328796  0.16623235  1
  Mg  Mg39  1  0.26671204  0.73328796  0.16623235  1
  Mg  Mg40  1  0.46691118  0.13357994  0.16652693  1
  Mg  Mg41  1  0.66666875  0.13357994  0.16652693  1
  Mg  Mg42  1  0.46691118  0.33333125  0.16652693  1
  Mg  Mg43  1  0.86642006  0.33333125  0.16652693  1
  Mg  Mg44  1  0.86642006  0.53308882  0.16652693  1
  Mg  Mg45  1  0.66666875  0.53308882  0.16652693  1
  Mg  Mg46  1  0.26799256  0.13399628  0.16614505  1
  Mg  Mg47  1  0.86600372  0.13399628  0.16614505  1
  Mg  Mg48  1  0.86600372  0.73200744  0.16614505  1
  Mg  Mg49  1  0.19927643  0.19950142  0.33172243  1
  Mg  Mg50  1  0.00022500  0.19950142  0.33172243  1
  Mg  Mg51  1  0.00022500  0.80072357  0.33172243  1
  Mg  Mg52  1  0.80049858  0.80072357  0.33172243  1
  Mg  Mg53  1  0.19927643  0.99977500  0.33172243  1
  Mg  Mg54  1  0.80049858  0.99977600  0.33172243  1
  Mg  Mg55  1  -0.00000000  0.00000000  0.33294995  1
  Mg  Mg56  1  0.00020031  0.39945344  0.33274304  1
  Mg  Mg57  1  0.39925413  0.39945344  0.33274304  1
  Mg  Mg58  1  0.00020031  0.60074687  0.33274304  1
  Mg  Mg59  1  0.60054656  0.60074687  0.33274304  1
  Mg  Mg60  1  0.60054656  0.99979969  0.33274304  1
  Mg  Mg61  1  0.39925413  0.99979969  0.33274304  1
  Mg  Mg62  1  0.59970885  0.19941769  0.33305453  1
  Mg  Mg63  1  0.59970885  0.40029115  0.33305453  1
  Mg  Mg64  1  0.80058231  0.40029115  0.33305453  1
  Mg  Mg65  1  0.20012192  0.40024384  0.33333327  1
  Mg  Mg66  1  0.59975616  0.79987808  0.33333327  1
  Mg  Mg67  1  0.20012192  0.79987808  0.33333327  1
  Mg  Mg68  1  0.80015265  0.19984635  0.33327630  1
  Mg  Mg69  1  0.39969369  0.19984635  0.33327630  1
  Mg  Mg70  1  0.80015265  0.60030631  0.33327630  1
  Mg  Mg71  1  0.39998505  0.60001495  0.33300069  1
  Mg  Mg72  1  0.20002990  0.60001495  0.33300069  1
  Mg  Mg73  1  0.39998505  0.79997010  0.33300069  1
  Mg  Mg74  1  0.06661709  0.13323518  0.50000000  1
  Mg  Mg75  1  0.26668104  0.13334052  0.50000000  1
  Mg  Mg76  1  0.86665948  0.13334052  0.50000000  1
  Mg  Mg77  1  0.66687668  0.13383319  0.50000000  1
  Mg  Mg78  1  0.46695651  0.13383419  0.50000000  1
  Mg  Mg79  1  0.06630925  0.33295689  0.50000000  1
  Mg  Mg80  1  0.26664764  0.33295789  0.50000000  1
  Mg  Mg81  1  0.46695651  0.33312232  0.50000000  1
  Mg  Mg82  1  0.86616581  0.33312232  0.50000000  1
  Mg  Mg83  1  0.66666700  0.33333300  0.50000000  1
  Mg  Mg84  1  0.26635872  0.53271743  0.50000000  1
  Mg  Mg85  1  0.46748672  0.53251328  0.50000000  1
  Mg  Mg86  1  0.06502557  0.53251328  0.50000000  1
  Mg  Mg87  1  0.66687668  0.53304249  0.50000000  1
  Mg  Mg88  1  0.86616581  0.53304349  0.50000000  1
  Mg  Mg89  1  0.46728357  0.73364128  0.50000000  1
  Mg  Mg90  1  0.26635872  0.73364228  0.50000000  1
  Mg  Mg91  1  0.06630925  0.73335236  0.50000000  1
  Mg  Mg92  1  0.66704211  0.73335236  0.50000000  1
  Mg  Mg93  1  0.86665948  0.73331896  0.50000000  1
  Mg  Mg94  1  0.86676482  0.93338191  0.50000000  1
  Mg  Mg95  1  0.06661709  0.93338291  0.50000000  1
  Mg  Mg96  1  0.66704211  0.93368975  0.50000000  1
  Mg  Mg97  1  0.26664764  0.93368975  0.50000000  1
  Mg  Mg98  1  0.46748672  0.93497443  0.50000000  1
  Mg  Mg99  1  0.39998505  0.60001495  0.66700031  1
  Mg  Mg100  1  0.20002990  0.60001495  0.66700031  1
  Mg  Mg101  1  0.39998505  0.79997010  0.66700031  1
  Mg  Mg102  1  0.80015265  0.19984635  0.66672370  1
  Mg  Mg103  1  0.39969369  0.19984635  0.66672370  1
  Mg  Mg104  1  0.80015265  0.60030631  0.66672370  1
  Mg  Mg105  1  0.20012192  0.40024384  0.66666673  1
  Mg  Mg106  1  0.59975616  0.79987808  0.66666673  1
  Mg  Mg107  1  0.20012192  0.79987808  0.66666673  1
  Mg  Mg108  1  0.59970885  0.19941769  0.66694547  1
  Mg  Mg109  1  0.59970885  0.40029115  0.66694547  1
  Mg  Mg110  1  0.80058231  0.40029115  0.66694547  1
  Mg  Mg111  1  0.00020031  0.39945344  0.66725696  1
  Mg  Mg112  1  0.39925413  0.39945344  0.66725696  1
  Mg  Mg113  1  0.00020031  0.60074687  0.66725696  1
  Mg  Mg114  1  0.60054656  0.60074687  0.66725696  1
  Mg  Mg115  1  0.60054656  0.99979969  0.66725696  1
  Mg  Mg116  1  0.39925413  0.99979969  0.66725696  1
  Mg  Mg117  1  -0.00000000  0.00000000  0.66705005  1
  Mg  Mg118  1  0.19927643  0.19950142  0.66827857  1
  Mg  Mg119  1  0.00022500  0.19950142  0.66827857  1
  Mg  Mg120  1  0.00022500  0.80072357  0.66827857  1
  Mg  Mg121  1  0.80049858  0.80072357  0.66827857  1
  Mg  Mg122  1  0.19927643  0.99977500  0.66827857  1
  Mg  Mg123  1  0.80049858  0.99977600  0.66827857  1
  Mg  Mg124  1  0.26799256  0.13399628  0.83385495  1
  Mg  Mg125  1  0.86600372  0.13399628  0.83385495  1
  Mg  Mg126  1  0.86600372  0.73200744  0.83385495  1
  Mg  Mg127  1  0.46691118  0.13357994  0.83347307  1
  Mg  Mg128  1  0.66666875  0.13357994  0.83347307  1
  Mg  Mg129  1  0.46691118  0.33333125  0.83347307  1
  Mg  Mg130  1  0.86642006  0.33333125  0.83347307  1
  Mg  Mg131  1  0.86642006  0.53308882  0.83347307  1
  Mg  Mg132  1  0.66666875  0.53308882  0.83347307  1
  Mg  Mg133  1  0.26671204  0.53342407  0.83376765  1
  Mg  Mg134  1  0.46657593  0.73328796  0.83376765  1
  Mg  Mg135  1  0.26671204  0.73328796  0.83376765  1
  Mg  Mg136  1  0.66666700  0.33333300  0.83392571  1
  Mg  Mg137  1  0.46668390  0.53331610  0.83355573  1
  Mg  Mg138  1  0.06663220  0.53331610  0.83355573  1
  Mg  Mg139  1  0.46668390  0.93336780  0.83355573  1
  Mg  Mg140  1  0.26583308  0.33259275  0.83400206  1
  Mg  Mg141  1  0.06676067  0.33259375  0.83400206  1
  Mg  Mg142  1  0.66740625  0.73416692  0.83400206  1
  Mg  Mg143  1  0.06676067  0.73416692  0.83400206  1
  Mg  Mg144  1  0.26583308  0.93323933  0.83400206  1
  Mg  Mg145  1  0.66740625  0.93324033  0.83400206  1
  Mg  Mg146  1  0.06402355  0.12804810  0.84224135  1
  Mg  Mg147  1  0.06402355  0.93597545  0.84224135  1
  Mg  Mg148  1  0.87195190  0.93597645  0.84224135  1
  Mn  Mn149  1  -0.00000000  0.00000000  -0.00000000  1
