# generated using pymatgen
data_Sm4CdNi
_symmetry_space_group_name_H-M   'P 1'
_cell_length_a   9.72824782
_cell_length_b   9.72824782
_cell_length_c   9.72824782
_cell_angle_alpha   60.00000000
_cell_angle_beta   60.00000000
_cell_angle_gamma   60.00000000
_symmetry_Int_Tables_number   1
_chemical_formula_structural   Sm4CdNi
_chemical_formula_sum   'Sm16 Cd4 Ni4'
_cell_volume   651.01182607
_cell_formula_units_Z   4
loop_
 _symmetry_equiv_pos_site_id
 _symmetry_equiv_pos_as_xyz
  1  'x, y, z'
loop_
 _atom_site_type_symbol
 _atom_site_label
 _atom_site_symmetry_multiplicity
 _atom_site_fract_x
 _atom_site_fract_y
 _atom_site_fract_z
 _atom_site_occupancy
  Sm  Sm0  1  0.34707200  0.34707200  0.34707200  1
  Sm  Sm1  1  0.34707200  0.34707200  0.95878400  1
  Sm  Sm2  1  0.34707200  0.95878400  0.34707200  1
  Sm  Sm3  1  0.95878400  0.34707200  0.34707200  1
  Sm  Sm4  1  0.81122800  0.18877200  0.18877200  1
  Sm  Sm5  1  0.18877200  0.81122800  0.81122800  1
  Sm  Sm6  1  0.18877200  0.81122800  0.18877200  1
  Sm  Sm7  1  0.81122800  0.18877200  0.81122800  1
  Sm  Sm8  1  0.18877200  0.18877200  0.81122800  1
  Sm  Sm9  1  0.81122800  0.81122800  0.18877200  1
  Sm  Sm10  1  0.93553900  0.56446100  0.56446100  1
  Sm  Sm11  1  0.56446100  0.93553900  0.93553900  1
  Sm  Sm12  1  0.56446100  0.93553900  0.56446100  1
  Sm  Sm13  1  0.93553900  0.56446100  0.93553900  1
  Sm  Sm14  1  0.56446100  0.56446100  0.93553900  1
  Sm  Sm15  1  0.93553900  0.93553900  0.56446100  1
  Cd  Cd16  1  0.57975500  0.57975500  0.57975500  1
  Cd  Cd17  1  0.57975500  0.57975500  0.26073500  1
  Cd  Cd18  1  0.57975500  0.26073500  0.57975500  1
  Cd  Cd19  1  0.26073500  0.57975500  0.57975500  1
  Ni  Ni20  1  0.14185100  0.14185100  0.14185100  1
  Ni  Ni21  1  0.14185100  0.14185100  0.57444800  1
  Ni  Ni22  1  0.14185100  0.57444800  0.14185100  1
  Ni  Ni23  1  0.57444800  0.14185100  0.14185100  1
