# generated using pymatgen
data_Tm2Si3Pd
_symmetry_space_group_name_H-M   'P 1'
_cell_length_a   8.16371785
_cell_length_b   8.16371785
_cell_length_c   7.73860600
_cell_angle_alpha   90.00000000
_cell_angle_beta   90.00000000
_cell_angle_gamma   119.99999876
_symmetry_Int_Tables_number   1
_chemical_formula_structural   Tm2Si3Pd
_chemical_formula_sum   'Tm8 Si12 Pd4'
_cell_volume   446.65206419
_cell_formula_units_Z   4
loop_
 _symmetry_equiv_pos_site_id
 _symmetry_equiv_pos_as_xyz
  1  'x, y, z'
loop_
 _atom_site_type_symbol
 _atom_site_label
 _atom_site_symmetry_multiplicity
 _atom_site_fract_x
 _atom_site_fract_y
 _atom_site_fract_z
 _atom_site_occupancy
  Tm  Tm0  1  0.51251000  0.02501900  0.25000000  1
  Tm  Tm1  1  0.48749000  0.97498100  0.75000000  1
  Tm  Tm2  1  0.97498100  0.48749000  0.25000000  1
  Tm  Tm3  1  0.02501900  0.51251000  0.75000000  1
  Tm  Tm4  1  0.51251000  0.48749000  0.25000000  1
  Tm  Tm5  1  0.48749000  0.51251000  0.75000000  1
  Tm  Tm6  1  0.00000000  0.00000000  0.25000000  1
  Tm  Tm7  1  0.00000000  0.00000000  0.75000000  1
  Si  Si8  1  0.16575500  0.33151000  0.00204500  1
  Si  Si9  1  0.83424500  0.66849000  0.99795500  1
  Si  Si10  1  0.66849000  0.83424500  0.00204500  1
  Si  Si11  1  0.83424500  0.66849000  0.50204500  1
  Si  Si12  1  0.33151000  0.16575500  0.99795500  1
  Si  Si13  1  0.16575500  0.33151000  0.49795500  1
  Si  Si14  1  0.16575500  0.83424500  0.00204500  1
  Si  Si15  1  0.33151000  0.16575500  0.50204500  1
  Si  Si16  1  0.83424500  0.16575500  0.99795500  1
  Si  Si17  1  0.66849000  0.83424500  0.49795500  1
  Si  Si18  1  0.83424500  0.16575500  0.50204500  1
  Si  Si19  1  0.16575500  0.83424500  0.49795500  1
  Pd  Pd20  1  0.33333300  0.66666700  0.04555500  1
  Pd  Pd21  1  0.66666700  0.33333300  0.95444500  1
  Pd  Pd22  1  0.66666700  0.33333300  0.54555500  1
  Pd  Pd23  1  0.33333300  0.66666700  0.45444500  1
