# generated using pymatgen
data_Tb2Cr2C3
_symmetry_space_group_name_H-M   'P 1'
_cell_length_a   5.47227836
_cell_length_b   5.47227836
_cell_length_c   5.60986828
_cell_angle_alpha   75.07463127
_cell_angle_beta   75.07463127
_cell_angle_gamma   36.15303617
_symmetry_Int_Tables_number   1
_chemical_formula_structural   Tb2Cr2C3
_chemical_formula_sum   'Tb2 Cr2 C3'
_cell_volume   95.39922997
_cell_formula_units_Z   1
loop_
 _symmetry_equiv_pos_site_id
 _symmetry_equiv_pos_as_xyz
  1  'x, y, z'
loop_
 _atom_site_type_symbol
 _atom_site_label
 _atom_site_symmetry_multiplicity
 _atom_site_fract_x
 _atom_site_fract_y
 _atom_site_fract_z
 _atom_site_occupancy
  Tb  Tb0  1  0.39534600  0.39534600  0.31714300  1
  Tb  Tb1  1  0.60465400  0.60465400  0.68285700  1
  Cr  Cr2  1  0.15741400  0.15741400  0.10749100  1
  Cr  Cr3  1  0.84258600  0.84258600  0.89250900  1
  C  C4  1  0.71258100  0.71258100  0.22844900  1
  C  C5  1  0.28741900  0.28741900  0.77155100  1
  C  C6  1  0.00000000  0.00000000  0.00000000  1
