# generated using pymatgen
data_Zn3Co4(SbO6)2
_symmetry_space_group_name_H-M   'P 1'
_cell_length_a   6.23024700
_cell_length_b   8.68297130
_cell_length_c   10.49726878
_cell_angle_alpha   113.50808361
_cell_angle_beta   105.99270142
_cell_angle_gamma   92.33609635
_symmetry_Int_Tables_number   1
_chemical_formula_structural   Zn3Co4(SbO6)2
_chemical_formula_sum   'Zn6 Co8 Sb4 O24'
_cell_volume   493.22067859
_cell_formula_units_Z   2
loop_
 _symmetry_equiv_pos_site_id
 _symmetry_equiv_pos_as_xyz
  1  'x, y, z'
loop_
 _atom_site_type_symbol
 _atom_site_label
 _atom_site_symmetry_multiplicity
 _atom_site_fract_x
 _atom_site_fract_y
 _atom_site_fract_z
 _atom_site_occupancy
  Zn  Zn0  1  0.88246800  0.79941600  0.81971400  1
  Zn  Zn1  1  0.55482200  0.45434900  0.16465000  1
  Zn  Zn2  1  0.22189400  0.14142400  0.49691300  1
  Zn  Zn3  1  0.44517800  0.54565100  0.83535000  1
  Zn  Zn4  1  0.11753200  0.20058400  0.18028600  1
  Zn  Zn5  1  0.77810600  0.85857600  0.50308700  1
  Co  Co6  1  0.66665300  0.17046300  0.33418000  1
  Co  Co7  1  0.33334700  0.82953700  0.66582000  1
  Co  Co8  1  0.82801500  0.32631600  0.65509100  1
  Co  Co9  1  0.50000000  0.00000000  0.00000000  1
  Co  Co10  1  0.17198500  0.67368400  0.34490900  1
  Co  Co11  1  0.65853000  0.15248500  0.82352600  1
  Co  Co12  1  0.34147000  0.84751500  0.17647400  1
  Co  Co13  1  0.00000000  0.50000000  0.50000000  1
  Sb  Sb14  1  0.00000000  0.50000000  0.00000000  1
  Sb  Sb15  1  0.16711200  0.15814300  0.82653900  1
  Sb  Sb16  1  0.83288800  0.84185700  0.17346100  1
  Sb  Sb17  1  0.50000000  0.50000000  0.50000000  1
  O  O18  1  0.47413600  0.23910300  0.97885100  1
  O  O19  1  0.14366000  0.90393600  0.31828300  1
  O  O20  1  0.80916000  0.56872600  0.65256200  1
  O  O21  1  0.32436000  0.09021400  0.67628400  1
  O  O22  1  0.99298300  0.74056200  0.01095100  1
  O  O23  1  0.65878200  0.42325000  0.34640100  1
  O  O24  1  0.63494900  0.92741500  0.83298500  1
  O  O25  1  0.29512800  0.59145700  0.15996900  1
  O  O26  1  0.96913700  0.26314100  0.49652600  1
  O  O27  1  0.16801000  0.93431700  0.83652000  1
  O  O28  1  0.84061800  0.58988300  0.15679600  1
  O  O29  1  0.50218800  0.26724800  0.49834000  1
  O  O30  1  0.85634000  0.09606400  0.68171700  1
  O  O31  1  0.52586400  0.76089700  0.02114900  1
  O  O32  1  0.19084000  0.43127400  0.34743800  1
  O  O33  1  0.00701700  0.25943800  0.98904900  1
  O  O34  1  0.67564000  0.90978600  0.32371600  1
  O  O35  1  0.34121800  0.57675000  0.65359900  1
  O  O36  1  0.70487200  0.40854300  0.84003100  1
  O  O37  1  0.36505100  0.07258500  0.16701500  1
  O  O38  1  0.03086300  0.73685900  0.50347400  1
  O  O39  1  0.15938200  0.41011700  0.84320400  1
  O  O40  1  0.83199000  0.06568300  0.16348000  1
  O  O41  1  0.49781200  0.73275200  0.50166000  1
