# generated using pymatgen
data_CsPr(WO4)2
_symmetry_space_group_name_H-M   'P 1'
_cell_length_a   7.82861443
_cell_length_b   7.82861443
_cell_length_c   7.66050936
_cell_angle_alpha   63.07353476
_cell_angle_beta   63.07353476
_cell_angle_gamma   89.81321849
_symmetry_Int_Tables_number   1
_chemical_formula_structural   CsPr(WO4)2
_chemical_formula_sum   'Cs2 Pr2 W4 O16'
_cell_volume   360.98541286
_cell_formula_units_Z   2
loop_
 _symmetry_equiv_pos_site_id
 _symmetry_equiv_pos_as_xyz
  1  'x, y, z'
loop_
 _atom_site_type_symbol
 _atom_site_label
 _atom_site_symmetry_multiplicity
 _atom_site_fract_x
 _atom_site_fract_y
 _atom_site_fract_z
 _atom_site_occupancy
  Cs  Cs0  1  0.19652800  0.80347200  0.75000000  1
  Cs  Cs1  1  0.80347200  0.19652800  0.25000000  1
  Pr  Pr2  1  0.77570800  0.22429200  0.75000000  1
  Pr  Pr3  1  0.22429200  0.77570800  0.25000000  1
  W  W4  1  0.69396100  0.68374500  0.78136600  1
  W  W5  1  0.30603900  0.31625500  0.21863400  1
  W  W6  1  0.31625500  0.30603900  0.71863400  1
  W  W7  1  0.68374500  0.69396100  0.28136600  1
  O  O8  1  0.62007100  0.74501700  0.56587300  1
  O  O9  1  0.37992900  0.25498300  0.43412700  1
  O  O10  1  0.25498300  0.37992900  0.93412700  1
  O  O11  1  0.74501700  0.62007100  0.06587300  1
  O  O12  1  0.38073100  0.07288100  0.86456300  1
  O  O13  1  0.61926900  0.92711900  0.13543700  1
  O  O14  1  0.92711900  0.61926900  0.63543700  1
  O  O15  1  0.07288100  0.38073100  0.36456300  1
  O  O16  1  0.58466000  0.37289400  0.97014500  1
  O  O17  1  0.41534000  0.62710600  0.02985500  1
  O  O18  1  0.62710600  0.41534000  0.52985500  1
  O  O19  1  0.37289400  0.58466000  0.47014500  1
  O  O20  1  0.78222900  0.93977400  0.70031800  1
  O  O21  1  0.21777100  0.06022600  0.29968200  1
  O  O22  1  0.06022600  0.21777100  0.79968200  1
  O  O23  1  0.93977400  0.78222900  0.20031800  1
