# generated using pymatgen
data_Nd(Mo3S4)2
_symmetry_space_group_name_H-M   'P 1'
_cell_length_a   6.55565078
_cell_length_b   6.55565078
_cell_length_c   6.55565072
_cell_angle_alpha   89.06860652
_cell_angle_beta   89.06860652
_cell_angle_gamma   89.06860712
_symmetry_Int_Tables_number   1
_chemical_formula_structural   Nd(Mo3S4)2
_chemical_formula_sum   'Nd1 Mo6 S8'
_cell_volume   281.62881972
_cell_formula_units_Z   1
loop_
 _symmetry_equiv_pos_site_id
 _symmetry_equiv_pos_as_xyz
  1  'x, y, z'
loop_
 _atom_site_type_symbol
 _atom_site_label
 _atom_site_symmetry_multiplicity
 _atom_site_fract_x
 _atom_site_fract_y
 _atom_site_fract_z
 _atom_site_occupancy
  Nd  Nd0  1  0.00000000  0.00000000  0.00000000  1
  Mo  Mo1  1  0.77355400  0.58101600  0.43739800  1
  Mo  Mo2  1  0.43739800  0.77355400  0.58101600  1
  Mo  Mo3  1  0.58101600  0.43739800  0.77355400  1
  Mo  Mo4  1  0.22644600  0.41898400  0.56260200  1
  Mo  Mo5  1  0.56260200  0.22644600  0.41898400  1
  Mo  Mo6  1  0.41898400  0.56260200  0.22644600  1
  S  S7  1  0.75707400  0.75707400  0.75707400  1
  S  S8  1  0.24292600  0.24292600  0.24292600  1
  S  S9  1  0.25204200  0.62502200  0.87361400  1
  S  S10  1  0.87361400  0.25204200  0.62502200  1
  S  S11  1  0.62502200  0.87361400  0.25204200  1
  S  S12  1  0.74795800  0.37497800  0.12638600  1
  S  S13  1  0.12638600  0.74795800  0.37497800  1
  S  S14  1  0.37497800  0.12638600  0.74795800  1
