# generated using pymatgen
data_Ba5SrLa2Fe4O15
_symmetry_space_group_name_H-M   'P 1'
_cell_length_a   11.95380657
_cell_length_b   11.95380657
_cell_length_c   7.16366751
_cell_angle_alpha   89.92346296
_cell_angle_beta   89.92346296
_cell_angle_gamma   119.92459656
_symmetry_Int_Tables_number   1
_chemical_formula_structural   Ba5SrLa2Fe4O15
_chemical_formula_sum   'Ba10 Sr2 La4 Fe8 O30'
_cell_volume   887.16915882
_cell_formula_units_Z   2
loop_
 _symmetry_equiv_pos_site_id
 _symmetry_equiv_pos_as_xyz
  1  'x, y, z'
loop_
 _atom_site_type_symbol
 _atom_site_label
 _atom_site_symmetry_multiplicity
 _atom_site_fract_x
 _atom_site_fract_y
 _atom_site_fract_z
 _atom_site_occupancy
  Ba  Ba0  1  0.00002900  0.00005000  0.49909200  1
  Ba  Ba1  1  0.00005000  0.00002900  0.99909200  1
  Ba  Ba2  1  0.82899300  0.65131300  0.83349400  1
  Ba  Ba3  1  0.34698800  0.17076000  0.83672000  1
  Ba  Ba4  1  0.82612300  0.17480400  0.83467500  1
  Ba  Ba5  1  0.17076000  0.34698800  0.33672000  1
  Ba  Ba6  1  0.65131300  0.82899300  0.33349400  1
  Ba  Ba7  1  0.17480400  0.82612300  0.33467500  1
  Ba  Ba8  1  0.33304700  0.66946900  0.01966700  1
  Ba  Ba9  1  0.66946900  0.33304700  0.51966700  1
  Sr  Sr10  1  0.52138400  0.04316800  0.16518400  1
  Sr  Sr11  1  0.04316800  0.52138400  0.66518400  1
  La  La12  1  0.95833500  0.47898900  0.16536700  1
  La  La13  1  0.52093000  0.47850500  0.16247400  1
  La  La14  1  0.47898900  0.95833500  0.66536700  1
  La  La15  1  0.47850500  0.52093000  0.66247400  1
  Fe  Fe16  1  0.66539800  0.33090200  0.97438800  1
  Fe  Fe17  1  0.33090200  0.66539800  0.47438800  1
  Fe  Fe18  1  0.17758100  0.81950000  0.83459300  1
  Fe  Fe19  1  0.17859400  0.35840000  0.83688500  1
  Fe  Fe20  1  0.64335500  0.82082900  0.83498100  1
  Fe  Fe21  1  0.81950000  0.17758100  0.33459300  1
  Fe  Fe22  1  0.82082900  0.64335500  0.33498100  1
  Fe  Fe23  1  0.35840000  0.17859400  0.33688500  1
  O  O24  1  0.93517400  0.32864700  0.46333500  1
  O  O25  1  0.66687000  0.60385600  0.46880000  1
  O  O26  1  0.39314600  0.06493200  0.47779600  1
  O  O27  1  0.93481500  0.60598700  0.46361900  1
  O  O28  1  0.67080400  0.06381300  0.47741900  1
  O  O29  1  0.39585800  0.33196000  0.46924000  1
  O  O30  1  0.06381300  0.67080400  0.97741900  1
  O  O31  1  0.33196000  0.39585800  0.96924000  1
  O  O32  1  0.60598700  0.93481500  0.96361900  1
  O  O33  1  0.06493200  0.39314600  0.97779600  1
  O  O34  1  0.32864700  0.93517400  0.96333500  1
  O  O35  1  0.60385600  0.66687000  0.96880000  1
  O  O36  1  0.09694300  0.19336400  0.73418200  1
  O  O37  1  0.80879900  0.90283800  0.73318500  1
  O  O38  1  0.09468400  0.90269800  0.73329800  1
  O  O39  1  0.90283800  0.80879900  0.23318500  1
  O  O40  1  0.19336400  0.09694300  0.23418200  1
  O  O41  1  0.90269800  0.09468400  0.23329800  1
  O  O42  1  0.75399600  0.25350700  0.15666000  1
  O  O43  1  0.74934800  0.50296200  0.15654900  1
  O  O44  1  0.49775700  0.25439100  0.15682800  1
  O  O45  1  0.25350700  0.75399600  0.65666000  1
  O  O46  1  0.25439100  0.49775700  0.65682800  1
  O  O47  1  0.50296200  0.74934800  0.65654900  1
  O  O48  1  0.41665700  0.58246800  0.33026100  1
  O  O49  1  0.41474300  0.82774200  0.33425400  1
  O  O50  1  0.16997200  0.58382000  0.32315400  1
  O  O51  1  0.58246800  0.41665700  0.83026100  1
  O  O52  1  0.58382000  0.16997200  0.82315400  1
  O  O53  1  0.82774200  0.41474300  0.83425400  1
