# generated using pymatgen
data_Cs2MgSi5O12
_symmetry_space_group_name_H-M   'P 1'
_cell_length_a   13.89775200
_cell_length_b   13.91041200
_cell_length_c   13.92318300
_cell_angle_alpha   90.00000000
_cell_angle_beta   90.00000000
_cell_angle_gamma   90.00000000
_symmetry_Int_Tables_number   1
_chemical_formula_structural   Cs2MgSi5O12
_chemical_formula_sum   'Cs16 Mg8 Si40 O96'
_cell_volume   2691.67785878
_cell_formula_units_Z   8
loop_
 _symmetry_equiv_pos_site_id
 _symmetry_equiv_pos_as_xyz
  1  'x, y, z'
loop_
 _atom_site_type_symbol
 _atom_site_label
 _atom_site_symmetry_multiplicity
 _atom_site_fract_x
 _atom_site_fract_y
 _atom_site_fract_z
 _atom_site_occupancy
  Cs  Cs0  1  0.85445100  0.62824500  0.13780000  1
  Cs  Cs1  1  0.14554900  0.12824500  0.36220000  1
  Cs  Cs2  1  0.64554900  0.37175500  0.63780000  1
  Cs  Cs3  1  0.35445100  0.87175500  0.86220000  1
  Cs  Cs4  1  0.14554900  0.37175500  0.86220000  1
  Cs  Cs5  1  0.85445100  0.87175500  0.63780000  1
  Cs  Cs6  1  0.35445100  0.62824500  0.36220000  1
  Cs  Cs7  1  0.64554900  0.12824500  0.13780000  1
  Cs  Cs8  1  0.61135900  0.88357400  0.39557200  1
  Cs  Cs9  1  0.38864100  0.38357400  0.10442800  1
  Cs  Cs10  1  0.88864100  0.11642600  0.89557200  1
  Cs  Cs11  1  0.11135900  0.61642600  0.60442800  1
  Cs  Cs12  1  0.38864100  0.11642600  0.60442800  1
  Cs  Cs13  1  0.61135900  0.61642600  0.89557200  1
  Cs  Cs14  1  0.11135900  0.88357400  0.10442800  1
  Cs  Cs15  1  0.88864100  0.38357400  0.39557200  1
  Mg  Mg16  1  0.06922900  0.87774200  0.83793000  1
  Mg  Mg17  1  0.93077100  0.37774200  0.66207000  1
  Mg  Mg18  1  0.43077100  0.12225800  0.33793000  1
  Mg  Mg19  1  0.56922900  0.62225800  0.16207000  1
  Mg  Mg20  1  0.93077100  0.12225800  0.16207000  1
  Mg  Mg21  1  0.06922900  0.62225800  0.33793000  1
  Mg  Mg22  1  0.56922900  0.87774200  0.66207000  1
  Mg  Mg23  1  0.43077100  0.37774200  0.83793000  1
  Si  Si24  1  0.40018800  0.62649200  0.66681200  1
  Si  Si25  1  0.59981200  0.12649200  0.83318800  1
  Si  Si26  1  0.09981200  0.37350800  0.16681200  1
  Si  Si27  1  0.90018800  0.87350800  0.33318800  1
  Si  Si28  1  0.59981200  0.37350800  0.33318800  1
  Si  Si29  1  0.40018800  0.87350800  0.16681200  1
  Si  Si30  1  0.90018800  0.62649200  0.83318800  1
  Si  Si31  1  0.09981200  0.12649200  0.66681200  1
  Si  Si32  1  0.36154000  0.08821500  0.11819200  1
  Si  Si33  1  0.63846000  0.58821500  0.38180800  1
  Si  Si34  1  0.13846000  0.91178500  0.61819200  1
  Si  Si35  1  0.86154000  0.41178500  0.88180800  1
  Si  Si36  1  0.63846000  0.91178500  0.88180800  1
  Si  Si37  1  0.36154000  0.41178500  0.61819200  1
  Si  Si38  1  0.86154000  0.08821500  0.38180800  1
  Si  Si39  1  0.13846000  0.58821500  0.11819200  1
  Si  Si40  1  0.88947600  0.15493800  0.59605100  1
  Si  Si41  1  0.11052400  0.65493800  0.90394900  1
  Si  Si42  1  0.61052400  0.84506200  0.09605100  1
  Si  Si43  1  0.38947600  0.34506200  0.40394900  1
  Si  Si44  1  0.11052400  0.84506200  0.40394900  1
  Si  Si45  1  0.88947600  0.34506200  0.09605100  1
  Si  Si46  1  0.38947600  0.15493800  0.90394900  1
  Si  Si47  1  0.61052400  0.65493800  0.59605100  1
  Si  Si48  1  0.18072500  0.40895900  0.37163100  1
  Si  Si49  1  0.81927500  0.90895900  0.12836900  1
  Si  Si50  1  0.31927500  0.59104100  0.87163100  1
  Si  Si51  1  0.68072500  0.09104100  0.62836900  1
  Si  Si52  1  0.81927500  0.59104100  0.62836900  1
  Si  Si53  1  0.18072500  0.09104100  0.87163100  1
  Si  Si54  1  0.68072500  0.40895900  0.12836900  1
  Si  Si55  1  0.31927500  0.90895900  0.37163100  1
  Si  Si56  1  0.64887600  0.33171400  0.92001500  1
  Si  Si57  1  0.35112400  0.83171400  0.57998500  1
  Si  Si58  1  0.85112400  0.66828600  0.42001500  1
  Si  Si59  1  0.14887600  0.16828600  0.07998500  1
  Si  Si60  1  0.35112400  0.66828600  0.07998500  1
  Si  Si61  1  0.64887600  0.16828600  0.42001500  1
  Si  Si62  1  0.14887600  0.33171400  0.57998500  1
  Si  Si63  1  0.85112400  0.83171400  0.92001500  1
  O  O64  1  0.84576800  0.96954400  0.37350200  1
  O  O65  1  0.15423200  0.46954400  0.12649800  1
  O  O66  1  0.65423200  0.03045600  0.87350200  1
  O  O67  1  0.34576800  0.53045600  0.62649800  1
  O  O68  1  0.15423200  0.03045600  0.62649800  1
  O  O69  1  0.84576800  0.53045600  0.87350200  1
  O  O70  1  0.34576800  0.96954400  0.12649800  1
  O  O71  1  0.65423200  0.46954400  0.37350200  1
  O  O72  1  0.59383300  0.60636500  0.48965600  1
  O  O73  1  0.40616700  0.10636500  0.01034400  1
  O  O74  1  0.90616700  0.39363500  0.98965600  1
  O  O75  1  0.09383300  0.89363500  0.51034400  1
  O  O76  1  0.40616700  0.39363500  0.51034400  1
  O  O77  1  0.59383300  0.89363500  0.98965600  1
  O  O78  1  0.09383300  0.60636500  0.01034400  1
  O  O79  1  0.90616700  0.10636500  0.48965600  1
  O  O80  1  0.51718900  0.88240500  0.16125000  1
  O  O81  1  0.48281100  0.38240500  0.33875000  1
  O  O82  1  0.98281100  0.11759500  0.66125000  1
  O  O83  1  0.01718900  0.61759500  0.83875000  1
  O  O84  1  0.48281100  0.11759500  0.83875000  1
  O  O85  1  0.51718900  0.61759500  0.66125000  1
  O  O86  1  0.01718900  0.88240500  0.33875000  1
  O  O87  1  0.98281100  0.38240500  0.16125000  1
  O  O88  1  0.37698600  0.23160600  0.40687800  1
  O  O89  1  0.62301400  0.73160600  0.09312200  1
  O  O90  1  0.12301400  0.76839400  0.90687800  1
  O  O91  1  0.87698600  0.26839400  0.59312200  1
  O  O92  1  0.62301400  0.76839400  0.59312200  1
  O  O93  1  0.37698600  0.26839400  0.90687800  1
  O  O94  1  0.87698600  0.23160600  0.09312200  1
  O  O95  1  0.12301400  0.73160600  0.40687800  1
  O  O96  1  0.62707700  0.14520700  0.72039300  1
  O  O97  1  0.37292300  0.64520700  0.77960700  1
  O  O98  1  0.87292300  0.85479300  0.22039300  1
  O  O99  1  0.12707700  0.35479300  0.27960700  1
  O  O100  1  0.37292300  0.85479300  0.27960700  1
  O  O101  1  0.62707700  0.35479300  0.22039300  1
  O  O102  1  0.12707700  0.14520700  0.77960700  1
  O  O103  1  0.87292300  0.64520700  0.72039300  1
  O  O104  1  0.24689900  0.86522400  0.62439100  1
  O  O105  1  0.75310100  0.36522400  0.87560900  1
  O  O106  1  0.25310100  0.13477600  0.12439100  1
  O  O107  1  0.74689900  0.63477600  0.37560900  1
  O  O108  1  0.75310100  0.13477600  0.37560900  1
  O  O109  1  0.24689900  0.63477600  0.12439100  1
  O  O110  1  0.74689900  0.86522400  0.87560900  1
  O  O111  1  0.25310100  0.36522400  0.62439100  1
  O  O112  1  0.35211000  0.48285200  0.88743400  1
  O  O113  1  0.64789000  0.98285200  0.61256600  1
  O  O114  1  0.14789000  0.51714800  0.38743400  1
  O  O115  1  0.85211000  0.01714800  0.11256600  1
  O  O116  1  0.64789000  0.51714800  0.11256600  1
  O  O117  1  0.35211000  0.01714800  0.38743400  1
  O  O118  1  0.85211000  0.48285200  0.61256600  1
  O  O119  1  0.14789000  0.98285200  0.88743400  1
  O  O120  1  0.15346500  0.16363100  0.96148600  1
  O  O121  1  0.84653500  0.66363100  0.53851400  1
  O  O122  1  0.34653500  0.83636900  0.46148600  1
  O  O123  1  0.65346500  0.33636900  0.03851400  1
  O  O124  1  0.84653500  0.83636900  0.03851400  1
  O  O125  1  0.15346500  0.33636900  0.46148600  1
  O  O126  1  0.65346500  0.16363100  0.53851400  1
  O  O127  1  0.34653500  0.66363100  0.96148600  1
  O  O128  1  0.06497900  0.39401900  0.62612800  1
  O  O129  1  0.93502100  0.89401900  0.87387200  1
  O  O130  1  0.43502100  0.60598100  0.12612800  1
  O  O131  1  0.56497900  0.10598100  0.37387200  1
  O  O132  1  0.93502100  0.60598100  0.37387200  1
  O  O133  1  0.06497900  0.10598100  0.12612800  1
  O  O134  1  0.56497900  0.39401900  0.87387200  1
  O  O135  1  0.43502100  0.89401900  0.62612800  1
  O  O136  1  0.85909700  0.71437100  0.89903300  1
  O  O137  1  0.14090300  0.21437100  0.60096700  1
  O  O138  1  0.64090300  0.28562900  0.39903300  1
  O  O139  1  0.35909700  0.78562900  0.10096700  1
  O  O140  1  0.14090300  0.28562900  0.10096700  1
  O  O141  1  0.85909700  0.78562900  0.39903300  1
  O  O142  1  0.35909700  0.71437100  0.60096700  1
  O  O143  1  0.64090300  0.21437100  0.89903300  1
  O  O144  1  0.06983900  0.63128000  0.19869400  1
  O  O145  1  0.93016100  0.13128000  0.30130600  1
  O  O146  1  0.43016100  0.36872000  0.69869400  1
  O  O147  1  0.56983900  0.86872000  0.80130600  1
  O  O148  1  0.93016100  0.36872000  0.80130600  1
  O  O149  1  0.06983900  0.86872000  0.69869400  1
  O  O150  1  0.56983900  0.63128000  0.30130600  1
  O  O151  1  0.43016100  0.13128000  0.19869400  1
  O  O152  1  0.79817700  0.40172900  0.14822300  1
  O  O153  1  0.20182300  0.90172900  0.35177700  1
  O  O154  1  0.70182300  0.59827100  0.64822300  1
  O  O155  1  0.29817700  0.09827100  0.85177700  1
  O  O156  1  0.20182300  0.59827100  0.85177700  1
  O  O157  1  0.79817700  0.09827100  0.64822300  1
  O  O158  1  0.29817700  0.40172900  0.35177700  1
  O  O159  1  0.70182300  0.90172900  0.14822300  1
