# generated using pymatgen
data_TiTlAsO5
_symmetry_space_group_name_H-M   'P 1'
_cell_length_a   6.75918200
_cell_length_b   10.98151900
_cell_length_c   13.47147700
_cell_angle_alpha   90.00000000
_cell_angle_beta   90.00000000
_cell_angle_gamma   90.00000000
_symmetry_Int_Tables_number   1
_chemical_formula_structural   TiTlAsO5
_chemical_formula_sum   'Ti8 Tl8 As8 O40'
_cell_volume   999.93500439
_cell_formula_units_Z   8
loop_
 _symmetry_equiv_pos_site_id
 _symmetry_equiv_pos_as_xyz
  1  'x, y, z'
loop_
 _atom_site_type_symbol
 _atom_site_label
 _atom_site_symmetry_multiplicity
 _atom_site_fract_x
 _atom_site_fract_y
 _atom_site_fract_z
 _atom_site_occupancy
  Ti  Ti0  1  0.26749600  0.26555900  0.25314400  1
  Ti  Ti1  1  0.73250400  0.76555900  0.74685600  1
  Ti  Ti2  1  0.23250400  0.26555900  0.75314400  1
  Ti  Ti3  1  0.76749600  0.76555900  0.24685600  1
  Ti  Ti4  1  0.50017500  0.01517500  0.13063600  1
  Ti  Ti5  1  0.49982500  0.51517500  0.86936400  1
  Ti  Ti6  1  0.99982500  0.01517500  0.63063600  1
  Ti  Ti7  1  0.00017500  0.51517500  0.36936400  1
  Tl  Tl8  1  0.20257400  0.57892900  0.10412600  1
  Tl  Tl9  1  0.79742600  0.07892900  0.89587400  1
  Tl  Tl10  1  0.29742600  0.57892900  0.60412600  1
  Tl  Tl11  1  0.70257400  0.07892900  0.39587400  1
  Tl  Tl12  1  0.78205500  0.32597300  0.12408300  1
  Tl  Tl13  1  0.21794500  0.82597300  0.87591700  1
  Tl  Tl14  1  0.71794500  0.32597300  0.62408300  1
  Tl  Tl15  1  0.28205500  0.82597300  0.37591700  1
  As  As16  1  0.00454200  0.02600400  0.18095000  1
  As  As17  1  0.99545800  0.52600400  0.81905000  1
  As  As18  1  0.49545800  0.02600400  0.68095000  1
  As  As19  1  0.50454200  0.52600400  0.31905000  1
  As  As20  1  0.33666300  0.27370200  0.99998000  1
  As  As21  1  0.66333700  0.77370200  0.00002000  1
  As  As22  1  0.16333700  0.27370200  0.49998000  1
  As  As23  1  0.83666300  0.77370200  0.50002000  1
  O  O24  1  0.04055200  0.15098900  0.25767700  1
  O  O25  1  0.95944800  0.65098900  0.74232300  1
  O  O26  1  0.45944800  0.15098900  0.75767700  1
  O  O27  1  0.54055200  0.65098900  0.24232300  1
  O  O28  1  0.45017100  0.15353600  0.21840800  1
  O  O29  1  0.54982900  0.65353600  0.78159200  1
  O  O30  1  0.04982900  0.15353600  0.71840800  1
  O  O31  1  0.95017100  0.65353600  0.28159200  1
  O  O32  1  0.49900000  0.15592700  0.01332800  1
  O  O33  1  0.50100000  0.65592700  0.98667200  1
  O  O34  1  0.00100000  0.15592700  0.51332800  1
  O  O35  1  0.99900000  0.65592700  0.48667200  1
  O  O36  1  0.30126900  0.55995000  0.39042200  1
  O  O37  1  0.69873100  0.05995000  0.60957800  1
  O  O38  1  0.19873100  0.55995000  0.89042200  1
  O  O39  1  0.80126900  0.05995000  0.10957800  1
  O  O40  1  0.02891200  0.40696000  0.48797000  1
  O  O41  1  0.97108800  0.90696000  0.51203000  1
  O  O42  1  0.47108800  0.40696000  0.98797000  1
  O  O43  1  0.52891200  0.90696000  0.01203000  1
  O  O44  1  0.31563300  0.25241100  0.39817600  1
  O  O45  1  0.68436700  0.75241100  0.60182400  1
  O  O46  1  0.18436700  0.25241100  0.89817600  1
  O  O47  1  0.81563300  0.75241100  0.10182400  1
  O  O48  1  0.20667500  0.99636600  0.10838900  1
  O  O49  1  0.79332500  0.49636600  0.89161100  1
  O  O50  1  0.29332500  0.99636600  0.60838900  1
  O  O51  1  0.70667500  0.49636600  0.39161100  1
  O  O52  1  0.46138900  0.40493700  0.24057700  1
  O  O53  1  0.53861100  0.90493700  0.75942300  1
  O  O54  1  0.03861100  0.40493700  0.74057700  1
  O  O55  1  0.96138900  0.90493700  0.25942300  1
  O  O56  1  0.05726700  0.40309900  0.28042200  1
  O  O57  1  0.94273300  0.90309900  0.71957800  1
  O  O58  1  0.44273300  0.40309900  0.78042200  1
  O  O59  1  0.55726700  0.90309900  0.21957800  1
  O  O60  1  0.19295000  0.29634500  0.10447200  1
  O  O61  1  0.80705000  0.79634500  0.89552800  1
  O  O62  1  0.30705000  0.29634500  0.60447200  1
  O  O63  1  0.69295000  0.79634500  0.39552800  1
