# generated using pymatgen
data_NaNdFeWO6
_symmetry_space_group_name_H-M   'P 1'
_cell_length_a   5.55606800
_cell_length_b   5.60151800
_cell_length_c   8.11166461
_cell_angle_alpha   90.00000000
_cell_angle_beta   90.31135769
_cell_angle_gamma   90.00000000
_symmetry_Int_Tables_number   1
_chemical_formula_structural   NaNdFeWO6
_chemical_formula_sum   'Na2 Nd2 Fe2 W2 O12'
_cell_volume   252.45086408
_cell_formula_units_Z   2
loop_
 _symmetry_equiv_pos_site_id
 _symmetry_equiv_pos_as_xyz
  1  'x, y, z'
loop_
 _atom_site_type_symbol
 _atom_site_label
 _atom_site_symmetry_multiplicity
 _atom_site_fract_x
 _atom_site_fract_y
 _atom_site_fract_z
 _atom_site_occupancy
  Na  Na0  1  0.74480900  0.99266500  0.49799100  1
  Na  Na1  1  0.25519100  0.49266500  0.50200900  1
  Nd  Nd2  1  0.75967500  0.06225300  0.00134500  1
  Nd  Nd3  1  0.24032500  0.56225300  0.99865500  1
  Fe  Fe4  1  0.75141300  0.51789800  0.25868500  1
  Fe  Fe5  1  0.24858700  0.01789800  0.74131500  1
  W  W6  1  0.74315100  0.51230000  0.73798200  1
  W  W7  1  0.25684900  0.01230000  0.26201800  1
  O  O8  1  0.95057700  0.78427500  0.80950900  1
  O  O9  1  0.04942300  0.28427500  0.19049100  1
  O  O10  1  0.97620900  0.80787300  0.19240300  1
  O  O11  1  0.02379100  0.30787300  0.80759700  1
  O  O12  1  0.46123600  0.70186000  0.72234400  1
  O  O13  1  0.53876400  0.20186000  0.27765600  1
  O  O14  1  0.56674300  0.21967100  0.71724200  1
  O  O15  1  0.43325700  0.71967100  0.28275800  1
  O  O16  1  0.66078700  0.48747500  0.98822400  1
  O  O17  1  0.33921300  0.98747500  0.01177600  1
  O  O18  1  0.83130400  0.53853100  0.51736700  1
  O  O19  1  0.16869600  0.03853100  0.48263300  1
