# generated using pymatgen
data_UGa5Fe
_symmetry_space_group_name_H-M   'P 1'
_cell_length_a   4.28262200
_cell_length_b   4.28262200
_cell_length_c   6.69635300
_cell_angle_alpha   90.00000000
_cell_angle_beta   90.00000000
_cell_angle_gamma   90.00000000
_symmetry_Int_Tables_number   1
_chemical_formula_structural   UGa5Fe
_chemical_formula_sum   'U1 Ga5 Fe1'
_cell_volume   122.81681392
_cell_formula_units_Z   1
loop_
 _symmetry_equiv_pos_site_id
 _symmetry_equiv_pos_as_xyz
  1  'x, y, z'
loop_
 _atom_site_type_symbol
 _atom_site_label
 _atom_site_symmetry_multiplicity
 _atom_site_fract_x
 _atom_site_fract_y
 _atom_site_fract_z
 _atom_site_occupancy
  U  U0  1  0.00000000  0.00000000  0.00000000  1
  Ga  Ga1  1  0.50000000  0.50000000  0.00000000  1
  Ga  Ga2  1  0.50000000  0.00000000  0.69176000  1
  Ga  Ga3  1  0.00000000  0.50000000  0.69176000  1
  Ga  Ga4  1  0.50000000  0.00000000  0.30824000  1
  Ga  Ga5  1  0.00000000  0.50000000  0.30824000  1
  Fe  Fe6  1  0.00000000  0.00000000  0.50000000  1
