# generated using pymatgen
data_SrZn11
_symmetry_space_group_name_H-M   'P 1'
_cell_length_a   8.37367022
_cell_length_b   8.37367022
_cell_length_c   8.37367022
_cell_angle_alpha   99.78058500
_cell_angle_beta   99.78058500
_cell_angle_gamma   131.31885377
_symmetry_Int_Tables_number   1
_chemical_formula_structural   SrZn11
_chemical_formula_sum   'Sr2 Zn22'
_cell_volume   401.77806243
_cell_formula_units_Z   2
loop_
 _symmetry_equiv_pos_site_id
 _symmetry_equiv_pos_as_xyz
  1  'x, y, z'
loop_
 _atom_site_type_symbol
 _atom_site_label
 _atom_site_symmetry_multiplicity
 _atom_site_fract_x
 _atom_site_fract_y
 _atom_site_fract_z
 _atom_site_occupancy
  Sr  Sr0  1  0.00000000  0.00000000  0.00000000  1
  Sr  Sr1  1  0.25000000  0.75000000  0.50000000  1
  Zn  Zn2  1  0.06676400  0.65070100  0.82832100  1
  Zn  Zn3  1  0.82238000  0.23844300  0.17167900  1
  Zn  Zn4  1  0.75000000  0.25000000  0.50000000  1
  Zn  Zn5  1  0.50000000  0.50000000  0.00000000  1
  Zn  Zn6  1  0.62500000  0.37500000  0.75000000  1
  Zn  Zn7  1  0.62500000  0.37500000  0.25000000  1
  Zn  Zn8  1  0.12500000  0.37500000  0.75000000  1
  Zn  Zn9  1  0.62500000  0.87500000  0.25000000  1
  Zn  Zn10  1  0.82238000  0.65070100  0.58393700  1
  Zn  Zn11  1  0.90070100  0.81676400  0.32832100  1
  Zn  Zn12  1  0.48844300  0.57238000  0.67167900  1
  Zn  Zn13  1  0.06676400  0.23844300  0.41606300  1
  Zn  Zn14  1  0.76155700  0.93323600  0.58393700  1
  Zn  Zn15  1  0.34929900  0.17762000  0.41606300  1
  Zn  Zn16  1  0.42762000  0.51155700  0.32832100  1
  Zn  Zn17  1  0.18323600  0.09929900  0.67167900  1
  Zn  Zn18  1  0.42762000  0.09929900  0.91606300  1
  Zn  Zn19  1  0.34929900  0.93323600  0.17167900  1
  Zn  Zn20  1  0.76155700  0.17762000  0.82832100  1
  Zn  Zn21  1  0.18323600  0.51155700  0.08393700  1
  Zn  Zn22  1  0.48844300  0.81676400  0.91606300  1
  Zn  Zn23  1  0.90070100  0.57238000  0.08393700  1
