# generated using pymatgen
data_Na(GeP)3
_symmetry_space_group_name_H-M   'P 1'
_cell_length_a   3.66602200
_cell_length_b   8.43369900
_cell_length_c   10.40919000
_cell_angle_alpha   90.00000000
_cell_angle_beta   90.00000000
_cell_angle_gamma   90.00000000
_symmetry_Int_Tables_number   1
_chemical_formula_structural   Na(GeP)3
_chemical_formula_sum   'Na2 Ge6 P6'
_cell_volume   321.83264876
_cell_formula_units_Z   2
loop_
 _symmetry_equiv_pos_site_id
 _symmetry_equiv_pos_as_xyz
  1  'x, y, z'
loop_
 _atom_site_type_symbol
 _atom_site_label
 _atom_site_symmetry_multiplicity
 _atom_site_fract_x
 _atom_site_fract_y
 _atom_site_fract_z
 _atom_site_occupancy
  Na  Na0  1  0.00000000  0.62958500  0.50208200  1
  Na  Na1  1  0.00000000  0.37041500  0.00208200  1
  Ge  Ge2  1  0.00000000  0.29258600  0.71900300  1
  Ge  Ge3  1  0.00000000  0.70741400  0.21900300  1
  Ge  Ge4  1  0.00000000  0.99895900  0.64670600  1
  Ge  Ge5  1  0.00000000  0.00104100  0.14670600  1
  Ge  Ge6  1  0.50000000  0.81454800  0.91358500  1
  Ge  Ge7  1  0.50000000  0.18545200  0.41358500  1
  P  P8  1  0.00000000  0.76548000  0.77669700  1
  P  P9  1  0.00000000  0.23452000  0.27669700  1
  P  P10  1  0.50000000  0.93164600  0.50730500  1
  P  P11  1  0.50000000  0.06835400  0.00730500  1
  P  P12  1  0.50000000  0.37106300  0.58105300  1
  P  P13  1  0.50000000  0.62893700  0.08105300  1
