# generated using pymatgen
data_Pr2Mn2Se2O3
_symmetry_space_group_name_H-M   'P 1'
_cell_length_a   9.98442841
_cell_length_b   9.98442841
_cell_length_c   9.98442841
_cell_angle_alpha   155.88772743
_cell_angle_beta   155.88772743
_cell_angle_gamma   34.36145494
_symmetry_Int_Tables_number   1
_chemical_formula_structural   Pr2Mn2Se2O3
_chemical_formula_sum   'Pr2 Mn2 Se2 O3'
_cell_volume   165.94212489
_cell_formula_units_Z   1
loop_
 _symmetry_equiv_pos_site_id
 _symmetry_equiv_pos_as_xyz
  1  'x, y, z'
loop_
 _atom_site_type_symbol
 _atom_site_label
 _atom_site_symmetry_multiplicity
 _atom_site_fract_x
 _atom_site_fract_y
 _atom_site_fract_z
 _atom_site_occupancy
  Pr  Pr0  1  0.31091900  0.31091900  0.00000000  1
  Pr  Pr1  1  0.68908100  0.68908100  0.00000000  1
  Mn  Mn2  1  0.50000000  0.00000000  0.50000000  1
  Mn  Mn3  1  0.00000000  0.50000000  0.50000000  1
  Se  Se4  1  0.89853900  0.89853900  0.00000000  1
  Se  Se5  1  0.10146100  0.10146100  0.00000000  1
  O  O6  1  0.25000000  0.75000000  0.50000000  1
  O  O7  1  0.75000000  0.25000000  0.50000000  1
  O  O8  1  0.50000000  0.50000000  0.00000000  1
