# generated using pymatgen
data_K4Yb2Si8O21
_symmetry_space_group_name_H-M   'P 1'
_cell_length_a   10.84423530
_cell_length_b   10.84423530
_cell_length_c   12.91819190
_cell_angle_alpha   56.99645900
_cell_angle_beta   56.99645900
_cell_angle_gamma   68.12787406
_symmetry_Int_Tables_number   1
_chemical_formula_structural   K4Yb2Si8O21
_chemical_formula_sum   'K8 Yb4 Si16 O42'
_cell_volume   1062.20227241
_cell_formula_units_Z   2
loop_
 _symmetry_equiv_pos_site_id
 _symmetry_equiv_pos_as_xyz
  1  'x, y, z'
loop_
 _atom_site_type_symbol
 _atom_site_label
 _atom_site_symmetry_multiplicity
 _atom_site_fract_x
 _atom_site_fract_y
 _atom_site_fract_z
 _atom_site_occupancy
  K  K0  1  0.68377700  0.00713800  0.30882900  1
  K  K1  1  0.99286200  0.31622300  0.19117100  1
  K  K2  1  0.31622300  0.99286200  0.69117100  1
  K  K3  1  0.00713800  0.68377700  0.80882900  1
  K  K4  1  0.77453100  0.47293800  0.49438100  1
  K  K5  1  0.52706200  0.22546900  0.00561900  1
  K  K6  1  0.22546900  0.52706200  0.50561900  1
  K  K7  1  0.47293800  0.77453100  0.99438100  1
  Yb  Yb8  1  0.85715800  0.91491100  0.52743100  1
  Yb  Yb9  1  0.08508900  0.14284200  0.97256900  1
  Yb  Yb10  1  0.14284200  0.08508900  0.47256900  1
  Yb  Yb11  1  0.91491100  0.85715800  0.02743100  1
  Si  Si12  1  0.78381600  0.03689100  0.76759800  1
  Si  Si13  1  0.96310900  0.21618400  0.73240200  1
  Si  Si14  1  0.21618400  0.96310900  0.23240200  1
  Si  Si15  1  0.03689100  0.78381600  0.26759800  1
  Si  Si16  1  0.61240000  0.25658700  0.44250900  1
  Si  Si17  1  0.74341300  0.38760000  0.05749100  1
  Si  Si18  1  0.38760000  0.74341300  0.55749100  1
  Si  Si19  1  0.25658700  0.61240000  0.94250900  1
  Si  Si20  1  0.57038300  0.70823200  0.70130900  1
  Si  Si21  1  0.29176800  0.42961700  0.79869100  1
  Si  Si22  1  0.42961700  0.29176800  0.29869100  1
  Si  Si23  1  0.70823200  0.57038300  0.20130900  1
  Si  Si24  1  0.84222100  0.53036100  0.73107100  1
  Si  Si25  1  0.46963900  0.15777900  0.76892900  1
  Si  Si26  1  0.15777900  0.46963900  0.26892900  1
  Si  Si27  1  0.53036100  0.84222100  0.23107100  1
  O  O28  1  0.89521400  0.01211100  0.63017000  1
  O  O29  1  0.98788900  0.10478600  0.86983000  1
  O  O30  1  0.10478600  0.98788900  0.36983000  1
  O  O31  1  0.01211100  0.89521400  0.13017000  1
  O  O32  1  0.62414800  0.84823400  0.66912000  1
  O  O33  1  0.15176600  0.37585200  0.83088000  1
  O  O34  1  0.37585200  0.15176600  0.33088000  1
  O  O35  1  0.84823400  0.62414800  0.16912000  1
  O  O36  1  0.89153800  0.81896900  0.38989600  1
  O  O37  1  0.18103100  0.10846200  0.11010400  1
  O  O38  1  0.10846200  0.18103100  0.61010400  1
  O  O39  1  0.81896900  0.89153800  0.88989600  1
  O  O40  1  0.75492600  0.14156300  0.41030100  1
  O  O41  1  0.85843700  0.24507400  0.08969900  1
  O  O42  1  0.24507400  0.85843700  0.58969900  1
  O  O43  1  0.14156300  0.75492600  0.91030100  1
  O  O44  1  0.93755200  0.66696200  0.64247400  1
  O  O45  1  0.33303800  0.06244800  0.85752600  1
  O  O46  1  0.06244800  0.33303800  0.35752600  1
  O  O47  1  0.66696200  0.93755200  0.14247400  1
  O  O48  1  0.94625400  0.39230400  0.69240600  1
  O  O49  1  0.60769600  0.05374600  0.80759400  1
  O  O50  1  0.05374600  0.60769600  0.30759400  1
  O  O51  1  0.39230400  0.94625400  0.19240600  1
  O  O52  1  0.19212100  0.80787900  0.25000000  1
  O  O53  1  0.80787900  0.19212100  0.75000000  1
  O  O54  1  0.77123000  0.47443300  0.89686800  1
  O  O55  1  0.52556700  0.22877000  0.60313200  1
  O  O56  1  0.22877000  0.52556700  0.10313200  1
  O  O57  1  0.47443300  0.77123000  0.39686800  1
  O  O58  1  0.42858500  0.65316500  0.85588400  1
  O  O59  1  0.34683500  0.57141500  0.64411600  1
  O  O60  1  0.57141500  0.34683500  0.14411600  1
  O  O61  1  0.65316500  0.42858500  0.35588400  1
  O  O62  1  0.51656300  0.74472500  0.58840600  1
  O  O63  1  0.25527500  0.48343700  0.91159400  1
  O  O64  1  0.48343700  0.25527500  0.41159400  1
  O  O65  1  0.74472500  0.51656300  0.08840600  1
  O  O66  1  0.69906100  0.56404100  0.70128400  1
  O  O67  1  0.43595900  0.30093900  0.79871600  1
  O  O68  1  0.30093900  0.43595900  0.29871600  1
  O  O69  1  0.56404100  0.69906100  0.20128400  1
