# generated using pymatgen
data_Ag9P14(OF)28
_symmetry_space_group_name_H-M   'P 1'
_cell_length_a   10.11794000
_cell_length_b   10.46002600
_cell_length_c   24.76830652
_cell_angle_alpha   90.00000000
_cell_angle_beta   105.31400977
_cell_angle_gamma   90.00000000
_symmetry_Int_Tables_number   1
_chemical_formula_structural   Ag9P14(OF)28
_chemical_formula_sum   'Ag18 P28 O56 F56'
_cell_volume   2528.25106066
_cell_formula_units_Z   2
loop_
 _symmetry_equiv_pos_site_id
 _symmetry_equiv_pos_as_xyz
  1  'x, y, z'
loop_
 _atom_site_type_symbol
 _atom_site_label
 _atom_site_symmetry_multiplicity
 _atom_site_fract_x
 _atom_site_fract_y
 _atom_site_fract_z
 _atom_site_occupancy
  Ag  Ag0  1  0.66596800  0.54430600  0.22364700  1
  Ag  Ag1  1  0.33403200  0.04430600  0.27635300  1
  Ag  Ag2  1  0.33403200  0.45569400  0.77635300  1
  Ag  Ag3  1  0.66596800  0.95569400  0.72364700  1
  Ag  Ag4  1  0.06968500  0.67997900  0.07738800  1
  Ag  Ag5  1  0.93031500  0.17997900  0.42261200  1
  Ag  Ag6  1  0.93031500  0.32002100  0.92261200  1
  Ag  Ag7  1  0.06968500  0.82002100  0.57738800  1
  Ag  Ag8  1  0.00000000  0.00000000  0.00000000  1
  Ag  Ag9  1  0.00000000  0.50000000  0.50000000  1
  Ag  Ag10  1  0.32865700  0.71026600  0.21672100  1
  Ag  Ag11  1  0.67134300  0.21026600  0.28327900  1
  Ag  Ag12  1  0.67134300  0.28973400  0.78327900  1
  Ag  Ag13  1  0.32865700  0.78973400  0.71672100  1
  Ag  Ag14  1  0.73759400  0.55064300  0.08668100  1
  Ag  Ag15  1  0.26240600  0.05064300  0.41331900  1
  Ag  Ag16  1  0.26240600  0.44935700  0.91331900  1
  Ag  Ag17  1  0.73759400  0.94935700  0.58668100  1
  P  P18  1  0.37932900  0.78776600  0.36613100  1
  P  P19  1  0.62067100  0.28776600  0.13386900  1
  P  P20  1  0.62067100  0.21223400  0.63386900  1
  P  P21  1  0.37932900  0.71223400  0.86613100  1
  P  P22  1  0.77227200  0.86662300  0.05116600  1
  P  P23  1  0.22772800  0.36662300  0.44883400  1
  P  P24  1  0.22772800  0.13337700  0.94883400  1
  P  P25  1  0.77227200  0.63337700  0.55116600  1
  P  P26  1  0.22796600  0.97193600  0.12713800  1
  P  P27  1  0.77203400  0.47193600  0.37286200  1
  P  P28  1  0.77203400  0.02806400  0.87286200  1
  P  P29  1  0.22796600  0.52806400  0.62713800  1
  P  P30  1  0.63346200  0.88229200  0.24581000  1
  P  P31  1  0.36653800  0.38229200  0.25419000  1
  P  P32  1  0.36653800  0.11770800  0.75419000  1
  P  P33  1  0.63346200  0.61770800  0.74581000  1
  P  P34  1  0.41373500  0.62865900  0.08107500  1
  P  P35  1  0.58626500  0.12865900  0.41892500  1
  P  P36  1  0.58626500  0.37134100  0.91892500  1
  P  P37  1  0.41373500  0.87134100  0.58107500  1
  P  P38  1  0.01026800  0.85586800  0.43583000  1
  P  P39  1  0.98973200  0.35586800  0.06417000  1
  P  P40  1  0.98973200  0.14413200  0.56417000  1
  P  P41  1  0.01026800  0.64413200  0.93583000  1
  P  P42  1  0.00212500  0.64740700  0.21920500  1
  P  P43  1  0.99787500  0.14740700  0.28079500  1
  P  P44  1  0.99787500  0.35259300  0.78079500  1
  P  P45  1  0.00212500  0.85259300  0.71920500  1
  O  O46  1  0.33461100  0.85618200  0.41174000  1
  O  O47  1  0.66538900  0.35618200  0.08826000  1
  O  O48  1  0.66538900  0.14381800  0.58826000  1
  O  O49  1  0.33461100  0.64381800  0.91174000  1
  O  O50  1  0.32209200  0.82385800  0.30581000  1
  O  O51  1  0.67790800  0.32385800  0.19419000  1
  O  O52  1  0.67790800  0.17614200  0.69419000  1
  O  O53  1  0.32209200  0.67614200  0.80581000  1
  O  O54  1  0.19276800  0.41804100  0.49986100  1
  O  O55  1  0.80723200  0.91804100  0.00013900  1
  O  O56  1  0.80723200  0.58195900  0.50013900  1
  O  O57  1  0.19276800  0.08195900  0.99986100  1
  O  O58  1  0.82725200  0.73713200  0.07346100  1
  O  O59  1  0.17274800  0.23713200  0.42653900  1
  O  O60  1  0.17274800  0.26286800  0.92653900  1
  O  O61  1  0.82725200  0.76286800  0.57346100  1
  O  O62  1  0.09558600  0.92886600  0.08671600  1
  O  O63  1  0.90441400  0.42886600  0.41328400  1
  O  O64  1  0.90441400  0.07113400  0.91328400  1
  O  O65  1  0.09558600  0.57113400  0.58671600  1
  O  O66  1  0.26022300  0.92226700  0.18591900  1
  O  O67  1  0.73977700  0.42226700  0.31408100  1
  O  O68  1  0.73977700  0.07773300  0.81408100  1
  O  O69  1  0.26022300  0.57773300  0.68591900  1
  O  O70  1  0.56947200  0.00068900  0.26240000  1
  O  O71  1  0.43052800  0.50068900  0.23760000  1
  O  O72  1  0.43052800  0.99931100  0.73760000  1
  O  O73  1  0.56947200  0.49931100  0.76240000  1
  O  O74  1  0.54998300  0.76199100  0.22880100  1
  O  O75  1  0.45001700  0.26199100  0.27119900  1
  O  O76  1  0.45001700  0.23800900  0.77119900  1
  O  O77  1  0.54998300  0.73800900  0.72880100  1
  O  O78  1  0.56132600  0.62149800  0.11540300  1
  O  O79  1  0.43867400  0.12149800  0.38459700  1
  O  O80  1  0.43867400  0.37850200  0.88459700  1
  O  O81  1  0.56132600  0.87850200  0.61540300  1
  O  O82  1  0.30713700  0.65698000  0.11141800  1
  O  O83  1  0.69286300  0.15698000  0.38858200  1
  O  O84  1  0.69286300  0.34302000  0.88858200  1
  O  O85  1  0.30713700  0.84302000  0.61141800  1
  O  O86  1  0.08611500  0.98248800  0.44359100  1
  O  O87  1  0.91388500  0.48248800  0.05640900  1
  O  O88  1  0.91388500  0.01751200  0.55640900  1
  O  O89  1  0.08611500  0.51751200  0.94359100  1
  O  O90  1  0.03872900  0.76003500  0.48212200  1
  O  O91  1  0.96127100  0.26003500  0.01787800  1
  O  O92  1  0.96127100  0.23996500  0.51787800  1
  O  O93  1  0.03872900  0.73996500  0.98212200  1
  O  O94  1  0.13230000  0.08392600  0.30664400  1
  O  O95  1  0.86770000  0.58392600  0.19335600  1
  O  O96  1  0.86770000  0.91607400  0.69335600  1
  O  O97  1  0.13230000  0.41607400  0.80664400  1
  O  O98  1  0.11459700  0.63540800  0.18950200  1
  O  O99  1  0.88540300  0.13540800  0.31049800  1
  O  O100  1  0.88540300  0.36459200  0.81049800  1
  O  O101  1  0.11459700  0.86459200  0.68950200  1
  F  F102  1  0.35822000  0.64164600  0.37393600  1
  F  F103  1  0.64178000  0.14164600  0.12606400  1
  F  F104  1  0.64178000  0.35835400  0.62606400  1
  F  F105  1  0.35822000  0.85835400  0.87393600  1
  F  F106  1  0.54021200  0.79064300  0.38000300  1
  F  F107  1  0.45978800  0.29064300  0.11999700  1
  F  F108  1  0.45978800  0.20935700  0.61999700  1
  F  F109  1  0.54021200  0.70935700  0.88000300  1
  F  F110  1  0.38670200  0.13284300  0.96120000  1
  F  F111  1  0.61329800  0.63284300  0.53880000  1
  F  F112  1  0.61329800  0.86715700  0.03880000  1
  F  F113  1  0.38670200  0.36715700  0.46120000  1
  F  F114  1  0.81173100  0.96518200  0.09986400  1
  F  F115  1  0.18826900  0.46518200  0.40013600  1
  F  F116  1  0.18826900  0.03481800  0.90013600  1
  F  F117  1  0.81173100  0.53481800  0.59986400  1
  F  F118  1  0.23439400  0.37890200  0.62929500  1
  F  F119  1  0.76560600  0.87890200  0.87070500  1
  F  F120  1  0.76560600  0.62109800  0.37070500  1
  F  F121  1  0.23439400  0.12109800  0.12929500  1
  F  F122  1  0.35003500  0.94433200  0.10106100  1
  F  F123  1  0.64996500  0.44433200  0.39893900  1
  F  F124  1  0.64996500  0.05566800  0.89893900  1
  F  F125  1  0.35003500  0.55566800  0.60106100  1
  F  F126  1  0.70396600  0.91711800  0.19863700  1
  F  F127  1  0.29603400  0.41711800  0.30136300  1
  F  F128  1  0.29603400  0.08288200  0.80136300  1
  F  F129  1  0.70396600  0.58288200  0.69863700  1
  F  F130  1  0.23678600  0.34233600  0.20711700  1
  F  F131  1  0.76321400  0.84233600  0.29288300  1
  F  F132  1  0.76321400  0.65766400  0.79288300  1
  F  F133  1  0.23678600  0.15766400  0.70711700  1
  F  F134  1  0.37772200  0.50233600  0.04600300  1
  F  F135  1  0.62227800  0.00233600  0.45399700  1
  F  F136  1  0.62227800  0.49766400  0.95399700  1
  F  F137  1  0.37772200  0.99766400  0.54600300  1
  F  F138  1  0.40015500  0.72428300  0.03167600  1
  F  F139  1  0.59984500  0.22428300  0.46832400  1
  F  F140  1  0.59984500  0.27571700  0.96832400  1
  F  F141  1  0.40015500  0.77571700  0.53167600  1
  F  F142  1  0.14605600  0.39215900  0.08166800  1
  F  F143  1  0.85394400  0.89215900  0.41833200  1
  F  F144  1  0.85394400  0.60784100  0.91833200  1
  F  F145  1  0.14605600  0.10784100  0.58166800  1
  F  F146  1  0.02249200  0.79023800  0.38057000  1
  F  F147  1  0.97750800  0.29023800  0.11943000  1
  F  F148  1  0.97750800  0.20976200  0.61943000  1
  F  F149  1  0.02249200  0.70976200  0.88057000  1
  F  F150  1  0.97983200  0.79269300  0.22938900  1
  F  F151  1  0.02016800  0.29269300  0.27061100  1
  F  F152  1  0.02016800  0.20730700  0.77061100  1
  F  F153  1  0.97983200  0.70730700  0.72938900  1
  F  F154  1  0.05735700  0.60260600  0.28144300  1
  F  F155  1  0.94264300  0.10260600  0.21855700  1
  F  F156  1  0.94264300  0.39739400  0.71855700  1
  F  F157  1  0.05735700  0.89739400  0.78144300  1
