# generated using pymatgen
data_GdAgS2
_symmetry_space_group_name_H-M   'P 1'
_cell_length_a   7.69659600
_cell_length_b   7.71511600
_cell_length_c   12.79252487
_cell_angle_alpha   89.54754203
_cell_angle_beta   90.00000000
_cell_angle_gamma   90.00000000
_symmetry_Int_Tables_number   1
_chemical_formula_structural   GdAgS2
_chemical_formula_sum   'Gd8 Ag8 S16'
_cell_volume   759.59811695
_cell_formula_units_Z   8
loop_
 _symmetry_equiv_pos_site_id
 _symmetry_equiv_pos_as_xyz
  1  'x, y, z'
loop_
 _atom_site_type_symbol
 _atom_site_label
 _atom_site_symmetry_multiplicity
 _atom_site_fract_x
 _atom_site_fract_y
 _atom_site_fract_z
 _atom_site_occupancy
  Gd  Gd0  1  0.50455300  0.74633800  0.00308600  1
  Gd  Gd1  1  0.00455300  0.25366200  0.99691400  1
  Gd  Gd2  1  0.25712100  0.00186100  0.75290200  1
  Gd  Gd3  1  0.75712100  0.99813900  0.24709800  1
  Gd  Gd4  1  0.74871700  0.50197000  0.74753800  1
  Gd  Gd5  1  0.24871700  0.49803000  0.25246200  1
  Gd  Gd6  1  0.00320900  0.75255600  0.50299200  1
  Gd  Gd7  1  0.50320900  0.24744400  0.49700800  1
  Ag  Ag8  1  0.24928900  0.50017500  0.79063000  1
  Ag  Ag9  1  0.74928900  0.49982500  0.20937000  1
  Ag  Ag10  1  0.75392600  0.99810000  0.69650600  1
  Ag  Ag11  1  0.25392600  0.00190000  0.30349400  1
  Ag  Ag12  1  0.00408000  0.75651800  0.03266900  1
  Ag  Ag13  1  0.50408000  0.24348200  0.96733100  1
  Ag  Ag14  1  0.49936400  0.74218600  0.52942400  1
  Ag  Ag15  1  0.99936400  0.25781400  0.47057600  1
  S  S16  1  0.78024500  0.02708700  0.46531400  1
  S  S17  1  0.28024500  0.97291300  0.53468600  1
  S  S18  1  0.22959600  0.47682200  0.47119400  1
  S  S19  1  0.72959600  0.52317800  0.52880600  1
  S  S20  1  0.52548800  0.72572200  0.22149900  1
  S  S21  1  0.02548800  0.27427800  0.77850100  1
  S  S22  1  0.47625000  0.72465000  0.78627300  1
  S  S23  1  0.97625000  0.27535000  0.21372700  1
  S  S24  1  0.97996500  0.77495300  0.72080500  1
  S  S25  1  0.47996500  0.22504700  0.27919500  1
  S  S26  1  0.52967500  0.22461300  0.71353300  1
  S  S27  1  0.02967500  0.77538700  0.28646700  1
  S  S28  1  0.27588200  0.02143300  0.97078100  1
  S  S29  1  0.77588200  0.97856700  0.02921900  1
  S  S30  1  0.72623900  0.47245000  0.96456300  1
  S  S31  1  0.22623900  0.52755000  0.03543700  1
