# generated using pymatgen
data_Ho(BRu)4
_symmetry_space_group_name_H-M   'P 1'
_cell_length_a   9.19521491
_cell_length_b   9.19521491
_cell_length_c   9.19521491
_cell_angle_alpha   131.99188110
_cell_angle_beta   131.99188110
_cell_angle_gamma   70.24185011
_symmetry_Int_Tables_number   1
_chemical_formula_structural   Ho(BRu)4
_chemical_formula_sum   'Ho4 B16 Ru16'
_cell_volume   420.95116987
_cell_formula_units_Z   4
loop_
 _symmetry_equiv_pos_site_id
 _symmetry_equiv_pos_as_xyz
  1  'x, y, z'
loop_
 _atom_site_type_symbol
 _atom_site_label
 _atom_site_symmetry_multiplicity
 _atom_site_fract_x
 _atom_site_fract_y
 _atom_site_fract_z
 _atom_site_occupancy
  Ho  Ho0  1  0.25000000  0.25000000  0.00000000  1
  Ho  Ho1  1  0.75000000  0.75000000  0.00000000  1
  Ho  Ho2  1  0.50000000  0.00000000  0.50000000  1
  Ho  Ho3  1  0.00000000  0.50000000  0.50000000  1
  B  B4  1  0.22027300  0.91278100  0.97014100  1
  B  B5  1  0.72027300  0.75013200  0.30749200  1
  B  B6  1  0.16278100  0.97027300  0.47014100  1
  B  B7  1  0.66278100  0.19264000  0.19250800  1
  B  B8  1  0.52972700  0.33721900  0.52985900  1
  B  B9  1  0.02972700  0.49986800  0.19250800  1
  B  B10  1  0.58721900  0.27972700  0.02985900  1
  B  B11  1  0.08721900  0.05736000  0.30749200  1
  B  B12  1  0.44264000  0.41278100  0.69250800  1
  B  B13  1  0.94264000  0.25013200  0.02985900  1
  B  B14  1  0.00013200  0.47027300  0.80749200  1
  B  B15  1  0.50013200  0.69264000  0.52985900  1
  B  B16  1  0.30736000  0.83721900  0.80749200  1
  B  B17  1  0.80736000  0.99986800  0.47014100  1
  B  B18  1  0.74986800  0.77972700  0.69250800  1
  B  B19  1  0.24986800  0.55736000  0.97014100  1
  Ru  Ru20  1  0.53924800  0.07302300  0.23588000  1
  Ru  Ru21  1  0.03924800  0.80336800  0.46622500  1
  Ru  Ru22  1  0.32302300  0.28924800  0.73588000  1
  Ru  Ru23  1  0.82302300  0.08714300  0.03377500  1
  Ru  Ru24  1  0.21075200  0.17697700  0.26412000  1
  Ru  Ru25  1  0.71075200  0.44663200  0.03377500  1
  Ru  Ru26  1  0.42697700  0.96075200  0.76412000  1
  Ru  Ru27  1  0.92697700  0.16285700  0.46622500  1
  Ru  Ru28  1  0.33714300  0.57302300  0.53377500  1
  Ru  Ru29  1  0.83714300  0.30336800  0.76412000  1
  Ru  Ru30  1  0.05336800  0.78924800  0.96622500  1
  Ru  Ru31  1  0.55336800  0.58714300  0.26412000  1
  Ru  Ru32  1  0.41285700  0.67697700  0.96622500  1
  Ru  Ru33  1  0.91285700  0.94663200  0.73588000  1
  Ru  Ru34  1  0.69663200  0.46075200  0.53377500  1
  Ru  Ru35  1  0.19663200  0.66285700  0.23588000  1
