# generated using pymatgen
data_HoB4Rh
_symmetry_space_group_name_H-M   'P 1'
_cell_length_a   3.56763900
_cell_length_b   5.96390800
_cell_length_c   11.55948300
_cell_angle_alpha   90.00000000
_cell_angle_beta   90.00000000
_cell_angle_gamma   90.00000000
_symmetry_Int_Tables_number   1
_chemical_formula_structural   HoB4Rh
_chemical_formula_sum   'Ho4 B16 Rh4'
_cell_volume   245.95193789
_cell_formula_units_Z   4
loop_
 _symmetry_equiv_pos_site_id
 _symmetry_equiv_pos_as_xyz
  1  'x, y, z'
loop_
 _atom_site_type_symbol
 _atom_site_label
 _atom_site_symmetry_multiplicity
 _atom_site_fract_x
 _atom_site_fract_y
 _atom_site_fract_z
 _atom_site_occupancy
  Ho  Ho0  1  0.50000000  0.37016300  0.14906600  1
  Ho  Ho1  1  0.50000000  0.62983700  0.85093400  1
  Ho  Ho2  1  0.50000000  0.12983700  0.64906600  1
  Ho  Ho3  1  0.50000000  0.87016300  0.35093400  1
  B  B4  1  0.00000000  0.11287600  0.04693600  1
  B  B5  1  0.00000000  0.88712400  0.95306400  1
  B  B6  1  0.00000000  0.38712400  0.54693600  1
  B  B7  1  0.00000000  0.61287600  0.45306400  1
  B  B8  1  0.00000000  0.13601600  0.46917100  1
  B  B9  1  0.00000000  0.86398400  0.53082900  1
  B  B10  1  0.00000000  0.36398400  0.96917100  1
  B  B11  1  0.00000000  0.63601600  0.03082900  1
  B  B12  1  0.00000000  0.02417400  0.19301000  1
  B  B13  1  0.00000000  0.97582600  0.80699000  1
  B  B14  1  0.00000000  0.47582600  0.69301000  1
  B  B15  1  0.00000000  0.52417400  0.30699000  1
  B  B16  1  0.00000000  0.21230400  0.31262200  1
  B  B17  1  0.00000000  0.78769600  0.68737800  1
  B  B18  1  0.00000000  0.28769600  0.81262200  1
  B  B19  1  0.00000000  0.71230400  0.18737800  1
  Rh  Rh20  1  0.50000000  0.35801900  0.40523600  1
  Rh  Rh21  1  0.50000000  0.64198100  0.59476400  1
  Rh  Rh22  1  0.50000000  0.14198100  0.90523600  1
  Rh  Rh23  1  0.50000000  0.85801900  0.09476400  1
