# generated using pymatgen
data_InSb3F18
_symmetry_space_group_name_H-M   'P 1'
_cell_length_a   9.04380399
_cell_length_b   9.04380399
_cell_length_c   9.80641900
_cell_angle_alpha   90.00000000
_cell_angle_beta   90.00000000
_cell_angle_gamma   119.99999993
_symmetry_Int_Tables_number   1
_chemical_formula_structural   InSb3F18
_chemical_formula_sum   'In2 Sb6 F36'
_cell_volume   694.61372407
_cell_formula_units_Z   2
loop_
 _symmetry_equiv_pos_site_id
 _symmetry_equiv_pos_as_xyz
  1  'x, y, z'
loop_
 _atom_site_type_symbol
 _atom_site_label
 _atom_site_symmetry_multiplicity
 _atom_site_fract_x
 _atom_site_fract_y
 _atom_site_fract_z
 _atom_site_occupancy
  In  In0  1  0.00000000  0.00000000  0.00000000  1
  In  In1  1  0.00000000  0.00000000  0.50000000  1
  Sb  Sb2  1  0.65367500  0.00000000  0.75000000  1
  Sb  Sb3  1  0.34632500  0.34632500  0.75000000  1
  Sb  Sb4  1  0.00000000  0.65367500  0.75000000  1
  Sb  Sb5  1  0.65367500  0.65367500  0.25000000  1
  Sb  Sb6  1  0.00000000  0.34632500  0.25000000  1
  Sb  Sb7  1  0.34632500  0.00000000  0.25000000  1
  F  F8  1  0.46929100  0.90145300  0.87159800  1
  F  F9  1  0.43216200  0.53070900  0.87159800  1
  F  F10  1  0.09854700  0.56783800  0.87159800  1
  F  F11  1  0.46929100  0.56783800  0.37159800  1
  F  F12  1  0.09854700  0.53070900  0.37159800  1
  F  F13  1  0.43216200  0.90145300  0.37159800  1
  F  F14  1  0.53070900  0.09854700  0.12840200  1
  F  F15  1  0.56783800  0.46929100  0.12840200  1
  F  F16  1  0.90145300  0.43216200  0.12840200  1
  F  F17  1  0.53070900  0.43216200  0.62840200  1
  F  F18  1  0.90145300  0.46929100  0.62840200  1
  F  F19  1  0.56783800  0.09854700  0.62840200  1
  F  F20  1  0.78469700  0.91690300  0.86997800  1
  F  F21  1  0.13220600  0.21530300  0.86997800  1
  F  F22  1  0.08309700  0.86779400  0.86997800  1
  F  F23  1  0.78469700  0.86779400  0.36997800  1
  F  F24  1  0.08309700  0.21530300  0.36997800  1
  F  F25  1  0.13220600  0.91690300  0.36997800  1
  F  F26  1  0.21530300  0.08309700  0.13002200  1
  F  F27  1  0.86779400  0.78469700  0.13002200  1
  F  F28  1  0.91690300  0.13220600  0.13002200  1
  F  F29  1  0.21530300  0.13220600  0.63002200  1
  F  F30  1  0.91690300  0.78469700  0.63002200  1
  F  F31  1  0.86779400  0.08309700  0.63002200  1
  F  F32  1  0.78205200  0.20268700  0.85074000  1
  F  F33  1  0.42063500  0.21794800  0.85074000  1
  F  F34  1  0.79731300  0.57936500  0.85074000  1
  F  F35  1  0.78205200  0.57936500  0.35074000  1
  F  F36  1  0.79731300  0.21794800  0.35074000  1
  F  F37  1  0.42063500  0.20268700  0.35074000  1
  F  F38  1  0.21794800  0.79731300  0.14926000  1
  F  F39  1  0.57936500  0.78205200  0.14926000  1
  F  F40  1  0.20268700  0.42063500  0.14926000  1
  F  F41  1  0.21794800  0.42063500  0.64926000  1
  F  F42  1  0.20268700  0.78205200  0.64926000  1
  F  F43  1  0.57936500  0.79731300  0.64926000  1
