# generated using pymatgen
data_NaMn6P7O24
_symmetry_space_group_name_H-M   'P 1'
_cell_length_a   5.44000823
_cell_length_b   6.65253350
_cell_length_c   27.06500900
_cell_angle_alpha   90.00000000
_cell_angle_beta   90.00000000
_cell_angle_gamma   107.37521010
_symmetry_Int_Tables_number   1
_chemical_formula_structural   NaMn6P7O24
_chemical_formula_sum   'Na2 Mn12 P14 O48'
_cell_volume   934.78430226
_cell_formula_units_Z   2
loop_
 _symmetry_equiv_pos_site_id
 _symmetry_equiv_pos_as_xyz
  1  'x, y, z'
loop_
 _atom_site_type_symbol
 _atom_site_label
 _atom_site_symmetry_multiplicity
 _atom_site_fract_x
 _atom_site_fract_y
 _atom_site_fract_z
 _atom_site_occupancy
  Na  Na0  1  0.77863200  0.57012500  0.75000000  1
  Na  Na1  1  0.22136800  0.42987600  0.25000000  1
  Mn  Mn2  1  0.87283100  0.72090600  0.18283600  1
  Mn  Mn3  1  0.12717100  0.27909500  0.68283600  1
  Mn  Mn4  1  0.87283100  0.72090600  0.31716400  1
  Mn  Mn5  1  0.12717100  0.27909500  0.81716400  1
  Mn  Mn6  1  0.18663000  0.68565800  0.95517800  1
  Mn  Mn7  1  0.81337000  0.31434200  0.45517800  1
  Mn  Mn8  1  0.81337000  0.31434200  0.04482200  1
  Mn  Mn9  1  0.18663000  0.68565800  0.54482200  1
  Mn  Mn10  1  0.79202900  0.91290100  0.90226000  1
  Mn  Mn11  1  0.20797100  0.08710000  0.40226000  1
  Mn  Mn12  1  0.20797100  0.08710000  0.09774000  1
  Mn  Mn13  1  0.79202900  0.91290100  0.59774000  1
  P  P14  1  0.24941900  0.80695000  0.66791300  1
  P  P15  1  0.31494500  0.61724400  0.39025700  1
  P  P16  1  0.24941900  0.80695000  0.83208700  1
  P  P17  1  0.75058100  0.19304900  0.33208700  1
  P  P18  1  0.75058100  0.19304900  0.16791300  1
  P  P19  1  0.68505400  0.38275500  0.89025700  1
  P  P20  1  0.45838000  0.91317300  0.25000000  1
  P  P21  1  0.54162000  0.08682800  0.75000000  1
  P  P22  1  0.31494500  0.61724400  0.10974300  1
  P  P23  1  0.68505400  0.38275500  0.60974300  1
  P  P24  1  0.70829800  0.79499600  0.47528300  1
  P  P25  1  0.29170200  0.20500400  0.97528300  1
  P  P26  1  0.70829800  0.79499600  0.02471700  1
  P  P27  1  0.29170200  0.20500400  0.52471700  1
  O  O28  1  0.85512300  0.63111000  0.02228300  1
  O  O29  1  0.14487700  0.36889000  0.52228300  1
  O  O30  1  0.14487700  0.36889000  0.97771700  1
  O  O31  1  0.85512300  0.63111000  0.47771700  1
  O  O32  1  0.58835700  0.82427500  0.97470800  1
  O  O33  1  0.41164300  0.17572600  0.47470800  1
  O  O34  1  0.41164300  0.17572600  0.02529200  1
  O  O35  1  0.58835700  0.82427500  0.52529200  1
  O  O36  1  0.87117000  0.00326800  0.04769800  1
  O  O37  1  0.12883000  0.99673100  0.54769800  1
  O  O38  1  0.12883000  0.99673100  0.95230200  1
  O  O39  1  0.87117000  0.00326800  0.45230200  1
  O  O40  1  0.45585800  0.71147500  0.05870100  1
  O  O41  1  0.54414200  0.28852500  0.55870200  1
  O  O42  1  0.14207200  0.39692600  0.09502800  1
  O  O43  1  0.45585800  0.71147500  0.44129900  1
  O  O44  1  0.82635600  0.21081400  0.75000000  1
  O  O45  1  0.17364300  0.78918500  0.25000000  1
  O  O46  1  0.35788800  0.22089800  0.75000000  1
  O  O47  1  0.64211200  0.77910300  0.25000000  1
  O  O48  1  0.49554300  0.93374000  0.70372500  1
  O  O49  1  0.50445700  0.06626000  0.20372500  1
  O  O50  1  0.50445700  0.06626000  0.29627500  1
  O  O51  1  0.49554300  0.93374000  0.79627500  1
  O  O52  1  0.50728600  0.61198400  0.14951200  1
  O  O53  1  0.49271400  0.38801700  0.64951200  1
  O  O54  1  0.49271400  0.38801700  0.85048800  1
  O  O55  1  0.50728600  0.61198400  0.35048800  1
  O  O56  1  0.07001900  0.94654900  0.66497500  1
  O  O57  1  0.92998100  0.05345200  0.16497500  1
  O  O58  1  0.92998100  0.05345200  0.33502500  1
  O  O59  1  0.07001900  0.94654900  0.83502600  1
  O  O60  1  0.39009100  0.79182800  0.61979300  1
  O  O61  1  0.60990900  0.20817300  0.11979300  1
  O  O62  1  0.60990900  0.20817300  0.38020700  1
  O  O63  1  0.39009100  0.79182800  0.88020700  1
  O  O64  1  0.12277800  0.59925400  0.69409100  1
  O  O65  1  0.87722200  0.40074600  0.19409100  1
  O  O66  1  0.87722200  0.40074600  0.30590900  1
  O  O67  1  0.12277800  0.59925400  0.80590900  1
  O  O68  1  0.15315900  0.76597400  0.12247500  1
  O  O69  1  0.84684100  0.23402600  0.62247500  1
  O  O70  1  0.84684100  0.23402600  0.87752500  1
  O  O71  1  0.15315900  0.76597400  0.37752500  1
  O  O72  1  0.14207200  0.39692600  0.40497200  1
  O  O73  1  0.85792800  0.60307500  0.90497200  1
  O  O74  1  0.85792800  0.60307500  0.59502800  1
  O  O75  1  0.54414200  0.28852500  0.94129900  1
