# generated using pymatgen
data_PrPS
_symmetry_space_group_name_H-M   'P 1'
_cell_length_a   5.54223000
_cell_length_b   5.62488800
_cell_length_c   17.34786800
_cell_angle_alpha   90.00000000
_cell_angle_beta   90.00000000
_cell_angle_gamma   90.00000000
_symmetry_Int_Tables_number   1
_chemical_formula_structural   PrPS
_chemical_formula_sum   'Pr8 P8 S8'
_cell_volume   540.80977553
_cell_formula_units_Z   8
loop_
 _symmetry_equiv_pos_site_id
 _symmetry_equiv_pos_as_xyz
  1  'x, y, z'
loop_
 _atom_site_type_symbol
 _atom_site_label
 _atom_site_symmetry_multiplicity
 _atom_site_fract_x
 _atom_site_fract_y
 _atom_site_fract_z
 _atom_site_occupancy
  Pr  Pr0  1  0.25000000  0.48387300  0.36248000  1
  Pr  Pr1  1  0.25000000  0.98387300  0.13752000  1
  Pr  Pr2  1  0.75000000  0.51612700  0.63752000  1
  Pr  Pr3  1  0.75000000  0.01612700  0.86248000  1
  Pr  Pr4  1  0.25000000  0.01624200  0.64725600  1
  Pr  Pr5  1  0.25000000  0.51624200  0.85274400  1
  Pr  Pr6  1  0.75000000  0.98375800  0.35274400  1
  Pr  Pr7  1  0.75000000  0.48375800  0.14725600  1
  P  P8  1  0.04419200  0.30566500  0.99744300  1
  P  P9  1  0.45580800  0.80566500  0.50255700  1
  P  P10  1  0.54419200  0.69433500  0.00255700  1
  P  P11  1  0.95580800  0.19433500  0.49744300  1
  P  P12  1  0.95580800  0.69433500  0.00255700  1
  P  P13  1  0.54419200  0.19433500  0.49744300  1
  P  P14  1  0.45580800  0.30566500  0.99744300  1
  P  P15  1  0.04419200  0.80566500  0.50255700  1
  S  S16  1  0.25000000  0.48493300  0.18910600  1
  S  S17  1  0.25000000  0.98493300  0.31089400  1
  S  S18  1  0.75000000  0.51506700  0.81089400  1
  S  S19  1  0.75000000  0.01506700  0.68910600  1
  S  S20  1  0.25000000  0.01251400  0.81729900  1
  S  S21  1  0.25000000  0.51251400  0.68270100  1
  S  S22  1  0.75000000  0.98748600  0.18270100  1
  S  S23  1  0.75000000  0.48748600  0.31729900  1
