# generated using pymatgen
data_Sc2Re3Si4
_symmetry_space_group_name_H-M   'P 1'
_cell_length_a   6.63107200
_cell_length_b   6.63107200
_cell_length_c   12.47381500
_cell_angle_alpha   90.00000000
_cell_angle_beta   90.00000000
_cell_angle_gamma   90.00000000
_symmetry_Int_Tables_number   1
_chemical_formula_structural   Sc2Re3Si4
_chemical_formula_sum   'Sc8 Re12 Si16'
_cell_volume   548.48756470
_cell_formula_units_Z   4
loop_
 _symmetry_equiv_pos_site_id
 _symmetry_equiv_pos_as_xyz
  1  'x, y, z'
loop_
 _atom_site_type_symbol
 _atom_site_label
 _atom_site_symmetry_multiplicity
 _atom_site_fract_x
 _atom_site_fract_y
 _atom_site_fract_z
 _atom_site_occupancy
  Sc  Sc0  1  0.00751300  0.65868600  0.03095000  1
  Sc  Sc1  1  0.99248700  0.34131400  0.53095000  1
  Sc  Sc2  1  0.34131400  0.99248700  0.46905000  1
  Sc  Sc3  1  0.15868600  0.49248700  0.78095000  1
  Sc  Sc4  1  0.84131400  0.50751300  0.28095000  1
  Sc  Sc5  1  0.49248700  0.15868600  0.21905000  1
  Sc  Sc6  1  0.50751300  0.84131400  0.71905000  1
  Sc  Sc7  1  0.65868600  0.00751300  0.96905000  1
  Re  Re8  1  0.66796400  0.66796400  0.50000000  1
  Re  Re9  1  0.16796400  0.83203600  0.25000000  1
  Re  Re10  1  0.33203600  0.33203600  0.00000000  1
  Re  Re11  1  0.01767700  0.81453400  0.63262800  1
  Re  Re12  1  0.98232300  0.18546600  0.13262800  1
  Re  Re13  1  0.81453400  0.01767700  0.36737200  1
  Re  Re14  1  0.31453400  0.48232300  0.38262800  1
  Re  Re15  1  0.68546600  0.51767700  0.88262800  1
  Re  Re16  1  0.48232300  0.31453400  0.61737200  1
  Re  Re17  1  0.51767700  0.68546600  0.11737200  1
  Re  Re18  1  0.18546600  0.98232300  0.86737200  1
  Re  Re19  1  0.83203600  0.16796400  0.75000000  1
  Si  Si20  1  0.02624700  0.72142200  0.43769400  1
  Si  Si21  1  0.62075300  0.30454600  0.43039500  1
  Si  Si22  1  0.37924700  0.69545400  0.93039500  1
  Si  Si23  1  0.19545400  0.12075300  0.68039500  1
  Si  Si24  1  0.30454600  0.62075300  0.56960500  1
  Si  Si25  1  0.69545400  0.37924700  0.06960500  1
  Si  Si26  1  0.80454600  0.87924700  0.18039500  1
  Si  Si27  1  0.12075300  0.19545400  0.31960500  1
  Si  Si28  1  0.97375300  0.27857800  0.93769400  1
  Si  Si29  1  0.72142200  0.02624700  0.56230600  1
  Si  Si30  1  0.22142200  0.47375300  0.18769400  1
  Si  Si31  1  0.77857800  0.52624700  0.68769400  1
  Si  Si32  1  0.47375300  0.22142200  0.81230600  1
  Si  Si33  1  0.52624700  0.77857800  0.31230600  1
  Si  Si34  1  0.27857800  0.97375300  0.06230600  1
  Si  Si35  1  0.87924700  0.80454600  0.81960500  1
