# generated using pymatgen
data_ZrCuGeAs
_symmetry_space_group_name_H-M   'P 1'
_cell_length_a   3.75369400
_cell_length_b   3.75369400
_cell_length_c   9.60709500
_cell_angle_alpha   90.00000000
_cell_angle_beta   90.00000000
_cell_angle_gamma   90.00000000
_symmetry_Int_Tables_number   1
_chemical_formula_structural   ZrCuGeAs
_chemical_formula_sum   'Zr2 Cu2 Ge2 As2'
_cell_volume   135.36606910
_cell_formula_units_Z   2
loop_
 _symmetry_equiv_pos_site_id
 _symmetry_equiv_pos_as_xyz
  1  'x, y, z'
loop_
 _atom_site_type_symbol
 _atom_site_label
 _atom_site_symmetry_multiplicity
 _atom_site_fract_x
 _atom_site_fract_y
 _atom_site_fract_z
 _atom_site_occupancy
  Zr  Zr0  1  0.00000000  0.50000000  0.77209700  1
  Zr  Zr1  1  0.50000000  0.00000000  0.22790300  1
  Cu  Cu2  1  0.00000000  0.00000000  0.50000000  1
  Cu  Cu3  1  0.50000000  0.50000000  0.50000000  1
  Ge  Ge4  1  0.00000000  0.00000000  0.00000000  1
  Ge  Ge5  1  0.50000000  0.50000000  0.00000000  1
  As  As6  1  0.00000000  0.50000000  0.32361800  1
  As  As7  1  0.50000000  0.00000000  0.67638200  1
