# generated using pymatgen
data_RbHoP2O7
_symmetry_space_group_name_H-M   'P 1'
_cell_length_a   11.03213900
_cell_length_b   7.88176000
_cell_length_c   8.81519007
_cell_angle_alpha   74.35845580
_cell_angle_beta   90.00000000
_cell_angle_gamma   90.00000000
_symmetry_Int_Tables_number   1
_chemical_formula_structural   RbHoP2O7
_chemical_formula_sum   'Rb4 Ho4 P8 O28'
_cell_volume   738.11862393
_cell_formula_units_Z   4
loop_
 _symmetry_equiv_pos_site_id
 _symmetry_equiv_pos_as_xyz
  1  'x, y, z'
loop_
 _atom_site_type_symbol
 _atom_site_label
 _atom_site_symmetry_multiplicity
 _atom_site_fract_x
 _atom_site_fract_y
 _atom_site_fract_z
 _atom_site_occupancy
  Rb  Rb0  1  0.81801200  0.81827700  0.55657000  1
  Rb  Rb1  1  0.18198800  0.18172300  0.44343000  1
  Rb  Rb2  1  0.31801200  0.18172300  0.94343000  1
  Rb  Rb3  1  0.68198800  0.81827700  0.05657000  1
  Ho  Ho4  1  0.40047500  0.76185800  0.75801500  1
  Ho  Ho5  1  0.59952500  0.23814200  0.24198500  1
  Ho  Ho6  1  0.90047500  0.23814200  0.74198500  1
  Ho  Ho7  1  0.09952500  0.76185800  0.25801500  1
  P  P8  1  0.13297300  0.56667900  0.69172900  1
  P  P9  1  0.86702700  0.43332100  0.30827100  1
  P  P10  1  0.63297300  0.43332100  0.80827100  1
  P  P11  1  0.36702700  0.56667900  0.19172900  1
  P  P12  1  0.09788800  0.86764400  0.82421300  1
  P  P13  1  0.90211200  0.13235600  0.17578700  1
  P  P14  1  0.59788800  0.13235600  0.67578700  1
  P  P15  1  0.40211200  0.86764400  0.32421300  1
  O  O16  1  0.07425000  0.38448700  0.73427200  1
  O  O17  1  0.92575000  0.61551300  0.26572800  1
  O  O18  1  0.57425000  0.61551300  0.76572800  1
  O  O19  1  0.42575000  0.38448700  0.23427200  1
  O  O20  1  0.22609100  0.91752800  0.75886800  1
  O  O21  1  0.77390900  0.08247200  0.24113200  1
  O  O22  1  0.72609100  0.08247200  0.74113200  1
  O  O23  1  0.27390900  0.91752800  0.25886800  1
  O  O24  1  0.26682300  0.55314500  0.73915100  1
  O  O25  1  0.73317700  0.44685500  0.26084900  1
  O  O26  1  0.76682300  0.44685500  0.76084900  1
  O  O27  1  0.23317700  0.55314500  0.23915100  1
  O  O28  1  0.10796300  0.67108300  0.52140200  1
  O  O29  1  0.89203700  0.32891700  0.47859800  1
  O  O30  1  0.60796300  0.32891700  0.97859800  1
  O  O31  1  0.39203700  0.67108300  0.02140200  1
  O  O32  1  0.40993700  0.84960100  0.49979800  1
  O  O33  1  0.59006300  0.15039900  0.50020200  1
  O  O34  1  0.90993700  0.15039900  0.00020200  1
  O  O35  1  0.09006300  0.84960100  0.99979800  1
  O  O36  1  0.06354900  0.67412200  0.80185200  1
  O  O37  1  0.93645100  0.32587800  0.19814800  1
  O  O38  1  0.56354900  0.32587800  0.69814800  1
  O  O39  1  0.43645100  0.67412200  0.30185200  1
  O  O40  1  0.50290500  0.00576600  0.77233300  1
  O  O41  1  0.49709500  0.99423400  0.22766700  1
  O  O42  1  0.00290500  0.99423400  0.72766700  1
  O  O43  1  0.99709500  0.00576600  0.27233300  1
