# generated using pymatgen
data_Rb2Hf3OF12
_symmetry_space_group_name_H-M   'P 1'
_cell_length_a   11.04224356
_cell_length_b   11.04224356
_cell_length_c   11.04224399
_cell_angle_alpha   41.13111217
_cell_angle_beta   41.13111217
_cell_angle_gamma   41.13111475
_symmetry_Int_Tables_number   1
_chemical_formula_structural   Rb2Hf3OF12
_chemical_formula_sum   'Rb4 Hf6 O2 F24'
_cell_volume   526.05641225
_cell_formula_units_Z   2
loop_
 _symmetry_equiv_pos_site_id
 _symmetry_equiv_pos_as_xyz
  1  'x, y, z'
loop_
 _atom_site_type_symbol
 _atom_site_label
 _atom_site_symmetry_multiplicity
 _atom_site_fract_x
 _atom_site_fract_y
 _atom_site_fract_z
 _atom_site_occupancy
  Rb  Rb0  1  0.00000000  0.00000000  0.00000000  1
  Rb  Rb1  1  0.50000000  0.50000000  0.50000000  1
  Rb  Rb2  1  0.13859000  0.13859000  0.13859000  1
  Rb  Rb3  1  0.86141000  0.86141000  0.86141000  1
  Hf  Hf4  1  0.57527100  0.57527100  0.02808300  1
  Hf  Hf5  1  0.02808300  0.57527100  0.57527100  1
  Hf  Hf6  1  0.57527100  0.02808300  0.57527100  1
  Hf  Hf7  1  0.42472900  0.97191700  0.42472900  1
  Hf  Hf8  1  0.97191700  0.42472900  0.42472900  1
  Hf  Hf9  1  0.42472900  0.42472900  0.97191700  1
  O  O10  1  0.28706700  0.28706700  0.28706700  1
  O  O11  1  0.71293300  0.71293300  0.71293300  1
  F  F12  1  0.37246300  0.70774600  0.70774600  1
  F  F13  1  0.70774600  0.37246300  0.70774600  1
  F  F14  1  0.70774600  0.70774600  0.37246300  1
  F  F15  1  0.62753700  0.29225400  0.29225400  1
  F  F16  1  0.29225400  0.62753700  0.29225400  1
  F  F17  1  0.29225400  0.29225400  0.62753700  1
  F  F18  1  0.09045700  0.59831400  0.09045700  1
  F  F19  1  0.09045700  0.09045700  0.59831400  1
  F  F20  1  0.00000000  0.35280100  0.64719900  1
  F  F21  1  0.35280100  0.64719900  0.00000000  1
  F  F22  1  0.64719900  0.00000000  0.35280100  1
  F  F23  1  0.00000000  0.64719900  0.35280100  1
  F  F24  1  0.64719900  0.35280100  0.00000000  1
  F  F25  1  0.35280100  0.00000000  0.64719900  1
  F  F26  1  0.08297800  0.64635600  0.64635600  1
  F  F27  1  0.64635600  0.64635600  0.08297800  1
  F  F28  1  0.64635600  0.08297800  0.64635600  1
  F  F29  1  0.35364400  0.91702200  0.35364400  1
  F  F30  1  0.91702200  0.35364400  0.35364400  1
  F  F31  1  0.35364400  0.35364400  0.91702200  1
  F  F32  1  0.90954300  0.40168600  0.90954300  1
  F  F33  1  0.40168600  0.90954300  0.90954300  1
  F  F34  1  0.90954300  0.90954300  0.40168600  1
  F  F35  1  0.59831400  0.09045700  0.09045700  1
