# generated using pymatgen
data_FeAg2Sn3S8
_symmetry_space_group_name_H-M   'P 1'
_cell_length_a   7.47187162
_cell_length_b   7.47187162
_cell_length_c   7.47187137
_cell_angle_alpha   60.77567374
_cell_angle_beta   60.77567374
_cell_angle_gamma   60.77567135
_symmetry_Int_Tables_number   1
_chemical_formula_structural   FeAg2Sn3S8
_chemical_formula_sum   'Fe1 Ag2 Sn3 S8'
_cell_volume   300.12824798
_cell_formula_units_Z   1
loop_
 _symmetry_equiv_pos_site_id
 _symmetry_equiv_pos_as_xyz
  1  'x, y, z'
loop_
 _atom_site_type_symbol
 _atom_site_label
 _atom_site_symmetry_multiplicity
 _atom_site_fract_x
 _atom_site_fract_y
 _atom_site_fract_z
 _atom_site_occupancy
  Fe  Fe0  1  0.00000000  0.00000000  0.00000000  1
  Ag  Ag1  1  0.38392100  0.38392100  0.38392100  1
  Ag  Ag2  1  0.61607900  0.61607900  0.61607900  1
  Sn  Sn3  1  0.00000000  0.50000000  0.00000000  1
  Sn  Sn4  1  0.00000000  0.00000000  0.50000000  1
  Sn  Sn5  1  0.50000000  0.00000000  0.00000000  1
  S  S6  1  0.78019300  0.20745900  0.78019300  1
  S  S7  1  0.75403500  0.75403500  0.75403500  1
  S  S8  1  0.79254100  0.21980700  0.21980700  1
  S  S9  1  0.21980700  0.21980700  0.79254100  1
  S  S10  1  0.21980700  0.79254100  0.21980700  1
  S  S11  1  0.24596500  0.24596500  0.24596500  1
  S  S12  1  0.20745900  0.78019300  0.78019300  1
  S  S13  1  0.78019300  0.78019300  0.20745900  1
