# generated using pymatgen
data_CdBi12(Cl7O6)2
_symmetry_space_group_name_H-M   'P 1'
_cell_length_a   26.48489176
_cell_length_b   26.48489176
_cell_length_c   5.51435900
_cell_angle_alpha   90.00000000
_cell_angle_beta   90.00000000
_cell_angle_gamma   168.04824623
_symmetry_Int_Tables_number   1
_chemical_formula_structural   CdBi12(Cl7O6)2
_chemical_formula_sum   'Cd1 Bi12 Cl14 O12'
_cell_volume   801.02541641
_cell_formula_units_Z   1
loop_
 _symmetry_equiv_pos_site_id
 _symmetry_equiv_pos_as_xyz
  1  'x, y, z'
loop_
 _atom_site_type_symbol
 _atom_site_label
 _atom_site_symmetry_multiplicity
 _atom_site_fract_x
 _atom_site_fract_y
 _atom_site_fract_z
 _atom_site_occupancy
  Cd  Cd0  1  0.00000000  0.00000000  0.50000000  1
  Bi  Bi1  1  0.77426400  0.22573600  0.00000000  1
  Bi  Bi2  1  0.27427300  0.72572700  0.50000000  1
  Bi  Bi3  1  0.72572700  0.27427300  0.50000000  1
  Bi  Bi4  1  0.22573600  0.77426400  0.00000000  1
  Bi  Bi5  1  0.92058900  0.07941100  0.00000000  1
  Bi  Bi6  1  0.42058900  0.57941100  0.50000000  1
  Bi  Bi7  1  0.57941100  0.42058900  0.50000000  1
  Bi  Bi8  1  0.07941100  0.92058900  0.00000000  1
  Bi  Bi9  1  0.62777900  0.37222100  0.00000000  1
  Bi  Bi10  1  0.12843200  0.87156800  0.50000000  1
  Bi  Bi11  1  0.87156800  0.12843200  0.50000000  1
  Bi  Bi12  1  0.37222100  0.62777900  0.00000000  1
  Cl  Cl13  1  0.69950000  0.30050000  0.00000000  1
  Cl  Cl14  1  0.19948000  0.80052000  0.50000000  1
  Cl  Cl15  1  0.80052000  0.19948000  0.50000000  1
  Cl  Cl16  1  0.30050000  0.69950000  0.00000000  1
  Cl  Cl17  1  0.55516500  0.44483500  0.00000000  1
  Cl  Cl18  1  0.05201100  0.94798900  0.50000000  1
  Cl  Cl19  1  0.94798900  0.05201100  0.50000000  1
  Cl  Cl20  1  0.44483500  0.55516500  0.00000000  1
  Cl  Cl21  1  0.84596200  0.15403800  0.00000000  1
  Cl  Cl22  1  0.34596300  0.65403700  0.50000000  1
  Cl  Cl23  1  0.65403700  0.34596300  0.50000000  1
  Cl  Cl24  1  0.15403800  0.84596200  0.00000000  1
  Cl  Cl25  1  0.50000000  0.50000000  0.50000000  1
  Cl  Cl26  1  0.00000000  0.00000000  0.00000000  1
  O  O27  1  0.64802000  0.85567700  0.74815800  1
  O  O28  1  0.14432300  0.35198000  0.25184200  1
  O  O29  1  0.14432300  0.35198000  0.74815800  1
  O  O30  1  0.64802000  0.85567700  0.25184200  1
  O  O31  1  0.85567700  0.64802000  0.74815800  1
  O  O32  1  0.35198000  0.14432300  0.25184200  1
  O  O33  1  0.35198000  0.14432300  0.74815800  1
  O  O34  1  0.85567700  0.64802000  0.25184200  1
  O  O35  1  0.50000000  0.00000000  0.74997000  1
  O  O36  1  0.00000000  0.50000000  0.25003000  1
  O  O37  1  0.00000000  0.50000000  0.74997000  1
  O  O38  1  0.50000000  0.00000000  0.25003000  1
