# generated using pymatgen
data_Na2MgVF7
_symmetry_space_group_name_H-M   'P 1'
_cell_length_a   7.41530269
_cell_length_b   7.41530269
_cell_length_c   7.41530269
_cell_angle_alpha   120.83949542
_cell_angle_beta   118.72205113
_cell_angle_gamma   90.38984977
_symmetry_Int_Tables_number   1
_chemical_formula_structural   Na2MgVF7
_chemical_formula_sum   'Na4 Mg2 V2 F14'
_cell_volume   289.14361146
_cell_formula_units_Z   2
loop_
 _symmetry_equiv_pos_site_id
 _symmetry_equiv_pos_as_xyz
  1  'x, y, z'
loop_
 _atom_site_type_symbol
 _atom_site_label
 _atom_site_symmetry_multiplicity
 _atom_site_fract_x
 _atom_site_fract_y
 _atom_site_fract_z
 _atom_site_occupancy
  Na  Na0  1  0.00000000  0.00000000  0.00000000  1
  Na  Na1  1  0.50000000  0.50000000  0.00000000  1
  Na  Na2  1  0.50000000  0.00000000  0.00000000  1
  Na  Na3  1  0.50000000  0.50000000  0.50000000  1
  Mg  Mg4  1  0.00000000  0.00000000  0.50000000  1
  Mg  Mg5  1  0.00000000  0.50000000  0.00000000  1
  V  V6  1  0.50000000  0.00000000  0.50000000  1
  V  V7  1  0.00000000  0.50000000  0.50000000  1
  F  F8  1  0.36289500  0.09335200  0.26954300  1
  F  F9  1  0.67619100  0.40664800  0.26954300  1
  F  F10  1  0.68220700  0.31597000  0.76513700  1
  F  F11  1  0.94916800  0.18403000  0.36623800  1
  F  F12  1  0.94916800  0.58293000  0.76513700  1
  F  F13  1  0.68220700  0.91707000  0.36623800  1
  F  F14  1  0.31779300  0.08293000  0.63376200  1
  F  F15  1  0.05083200  0.41707000  0.23486300  1
  F  F16  1  0.05083200  0.81597000  0.63376200  1
  F  F17  1  0.31779300  0.68403000  0.23486300  1
  F  F18  1  0.90973300  0.75000000  0.15973300  1
  F  F19  1  0.63710500  0.90664800  0.73045700  1
  F  F20  1  0.32380900  0.59335200  0.73045700  1
  F  F21  1  0.09026700  0.25000000  0.84026700  1
