# generated using pymatgen
data_CsGd2Cl7
_symmetry_space_group_name_H-M   'P 1'
_cell_length_a   7.12551000
_cell_length_b   12.88544900
_cell_length_c   13.80584000
_cell_angle_alpha   90.00000000
_cell_angle_beta   90.00000000
_cell_angle_gamma   90.00000000
_symmetry_Int_Tables_number   1
_chemical_formula_structural   CsGd2Cl7
_chemical_formula_sum   'Cs4 Gd8 Cl28'
_cell_volume   1267.58866263
_cell_formula_units_Z   4
loop_
 _symmetry_equiv_pos_site_id
 _symmetry_equiv_pos_as_xyz
  1  'x, y, z'
loop_
 _atom_site_type_symbol
 _atom_site_label
 _atom_site_symmetry_multiplicity
 _atom_site_fract_x
 _atom_site_fract_y
 _atom_site_fract_z
 _atom_site_occupancy
  Cs  Cs0  1  0.25000000  0.80401000  0.04206100  1
  Cs  Cs1  1  0.75000000  0.19599000  0.95793900  1
  Cs  Cs2  1  0.75000000  0.30401000  0.45793900  1
  Cs  Cs3  1  0.25000000  0.69599000  0.54206100  1
  Gd  Gd4  1  0.25000000  0.45969400  0.23709400  1
  Gd  Gd5  1  0.75000000  0.54030600  0.76290600  1
  Gd  Gd6  1  0.75000000  0.95969400  0.26290600  1
  Gd  Gd7  1  0.25000000  0.04030600  0.73709400  1
  Gd  Gd8  1  0.25000000  0.15624900  0.25030500  1
  Gd  Gd9  1  0.75000000  0.84375100  0.74969500  1
  Gd  Gd10  1  0.75000000  0.65624900  0.24969500  1
  Gd  Gd11  1  0.25000000  0.34375100  0.75030500  1
  Cl  Cl12  1  0.01359000  0.30625700  0.17673600  1
  Cl  Cl13  1  0.98641000  0.69374300  0.82326400  1
  Cl  Cl14  1  0.98641000  0.80625700  0.32326400  1
  Cl  Cl15  1  0.51359000  0.69374300  0.82326400  1
  Cl  Cl16  1  0.01359000  0.19374300  0.67673600  1
  Cl  Cl17  1  0.48641000  0.30625700  0.17673600  1
  Cl  Cl18  1  0.48641000  0.19374300  0.67673600  1
  Cl  Cl19  1  0.51359000  0.80625700  0.32326400  1
  Cl  Cl20  1  0.00904800  0.57574500  0.12438500  1
  Cl  Cl21  1  0.99095200  0.42425500  0.87561500  1
  Cl  Cl22  1  0.99095200  0.07574500  0.37561500  1
  Cl  Cl23  1  0.50904800  0.42425500  0.87561500  1
  Cl  Cl24  1  0.00904800  0.92425500  0.62438500  1
  Cl  Cl25  1  0.49095200  0.57574500  0.12438500  1
  Cl  Cl26  1  0.49095200  0.92425500  0.62438500  1
  Cl  Cl27  1  0.50904800  0.07574500  0.37561500  1
  Cl  Cl28  1  0.00933200  0.04017200  0.13594900  1
  Cl  Cl29  1  0.99066800  0.95982800  0.86405100  1
  Cl  Cl30  1  0.99066800  0.54017200  0.36405100  1
  Cl  Cl31  1  0.50933200  0.95982800  0.86405100  1
  Cl  Cl32  1  0.00933200  0.45982800  0.63594900  1
  Cl  Cl33  1  0.49066800  0.04017200  0.13594900  1
  Cl  Cl34  1  0.49066800  0.45982800  0.63594900  1
  Cl  Cl35  1  0.50933200  0.54017200  0.36405100  1
  Cl  Cl36  1  0.25000000  0.31105600  0.38773200  1
  Cl  Cl37  1  0.75000000  0.68894400  0.61226800  1
  Cl  Cl38  1  0.75000000  0.81105600  0.11226800  1
  Cl  Cl39  1  0.25000000  0.18894400  0.88773200  1
