# generated using pymatgen
data_KV3(PbO3)4
_symmetry_space_group_name_H-M   'P 1'
_cell_length_a   10.34517358
_cell_length_b   10.34517358
_cell_length_c   7.54029700
_cell_angle_alpha   90.00000000
_cell_angle_beta   90.00000000
_cell_angle_gamma   119.99999728
_symmetry_Int_Tables_number   1
_chemical_formula_structural   KV3(PbO3)4
_chemical_formula_sum   'K2 V6 Pb8 O24'
_cell_volume   698.86720227
_cell_formula_units_Z   2
loop_
 _symmetry_equiv_pos_site_id
 _symmetry_equiv_pos_as_xyz
  1  'x, y, z'
loop_
 _atom_site_type_symbol
 _atom_site_label
 _atom_site_symmetry_multiplicity
 _atom_site_fract_x
 _atom_site_fract_y
 _atom_site_fract_z
 _atom_site_occupancy
  K  K0  1  0.33333300  0.66666700  0.01489200  1
  K  K1  1  0.66666700  0.33333300  0.51489200  1
  V  V2  1  0.01506600  0.38970800  0.24703500  1
  V  V3  1  0.61029200  0.62535900  0.24703500  1
  V  V4  1  0.37464100  0.98493400  0.24703500  1
  V  V5  1  0.98493400  0.61029200  0.74703500  1
  V  V6  1  0.38970800  0.37464100  0.74703500  1
  V  V7  1  0.62535900  0.01506600  0.74703500  1
  Pb  Pb8  1  0.25823000  0.00176000  0.75054200  1
  Pb  Pb9  1  0.99824000  0.25647000  0.75054200  1
  Pb  Pb10  1  0.74353000  0.74177000  0.75054200  1
  Pb  Pb11  1  0.74177000  0.99824000  0.25054200  1
  Pb  Pb12  1  0.00176000  0.74353000  0.25054200  1
  Pb  Pb13  1  0.25647000  0.25823000  0.25054200  1
  Pb  Pb14  1  0.66666700  0.33333300  0.02687700  1
  Pb  Pb15  1  0.33333300  0.66666700  0.52687700  1
  O  O16  1  0.33955600  0.25354100  0.56817400  1
  O  O17  1  0.74645900  0.08601500  0.56817400  1
  O  O18  1  0.91398500  0.66044400  0.56817400  1
  O  O19  1  0.66044400  0.74645900  0.06817400  1
  O  O20  1  0.25354100  0.91398500  0.06817400  1
  O  O21  1  0.08601500  0.33955600  0.06817400  1
  O  O22  1  0.66226800  0.74142500  0.43084300  1
  O  O23  1  0.25857500  0.92084300  0.43084300  1
  O  O24  1  0.07915700  0.33773200  0.43084300  1
  O  O25  1  0.33773200  0.25857500  0.93084300  1
  O  O26  1  0.74142500  0.07915700  0.93084300  1
  O  O27  1  0.92084300  0.66226800  0.93084300  1
  O  O28  1  0.09227500  0.58552200  0.25280500  1
  O  O29  1  0.41447800  0.50675400  0.25280500  1
  O  O30  1  0.49324600  0.90772500  0.25280500  1
  O  O31  1  0.90772500  0.41447800  0.75280500  1
  O  O32  1  0.58552200  0.49324600  0.75280500  1
  O  O33  1  0.50675400  0.09227500  0.75280500  1
  O  O34  1  0.70524900  0.52490300  0.23667100  1
  O  O35  1  0.47509700  0.18034600  0.23667100  1
  O  O36  1  0.81965400  0.29475100  0.23667100  1
  O  O37  1  0.29475100  0.47509700  0.73667100  1
  O  O38  1  0.52490300  0.81965400  0.73667100  1
  O  O39  1  0.18034600  0.70524900  0.73667100  1
