# generated using pymatgen
data_Mn3W3C
_symmetry_space_group_name_H-M   'P 1'
_cell_length_a   7.87333420
_cell_length_b   7.87333420
_cell_length_c   7.87333420
_cell_angle_alpha   60.00000000
_cell_angle_beta   60.00000000
_cell_angle_gamma   60.00000000
_symmetry_Int_Tables_number   1
_chemical_formula_structural   Mn3W3C
_chemical_formula_sum   'Mn12 W12 C4'
_cell_volume   345.11279459
_cell_formula_units_Z   4
loop_
 _symmetry_equiv_pos_site_id
 _symmetry_equiv_pos_as_xyz
  1  'x, y, z'
loop_
 _atom_site_type_symbol
 _atom_site_label
 _atom_site_symmetry_multiplicity
 _atom_site_fract_x
 _atom_site_fract_y
 _atom_site_fract_z
 _atom_site_occupancy
  Mn  Mn0  1  0.12500000  0.12500000  0.12500000  1
  Mn  Mn1  1  0.32803900  0.32803900  0.01588400  1
  Mn  Mn2  1  0.01588400  0.32803900  0.32803900  1
  Mn  Mn3  1  0.92196100  0.23411600  0.92196100  1
  Mn  Mn4  1  0.23411600  0.92196100  0.92196100  1
  Mn  Mn5  1  0.92196100  0.92196100  0.92196100  1
  Mn  Mn6  1  0.92196100  0.92196100  0.23411600  1
  Mn  Mn7  1  0.32803900  0.01588400  0.32803900  1
  Mn  Mn8  1  0.62500000  0.12500000  0.12500000  1
  Mn  Mn9  1  0.12500000  0.12500000  0.62500000  1
  Mn  Mn10  1  0.12500000  0.62500000  0.12500000  1
  Mn  Mn11  1  0.32803900  0.32803900  0.32803900  1
  W  W12  1  0.69848000  0.30152000  0.69848000  1
  W  W13  1  0.30152000  0.69848000  0.30152000  1
  W  W14  1  0.55152000  0.94848000  0.55152000  1
  W  W15  1  0.55152000  0.94848000  0.94848000  1
  W  W16  1  0.94848000  0.55152000  0.55152000  1
  W  W17  1  0.94848000  0.55152000  0.94848000  1
  W  W18  1  0.30152000  0.30152000  0.69848000  1
  W  W19  1  0.55152000  0.55152000  0.94848000  1
  W  W20  1  0.69848000  0.69848000  0.30152000  1
  W  W21  1  0.69848000  0.30152000  0.30152000  1
  W  W22  1  0.94848000  0.94848000  0.55152000  1
  W  W23  1  0.30152000  0.69848000  0.69848000  1
  C  C24  1  0.62500000  0.62500000  0.62500000  1
  C  C25  1  0.62500000  0.62500000  0.12500000  1
  C  C26  1  0.12500000  0.62500000  0.62500000  1
  C  C27  1  0.62500000  0.12500000  0.62500000  1
