# generated using pymatgen
data_Na2BiAu
_symmetry_space_group_name_H-M   'P 1'
_cell_length_a   6.12549383
_cell_length_b   6.12549383
_cell_length_c   6.06685400
_cell_angle_alpha   90.00000000
_cell_angle_beta   90.00000000
_cell_angle_gamma   102.89994128
_symmetry_Int_Tables_number   1
_chemical_formula_structural   Na2BiAu
_chemical_formula_sum   'Na4 Bi2 Au2'
_cell_volume   221.89324947
_cell_formula_units_Z   2
loop_
 _symmetry_equiv_pos_site_id
 _symmetry_equiv_pos_as_xyz
  1  'x, y, z'
loop_
 _atom_site_type_symbol
 _atom_site_label
 _atom_site_symmetry_multiplicity
 _atom_site_fract_x
 _atom_site_fract_y
 _atom_site_fract_z
 _atom_site_occupancy
  Na  Na0  1  0.50104100  0.13810600  0.25000000  1
  Na  Na1  1  0.86189400  0.49895900  0.75000000  1
  Na  Na2  1  0.49895900  0.86189400  0.75000000  1
  Na  Na3  1  0.13810600  0.50104100  0.25000000  1
  Bi  Bi4  1  0.68987700  0.68987700  0.25000000  1
  Bi  Bi5  1  0.31012300  0.31012300  0.75000000  1
  Au  Au6  1  0.00000000  0.00000000  0.50000000  1
  Au  Au7  1  0.00000000  0.00000000  0.00000000  1
