# generated using pymatgen
data_CsTh3F13
_symmetry_space_group_name_H-M   'P 1'
_cell_length_a   7.66466600
_cell_length_b   8.26779800
_cell_length_c   8.70449300
_cell_angle_alpha   90.00000000
_cell_angle_beta   90.00000000
_cell_angle_gamma   90.00000000
_symmetry_Int_Tables_number   1
_chemical_formula_structural   CsTh3F13
_chemical_formula_sum   'Cs2 Th6 F26'
_cell_volume   551.60293997
_cell_formula_units_Z   2
loop_
 _symmetry_equiv_pos_site_id
 _symmetry_equiv_pos_as_xyz
  1  'x, y, z'
loop_
 _atom_site_type_symbol
 _atom_site_label
 _atom_site_symmetry_multiplicity
 _atom_site_fract_x
 _atom_site_fract_y
 _atom_site_fract_z
 _atom_site_occupancy
  Cs  Cs0  1  0.60667700  0.00000000  0.70762500  1
  Cs  Cs1  1  0.39332300  0.00000000  0.20762500  1
  Th  Th2  1  0.39007400  0.50000000  0.91337700  1
  Th  Th3  1  0.60992600  0.50000000  0.41337700  1
  Th  Th4  1  0.10450400  0.75014800  0.57631400  1
  Th  Th5  1  0.10450400  0.24985200  0.57631400  1
  Th  Th6  1  0.89549600  0.24985200  0.07631400  1
  Th  Th7  1  0.89549600  0.75014800  0.07631400  1
  F  F8  1  0.94603900  0.00000000  0.56432200  1
  F  F9  1  0.05396100  0.00000000  0.06432200  1
  F  F10  1  0.13588300  0.50000000  0.73370900  1
  F  F11  1  0.86411700  0.50000000  0.23370900  1
  F  F12  1  0.32039300  0.74974500  0.76938400  1
  F  F13  1  0.32039300  0.25025500  0.76938400  1
  F  F14  1  0.67960700  0.25025500  0.26938400  1
  F  F15  1  0.67960700  0.74974500  0.26938400  1
  F  F16  1  0.04558200  0.79787000  0.31419500  1
  F  F17  1  0.04558200  0.20213000  0.31419500  1
  F  F18  1  0.95441800  0.20213000  0.81419500  1
  F  F19  1  0.95441800  0.79787000  0.81419500  1
  F  F20  1  0.10758600  0.50000000  0.45231300  1
  F  F21  1  0.89241400  0.50000000  0.95231300  1
  F  F22  1  0.26721300  0.00000000  0.54808900  1
  F  F23  1  0.73278700  0.00000000  0.04808900  1
  F  F24  1  0.81360600  0.66737200  0.54465200  1
  F  F25  1  0.81360600  0.33262800  0.54465200  1
  F  F26  1  0.18639400  0.33262800  0.04465200  1
  F  F27  1  0.18639400  0.66737200  0.04465200  1
  F  F28  1  0.61182700  0.30762800  0.95825000  1
  F  F29  1  0.61182700  0.69237200  0.95825000  1
  F  F30  1  0.38817300  0.69237200  0.45825000  1
  F  F31  1  0.38817300  0.30762800  0.45825000  1
  F  F32  1  0.46548800  0.50000000  0.17834700  1
  F  F33  1  0.53451200  0.50000000  0.67834700  1
