# generated using pymatgen
data_Pr3(AgGe)4
_symmetry_space_group_name_H-M   'P 1'
_cell_length_a   4.49119600
_cell_length_b   7.24074800
_cell_length_c   8.58246096
_cell_angle_alpha   114.95043105
_cell_angle_beta   105.16796973
_cell_angle_gamma   90.00000000
_symmetry_Int_Tables_number   1
_chemical_formula_structural   Pr3(AgGe)4
_chemical_formula_sum   'Pr3 Ag4 Ge4'
_cell_volume   242.28494581
_cell_formula_units_Z   1
loop_
 _symmetry_equiv_pos_site_id
 _symmetry_equiv_pos_as_xyz
  1  'x, y, z'
loop_
 _atom_site_type_symbol
 _atom_site_label
 _atom_site_symmetry_multiplicity
 _atom_site_fract_x
 _atom_site_fract_y
 _atom_site_fract_z
 _atom_site_occupancy
  Pr  Pr0  1  0.87219400  0.37219400  0.74438800  1
  Pr  Pr1  1  0.12780600  0.62780600  0.25561200  1
  Pr  Pr2  1  0.00000000  0.00000000  0.00000000  1
  Ag  Ag3  1  0.33146900  0.63704700  0.66293900  1
  Ag  Ag4  1  0.66853100  0.36295300  0.33706100  1
  Ag  Ag5  1  0.33146900  0.02589200  0.66293900  1
  Ag  Ag6  1  0.66853100  0.97410800  0.33706100  1
  Ge  Ge7  1  0.21656300  0.21656300  0.43312700  1
  Ge  Ge8  1  0.78343700  0.78343700  0.56687300  1
  Ge  Ge9  1  0.50000000  0.68127400  0.00000000  1
  Ge  Ge10  1  0.50000000  0.31872600  0.00000000  1
