# generated using pymatgen
data_CsCdInTe3
_symmetry_space_group_name_H-M   'P 1'
_cell_length_a   9.12611887
_cell_length_b   9.12611887
_cell_length_c   24.84688069
_cell_angle_alpha   84.74705676
_cell_angle_beta   84.74705676
_cell_angle_gamma   89.98748985
_symmetry_Int_Tables_number   1
_chemical_formula_structural   CsCdInTe3
_chemical_formula_sum   'Cs8 Cd8 In8 Te24'
_cell_volume   2051.98338667
_cell_formula_units_Z   8
loop_
 _symmetry_equiv_pos_site_id
 _symmetry_equiv_pos_as_xyz
  1  'x, y, z'
loop_
 _atom_site_type_symbol
 _atom_site_label
 _atom_site_symmetry_multiplicity
 _atom_site_fract_x
 _atom_site_fract_y
 _atom_site_fract_z
 _atom_site_occupancy
  Cs  Cs0  1  0.73077100  0.10648800  0.07644600  1
  Cs  Cs1  1  0.89351200  0.26922900  0.42355400  1
  Cs  Cs2  1  0.26922900  0.89351200  0.92355400  1
  Cs  Cs3  1  0.10648800  0.73077100  0.57644600  1
  Cs  Cs4  1  0.73084200  0.60529700  0.07642300  1
  Cs  Cs5  1  0.39470300  0.26915800  0.42357700  1
  Cs  Cs6  1  0.26915800  0.39470300  0.92357700  1
  Cs  Cs7  1  0.60529700  0.73084200  0.57642300  1
  Cd  Cd8  1  0.93975800  0.06024200  0.25000000  1
  Cd  Cd9  1  0.06024200  0.93975800  0.75000000  1
  Cd  Cd10  1  0.43539200  0.56460800  0.25000000  1
  Cd  Cd11  1  0.56460800  0.43539200  0.75000000  1
  Cd  Cd12  1  0.93968100  0.56492500  0.24998400  1
  Cd  Cd13  1  0.43507500  0.06031900  0.25001600  1
  Cd  Cd14  1  0.06031900  0.43507500  0.75001600  1
  Cd  Cd15  1  0.56492500  0.93968100  0.74998400  1
  In  In16  1  0.21961500  0.84448800  0.12240700  1
  In  In17  1  0.15551200  0.78038500  0.37759300  1
  In  In18  1  0.78038500  0.15551200  0.87759300  1
  In  In19  1  0.84448800  0.21961500  0.62240700  1
  In  In20  1  0.21947100  0.34438700  0.12249300  1
  In  In21  1  0.65561300  0.78052900  0.37750700  1
  In  In22  1  0.78052900  0.65561300  0.87750700  1
  In  In23  1  0.34438700  0.21947100  0.62249300  1
  Te  Te24  1  0.23713900  0.11186600  0.05249900  1
  Te  Te25  1  0.88813400  0.76286100  0.44750100  1
  Te  Te26  1  0.76286100  0.88813400  0.94750100  1
  Te  Te27  1  0.11186600  0.23713900  0.55249900  1
  Te  Te28  1  0.93783000  0.33012500  0.17986000  1
  Te  Te29  1  0.66987500  0.06217000  0.32014000  1
  Te  Te30  1  0.06217000  0.66987500  0.82014000  1
  Te  Te31  1  0.33012500  0.93783000  0.67986000  1
  Te  Te32  1  0.23673900  0.61190300  0.05250200  1
  Te  Te33  1  0.38809700  0.76326100  0.44749800  1
  Te  Te34  1  0.76326100  0.38809700  0.94749800  1
  Te  Te35  1  0.61190300  0.23673900  0.55250200  1
  Te  Te36  1  0.47300300  0.83003700  0.17952300  1
  Te  Te37  1  0.16996300  0.52699700  0.32047700  1
  Te  Te38  1  0.52699700  0.16996300  0.82047700  1
  Te  Te39  1  0.83003700  0.47300300  0.67952300  1
  Te  Te40  1  0.47244100  0.33000400  0.17981500  1
  Te  Te41  1  0.66999600  0.52755900  0.32018500  1
  Te  Te42  1  0.52755900  0.66999600  0.82018500  1
  Te  Te43  1  0.33000400  0.47244100  0.67981500  1
  Te  Te44  1  0.93732000  0.83028200  0.17943400  1
  Te  Te45  1  0.16971800  0.06268000  0.32056600  1
  Te  Te46  1  0.06268000  0.16971800  0.82056600  1
  Te  Te47  1  0.83028200  0.93732000  0.67943400  1
