# generated using pymatgen
data_CeGe3Ir
_symmetry_space_group_name_H-M   'P 1'
_cell_length_a   5.94364659
_cell_length_b   5.94364659
_cell_length_c   5.94364659
_cell_angle_alpha   136.18874913
_cell_angle_beta   136.18874913
_cell_angle_gamma   63.68866075
_symmetry_Int_Tables_number   1
_chemical_formula_structural   CeGe3Ir
_chemical_formula_sum   'Ce1 Ge3 Ir1'
_cell_volume   99.30607677
_cell_formula_units_Z   1
loop_
 _symmetry_equiv_pos_site_id
 _symmetry_equiv_pos_as_xyz
  1  'x, y, z'
loop_
 _atom_site_type_symbol
 _atom_site_label
 _atom_site_symmetry_multiplicity
 _atom_site_fract_x
 _atom_site_fract_y
 _atom_site_fract_z
 _atom_site_occupancy
  Ce  Ce0  1  0.57680600  0.57680600  0.00000000  1
  Ge  Ge1  1  0.34392900  0.84392900  0.50000000  1
  Ge  Ge2  1  0.84392900  0.34392900  0.50000000  1
  Ge  Ge3  1  0.00140400  0.00140400  0.00000000  1
  Ir  Ir4  1  0.23960200  0.23960200  0.00000000  1
