# generated using pymatgen
data_Na2CO3
_symmetry_space_group_name_H-M   'P 1'
_cell_length_a   5.30069300
_cell_length_b   18.18797700
_cell_length_c   19.52563188
_cell_angle_alpha   64.42089825
_cell_angle_beta   90.00000000
_cell_angle_gamma   90.00000000
_symmetry_Int_Tables_number   1
_chemical_formula_structural   Na2CO3
_chemical_formula_sum   'Na48 C24 O72'
_cell_volume   1697.94610201
_cell_formula_units_Z   24
loop_
 _symmetry_equiv_pos_site_id
 _symmetry_equiv_pos_as_xyz
  1  'x, y, z'
loop_
 _atom_site_type_symbol
 _atom_site_label
 _atom_site_symmetry_multiplicity
 _atom_site_fract_x
 _atom_site_fract_y
 _atom_site_fract_z
 _atom_site_occupancy
  Na  Na0  1  0.21519700  0.75019700  0.62507000  1
  Na  Na1  1  0.28480300  0.75019700  0.12507000  1
  Na  Na2  1  0.78480300  0.24980300  0.37493000  1
  Na  Na3  1  0.71519700  0.24980300  0.87493000  1
  Na  Na4  1  0.18618900  0.08316500  0.12768800  1
  Na  Na5  1  0.31381100  0.08316500  0.62768800  1
  Na  Na6  1  0.81381100  0.91683500  0.87231200  1
  Na  Na7  1  0.68618900  0.91683500  0.37231200  1
  Na  Na8  1  0.23848400  0.41684100  0.62532000  1
  Na  Na9  1  0.26151600  0.41684100  0.12532000  1
  Na  Na10  1  0.76151600  0.58315900  0.37468000  1
  Na  Na11  1  0.73848400  0.58315900  0.87468000  1
  Na  Na12  1  0.19003900  0.58284300  0.62546500  1
  Na  Na13  1  0.30996100  0.58284300  0.12546500  1
  Na  Na14  1  0.80996100  0.41715700  0.37453500  1
  Na  Na15  1  0.69003900  0.41715700  0.87453500  1
  Na  Na16  1  0.22677800  0.91546500  0.12636300  1
  Na  Na17  1  0.27322200  0.91546500  0.62636300  1
  Na  Na18  1  0.77322200  0.08453500  0.87363700  1
  Na  Na19  1  0.72677800  0.08453500  0.37363700  1
  Na  Na20  1  0.30249600  0.25083700  0.62511300  1
  Na  Na21  1  0.19750400  0.25083700  0.12511300  1
  Na  Na22  1  0.69750400  0.74916300  0.37488700  1
  Na  Na23  1  0.80249600  0.74916300  0.87488700  1
  Na  Na24  1  0.70495200  0.55733000  0.53888000  1
  Na  Na25  1  0.79504800  0.55733000  0.03888000  1
  Na  Na26  1  0.29504800  0.44267000  0.46112000  1
  Na  Na27  1  0.20495200  0.44267000  0.96112000  1
  Na  Na28  1  0.77864100  0.89134600  0.03621100  1
  Na  Na29  1  0.72135900  0.89134600  0.53621100  1
  Na  Na30  1  0.22135900  0.10865400  0.96378900  1
  Na  Na31  1  0.27864100  0.10865400  0.46378900  1
  Na  Na32  1  0.82115500  0.22707700  0.53786800  1
  Na  Na33  1  0.67884500  0.22707700  0.03786800  1
  Na  Na34  1  0.17884500  0.77292300  0.46213200  1
  Na  Na35  1  0.32115500  0.77292300  0.96213200  1
  Na  Na36  1  0.81063900  0.94378000  0.70591000  1
  Na  Na37  1  0.68936100  0.94378000  0.20591000  1
  Na  Na38  1  0.18936100  0.05622000  0.29409000  1
  Na  Na39  1  0.31063900  0.05622000  0.79409000  1
  Na  Na40  1  0.72797900  0.27662200  0.21046600  1
  Na  Na41  1  0.77202100  0.27662200  0.71046600  1
  Na  Na42  1  0.27202100  0.72337800  0.78953400  1
  Na  Na43  1  0.22797900  0.72337800  0.28953400  1
  Na  Na44  1  0.68830200  0.60858100  0.71051900  1
  Na  Na45  1  0.81169800  0.60858100  0.21051900  1
  Na  Na46  1  0.31169800  0.39141900  0.28948100  1
  Na  Na47  1  0.18830200  0.39141900  0.78948100  1
  C  C48  1  0.69437000  0.72160400  0.54300900  1
  C  C49  1  0.80563000  0.72160400  0.04300900  1
  C  C50  1  0.30563000  0.27839600  0.45699100  1
  C  C51  1  0.19437000  0.27839600  0.95699100  1
  C  C52  1  0.71021800  0.05455800  0.04298200  1
  C  C53  1  0.78978200  0.05455800  0.54298200  1
  C  C54  1  0.28978200  0.94544200  0.95701800  1
  C  C55  1  0.21021800  0.94544200  0.45701800  1
  C  C56  1  0.77667400  0.38970600  0.54233000  1
  C  C57  1  0.72332600  0.38970600  0.04233000  1
  C  C58  1  0.22332600  0.61029400  0.45767000  1
  C  C59  1  0.27667400  0.61029400  0.95767000  1
  C  C60  1  0.75362600  0.77721000  0.70792000  1
  C  C61  1  0.74637400  0.77721000  0.20792000  1
  C  C62  1  0.24637400  0.22279000  0.29208000  1
  C  C63  1  0.25362600  0.22279000  0.79208000  1
  C  C64  1  0.68612300  0.11323800  0.20615400  1
  C  C65  1  0.81387700  0.11323800  0.70615400  1
  C  C66  1  0.31387700  0.88676200  0.79384600  1
  C  C67  1  0.18612300  0.88676200  0.29384600  1
  C  C68  1  0.70604700  0.44441000  0.70736400  1
  C  C69  1  0.79395300  0.44441000  0.20736400  1
  C  C70  1  0.29395300  0.55559000  0.29263600  1
  C  C71  1  0.20604700  0.55559000  0.79263600  1
  O  O72  1  0.88471600  0.68802000  0.58801000  1
  O  O73  1  0.61528400  0.68802000  0.08801000  1
  O  O74  1  0.11528400  0.31198000  0.41199000  1
  O  O75  1  0.38471600  0.31198000  0.91199000  1
  O  O76  1  0.91415600  0.01430900  0.07519400  1
  O  O77  1  0.58584400  0.01430900  0.57519400  1
  O  O78  1  0.08584400  0.98569100  0.92480600  1
  O  O79  1  0.41415600  0.98569100  0.42480600  1
  O  O80  1  0.99349900  0.35187600  0.55991400  1
  O  O81  1  0.50650100  0.35187600  0.05991400  1
  O  O82  1  0.00650100  0.64812400  0.44008600  1
  O  O83  1  0.49349900  0.64812400  0.94008600  1
  O  O84  1  0.02847100  0.68835200  0.06028700  1
  O  O85  1  0.47152900  0.68835200  0.56028700  1
  O  O86  1  0.97152900  0.31164800  0.93971300  1
  O  O87  1  0.52847100  0.31164800  0.43971300  1
  O  O88  1  0.00792200  0.02858500  0.57491800  1
  O  O89  1  0.49207800  0.02858500  0.07491800  1
  O  O90  1  0.99207800  0.97141500  0.42508200  1
  O  O91  1  0.50792200  0.97141500  0.92508200  1
  O  O92  1  0.91575400  0.36109600  0.08764000  1
  O  O93  1  0.58424600  0.36109600  0.58764000  1
  O  O94  1  0.08424600  0.63890400  0.91236000  1
  O  O95  1  0.41575400  0.63890400  0.41236000  1
  O  O96  1  0.96983800  0.81518200  0.68981300  1
  O  O97  1  0.53016200  0.81518200  0.18981300  1
  O  O98  1  0.03016200  0.18481800  0.31018700  1
  O  O99  1  0.46983800  0.18481800  0.81018700  1
  O  O100  1  0.86824500  0.15337600  0.16040300  1
  O  O101  1  0.63175500  0.15337600  0.66040300  1
  O  O102  1  0.13175500  0.84662400  0.83959700  1
  O  O103  1  0.36824500  0.84662400  0.33959700  1
  O  O104  1  0.89579300  0.47556700  0.66147600  1
  O  O105  1  0.60420700  0.47556700  0.16147600  1
  O  O106  1  0.10420700  0.52443300  0.33852400  1
  O  O107  1  0.39579300  0.52443300  0.83852400  1
  O  O108  1  0.94091000  0.80620600  0.16361700  1
  O  O109  1  0.55909000  0.80620600  0.66361700  1
  O  O110  1  0.05909000  0.19379400  0.83638300  1
  O  O111  1  0.44091000  0.19379400  0.33638300  1
  O  O112  1  0.04444800  0.14001400  0.69082400  1
  O  O113  1  0.45555200  0.14001400  0.19082400  1
  O  O114  1  0.95555200  0.85998600  0.30917600  1
  O  O115  1  0.54444800  0.85998600  0.80917600  1
  O  O116  1  0.01332300  0.48050100  0.19116600  1
  O  O117  1  0.48667700  0.48050100  0.69116600  1
  O  O118  1  0.98667700  0.51949900  0.80883400  1
  O  O119  1  0.51332300  0.51949900  0.30883400  1
  O  O120  1  0.72752100  0.78799100  0.48071900  1
  O  O121  1  0.77247900  0.78799100  0.98071900  1
  O  O122  1  0.27247900  0.21200900  0.51928100  1
  O  O123  1  0.22752100  0.21200900  0.01928100  1
  O  O124  1  0.72466200  0.12010800  0.97928100  1
  O  O125  1  0.77533800  0.12010800  0.47928100  1
  O  O126  1  0.27533800  0.87989200  0.02071900  1
  O  O127  1  0.22466200  0.87989200  0.52071900  1
  O  O128  1  0.75256100  0.45585600  0.47943500  1
  O  O129  1  0.74743900  0.45585600  0.97943500  1
  O  O130  1  0.24743900  0.54414400  0.52056500  1
  O  O131  1  0.25256100  0.54414400  0.02056500  1
  O  O132  1  0.73236600  0.71045600  0.77039000  1
  O  O133  1  0.76763400  0.71045600  0.27039000  1
  O  O134  1  0.26763400  0.28954400  0.22961000  1
  O  O135  1  0.23236600  0.28954400  0.72961000  1
  O  O136  1  0.73475000  0.04680400  0.26703300  1
  O  O137  1  0.76525000  0.04680400  0.76703300  1
  O  O138  1  0.26525000  0.95319600  0.73296700  1
  O  O139  1  0.23475000  0.95319600  0.23296700  1
  O  O140  1  0.73541700  0.37765200  0.76944200  1
  O  O141  1  0.76458300  0.37765200  0.26944200  1
  O  O142  1  0.26458300  0.62234800  0.23055800  1
  O  O143  1  0.23541700  0.62234800  0.73055800  1
