# generated using pymatgen
data_NaTi2(AsO4)3
_symmetry_space_group_name_H-M   'P 1'
_cell_length_a   9.17861929
_cell_length_b   9.17861929
_cell_length_c   9.17861955
_cell_angle_alpha   58.70246415
_cell_angle_beta   58.70246415
_cell_angle_gamma   58.70246858
_symmetry_Int_Tables_number   1
_chemical_formula_structural   NaTi2(AsO4)3
_chemical_formula_sum   'Na2 Ti4 As6 O24'
_cell_volume   530.57439389
_cell_formula_units_Z   2
loop_
 _symmetry_equiv_pos_site_id
 _symmetry_equiv_pos_as_xyz
  1  'x, y, z'
loop_
 _atom_site_type_symbol
 _atom_site_label
 _atom_site_symmetry_multiplicity
 _atom_site_fract_x
 _atom_site_fract_y
 _atom_site_fract_z
 _atom_site_occupancy
  Na  Na0  1  0.50000000  0.50000000  0.50000000  1
  Na  Na1  1  0.00000000  0.00000000  0.00000000  1
  Ti  Ti2  1  0.35656500  0.35656500  0.35656500  1
  Ti  Ti3  1  0.85656500  0.85656500  0.85656500  1
  Ti  Ti4  1  0.64343500  0.64343500  0.64343500  1
  Ti  Ti5  1  0.14343500  0.14343500  0.14343500  1
  As  As6  1  0.96330300  0.53669700  0.25000000  1
  As  As7  1  0.25000000  0.96330300  0.53669700  1
  As  As8  1  0.53669700  0.25000000  0.96330300  1
  As  As9  1  0.75000000  0.03669700  0.46330300  1
  As  As10  1  0.46330300  0.75000000  0.03669700  1
  As  As11  1  0.03669700  0.46330300  0.75000000  1
  O  O12  1  0.14589700  0.50395100  0.28504100  1
  O  O13  1  0.28504100  0.14589700  0.50395100  1
  O  O14  1  0.50395100  0.28504100  0.14589700  1
  O  O15  1  0.78504100  0.00395100  0.64589700  1
  O  O16  1  0.64589700  0.78504100  0.00395100  1
  O  O17  1  0.00395100  0.64589700  0.78504100  1
  O  O18  1  0.85410300  0.49604900  0.71495900  1
  O  O19  1  0.71495900  0.85410300  0.49604900  1
  O  O20  1  0.49604900  0.71495900  0.85410300  1
  O  O21  1  0.21495900  0.99604900  0.35410300  1
  O  O22  1  0.35410300  0.21495900  0.99604900  1
  O  O23  1  0.99604900  0.35410300  0.21495900  1
  O  O24  1  0.23134200  0.44186500  0.56782900  1
  O  O25  1  0.56782900  0.23134200  0.44186500  1
  O  O26  1  0.44186500  0.56782900  0.23134200  1
  O  O27  1  0.06782900  0.94186500  0.73134200  1
  O  O28  1  0.73134200  0.06782900  0.94186500  1
  O  O29  1  0.94186500  0.73134200  0.06782900  1
  O  O30  1  0.76865800  0.55813500  0.43217100  1
  O  O31  1  0.43217100  0.76865800  0.55813500  1
  O  O32  1  0.55813500  0.43217100  0.76865800  1
  O  O33  1  0.93217100  0.05813500  0.26865800  1
  O  O34  1  0.26865800  0.93217100  0.05813500  1
  O  O35  1  0.05813500  0.26865800  0.93217100  1
