# generated using pymatgen
data_Sr2V3Bi3O14
_symmetry_space_group_name_H-M   'P 1'
_cell_length_a   7.26921934
_cell_length_b   7.21881186
_cell_length_c   14.40871888
_cell_angle_alpha   96.52422957
_cell_angle_beta   100.94520188
_cell_angle_gamma   110.71323445
_symmetry_Int_Tables_number   1
_chemical_formula_structural   Sr2V3Bi3O14
_chemical_formula_sum   'Sr4 V6 Bi6 O28'
_cell_volume   680.77541288
_cell_formula_units_Z   2
loop_
 _symmetry_equiv_pos_site_id
 _symmetry_equiv_pos_as_xyz
  1  'x, y, z'
loop_
 _atom_site_type_symbol
 _atom_site_label
 _atom_site_symmetry_multiplicity
 _atom_site_fract_x
 _atom_site_fract_y
 _atom_site_fract_z
 _atom_site_occupancy
  Sr  Sr0  1  0.14949900  0.71797600  0.93318300  1
  Sr  Sr1  1  0.85050100  0.28202400  0.06681700  1
  Sr  Sr2  1  0.08516600  0.75970300  0.44159800  1
  Sr  Sr3  1  0.91483400  0.24029700  0.55840200  1
  V  V4  1  0.64637300  0.70355100  0.92397500  1
  V  V5  1  0.35362700  0.29644900  0.07602500  1
  V  V6  1  0.60562000  0.76648900  0.42883400  1
  V  V7  1  0.39438000  0.23351100  0.57116600  1
  V  V8  1  0.83997900  0.23868500  0.80089700  1
  V  V9  1  0.16002100  0.76131500  0.19910300  1
  Bi  Bi10  1  0.37522700  0.77360300  0.69829700  1
  Bi  Bi11  1  0.62477300  0.22639700  0.30170300  1
  Bi  Bi12  1  0.86570900  0.70956200  0.67251300  1
  Bi  Bi13  1  0.13429100  0.29043800  0.32748700  1
  Bi  Bi14  1  0.66407500  0.78127500  0.16931300  1
  Bi  Bi15  1  0.33592500  0.21872500  0.83068700  1
  O  O16  1  0.83190600  0.80217900  0.86710300  1
  O  O17  1  0.16809400  0.19782100  0.13289700  1
  O  O18  1  0.66596300  0.64411800  0.33562000  1
  O  O19  1  0.33403700  0.35588200  0.66438000  1
  O  O20  1  0.81613100  0.11866100  0.22920900  1
  O  O21  1  0.18386900  0.88133900  0.77079100  1
  O  O22  1  0.36063700  0.53463900  0.05955100  1
  O  O23  1  0.63936300  0.46536100  0.94044900  1
  O  O24  1  0.42122100  0.89208800  0.19549300  1
  O  O25  1  0.57877900  0.10791200  0.80450700  1
  O  O26  1  0.81856400  0.83909200  0.52929600  1
  O  O27  1  0.18143600  0.16090800  0.47070400  1
  O  O28  1  0.59261000  0.34964800  0.15330400  1
  O  O29  1  0.40739000  0.65035200  0.84669600  1
  O  O30  1  0.92953300  0.38006000  0.39695400  1
  O  O31  1  0.07046700  0.61994000  0.60304600  1
  O  O32  1  0.60549500  0.99990800  0.40638500  1
  O  O33  1  0.39450500  0.00009200  0.59361500  1
  O  O34  1  0.00155100  0.68598500  0.08523800  1
  O  O35  1  0.99844900  0.31401500  0.91476200  1
  O  O36  1  0.67839600  0.88436800  0.02906700  1
  O  O37  1  0.32160400  0.11563200  0.97093300  1
  O  O38  1  0.37214800  0.61798400  0.44642300  1
  O  O39  1  0.62785200  0.38201600  0.55357700  1
  O  O40  1  0.08660500  0.90668800  0.27719600  1
  O  O41  1  0.91339500  0.09331200  0.72280400  1
  O  O42  1  0.12133200  0.54014100  0.24196300  1
  O  O43  1  0.87866800  0.45985900  0.75803700  1
