# generated using pymatgen
data_ErS2
_symmetry_space_group_name_H-M   'P 1'
_cell_length_a   3.86935000
_cell_length_b   7.78175700
_cell_length_c   7.86105638
_cell_angle_alpha   89.89430125
_cell_angle_beta   90.00000000
_cell_angle_gamma   90.00000000
_symmetry_Int_Tables_number   1
_chemical_formula_structural   ErS2
_chemical_formula_sum   'Er4 S8'
_cell_volume   236.69868887
_cell_formula_units_Z   4
loop_
 _symmetry_equiv_pos_site_id
 _symmetry_equiv_pos_as_xyz
  1  'x, y, z'
loop_
 _atom_site_type_symbol
 _atom_site_label
 _atom_site_symmetry_multiplicity
 _atom_site_fract_x
 _atom_site_fract_y
 _atom_site_fract_z
 _atom_site_occupancy
  Er  Er0  1  0.28502000  0.62916700  0.72526300  1
  Er  Er1  1  0.78502000  0.87083300  0.27473700  1
  Er  Er2  1  0.71498000  0.37083300  0.27473700  1
  Er  Er3  1  0.21498000  0.12916700  0.72526300  1
  S  S4  1  0.26044500  0.62517700  0.36958900  1
  S  S5  1  0.76044500  0.87482300  0.63041100  1
  S  S6  1  0.73955500  0.37482300  0.63041100  1
  S  S7  1  0.23955500  0.12517700  0.36958900  1
  S  S8  1  0.83382700  0.61213900  0.99691200  1
  S  S9  1  0.33382700  0.88786100  0.00308800  1
  S  S10  1  0.16617300  0.38786100  0.00308800  1
  S  S11  1  0.66617300  0.11213900  0.99691200  1
