# generated using pymatgen
data_NaNiO2
_symmetry_space_group_name_H-M   'P 1'
_cell_length_a   3.06322336
_cell_length_b   6.91519571
_cell_length_c   8.28071668
_cell_angle_alpha   90.51949885
_cell_angle_beta   74.87251785
_cell_angle_gamma   103.80970635
_symmetry_Int_Tables_number   1
_chemical_formula_structural   NaNiO2
_chemical_formula_sum   'Na4 Ni4 O8'
_cell_volume   164.17039321
_cell_formula_units_Z   4
loop_
 _symmetry_equiv_pos_site_id
 _symmetry_equiv_pos_as_xyz
  1  'x, y, z'
loop_
 _atom_site_type_symbol
 _atom_site_label
 _atom_site_symmetry_multiplicity
 _atom_site_fract_x
 _atom_site_fract_y
 _atom_site_fract_z
 _atom_site_occupancy
  Na  Na0  1  0.12503500  0.87508700  0.62503300  1
  Na  Na1  1  0.37524700  0.62500000  0.87506200  1
  Na  Na2  1  0.62488000  0.37497400  0.12498600  1
  Na  Na3  1  0.87487700  0.12494700  0.37493300  1
  Ni  Ni4  1  0.50011200  0.50016200  0.49980200  1
  Ni  Ni5  1  0.74998600  0.24989200  0.75020000  1
  Ni  Ni6  1  0.00020900  0.00016500  0.99979500  1
  Ni  Ni7  1  0.24969700  0.74978000  0.25021400  1
  O  O8  1  0.04166800  0.47324700  0.32854200  1
  O  O9  1  0.29225300  0.22377500  0.57890200  1
  O  O10  1  0.54192600  0.97334300  0.82852600  1
  O  O11  1  0.79225500  0.72373400  0.07894500  1
  O  O12  1  0.20822000  0.27674200  0.92145700  1
  O  O13  1  0.45769500  0.02620000  0.17103600  1
  O  O14  1  0.70800600  0.77668300  0.42147100  1
  O  O15  1  0.95793400  0.52626800  0.67109600  1
