# generated using pymatgen
data_Cs5Re6S8Cl7
_symmetry_space_group_name_H-M   'P 1'
_cell_length_a   19.27988906
_cell_length_b   19.27988906
_cell_length_c   19.27988893
_cell_angle_alpha   30.27657175
_cell_angle_beta   30.27657175
_cell_angle_gamma   30.27657060
_symmetry_Int_Tables_number   1
_chemical_formula_structural   Cs5Re6S8Cl7
_chemical_formula_sum   'Cs10 Re12 S16 Cl14'
_cell_volume   1614.28815222
_cell_formula_units_Z   2
loop_
 _symmetry_equiv_pos_site_id
 _symmetry_equiv_pos_as_xyz
  1  'x, y, z'
loop_
 _atom_site_type_symbol
 _atom_site_label
 _atom_site_symmetry_multiplicity
 _atom_site_fract_x
 _atom_site_fract_y
 _atom_site_fract_z
 _atom_site_occupancy
  Cs  Cs0  1  0.56119300  0.93933000  0.25042500  1
  Cs  Cs1  1  0.25042500  0.56119300  0.93933000  1
  Cs  Cs2  1  0.93933000  0.25042500  0.56119300  1
  Cs  Cs3  1  0.75042500  0.43933000  0.06119300  1
  Cs  Cs4  1  0.06119300  0.75042500  0.43933000  1
  Cs  Cs5  1  0.43933000  0.06119300  0.75042500  1
  Cs  Cs6  1  0.83664400  0.83664400  0.83664400  1
  Cs  Cs7  1  0.33664400  0.33664400  0.33664400  1
  Cs  Cs8  1  0.16187900  0.16187900  0.16187900  1
  Cs  Cs9  1  0.66187900  0.66187900  0.66187900  1
  Re  Re10  1  0.46063800  0.63979000  0.34129500  1
  Re  Re11  1  0.34129500  0.46063800  0.63979000  1
  Re  Re12  1  0.63979000  0.34129500  0.46063800  1
  Re  Re13  1  0.84129500  0.13979000  0.96063800  1
  Re  Re14  1  0.96063800  0.84129500  0.13979000  1
  Re  Re15  1  0.13979000  0.96063800  0.84129500  1
  Re  Re16  1  0.53902300  0.36040000  0.65896200  1
  Re  Re17  1  0.65896200  0.53902300  0.36040000  1
  Re  Re18  1  0.36040000  0.65896200  0.53902300  1
  Re  Re19  1  0.15896200  0.86040000  0.03902300  1
  Re  Re20  1  0.03902300  0.15896200  0.86040000  1
  Re  Re21  1  0.86040000  0.03902300  0.15896200  1
  S  S22  1  0.18821600  0.74018800  0.51808100  1
  S  S23  1  0.51808100  0.18821600  0.74018800  1
  S  S24  1  0.74018800  0.51808100  0.18821600  1
  S  S25  1  0.01808100  0.24018800  0.68821600  1
  S  S26  1  0.68821600  0.01808100  0.24018800  1
  S  S27  1  0.24018800  0.68821600  0.01808100  1
  S  S28  1  0.81201600  0.25976100  0.48196200  1
  S  S29  1  0.48196200  0.81201600  0.25976100  1
  S  S30  1  0.25976100  0.48196200  0.81201600  1
  S  S31  1  0.98196200  0.75976100  0.31201600  1
  S  S32  1  0.31201600  0.98196200  0.75976100  1
  S  S33  1  0.75976100  0.31201600  0.98196200  1
  S  S34  1  0.44613200  0.44613200  0.44613200  1
  S  S35  1  0.94613200  0.94613200  0.94613200  1
  S  S36  1  0.55388200  0.55388200  0.55388200  1
  S  S37  1  0.05388200  0.05388200  0.05388200  1
  Cl  Cl38  1  0.40196200  0.82562600  0.13689200  1
  Cl  Cl39  1  0.13689200  0.40196200  0.82562600  1
  Cl  Cl40  1  0.82562600  0.13689200  0.40196200  1
  Cl  Cl41  1  0.63689200  0.32562600  0.90196200  1
  Cl  Cl42  1  0.90196200  0.63689200  0.32562600  1
  Cl  Cl43  1  0.32562600  0.90196200  0.63689200  1
  Cl  Cl44  1  0.59439400  0.17476400  0.86668400  1
  Cl  Cl45  1  0.86668400  0.59439400  0.17476400  1
  Cl  Cl46  1  0.17476400  0.86668400  0.59439400  1
  Cl  Cl47  1  0.36668400  0.67476400  0.09439400  1
  Cl  Cl48  1  0.09439400  0.36668400  0.67476400  1
  Cl  Cl49  1  0.67476400  0.09439400  0.36668400  1
  Cl  Cl50  1  0.77004200  0.77004200  0.77004200  1
  Cl  Cl51  1  0.27004200  0.27004200  0.27004200  1
