# generated using pymatgen
data_Cs3Ca2Cl7
_symmetry_space_group_name_H-M   'P 1'
_cell_length_a   14.71298496
_cell_length_b   14.71298496
_cell_length_c   14.71298496
_cell_angle_alpha   158.64509981
_cell_angle_beta   158.64509981
_cell_angle_gamma   30.38054183
_symmetry_Int_Tables_number   1
_chemical_formula_structural   Cs3Ca2Cl7
_chemical_formula_sum   'Cs3 Ca2 Cl7'
_cell_volume   422.05944537
_cell_formula_units_Z   1
loop_
 _symmetry_equiv_pos_site_id
 _symmetry_equiv_pos_as_xyz
  1  'x, y, z'
loop_
 _atom_site_type_symbol
 _atom_site_label
 _atom_site_symmetry_multiplicity
 _atom_site_fract_x
 _atom_site_fract_y
 _atom_site_fract_z
 _atom_site_occupancy
  Cs  Cs0  1  0.31618100  0.31618100  0.00000000  1
  Cs  Cs1  1  0.68381900  0.68381900  0.00000000  1
  Cs  Cs2  1  0.50000000  0.50000000  0.00000000  1
  Ca  Ca3  1  0.09699900  0.09699900  0.00000000  1
  Ca  Ca4  1  0.90300100  0.90300100  0.00000000  1
  Cl  Cl5  1  0.59581200  0.09581200  0.50000000  1
  Cl  Cl6  1  0.40418800  0.90418800  0.50000000  1
  Cl  Cl7  1  0.09581200  0.59581200  0.50000000  1
  Cl  Cl8  1  0.90418800  0.40418800  0.50000000  1
  Cl  Cl9  1  0.19244300  0.19244300  0.00000000  1
  Cl  Cl10  1  0.80755700  0.80755700  0.00000000  1
  Cl  Cl11  1  0.00000000  0.00000000  0.00000000  1
