# generated using pymatgen
data_CeB4
_symmetry_space_group_name_H-M   'P 1'
_cell_length_a   7.17377400
_cell_length_b   7.17377400
_cell_length_c   4.07463100
_cell_angle_alpha   90.00000000
_cell_angle_beta   90.00000000
_cell_angle_gamma   90.00000000
_symmetry_Int_Tables_number   1
_chemical_formula_structural   CeB4
_chemical_formula_sum   'Ce4 B16'
_cell_volume   209.69287126
_cell_formula_units_Z   4
loop_
 _symmetry_equiv_pos_site_id
 _symmetry_equiv_pos_as_xyz
  1  'x, y, z'
loop_
 _atom_site_type_symbol
 _atom_site_label
 _atom_site_symmetry_multiplicity
 _atom_site_fract_x
 _atom_site_fract_y
 _atom_site_fract_z
 _atom_site_occupancy
  Ce  Ce0  1  0.18687400  0.68687400  0.00000000  1
  Ce  Ce1  1  0.68687400  0.81312600  0.00000000  1
  Ce  Ce2  1  0.31312600  0.18687400  0.00000000  1
  Ce  Ce3  1  0.81312600  0.31312600  0.00000000  1
  B  B4  1  0.32386100  0.46138600  0.50000000  1
  B  B5  1  0.67613900  0.53861400  0.50000000  1
  B  B6  1  0.53861400  0.32386100  0.50000000  1
  B  B7  1  0.46138600  0.67613900  0.50000000  1
  B  B8  1  0.00000000  0.00000000  0.20193300  1
  B  B9  1  0.50000000  0.50000000  0.79806700  1
  B  B10  1  0.00000000  0.00000000  0.79806700  1
  B  B11  1  0.50000000  0.50000000  0.20193300  1
  B  B12  1  0.58800500  0.08800500  0.50000000  1
  B  B13  1  0.08800500  0.41199500  0.50000000  1
  B  B14  1  0.91199500  0.58800500  0.50000000  1
  B  B15  1  0.41199500  0.91199500  0.50000000  1
  B  B16  1  0.03861400  0.17613900  0.50000000  1
  B  B17  1  0.17613900  0.96138600  0.50000000  1
  B  B18  1  0.82386100  0.03861400  0.50000000  1
  B  B19  1  0.96138600  0.82386100  0.50000000  1
