# generated using pymatgen
data_NaBOF2
_symmetry_space_group_name_H-M   'P 1'
_cell_length_a   6.91740247
_cell_length_b   6.91740247
_cell_length_c   9.44267219
_cell_angle_alpha   69.68491202
_cell_angle_beta   69.68491202
_cell_angle_gamma   60.34978040
_symmetry_Int_Tables_number   1
_chemical_formula_structural   NaBOF2
_chemical_formula_sum   'Na6 B6 O6 F12'
_cell_volume   359.61607865
_cell_formula_units_Z   6
loop_
 _symmetry_equiv_pos_site_id
 _symmetry_equiv_pos_as_xyz
  1  'x, y, z'
loop_
 _atom_site_type_symbol
 _atom_site_label
 _atom_site_symmetry_multiplicity
 _atom_site_fract_x
 _atom_site_fract_y
 _atom_site_fract_z
 _atom_site_occupancy
  Na  Na0  1  0.00000000  0.50000000  0.00000000  1
  Na  Na1  1  0.50000000  0.00000000  0.50000000  1
  Na  Na2  1  0.13138900  0.68230100  0.49815100  1
  Na  Na3  1  0.31769900  0.86861100  0.00184900  1
  Na  Na4  1  0.86861100  0.31769900  0.50184900  1
  Na  Na5  1  0.68230100  0.13138900  0.99815100  1
  B  B6  1  0.78919300  0.21080700  0.25000000  1
  B  B7  1  0.21080700  0.78919300  0.75000000  1
  B  B8  1  0.37072200  0.42075100  0.24563600  1
  B  B9  1  0.57924900  0.62927800  0.25436400  1
  B  B10  1  0.62927800  0.57924900  0.75436400  1
  B  B11  1  0.42075100  0.37072200  0.74563600  1
  O  O12  1  0.58155800  0.21831700  0.24462500  1
  O  O13  1  0.78168300  0.41844200  0.25537500  1
  O  O14  1  0.41844200  0.78168300  0.75537500  1
  O  O15  1  0.21831700  0.58155800  0.74462500  1
  O  O16  1  0.37747700  0.62252300  0.25000000  1
  O  O17  1  0.62252300  0.37747700  0.75000000  1
  F  F18  1  0.19952700  0.37325500  0.38238900  1
  F  F19  1  0.62674500  0.80047300  0.11761100  1
  F  F20  1  0.80047300  0.62674500  0.61761100  1
  F  F21  1  0.37325500  0.19952700  0.88238900  1
  F  F22  1  0.87307600  0.03419000  0.38498700  1
  F  F23  1  0.96581000  0.12692400  0.11501300  1
  F  F24  1  0.12692400  0.96581000  0.61501300  1
  F  F25  1  0.03419000  0.87307600  0.88498700  1
  F  F26  1  0.28221900  0.46573600  0.11229600  1
  F  F27  1  0.53426400  0.71778100  0.38770400  1
  F  F28  1  0.71778100  0.53426400  0.88770400  1
  F  F29  1  0.46573600  0.28221900  0.61229600  1
