# generated using pymatgen
data_YbGa2Ni
_symmetry_space_group_name_H-M   'P 1'
_cell_length_a   5.19582918
_cell_length_b   5.19582918
_cell_length_c   6.95542800
_cell_angle_alpha   90.00000000
_cell_angle_beta   90.00000000
_cell_angle_gamma   133.59433398
_symmetry_Int_Tables_number   1
_chemical_formula_structural   YbGa2Ni
_chemical_formula_sum   'Yb2 Ga4 Ni2'
_cell_volume   135.99286656
_cell_formula_units_Z   2
loop_
 _symmetry_equiv_pos_site_id
 _symmetry_equiv_pos_as_xyz
  1  'x, y, z'
loop_
 _atom_site_type_symbol
 _atom_site_label
 _atom_site_symmetry_multiplicity
 _atom_site_fract_x
 _atom_site_fract_y
 _atom_site_fract_z
 _atom_site_occupancy
  Yb  Yb0  1  0.56703000  0.43297000  0.25000000  1
  Yb  Yb1  1  0.43297000  0.56703000  0.75000000  1
  Ga  Ga2  1  0.85268000  0.14732000  0.44594600  1
  Ga  Ga3  1  0.14732000  0.85268000  0.55405400  1
  Ga  Ga4  1  0.85268000  0.14732000  0.05405400  1
  Ga  Ga5  1  0.14732000  0.85268000  0.94594600  1
  Ni  Ni6  1  0.28802900  0.71197100  0.25000000  1
  Ni  Ni7  1  0.71197100  0.28802900  0.75000000  1
