# generated using pymatgen
data_Ba8Al10B12O41
_symmetry_space_group_name_H-M   'P 1'
_cell_length_a   9.35363500
_cell_length_b   9.93258323
_cell_length_c   11.23431447
_cell_angle_alpha   76.25698005
_cell_angle_beta   73.72265114
_cell_angle_gamma   77.99799002
_symmetry_Int_Tables_number   1
_chemical_formula_structural   Ba8Al10B12O41
_chemical_formula_sum   'Ba8 Al10 B12 O41'
_cell_volume   961.96371666
_cell_formula_units_Z   1
loop_
 _symmetry_equiv_pos_site_id
 _symmetry_equiv_pos_as_xyz
  1  'x, y, z'
loop_
 _atom_site_type_symbol
 _atom_site_label
 _atom_site_symmetry_multiplicity
 _atom_site_fract_x
 _atom_site_fract_y
 _atom_site_fract_z
 _atom_site_occupancy
  Ba  Ba0  1  0.77762100  0.94802400  0.85527700  1
  Ba  Ba1  1  0.22237900  0.05197600  0.14472300  1
  Ba  Ba2  1  0.80426100  0.42479000  0.84899700  1
  Ba  Ba3  1  0.19573900  0.57521000  0.15100300  1
  Ba  Ba4  1  0.79045300  0.57164600  0.44605100  1
  Ba  Ba5  1  0.20954700  0.42835400  0.55394900  1
  Ba  Ba6  1  0.21067000  0.94389800  0.55750200  1
  Ba  Ba7  1  0.78933000  0.05610200  0.44249800  1
  Al  Al8  1  0.58334400  0.28939800  0.70452900  1
  Al  Al9  1  0.41665600  0.71060200  0.29547100  1
  Al  Al10  1  0.45202900  0.33963700  0.99290400  1
  Al  Al11  1  0.54797100  0.66036300  0.00709600  1
  Al  Al12  1  0.10304400  0.13501600  0.81374600  1
  Al  Al13  1  0.89695600  0.86498400  0.18625400  1
  Al  Al14  1  0.13101800  0.63758000  0.79533800  1
  Al  Al15  1  0.86898200  0.36242000  0.20466200  1
  Al  Al16  1  0.57966200  0.79241100  0.70705900  1
  Al  Al17  1  0.42033800  0.20758900  0.29294100  1
  B  B18  1  0.90300700  0.21579100  0.64617200  1
  B  B19  1  0.09699300  0.78420900  0.35382800  1
  B  B20  1  0.43133800  0.07507700  0.66666600  1
  B  B21  1  0.56866200  0.92492300  0.33333400  1
  B  B22  1  0.43947400  0.57646500  0.66305100  1
  B  B23  1  0.56052600  0.42353500  0.33694900  1
  B  B24  1  0.18059400  0.34995900  0.90862300  1
  B  B25  1  0.81940600  0.65004100  0.09137700  1
  B  B26  1  0.11852700  0.84253300  0.93976700  1
  B  B27  1  0.88147300  0.15746700  0.06023300  1
  B  B28  1  0.90058900  0.71587600  0.65673700  1
  B  B29  1  0.09941100  0.28412400  0.34326300  1
  O  O30  1  0.92229100  0.08562800  0.62077700  1
  O  O31  1  0.07770900  0.91437200  0.37922300  1
  O  O32  1  0.77462900  0.31537600  0.63006000  1
  O  O33  1  0.22537100  0.68462400  0.36994000  1
  O  O34  1  0.00387000  0.25297900  0.69984400  1
  O  O35  1  0.99613000  0.74702100  0.30015600  1
  O  O36  1  0.46512500  0.93930400  0.64219900  1
  O  O37  1  0.53487500  0.06069600  0.35780100  1
  O  O38  1  0.28605300  0.14363400  0.68046900  1
  O  O39  1  0.71394700  0.85636600  0.31953100  1
  O  O40  1  0.55240200  0.13704100  0.66597000  1
  O  O41  1  0.44759800  0.86295900  0.33403000  1
  O  O42  1  0.46325500  0.43894500  0.64763100  1
  O  O43  1  0.53674500  0.56105500  0.35236900  1
  O  O44  1  0.29560700  0.65217300  0.67017100  1
  O  O45  1  0.70439300  0.34782700  0.32982900  1
  O  O46  1  0.55862800  0.63753200  0.66396200  1
  O  O47  1  0.44137200  0.36246800  0.33603800  1
  O  O48  1  0.17459700  0.21198300  0.91157900  1
  O  O49  1  0.82540300  0.78801700  0.08842100  1
  O  O50  1  0.10461100  0.45838100  0.83343200  1
  O  O51  1  0.89538900  0.54161900  0.16656800  1
  O  O52  1  0.25991400  0.38273500  0.98129200  1
  O  O53  1  0.74008600  0.61726500  0.01870800  1
  O  O54  1  0.13939200  0.70390600  0.92362600  1
  O  O55  1  0.86060800  0.29609400  0.07637400  1
  O  O56  1  0.09669700  0.86415400  0.06087200  1
  O  O57  1  0.90330300  0.13584600  0.93912800  1
  O  O58  1  0.11928400  0.94750800  0.83375700  1
  O  O59  1  0.88071600  0.05249200  0.16624300  1
  O  O60  1  0.98386400  0.74870800  0.73032700  1
  O  O61  1  0.01613600  0.25129200  0.26967300  1
  O  O62  1  0.93634900  0.59297900  0.61625200  1
  O  O63  1  0.06365100  0.40702100  0.38374800  1
  O  O64  1  0.77344600  0.81422100  0.63621400  1
  O  O65  1  0.22655400  0.18577900  0.36378600  1
  O  O66  1  0.57372200  0.26874000  0.86499300  1
  O  O67  1  0.42627800  0.73126000  0.13500700  1
  O  O68  1  0.43988400  0.21532900  0.13364000  1
  O  O69  1  0.56011600  0.78467100  0.86636000  1
  O  O70  1  0.50000000  0.50000000  0.00000000  1
