# generated using pymatgen
data_Ni5Se4(ClO6)2
_symmetry_space_group_name_H-M   'P 1'
_cell_length_a   8.22805800
_cell_length_b   9.43424638
_cell_length_c   9.53039812
_cell_angle_alpha   101.51906696
_cell_angle_beta   105.95846574
_cell_angle_gamma   92.13195588
_symmetry_Int_Tables_number   1
_chemical_formula_structural   Ni5Se4(ClO6)2
_chemical_formula_sum   'Ni10 Se8 Cl4 O24'
_cell_volume   693.62565020
_cell_formula_units_Z   2
loop_
 _symmetry_equiv_pos_site_id
 _symmetry_equiv_pos_as_xyz
  1  'x, y, z'
loop_
 _atom_site_type_symbol
 _atom_site_label
 _atom_site_symmetry_multiplicity
 _atom_site_fract_x
 _atom_site_fract_y
 _atom_site_fract_z
 _atom_site_occupancy
  Ni  Ni0  1  0.57479400  0.74333400  0.72651200  1
  Ni  Ni1  1  0.42520600  0.25666600  0.27348800  1
  Ni  Ni2  1  0.76613500  0.19571500  0.44241600  1
  Ni  Ni3  1  0.23386500  0.80428500  0.55758400  1
  Ni  Ni4  1  0.91130800  0.48948400  0.82187700  1
  Ni  Ni5  1  0.08869200  0.51051600  0.17812300  1
  Ni  Ni6  1  0.96519600  0.11399100  0.13016500  1
  Ni  Ni7  1  0.03480400  0.88600900  0.86983500  1
  Ni  Ni8  1  0.25506400  0.89393100  0.19631900  1
  Ni  Ni9  1  0.74493600  0.10606900  0.80368100  1
  Se  Se10  1  0.82600500  0.76170600  0.09308100  1
  Se  Se11  1  0.17399500  0.23829400  0.90691900  1
  Se  Se12  1  0.72098100  0.31608300  0.10965200  1
  Se  Se13  1  0.27901900  0.68391700  0.89034800  1
  Se  Se14  1  0.55379600  0.38243700  0.67218500  1
  Se  Se15  1  0.44620400  0.61756300  0.32781500  1
  Se  Se16  1  0.15586300  0.10585000  0.42961100  1
  Se  Se17  1  0.84413700  0.89415000  0.57038900  1
  Cl  Cl18  1  0.98455900  0.37003300  0.60308700  1
  Cl  Cl19  1  0.01544100  0.62996700  0.39691300  1
  Cl  Cl20  1  0.54739400  0.99461700  0.27262600  1
  Cl  Cl21  1  0.45260600  0.00538300  0.72737400  1
  O  O22  1  0.71921000  0.13435000  0.01924000  1
  O  O23  1  0.28079000  0.86565000  0.98076000  1
  O  O24  1  0.89611900  0.59449000  0.03508000  1
  O  O25  1  0.10388100  0.40551000  0.96492000  1
  O  O26  1  0.67170100  0.54540800  0.69242100  1
  O  O27  1  0.32829900  0.45459200  0.30757900  1
  O  O28  1  0.94080100  0.33516800  0.18015700  1
  O  O29  1  0.05919900  0.66483200  0.81984300  1
  O  O30  1  0.44314600  0.72183400  0.49759900  1
  O  O31  1  0.55685400  0.27816600  0.50240100  1
  O  O32  1  0.93930300  0.09196700  0.34286100  1
  O  O33  1  0.06069700  0.90803300  0.65713900  1
  O  O34  1  0.65563800  0.76945300  0.95104400  1
  O  O35  1  0.34436200  0.23054700  0.04895600  1
  O  O36  1  0.78938000  0.86582400  0.73153800  1
  O  O37  1  0.21062000  0.13417600  0.26846200  1
  O  O38  1  0.33086600  0.69185400  0.72728300  1
  O  O39  1  0.66913400  0.30814600  0.27271700  1
  O  O40  1  0.80540400  0.07415000  0.60381400  1
  O  O41  1  0.19459600  0.92585000  0.39618600  1
  O  O42  1  0.71823900  0.32021400  0.79790900  1
  O  O43  1  0.28176100  0.67978600  0.20209100  1
  O  O44  1  0.98871600  0.88631400  0.07256000  1
  O  O45  1  0.01128400  0.11368600  0.92744000  1
