# generated using pymatgen
data_Mg5Ni9P7
_symmetry_space_group_name_H-M   'P 1'
_cell_length_a   3.63949800
_cell_length_b   9.28658703
_cell_length_c   9.28658789
_cell_angle_alpha   119.99999616
_cell_angle_beta   90.00000000
_cell_angle_gamma   90.00000000
_symmetry_Int_Tables_number   1
_chemical_formula_structural   Mg5Ni9P7
_chemical_formula_sum   'Mg5 Ni9 P7'
_cell_volume   271.82189767
_cell_formula_units_Z   1
loop_
 _symmetry_equiv_pos_site_id
 _symmetry_equiv_pos_as_xyz
  1  'x, y, z'
loop_
 _atom_site_type_symbol
 _atom_site_label
 _atom_site_symmetry_multiplicity
 _atom_site_fract_x
 _atom_site_fract_y
 _atom_site_fract_z
 _atom_site_occupancy
  Mg  Mg0  1  0.50000000  0.77377500  0.89560400  1
  Mg  Mg1  1  0.50000000  0.12182900  0.22622500  1
  Mg  Mg2  1  0.50000000  0.10439600  0.87817100  1
  Mg  Mg3  1  0.00000000  0.66666700  0.33333300  1
  Mg  Mg4  1  0.50000000  0.33333300  0.66666700  1
  Ni  Ni5  1  0.00000000  0.56528800  0.92836800  1
  Ni  Ni6  1  0.00000000  0.36308000  0.43471200  1
  Ni  Ni7  1  0.00000000  0.07163200  0.63692000  1
  Ni  Ni8  1  0.50000000  0.94509900  0.39105600  1
  Ni  Ni9  1  0.50000000  0.44595700  0.05490100  1
  Ni  Ni10  1  0.50000000  0.60894400  0.55404300  1
  Ni  Ni11  1  0.00000000  0.87116800  0.16219600  1
  Ni  Ni12  1  0.00000000  0.29102800  0.12883200  1
  Ni  Ni13  1  0.00000000  0.83780400  0.70897200  1
  P  P14  1  0.50000000  0.71136100  0.13656000  1
  P  P15  1  0.50000000  0.42519900  0.28863900  1
  P  P16  1  0.50000000  0.86344000  0.57480100  1
  P  P17  1  0.00000000  0.00000000  0.00000000  1
  P  P18  1  0.00000000  0.57604700  0.68942600  1
  P  P19  1  0.00000000  0.11337900  0.42395300  1
  P  P20  1  0.00000000  0.31057400  0.88662100  1
