# generated using pymatgen
data_Na2Al2As3
_symmetry_space_group_name_H-M   'P 1'
_cell_length_a   6.77976200
_cell_length_b   13.22216500
_cell_length_c   14.59357298
_cell_angle_alpha   89.66936978
_cell_angle_beta   90.00000000
_cell_angle_gamma   90.00000000
_symmetry_Int_Tables_number   1
_chemical_formula_structural   Na2Al2As3
_chemical_formula_sum   'Na16 Al16 As24'
_cell_volume   1308.19180495
_cell_formula_units_Z   8
loop_
 _symmetry_equiv_pos_site_id
 _symmetry_equiv_pos_as_xyz
  1  'x, y, z'
loop_
 _atom_site_type_symbol
 _atom_site_label
 _atom_site_symmetry_multiplicity
 _atom_site_fract_x
 _atom_site_fract_y
 _atom_site_fract_z
 _atom_site_occupancy
  Na  Na0  1  0.05450000  0.86151600  0.00916000  1
  Na  Na1  1  0.55450000  0.13848400  0.49084000  1
  Na  Na2  1  0.94550000  0.13848400  0.99084000  1
  Na  Na3  1  0.44550000  0.86151600  0.50916000  1
  Na  Na4  1  0.41085100  0.35045700  0.98113000  1
  Na  Na5  1  0.91085100  0.64954300  0.51887000  1
  Na  Na6  1  0.58914900  0.64954300  0.01887000  1
  Na  Na7  1  0.08914900  0.35045700  0.48113000  1
  Na  Na8  1  0.45229200  0.08604900  0.89278700  1
  Na  Na9  1  0.95229200  0.91395100  0.60721300  1
  Na  Na10  1  0.54770800  0.91395100  0.10721300  1
  Na  Na11  1  0.04770800  0.08604900  0.39278700  1
  Na  Na12  1  0.09915000  0.56624400  0.08524700  1
  Na  Na13  1  0.59915000  0.43375600  0.41475300  1
  Na  Na14  1  0.90085000  0.43375600  0.91475300  1
  Na  Na15  1  0.40085000  0.56624400  0.58524700  1
  Al  Al16  1  0.71200800  0.31564600  0.16559400  1
  Al  Al17  1  0.21200800  0.68435400  0.33440600  1
  Al  Al18  1  0.28799200  0.68435400  0.83440600  1
  Al  Al19  1  0.78799200  0.31564600  0.66559400  1
  Al  Al20  1  0.20330000  0.90613600  0.26998500  1
  Al  Al21  1  0.70330000  0.09386400  0.23001500  1
  Al  Al22  1  0.79670000  0.09386400  0.73001500  1
  Al  Al23  1  0.29670000  0.90613600  0.76998500  1
  Al  Al24  1  0.23691300  0.18913100  0.17266800  1
  Al  Al25  1  0.73691300  0.81086900  0.32733200  1
  Al  Al26  1  0.76308700  0.81086900  0.82733200  1
  Al  Al27  1  0.26308700  0.18913100  0.67266800  1
  Al  Al28  1  0.23630700  0.41083800  0.24052200  1
  Al  Al29  1  0.73630700  0.58916200  0.25947800  1
  Al  Al30  1  0.76369300  0.58916200  0.75947800  1
  Al  Al31  1  0.26369300  0.41083800  0.74052200  1
  As  As32  1  0.02953900  0.03367300  0.17332200  1
  As  As33  1  0.52953900  0.96632700  0.32667800  1
  As  As34  1  0.97046100  0.96632700  0.82667800  1
  As  As35  1  0.47046100  0.03367300  0.67332200  1
  As  As36  1  0.54612300  0.16183700  0.08641800  1
  As  As37  1  0.04612300  0.83816300  0.41358200  1
  As  As38  1  0.45387700  0.83816300  0.91358200  1
  As  As39  1  0.95387700  0.16183700  0.58641800  1
  As  As40  1  0.04928400  0.33945500  0.10486200  1
  As  As41  1  0.54928400  0.66054500  0.39513800  1
  As  As42  1  0.95071600  0.66054500  0.89513800  1
  As  As43  1  0.45071600  0.33945500  0.60486200  1
  As  As44  1  0.16314100  0.25297400  0.82968900  1
  As  As45  1  0.66314100  0.74702600  0.67031100  1
  As  As46  1  0.83685900  0.74702600  0.17031100  1
  As  As47  1  0.33685900  0.25297400  0.32968900  1
  As  As48  1  0.53041600  0.47962300  0.15738200  1
  As  As49  1  0.03041600  0.52037700  0.34261800  1
  As  As50  1  0.46958400  0.52037700  0.84261800  1
  As  As51  1  0.96958400  0.47962300  0.65738200  1
  As  As52  1  0.78921300  0.24993100  0.82576800  1
  As  As53  1  0.28921300  0.75006900  0.67423200  1
  As  As54  1  0.21078700  0.75006900  0.17423200  1
  As  As55  1  0.71078700  0.24993100  0.32576800  1
