# generated using pymatgen
data_Pr3Zn22
_symmetry_space_group_name_H-M   'P 1'
_cell_length_a   12.36076298
_cell_length_b   12.36076298
_cell_length_c   12.36076298
_cell_angle_alpha   137.59695326
_cell_angle_beta   137.59695326
_cell_angle_gamma   61.52084738
_symmetry_Int_Tables_number   1
_chemical_formula_structural   Pr3Zn22
_chemical_formula_sum   'Pr6 Zn44'
_cell_volume   849.02953639
_cell_formula_units_Z   2
loop_
 _symmetry_equiv_pos_site_id
 _symmetry_equiv_pos_as_xyz
  1  'x, y, z'
loop_
 _atom_site_type_symbol
 _atom_site_label
 _atom_site_symmetry_multiplicity
 _atom_site_fract_x
 _atom_site_fract_y
 _atom_site_fract_z
 _atom_site_occupancy
  Pr  Pr0  1  0.61903700  0.61903700  0.00000000  1
  Pr  Pr1  1  0.36903700  0.86903700  0.50000000  1
  Pr  Pr2  1  0.13096300  0.63096300  0.50000000  1
  Pr  Pr3  1  0.38096300  0.38096300  0.00000000  1
  Pr  Pr4  1  0.75000000  0.25000000  0.50000000  1
  Pr  Pr5  1  0.00000000  0.00000000  0.00000000  1
  Zn  Zn6  1  0.07198300  0.54699000  0.99109600  1
  Zn  Zn7  1  0.55589300  0.54699000  0.47500700  1
  Zn  Zn8  1  0.29699000  0.32198300  0.49109600  1
  Zn  Zn9  1  0.83088700  0.32198300  0.02499300  1
  Zn  Zn10  1  0.07198300  0.08088700  0.52499300  1
  Zn  Zn11  1  0.55589300  0.08088700  0.00890400  1
  Zn  Zn12  1  0.29699000  0.80589300  0.97500700  1
  Zn  Zn13  1  0.83088700  0.80589300  0.50890400  1
  Zn  Zn14  1  0.67801700  0.70301000  0.50890400  1
  Zn  Zn15  1  0.19410700  0.70301000  0.02499300  1
  Zn  Zn16  1  0.45301000  0.92801700  0.00890400  1
  Zn  Zn17  1  0.91911300  0.92801700  0.47500700  1
  Zn  Zn18  1  0.67801700  0.16911300  0.97500700  1
  Zn  Zn19  1  0.19410700  0.16911300  0.49109600  1
  Zn  Zn20  1  0.45301000  0.44410700  0.52499300  1
  Zn  Zn21  1  0.91911300  0.44410700  0.99109600  1
  Zn  Zn22  1  0.49853300  0.27076900  0.77223600  1
  Zn  Zn23  1  0.02076900  0.74853300  0.27223600  1
  Zn  Zn24  1  0.47629600  0.74853300  0.72776400  1
  Zn  Zn25  1  0.49853300  0.72629600  0.22776400  1
  Zn  Zn26  1  0.25146700  0.97923100  0.72776400  1
  Zn  Zn27  1  0.72923100  0.50146700  0.22776400  1
  Zn  Zn28  1  0.27370400  0.50146700  0.77223600  1
  Zn  Zn29  1  0.25146700  0.52370400  0.27223600  1
  Zn  Zn30  1  0.75763000  0.60936500  0.85173500  1
  Zn  Zn31  1  0.35936500  0.00763000  0.35173500  1
  Zn  Zn32  1  0.65589400  0.00763000  0.64826500  1
  Zn  Zn33  1  0.75763000  0.90589400  0.14826500  1
  Zn  Zn34  1  0.99237000  0.64063500  0.64826500  1
  Zn  Zn35  1  0.39063500  0.24237000  0.14826500  1
  Zn  Zn36  1  0.09410600  0.24237000  0.85173500  1
  Zn  Zn37  1  0.99237000  0.34410600  0.35173500  1
  Zn  Zn38  1  0.61193200  0.96145300  0.34952200  1
  Zn  Zn39  1  0.71145300  0.86193200  0.84952200  1
  Zn  Zn40  1  0.01241000  0.86193200  0.15047800  1
  Zn  Zn41  1  0.61193200  0.26241000  0.65047800  1
  Zn  Zn42  1  0.13806800  0.28854700  0.15047800  1
  Zn  Zn43  1  0.03854700  0.38806800  0.65047800  1
  Zn  Zn44  1  0.73759000  0.38806800  0.34952200  1
  Zn  Zn45  1  0.13806800  0.98759000  0.84952200  1
  Zn  Zn46  1  0.87500000  0.62500000  0.75000000  1
  Zn  Zn47  1  0.37500000  0.12500000  0.25000000  1
  Zn  Zn48  1  0.87500000  0.12500000  0.75000000  1
  Zn  Zn49  1  0.87500000  0.12500000  0.25000000  1
