# generated using pymatgen
data_Lu2Mn3Si5
_symmetry_space_group_name_H-M   'P 1'
_cell_length_a   10.47864800
_cell_length_b   10.47864800
_cell_length_c   5.32885400
_cell_angle_alpha   90.00000000
_cell_angle_beta   90.00000000
_cell_angle_gamma   90.00000000
_symmetry_Int_Tables_number   1
_chemical_formula_structural   Lu2Mn3Si5
_chemical_formula_sum   'Lu8 Mn12 Si20'
_cell_volume   585.11916746
_cell_formula_units_Z   4
loop_
 _symmetry_equiv_pos_site_id
 _symmetry_equiv_pos_as_xyz
  1  'x, y, z'
loop_
 _atom_site_type_symbol
 _atom_site_label
 _atom_site_symmetry_multiplicity
 _atom_site_fract_x
 _atom_site_fract_y
 _atom_site_fract_z
 _atom_site_occupancy
  Lu  Lu0  1  0.57299000  0.73809800  0.50000000  1
  Lu  Lu1  1  0.42701000  0.26190200  0.50000000  1
  Lu  Lu2  1  0.07299000  0.76190200  0.00000000  1
  Lu  Lu3  1  0.92701000  0.23809800  0.00000000  1
  Lu  Lu4  1  0.26190200  0.57299000  0.50000000  1
  Lu  Lu5  1  0.73809800  0.42701000  0.50000000  1
  Lu  Lu6  1  0.23809800  0.07299000  0.00000000  1
  Lu  Lu7  1  0.76190200  0.92701000  0.00000000  1
  Mn  Mn8  1  0.87711300  0.85539200  0.50000000  1
  Mn  Mn9  1  0.12288700  0.14460800  0.50000000  1
  Mn  Mn10  1  0.37711300  0.64460800  0.00000000  1
  Mn  Mn11  1  0.62288700  0.35539200  0.00000000  1
  Mn  Mn12  1  0.14460800  0.87711300  0.50000000  1
  Mn  Mn13  1  0.85539200  0.12288700  0.50000000  1
  Mn  Mn14  1  0.35539200  0.37711300  0.00000000  1
  Mn  Mn15  1  0.64460800  0.62288700  0.00000000  1
  Mn  Mn16  1  0.50000000  0.00000000  0.25000000  1
  Mn  Mn17  1  0.00000000  0.50000000  0.75000000  1
  Mn  Mn18  1  0.00000000  0.50000000  0.25000000  1
  Mn  Mn19  1  0.50000000  0.00000000  0.75000000  1
  Si  Si20  1  0.67794500  0.17794500  0.25000000  1
  Si  Si21  1  0.32205500  0.82205500  0.25000000  1
  Si  Si22  1  0.17794500  0.32205500  0.75000000  1
  Si  Si23  1  0.82205500  0.67794500  0.75000000  1
  Si  Si24  1  0.82205500  0.67794500  0.25000000  1
  Si  Si25  1  0.17794500  0.32205500  0.25000000  1
  Si  Si26  1  0.67794500  0.17794500  0.75000000  1
  Si  Si27  1  0.32205500  0.82205500  0.75000000  1
  Si  Si28  1  0.50000000  0.50000000  0.24860100  1
  Si  Si29  1  0.00000000  0.00000000  0.74860100  1
  Si  Si30  1  0.50000000  0.50000000  0.75139900  1
  Si  Si31  1  0.00000000  0.00000000  0.25139900  1
  Si  Si32  1  0.68566700  0.97596200  0.50000000  1
  Si  Si33  1  0.31433300  0.02403800  0.50000000  1
  Si  Si34  1  0.18566700  0.52403800  0.00000000  1
  Si  Si35  1  0.81433300  0.47596200  0.00000000  1
  Si  Si36  1  0.02403800  0.68566700  0.50000000  1
  Si  Si37  1  0.97596200  0.31433300  0.50000000  1
  Si  Si38  1  0.47596200  0.18566700  0.00000000  1
  Si  Si39  1  0.52403800  0.81433300  0.00000000  1
