# generated using pymatgen
data_U2Si3Pt
_symmetry_space_group_name_H-M   'P 1'
_cell_length_a   3.81655200
_cell_length_b   4.15715559
_cell_length_c   7.09185225
_cell_angle_alpha   90.00036926
_cell_angle_beta   90.00000000
_cell_angle_gamma   90.00000000
_symmetry_Int_Tables_number   1
_chemical_formula_structural   U2Si3Pt
_chemical_formula_sum   'U2 Si3 Pt1'
_cell_volume   112.51933111
_cell_formula_units_Z   1
loop_
 _symmetry_equiv_pos_site_id
 _symmetry_equiv_pos_as_xyz
  1  'x, y, z'
loop_
 _atom_site_type_symbol
 _atom_site_label
 _atom_site_symmetry_multiplicity
 _atom_site_fract_x
 _atom_site_fract_y
 _atom_site_fract_z
 _atom_site_occupancy
  U  U0  1  0.00000000  0.99992300  0.99184300  1
  U  U1  1  0.00000000  0.49994700  0.50837200  1
  Si  Si2  1  0.50000000  0.49996700  0.83201900  1
  Si  Si3  1  0.50000000  0.49999300  0.15944600  1
  Si  Si4  1  0.50000000  0.99995500  0.67451100  1
  Pt  Pt5  1  0.50000000  0.00001500  0.33381000  1
