# generated using pymatgen
data_Nb(SeI)2
_symmetry_space_group_name_H-M   'P 1'
_cell_length_a   7.10440477
_cell_length_b   7.10440477
_cell_length_c   8.12243898
_cell_angle_alpha   79.37416548
_cell_angle_beta   79.37416548
_cell_angle_gamma   118.39342328
_symmetry_Int_Tables_number   1
_chemical_formula_structural   Nb(SeI)2
_chemical_formula_sum   'Nb2 Se4 I4'
_cell_volume   336.45186296
_cell_formula_units_Z   2
loop_
 _symmetry_equiv_pos_site_id
 _symmetry_equiv_pos_as_xyz
  1  'x, y, z'
loop_
 _atom_site_type_symbol
 _atom_site_label
 _atom_site_symmetry_multiplicity
 _atom_site_fract_x
 _atom_site_fract_y
 _atom_site_fract_z
 _atom_site_occupancy
  Nb  Nb0  1  0.87827700  0.12172300  0.00000000  1
  Nb  Nb1  1  0.12172300  0.87827700  0.00000000  1
  Se  Se2  1  0.87082200  0.87082200  0.29161000  1
  Se  Se3  1  0.12917800  0.12917800  0.70839000  1
  Se  Se4  1  0.67926800  0.67926800  0.11711700  1
  Se  Se5  1  0.32073200  0.32073200  0.88288300  1
  I  I6  1  0.43062000  0.02227700  0.21890000  1
  I  I7  1  0.56938000  0.97772300  0.78110000  1
  I  I8  1  0.97772300  0.56938000  0.78110000  1
  I  I9  1  0.02227700  0.43062000  0.21890000  1
