# generated using pymatgen
data_SmMg3Ni8
_symmetry_space_group_name_H-M   'P 1'
_cell_length_a   4.91253244
_cell_length_b   4.91253244
_cell_length_c   8.48400901
_cell_angle_alpha   73.17094852
_cell_angle_beta   90.00000000
_cell_angle_gamma   120.00000000
_symmetry_Int_Tables_number   1
_chemical_formula_structural   SmMg3Ni8
_chemical_formula_sum   'Sm1 Mg3 Ni8'
_cell_volume   167.11203098
_cell_formula_units_Z   1
loop_
 _symmetry_equiv_pos_site_id
 _symmetry_equiv_pos_as_xyz
  1  'x, y, z'
loop_
 _atom_site_type_symbol
 _atom_site_label
 _atom_site_symmetry_multiplicity
 _atom_site_fract_x
 _atom_site_fract_y
 _atom_site_fract_z
 _atom_site_occupancy
  Sm  Sm0  1  0.99965700  0.99931400  0.00102900  1
  Mg  Mg1  1  0.50056800  0.00113500  0.49829700  1
  Mg  Mg2  1  0.87080600  0.74161300  0.38758100  1
  Mg  Mg3  1  0.38033600  0.76067200  0.85899200  1
  Ni  Ni4  1  0.43561200  0.36944900  0.19493900  1
  Ni  Ni5  1  0.93724800  0.38095800  0.68179500  1
  Ni  Ni6  1  0.43561200  0.87122500  0.19493900  1
  Ni  Ni7  1  0.93724800  0.87449500  0.68179500  1
  Ni  Ni8  1  0.18733900  0.37467800  0.43798300  1
  Ni  Ni9  1  0.68802800  0.37605600  0.93591600  1
  Ni  Ni10  1  0.93383600  0.36944900  0.19493900  1
  Ni  Ni11  1  0.44371000  0.38095800  0.68179500  1
