# generated using pymatgen
data_KFeBP2HO9
_symmetry_space_group_name_H-M   'P 1'
_cell_length_a   8.31939100
_cell_length_b   9.53207486
_cell_length_c   9.75164720
_cell_angle_alpha   102.02068616
_cell_angle_beta   90.00000000
_cell_angle_gamma   90.00000000
_symmetry_Int_Tables_number   1
_chemical_formula_structural   KFeBP2HO9
_chemical_formula_sum   'K4 Fe4 B4 P8 H4 O36'
_cell_volume   756.35903179
_cell_formula_units_Z   4
loop_
 _symmetry_equiv_pos_site_id
 _symmetry_equiv_pos_as_xyz
  1  'x, y, z'
loop_
 _atom_site_type_symbol
 _atom_site_label
 _atom_site_symmetry_multiplicity
 _atom_site_fract_x
 _atom_site_fract_y
 _atom_site_fract_z
 _atom_site_occupancy
  K  K0  1  0.41186200  0.19390400  0.07598300  1
  K  K1  1  0.91186200  0.80609600  0.42401700  1
  K  K2  1  0.58813800  0.80609600  0.92401700  1
  K  K3  1  0.08813800  0.19390400  0.57598300  1
  Fe  Fe4  1  0.65512000  0.20861500  0.43316100  1
  Fe  Fe5  1  0.15512000  0.79138500  0.06683900  1
  Fe  Fe6  1  0.34488000  0.79138500  0.56683900  1
  Fe  Fe7  1  0.84488000  0.20861500  0.93316100  1
  B  B8  1  0.06826200  0.33244800  0.19179800  1
  B  B9  1  0.56826200  0.66755200  0.30820200  1
  B  B10  1  0.93173800  0.66755200  0.80820200  1
  B  B11  1  0.43173800  0.33244800  0.69179800  1
  P  P12  1  0.55642600  0.07818100  0.71060300  1
  P  P13  1  0.05642600  0.92181900  0.78939700  1
  P  P14  1  0.44357400  0.92181900  0.28939700  1
  P  P15  1  0.94357400  0.07818100  0.21060300  1
  P  P16  1  0.74721400  0.42140000  0.21850400  1
  P  P17  1  0.24721400  0.57860000  0.28149600  1
  P  P18  1  0.25278600  0.57860000  0.78149600  1
  P  P19  1  0.75278600  0.42140000  0.71850400  1
  H  H20  1  0.40643400  0.39162100  0.49913500  1
  H  H21  1  0.90643400  0.60837900  0.00086500  1
  H  H22  1  0.59356600  0.60837900  0.50086500  1
  H  H23  1  0.09356600  0.39162100  0.99913500  1
  O  O24  1  0.63318500  0.34280100  0.30045800  1
  O  O25  1  0.13318500  0.65719900  0.19954200  1
  O  O26  1  0.36681500  0.65719900  0.69954200  1
  O  O27  1  0.86681500  0.34280100  0.80045800  1
  O  O28  1  0.92683900  0.40918700  0.26275500  1
  O  O29  1  0.42683900  0.59081300  0.23724500  1
  O  O30  1  0.07316100  0.59081300  0.73724500  1
  O  O31  1  0.57316100  0.40918700  0.76275500  1
  O  O32  1  0.77584200  0.37165900  0.56023800  1
  O  O33  1  0.27584200  0.62834100  0.93976200  1
  O  O34  1  0.22415800  0.62834100  0.43976200  1
  O  O35  1  0.72415800  0.37165900  0.06023800  1
  O  O36  1  0.71647700  0.58800400  0.26096400  1
  O  O37  1  0.21647700  0.41199600  0.23903600  1
  O  O38  1  0.28352300  0.41199600  0.73903600  1
  O  O39  1  0.78352300  0.58800400  0.76096400  1
  O  O40  1  0.66287700  0.09611500  0.58643400  1
  O  O41  1  0.16287700  0.90388500  0.91356600  1
  O  O42  1  0.33712300  0.90388500  0.41356600  1
  O  O43  1  0.83712300  0.09611500  0.08643400  1
  O  O44  1  0.51343300  0.07304900  0.30593400  1
  O  O45  1  0.01343300  0.92695100  0.19406600  1
  O  O46  1  0.48656700  0.92695100  0.69406600  1
  O  O47  1  0.98656700  0.07304900  0.80593400  1
  O  O48  1  0.85398600  0.11059200  0.35280300  1
  O  O49  1  0.35398600  0.88940800  0.14719700  1
  O  O50  1  0.14601400  0.88940800  0.64719700  1
  O  O51  1  0.64601400  0.11059200  0.85280300  1
  O  O52  1  0.41107900  0.18916800  0.72480000  1
  O  O53  1  0.91107900  0.81083200  0.77520000  1
  O  O54  1  0.58892100  0.81083200  0.27520000  1
  O  O55  1  0.08892100  0.18916800  0.22480000  1
  O  O56  1  0.44197800  0.30901200  0.53534800  1
  O  O57  1  0.94197800  0.69098800  0.96465200  1
  O  O58  1  0.55802200  0.69098800  0.46465200  1
  O  O59  1  0.05802200  0.30901200  0.03534800  1
