# generated using pymatgen
data_Tl2TeO6
_symmetry_space_group_name_H-M   'P 1'
_cell_length_a   9.28383033
_cell_length_b   9.28383033
_cell_length_c   5.09060800
_cell_angle_alpha   90.00000000
_cell_angle_beta   90.00000000
_cell_angle_gamma   120.00000232
_symmetry_Int_Tables_number   1
_chemical_formula_structural   Tl2TeO6
_chemical_formula_sum   'Tl6 Te3 O18'
_cell_volume   379.97468731
_cell_formula_units_Z   3
loop_
 _symmetry_equiv_pos_site_id
 _symmetry_equiv_pos_as_xyz
  1  'x, y, z'
loop_
 _atom_site_type_symbol
 _atom_site_label
 _atom_site_symmetry_multiplicity
 _atom_site_fract_x
 _atom_site_fract_y
 _atom_site_fract_z
 _atom_site_occupancy
  Tl  Tl0  1  0.71182800  0.71182800  0.50000000  1
  Tl  Tl1  1  0.00000000  0.28817200  0.50000000  1
  Tl  Tl2  1  0.28817200  0.00000000  0.50000000  1
  Tl  Tl3  1  0.37444600  0.37444600  0.00000000  1
  Tl  Tl4  1  0.00000000  0.62555400  0.00000000  1
  Tl  Tl5  1  0.62555400  0.00000000  0.00000000  1
  Te  Te6  1  0.66666700  0.33333300  0.48547400  1
  Te  Te7  1  0.33333300  0.66666700  0.51452600  1
  Te  Te8  1  0.00000000  0.00000000  0.00000000  1
  O  O9  1  0.75693500  0.22270600  0.70449200  1
  O  O10  1  0.77729400  0.53422800  0.70449200  1
  O  O11  1  0.46577200  0.24306500  0.70449200  1
  O  O12  1  0.53422800  0.77729400  0.29550800  1
  O  O13  1  0.24306500  0.46577200  0.29550800  1
  O  O14  1  0.22270600  0.75693500  0.29550800  1
  O  O15  1  0.59703100  0.46200400  0.26470500  1
  O  O16  1  0.53799600  0.13502700  0.26470500  1
  O  O17  1  0.86497300  0.40296900  0.26470500  1
  O  O18  1  0.07965700  0.87985300  0.78372700  1
  O  O19  1  0.12014700  0.19980400  0.78372700  1
  O  O20  1  0.80019600  0.92034300  0.78372700  1
  O  O21  1  0.19980400  0.12014700  0.21627300  1
  O  O22  1  0.92034300  0.80019600  0.21627300  1
  O  O23  1  0.87985300  0.07965700  0.21627300  1
  O  O24  1  0.46200400  0.59703100  0.73529500  1
  O  O25  1  0.40296900  0.86497300  0.73529500  1
  O  O26  1  0.13502700  0.53799600  0.73529500  1
