# generated using pymatgen
data_Dy3FeB7
_symmetry_space_group_name_H-M   'P 1'
_cell_length_a   8.03517072
_cell_length_b   8.03517072
_cell_length_c   9.30862200
_cell_angle_alpha   90.00000000
_cell_angle_beta   90.00000000
_cell_angle_gamma   155.40689702
_symmetry_Int_Tables_number   1
_chemical_formula_structural   Dy3FeB7
_chemical_formula_sum   'Dy6 Fe2 B14'
_cell_volume   250.11963126
_cell_formula_units_Z   2
loop_
 _symmetry_equiv_pos_site_id
 _symmetry_equiv_pos_as_xyz
  1  'x, y, z'
loop_
 _atom_site_type_symbol
 _atom_site_label
 _atom_site_symmetry_multiplicity
 _atom_site_fract_x
 _atom_site_fract_y
 _atom_site_fract_z
 _atom_site_occupancy
  Dy  Dy0  1  0.89525700  0.10474300  0.44006600  1
  Dy  Dy1  1  0.10474300  0.89525700  0.55993400  1
  Dy  Dy2  1  0.89525700  0.10474300  0.05993400  1
  Dy  Dy3  1  0.10474300  0.89525700  0.94006600  1
  Dy  Dy4  1  0.24310400  0.75689600  0.25000000  1
  Dy  Dy5  1  0.75689600  0.24310400  0.75000000  1
  Fe  Fe6  1  0.05444000  0.94556000  0.25000000  1
  Fe  Fe7  1  0.94556000  0.05444000  0.75000000  1
  B  B8  1  0.72716300  0.27283700  0.46717500  1
  B  B9  1  0.27283700  0.72716300  0.53282500  1
  B  B10  1  0.72716300  0.27283700  0.03282500  1
  B  B11  1  0.27283700  0.72716300  0.96717500  1
  B  B12  1  0.62964200  0.37035800  0.15333100  1
  B  B13  1  0.37035800  0.62964200  0.84666900  1
  B  B14  1  0.62964200  0.37035800  0.34666900  1
  B  B15  1  0.37035800  0.62964200  0.65333100  1
  B  B16  1  0.52161300  0.47838700  0.09895400  1
  B  B17  1  0.47838700  0.52161300  0.90104600  1
  B  B18  1  0.52161300  0.47838700  0.40104600  1
  B  B19  1  0.47838700  0.52161300  0.59895400  1
  B  B20  1  0.45967400  0.54032600  0.25000000  1
  B  B21  1  0.54032600  0.45967400  0.75000000  1
