# generated using pymatgen
data_Na2FePO4F
_symmetry_space_group_name_H-M   'P 1'
_cell_length_a   5.28099600
_cell_length_b   11.95417000
_cell_length_c   14.04166800
_cell_angle_alpha   90.00000000
_cell_angle_beta   90.00000000
_cell_angle_gamma   90.00000000
_symmetry_Int_Tables_number   1
_chemical_formula_structural   Na2FePO4F
_chemical_formula_sum   'Na16 Fe8 P8 O32 F8'
_cell_volume   886.44943302
_cell_formula_units_Z   8
loop_
 _symmetry_equiv_pos_site_id
 _symmetry_equiv_pos_as_xyz
  1  'x, y, z'
loop_
 _atom_site_type_symbol
 _atom_site_label
 _atom_site_symmetry_multiplicity
 _atom_site_fract_x
 _atom_site_fract_y
 _atom_site_fract_z
 _atom_site_occupancy
  Na  Na0  1  0.26372000  0.32821000  0.75521200  1
  Na  Na1  1  0.23628000  0.82821000  0.74478800  1
  Na  Na2  1  0.76372000  0.67179000  0.74478800  1
  Na  Na3  1  0.73628000  0.17179000  0.75521200  1
  Na  Na4  1  0.73628000  0.67179000  0.24478800  1
  Na  Na5  1  0.76372000  0.17179000  0.25521200  1
  Na  Na6  1  0.23628000  0.32821000  0.25521200  1
  Na  Na7  1  0.26372000  0.82821000  0.24478800  1
  Na  Na8  1  0.23915600  0.08342600  0.87524100  1
  Na  Na9  1  0.26084400  0.58342600  0.62475900  1
  Na  Na10  1  0.73915600  0.91657400  0.62475900  1
  Na  Na11  1  0.76084400  0.41657400  0.87524100  1
  Na  Na12  1  0.76084400  0.91657400  0.12475900  1
  Na  Na13  1  0.73915600  0.41657400  0.37524100  1
  Na  Na14  1  0.26084400  0.08342600  0.37524100  1
  Na  Na15  1  0.23915600  0.58342600  0.12475900  1
  Fe  Fe16  1  0.22774000  0.32571400  0.99017800  1
  Fe  Fe17  1  0.27226000  0.82571400  0.50982200  1
  Fe  Fe18  1  0.72774000  0.67428600  0.50982200  1
  Fe  Fe19  1  0.77226000  0.17428600  0.99017800  1
  Fe  Fe20  1  0.77226000  0.67428600  0.00982200  1
  Fe  Fe21  1  0.72774000  0.17428600  0.49017800  1
  Fe  Fe22  1  0.27226000  0.32571400  0.49017800  1
  Fe  Fe23  1  0.22774000  0.82571400  0.00982200  1
  P  P24  1  0.20350700  0.08699200  0.61923100  1
  P  P25  1  0.29649300  0.58699200  0.88076900  1
  P  P26  1  0.70350700  0.91300800  0.88076900  1
  P  P27  1  0.79649300  0.41300800  0.61923100  1
  P  P28  1  0.79649300  0.91300800  0.38076900  1
  P  P29  1  0.70350700  0.41300800  0.11923100  1
  P  P30  1  0.29649300  0.08699200  0.11923100  1
  P  P31  1  0.20350700  0.58699200  0.38076900  1
  O  O32  1  0.26693500  0.96028300  0.61236000  1
  O  O33  1  0.23306500  0.46028300  0.88764000  1
  O  O34  1  0.76693500  0.03971700  0.88764000  1
  O  O35  1  0.73306500  0.53971700  0.61236000  1
  O  O36  1  0.73306500  0.03971700  0.38764000  1
  O  O37  1  0.76693500  0.53971700  0.11236000  1
  O  O38  1  0.23306500  0.96028300  0.11236000  1
  O  O39  1  0.26693500  0.46028300  0.38764000  1
  O  O40  1  0.28517300  0.13342700  0.71658500  1
  O  O41  1  0.21482700  0.63342700  0.78341500  1
  O  O42  1  0.78517300  0.86657300  0.78341500  1
  O  O43  1  0.71482700  0.36657300  0.71658500  1
  O  O44  1  0.71482700  0.86657300  0.28341500  1
  O  O45  1  0.78517300  0.36657300  0.21658500  1
  O  O46  1  0.21482700  0.13342700  0.21658500  1
  O  O47  1  0.28517300  0.63342700  0.28341500  1
  O  O48  1  0.90871300  0.10260600  0.60562300  1
  O  O49  1  0.59128700  0.60260600  0.89437700  1
  O  O50  1  0.40871300  0.89739400  0.89437700  1
  O  O51  1  0.09128700  0.39739400  0.60562300  1
  O  O52  1  0.09128700  0.89739400  0.39437700  1
  O  O53  1  0.40871300  0.39739400  0.10562300  1
  O  O54  1  0.59128700  0.10260600  0.10562300  1
  O  O55  1  0.90871300  0.60260600  0.39437700  1
  O  O56  1  0.33904800  0.15113200  0.53638000  1
  O  O57  1  0.16095200  0.65113200  0.96362000  1
  O  O58  1  0.83904800  0.84886800  0.96362000  1
  O  O59  1  0.66095200  0.34886800  0.53638000  1
  O  O60  1  0.66095200  0.84886800  0.46362000  1
  O  O61  1  0.83904800  0.34886800  0.03638000  1
  O  O62  1  0.16095200  0.15113200  0.03638000  1
  O  O63  1  0.33904800  0.65113200  0.46362000  1
  F  F64  1  0.00000000  0.25000000  0.87586900  1
  F  F65  1  0.50000000  0.75000000  0.62413100  1
  F  F66  1  0.00000000  0.75000000  0.12413100  1
  F  F67  1  0.50000000  0.25000000  0.37586900  1
  F  F68  1  0.50000000  0.25000000  0.89876700  1
  F  F69  1  0.00000000  0.75000000  0.60123300  1
  F  F70  1  0.50000000  0.75000000  0.10123300  1
  F  F71  1  0.00000000  0.25000000  0.39876700  1
