# generated using pymatgen
data_Hg4BiS2Cl5
_symmetry_space_group_name_H-M   'P 1'
_cell_length_a   8.29028900
_cell_length_b   10.69011100
_cell_length_c   9.03090813
_cell_angle_alpha   90.00000000
_cell_angle_beta   113.19382790
_cell_angle_gamma   90.00000000
_symmetry_Int_Tables_number   1
_chemical_formula_structural   Hg4BiS2Cl5
_chemical_formula_sum   'Hg8 Bi2 S4 Cl10'
_cell_volume   735.66962030
_cell_formula_units_Z   2
loop_
 _symmetry_equiv_pos_site_id
 _symmetry_equiv_pos_as_xyz
  1  'x, y, z'
loop_
 _atom_site_type_symbol
 _atom_site_label
 _atom_site_symmetry_multiplicity
 _atom_site_fract_x
 _atom_site_fract_y
 _atom_site_fract_z
 _atom_site_occupancy
  Hg  Hg0  1  0.92434900  0.18246400  0.32885200  1
  Hg  Hg1  1  0.07565100  0.68246400  0.67114800  1
  Hg  Hg2  1  0.94895200  0.66808400  0.35542900  1
  Hg  Hg3  1  0.05104800  0.16808400  0.64457100  1
  Hg  Hg4  1  0.49744900  0.18059100  0.98477200  1
  Hg  Hg5  1  0.50255100  0.68059100  0.01522800  1
  Hg  Hg6  1  0.80513700  0.43205100  0.01985300  1
  Hg  Hg7  1  0.19486300  0.93205100  0.98014700  1
  Bi  Bi8  1  0.50300600  0.43108700  0.50984900  1
  Bi  Bi9  1  0.49699400  0.93108700  0.49015100  1
  S  S10  1  0.80256300  0.20433700  0.02905600  1
  S  S11  1  0.19743700  0.70433700  0.97094400  1
  S  S12  1  0.19404100  0.15748800  0.94449900  1
  S  S13  1  0.80595900  0.65748800  0.05550100  1
  Cl  Cl14  1  0.83779600  0.92362100  0.68994900  1
  Cl  Cl15  1  0.16220400  0.42362100  0.31005100  1
  Cl  Cl16  1  0.85585100  0.43678700  0.71283200  1
  Cl  Cl17  1  0.14414900  0.93678700  0.28716800  1
  Cl  Cl18  1  0.40256100  0.45392000  0.76895700  1
  Cl  Cl19  1  0.59743900  0.95392000  0.23104300  1
  Cl  Cl20  1  0.59319400  0.39795400  0.25997800  1
  Cl  Cl21  1  0.40680600  0.89795400  0.74002200  1
  Cl  Cl22  1  0.49901400  0.18521700  0.56785100  1
  Cl  Cl23  1  0.50098600  0.68521700  0.43214900  1
