# generated using pymatgen
data_K3Ti2P5S18
_symmetry_space_group_name_H-M   'P 1'
_cell_length_a   12.00360863
_cell_length_b   12.00360863
_cell_length_c   20.85941990
_cell_angle_alpha   74.63926680
_cell_angle_beta   74.63926680
_cell_angle_gamma   30.17699988
_symmetry_Int_Tables_number   1
_chemical_formula_structural   K3Ti2P5S18
_chemical_formula_sum   'K6 Ti4 P10 S36'
_cell_volume   1452.84368969
_cell_formula_units_Z   2
loop_
 _symmetry_equiv_pos_site_id
 _symmetry_equiv_pos_as_xyz
  1  'x, y, z'
loop_
 _atom_site_type_symbol
 _atom_site_label
 _atom_site_symmetry_multiplicity
 _atom_site_fract_x
 _atom_site_fract_y
 _atom_site_fract_z
 _atom_site_occupancy
  K  K0  1  0.73006900  0.95836800  0.67323200  1
  K  K1  1  0.26993100  0.04163200  0.32676800  1
  K  K2  1  0.04163200  0.26993100  0.82676800  1
  K  K3  1  0.95836800  0.73006900  0.17323200  1
  K  K4  1  0.00000000  0.00000000  0.50000000  1
  K  K5  1  0.00000000  0.00000000  0.00000000  1
  Ti  Ti6  1  0.62363500  0.14180100  0.87115700  1
  Ti  Ti7  1  0.37636500  0.85819900  0.12884300  1
  Ti  Ti8  1  0.85819900  0.37636500  0.62884300  1
  Ti  Ti9  1  0.14180100  0.62363500  0.37115700  1
  P  P10  1  0.65186100  0.86063700  0.85870800  1
  P  P11  1  0.34813900  0.13936300  0.14129200  1
  P  P12  1  0.13936300  0.34813900  0.64129200  1
  P  P13  1  0.86063700  0.65186100  0.35870800  1
  P  P14  1  0.74608500  0.25391500  0.75000000  1
  P  P15  1  0.25391500  0.74608500  0.25000000  1
  P  P16  1  0.30305800  0.45144100  0.51617500  1
  P  P17  1  0.69694200  0.54855900  0.48382500  1
  P  P18  1  0.54855900  0.69694200  0.98382500  1
  P  P19  1  0.45144100  0.30305800  0.01617500  1
  S  S20  1  0.35729900  0.22177600  0.55271100  1
  S  S21  1  0.64270100  0.77822400  0.44728900  1
  S  S22  1  0.77822400  0.64270100  0.94728900  1
  S  S23  1  0.22177600  0.35729900  0.05271100  1
  S  S24  1  0.48760400  0.36022800  0.76354900  1
  S  S25  1  0.51239600  0.63977200  0.23645100  1
  S  S26  1  0.63977200  0.51239600  0.73645100  1
  S  S27  1  0.36022800  0.48760400  0.26354900  1
  S  S28  1  0.60064000  0.82109000  0.79158000  1
  S  S29  1  0.39936000  0.17891000  0.20842000  1
  S  S30  1  0.17891000  0.39936000  0.70842000  1
  S  S31  1  0.82109000  0.60064000  0.29158000  1
  S  S32  1  0.51412500  0.67615200  0.57412400  1
  S  S33  1  0.48587500  0.32384800  0.42587600  1
  S  S34  1  0.32384800  0.48587500  0.92587600  1
  S  S35  1  0.67615200  0.51412500  0.07412400  1
  S  S36  1  0.22138500  0.10518400  0.66372700  1
  S  S37  1  0.77861500  0.89481600  0.33627300  1
  S  S38  1  0.89481600  0.77861500  0.83627300  1
  S  S39  1  0.10518400  0.22138500  0.16372700  1
  S  S40  1  0.75075900  0.98411800  0.98634100  1
  S  S41  1  0.24924100  0.01588200  0.01365900  1
  S  S42  1  0.01588200  0.24924100  0.51365900  1
  S  S43  1  0.98411800  0.75075900  0.48634100  1
  S  S44  1  0.38436700  0.18194800  0.88407200  1
  S  S45  1  0.61563300  0.81805200  0.11592800  1
  S  S46  1  0.81805200  0.61563300  0.61592800  1
  S  S47  1  0.18194800  0.38436700  0.38407200  1
  S  S48  1  0.91097300  0.05040900  0.83486200  1
  S  S49  1  0.08902700  0.94959100  0.16513800  1
  S  S50  1  0.94959100  0.08902700  0.66513800  1
  S  S51  1  0.05040900  0.91097300  0.33486200  1
  S  S52  1  0.39082200  0.46592900  0.57708800  1
  S  S53  1  0.60917800  0.53407100  0.42291200  1
  S  S54  1  0.53407100  0.60917800  0.92291200  1
  S  S55  1  0.46592900  0.39082200  0.07708800  1
