# generated using pymatgen
data_FeH8N3O13
_symmetry_space_group_name_H-M   'P 1'
_cell_length_a   15.35902300
_cell_length_b   7.28204500
_cell_length_c   11.60825775
_cell_angle_alpha   56.68578680
_cell_angle_beta   90.00000000
_cell_angle_gamma   90.00000000
_symmetry_Int_Tables_number   1
_chemical_formula_structural   FeH8N3O13
_chemical_formula_sum   'Fe4 H32 N12 O52'
_cell_volume   1084.97416316
_cell_formula_units_Z   4
loop_
 _symmetry_equiv_pos_site_id
 _symmetry_equiv_pos_as_xyz
  1  'x, y, z'
loop_
 _atom_site_type_symbol
 _atom_site_label
 _atom_site_symmetry_multiplicity
 _atom_site_fract_x
 _atom_site_fract_y
 _atom_site_fract_z
 _atom_site_occupancy
  Fe  Fe0  1  0.90408700  0.89260200  0.27879900  1
  Fe  Fe1  1  0.59591300  0.89260200  0.77879900  1
  Fe  Fe2  1  0.09591300  0.10739800  0.72120100  1
  Fe  Fe3  1  0.40408700  0.10739800  0.22120100  1
  H  H4  1  0.74481500  0.87681100  0.17679400  1
  H  H5  1  0.75518500  0.87681100  0.67679400  1
  H  H6  1  0.25518500  0.12318900  0.82320600  1
  H  H7  1  0.24481500  0.12318900  0.32320600  1
  H  H8  1  0.82191300  0.92995100  0.06434900  1
  H  H9  1  0.67808700  0.92995100  0.56434900  1
  H  H10  1  0.17808700  0.07004900  0.93565100  1
  H  H11  1  0.32191300  0.07004900  0.43565100  1
  H  H12  1  0.99740000  0.78822900  0.50702100  1
  H  H13  1  0.50260000  0.78822900  0.00702100  1
  H  H14  1  0.00260000  0.21177100  0.49297900  1
  H  H15  1  0.49740000  0.21177100  0.99297900  1
  H  H16  1  0.04934900  0.98840000  0.37300200  1
  H  H17  1  0.45065100  0.98840000  0.87300200  1
  H  H18  1  0.95065100  0.01160000  0.62699800  1
  H  H19  1  0.54934900  0.01160000  0.12699800  1
  H  H20  1  0.04600100  0.91830300  0.13201000  1
  H  H21  1  0.45399900  0.91830300  0.63201000  1
  H  H22  1  0.95399900  0.08169700  0.86799000  1
  H  H23  1  0.54600100  0.08169700  0.36799000  1
  H  H24  1  0.00811300  0.67474300  0.21137300  1
  H  H25  1  0.49188700  0.67474300  0.71137300  1
  H  H26  1  0.99188700  0.32525700  0.78862700  1
  H  H27  1  0.50811300  0.32525700  0.28862700  1
  H  H28  1  0.18662000  0.87057500  0.15995700  1
  H  H29  1  0.31338000  0.87057500  0.65995700  1
  H  H30  1  0.81338000  0.12942500  0.84004300  1
  H  H31  1  0.68662000  0.12942500  0.34004300  1
  H  H32  1  0.16649100  0.11546600  0.10921000  1
  H  H33  1  0.33350900  0.11546600  0.60921000  1
  H  H34  1  0.83350900  0.88453400  0.89079000  1
  H  H35  1  0.66649100  0.88453400  0.39079000  1
  N  N36  1  0.88417700  0.30639800  0.17147700  1
  N  N37  1  0.61582300  0.30639800  0.67147700  1
  N  N38  1  0.11582300  0.69360200  0.82852300  1
  N  N39  1  0.38417700  0.69360200  0.32852300  1
  N  N40  1  0.11542100  0.36540600  0.25771000  1
  N  N41  1  0.38457900  0.36540600  0.75771000  1
  N  N42  1  0.88457900  0.63459400  0.74229000  1
  N  N43  1  0.61542100  0.63459400  0.24229000  1
  N  N44  1  0.84302700  0.52211000  0.48064300  1
  N  N45  1  0.65697300  0.52211000  0.98064300  1
  N  N46  1  0.15697300  0.47789000  0.51935700  1
  N  N47  1  0.34302700  0.47789000  0.01935700  1
  O  O48  1  0.80830000  0.90518300  0.15637500  1
  O  O49  1  0.69170000  0.90518300  0.65637500  1
  O  O50  1  0.19170000  0.09481700  0.84362500  1
  O  O51  1  0.30830000  0.09481700  0.34362500  1
  O  O52  1  0.99105300  0.83129800  0.16963700  1
  O  O53  1  0.50894700  0.83129800  0.66963700  1
  O  O54  1  0.00894700  0.16870200  0.83036300  1
  O  O55  1  0.49105300  0.16870200  0.33036300  1
  O  O56  1  0.99649000  0.89067500  0.40615000  1
  O  O57  1  0.50351000  0.89067500  0.90615000  1
  O  O58  1  0.00351000  0.10932500  0.59385000  1
  O  O59  1  0.49649000  0.10932500  0.09385000  1
  O  O60  1  0.15193900  0.99956400  0.09400600  1
  O  O61  1  0.34806100  0.99956400  0.59400600  1
  O  O62  1  0.84806100  0.00043600  0.90599400  1
  O  O63  1  0.65193900  0.00043600  0.40599400  1
  O  O64  1  0.90450100  0.53412800  0.40118500  1
  O  O65  1  0.59549900  0.53412800  0.90118500  1
  O  O66  1  0.09549900  0.46587200  0.59881500  1
  O  O67  1  0.40450100  0.46587200  0.09881500  1
  O  O68  1  0.81634000  0.71409300  0.44984300  1
  O  O69  1  0.68366000  0.71409300  0.94984300  1
  O  O70  1  0.18366000  0.28590700  0.55015700  1
  O  O71  1  0.31634000  0.28590700  0.05015700  1
  O  O72  1  0.81329500  0.34978600  0.57537600  1
  O  O73  1  0.68670500  0.34978600  0.07537600  1
  O  O74  1  0.18670500  0.65021400  0.42462400  1
  O  O75  1  0.31329500  0.65021400  0.92462400  1
  O  O76  1  0.94095400  0.22326000  0.12934700  1
  O  O77  1  0.55904600  0.22326000  0.62934700  1
  O  O78  1  0.05904600  0.77674000  0.87065300  1
  O  O79  1  0.44095400  0.77674000  0.37065300  1
  O  O80  1  0.83989300  0.15867800  0.27737300  1
  O  O81  1  0.66010700  0.15867800  0.77737300  1
  O  O82  1  0.16010700  0.84132200  0.72262700  1
  O  O83  1  0.33989300  0.84132200  0.22262700  1
  O  O84  1  0.87405100  0.50289600  0.11676700  1
  O  O85  1  0.62594900  0.50289600  0.61676700  1
  O  O86  1  0.12594900  0.49710400  0.88323300  1
  O  O87  1  0.37405100  0.49710400  0.38323300  1
  O  O88  1  0.04407400  0.39904600  0.29974300  1
  O  O89  1  0.45592600  0.39904600  0.79974300  1
  O  O90  1  0.95592600  0.60095400  0.70025700  1
  O  O91  1  0.54407400  0.60095400  0.20025700  1
  O  O92  1  0.13371200  0.16429700  0.29778400  1
  O  O93  1  0.36628800  0.16429700  0.79778400  1
  O  O94  1  0.86628800  0.83570300  0.70221600  1
  O  O95  1  0.63371200  0.83570300  0.20221600  1
  O  O96  1  0.16637200  0.51589800  0.18180500  1
  O  O97  1  0.33362800  0.51589800  0.68180500  1
  O  O98  1  0.83362800  0.48410200  0.81819500  1
  O  O99  1  0.66637200  0.48410200  0.31819500  1
