# generated using pymatgen
data_Ca6Fe(CoO4)3
_symmetry_space_group_name_H-M   'P 1'
_cell_length_a   6.34215575
_cell_length_b   6.34215575
_cell_length_c   12.68417324
_cell_angle_alpha   92.49021402
_cell_angle_beta   92.49021402
_cell_angle_gamma   92.63190423
_symmetry_Int_Tables_number   1
_chemical_formula_structural   Ca6Fe(CoO4)3
_chemical_formula_sum   'Ca12 Fe2 Co6 O24'
_cell_volume   508.64712489
_cell_formula_units_Z   2
loop_
 _symmetry_equiv_pos_site_id
 _symmetry_equiv_pos_as_xyz
  1  'x, y, z'
loop_
 _atom_site_type_symbol
 _atom_site_label
 _atom_site_symmetry_multiplicity
 _atom_site_fract_x
 _atom_site_fract_y
 _atom_site_fract_z
 _atom_site_occupancy
  Ca  Ca0  1  0.61984900  0.88015100  0.12500000  1
  Ca  Ca1  1  0.61984900  0.88015100  0.62500000  1
  Ca  Ca2  1  0.88281000  0.25035400  0.30932500  1
  Ca  Ca3  1  0.88281000  0.25035400  0.80932500  1
  Ca  Ca4  1  0.24964600  0.61719000  0.44067500  1
  Ca  Ca5  1  0.24964600  0.61719000  0.94067500  1
  Ca  Ca6  1  0.11970100  0.74925500  0.19038900  1
  Ca  Ca7  1  0.11970100  0.74925500  0.69038900  1
  Ca  Ca8  1  0.75074500  0.38029900  0.05961100  1
  Ca  Ca9  1  0.75074500  0.38029900  0.55961100  1
  Ca  Ca10  1  0.37946100  0.12053900  0.37500000  1
  Ca  Ca11  1  0.37946100  0.12053900  0.87500000  1
  Fe  Fe12  1  0.75020900  0.74979100  0.37500000  1
  Fe  Fe13  1  0.75020900  0.74979100  0.87500000  1
  Co  Co14  1  0.49924100  0.50002800  0.24987800  1
  Co  Co15  1  0.49924100  0.50002800  0.74987800  1
  Co  Co16  1  0.99997200  0.00075900  0.00012200  1
  Co  Co17  1  0.99997200  0.00075900  0.50012200  1
  Co  Co18  1  0.25380900  0.24619100  0.12500000  1
  Co  Co19  1  0.25380900  0.24619100  0.62500000  1
  O  O20  1  0.53569400  0.20935900  0.20330700  1
  O  O21  1  0.53569400  0.20935900  0.70330700  1
  O  O22  1  0.20988100  0.41152700  0.26888300  1
  O  O23  1  0.20988100  0.41152700  0.76888300  1
  O  O24  1  0.40699400  0.53784100  0.10576400  1
  O  O25  1  0.40699400  0.53784100  0.60576400  1
  O  O26  1  0.03843000  0.90871100  0.35462600  1
  O  O27  1  0.03843000  0.90871100  0.85462600  1
  O  O28  1  0.90860500  0.70960100  0.01903500  1
  O  O29  1  0.90860500  0.70960100  0.51903500  1
  O  O30  1  0.70945300  0.03746100  0.45415600  1
  O  O31  1  0.70945300  0.03746100  0.95415600  1
  O  O32  1  0.46253900  0.79054700  0.29584400  1
  O  O33  1  0.46253900  0.79054700  0.79584400  1
  O  O34  1  0.79039900  0.59139500  0.23096500  1
  O  O35  1  0.79039900  0.59139500  0.73096500  1
  O  O36  1  0.59128900  0.46157000  0.39537400  1
  O  O37  1  0.59128900  0.46157000  0.89537400  1
  O  O38  1  0.96215900  0.09300600  0.14423600  1
  O  O39  1  0.96215900  0.09300600  0.64423600  1
  O  O40  1  0.08847300  0.29011900  0.48111700  1
  O  O41  1  0.08847300  0.29011900  0.98111700  1
  O  O42  1  0.29064100  0.96430600  0.04669300  1
  O  O43  1  0.29064100  0.96430600  0.54669300  1
