# generated using pymatgen
data_Mg149V
_symmetry_space_group_name_H-M   'P 1'
_cell_length_a   15.91098348
_cell_length_b   15.91108833
_cell_length_c   15.59156761
_cell_angle_alpha   90.00000000
_cell_angle_beta   90.00000000
_cell_angle_gamma   120.00021801
_symmetry_Int_Tables_number   1
_chemical_formula_structural   Mg149V
_chemical_formula_sum   'Mg149 V1'
_cell_volume   3418.34877162
_cell_formula_units_Z   1
loop_
 _symmetry_equiv_pos_site_id
 _symmetry_equiv_pos_as_xyz
  1  'x, y, z'
loop_
 _atom_site_type_symbol
 _atom_site_label
 _atom_site_symmetry_multiplicity
 _atom_site_fract_x
 _atom_site_fract_y
 _atom_site_fract_z
 _atom_site_occupancy
  Mg  Mg0  1  0.60159582  0.00018073  -0.00000000  1
  Mg  Mg1  1  0.39858187  0.00018135  -0.00000000  1
  Mg  Mg2  1  0.80465301  0.00030587  0.00000000  1
  Mg  Mg3  1  0.19565260  0.00030454  0.00000000  1
  Mg  Mg4  1  0.19565260  0.19534805  -0.00000000  1
  Mg  Mg5  1  0.99969465  0.19535033  0.00000000  1
  Mg  Mg6  1  0.59986216  0.19972595  -0.00000000  1
  Mg  Mg7  1  0.80025040  0.19975025  -0.00000000  1
  Mg  Mg8  1  0.39950158  0.19975029  0.00000000  1
  Mg  Mg9  1  0.39858187  0.39840152  0.00000000  1
  Mg  Mg10  1  0.99981926  0.39840097  0.00000000  1
  Mg  Mg11  1  0.19951503  0.39903075  -0.00000000  1
  Mg  Mg12  1  0.59986216  0.40013521  0.00000000  1
  Mg  Mg13  1  0.80027383  0.40013692  -0.00000000  1
  Mg  Mg14  1  0.40003446  0.59996594  0.00000000  1
  Mg  Mg15  1  0.19992988  0.59996444  -0.00000000  1
  Mg  Mg16  1  0.80025040  0.60050016  0.00000000  1
  Mg  Mg17  1  0.60159582  0.60141409  0.00000000  1
  Mg  Mg18  1  0.99981926  0.60141929  0.00000000  1
  Mg  Mg19  1  0.40003446  0.80006853  -0.00000000  1
  Mg  Mg20  1  0.60096605  0.80048353  0.00000000  1
  Mg  Mg21  1  0.19951503  0.80048428  0.00000000  1
  Mg  Mg22  1  0.80465301  0.80434614  -0.00000000  1
  Mg  Mg23  1  0.99969465  0.80434432  -0.00000000  1
  Mg  Mg24  1  0.06520780  0.13041655  0.16235110  1
  Mg  Mg25  1  0.06520780  0.93479124  0.16235110  1
  Mg  Mg26  1  0.86958058  0.93479029  0.16235008  1
  Mg  Mg27  1  0.26600455  0.33269141  0.16628581  1
  Mg  Mg28  1  0.06668651  0.33269098  0.16628618  1
  Mg  Mg29  1  0.66730800  0.73399587  0.16628606  1
  Mg  Mg30  1  0.06668651  0.73399652  0.16628618  1
  Mg  Mg31  1  0.26600455  0.93331315  0.16628581  1
  Mg  Mg32  1  0.66730800  0.93331213  0.16628606  1
  Mg  Mg33  1  0.06659261  0.53329631  0.16639894  1
  Mg  Mg34  1  0.46670510  0.53329687  0.16639937  1
  Mg  Mg35  1  0.46670510  0.93340823  0.16639937  1
  Mg  Mg36  1  0.26734275  0.13367138  0.16639767  1
  Mg  Mg37  1  0.86632939  0.13367190  0.16640163  1
  Mg  Mg38  1  0.86632939  0.73265749  0.16640163  1
  Mg  Mg39  1  0.26663041  0.53326077  0.16653902  1
  Mg  Mg40  1  0.46673925  0.73336913  0.16653887  1
  Mg  Mg41  1  0.26663041  0.73336964  0.16653902  1
  Mg  Mg42  1  0.66666932  0.33333416  0.16649978  1
  Mg  Mg43  1  0.46671210  0.13345169  0.16669872  1
  Mg  Mg44  1  0.66674148  0.13345299  0.16670056  1
  Mg  Mg45  1  0.46671210  0.33326041  0.16669872  1
  Mg  Mg46  1  0.86654837  0.33325952  0.16670046  1
  Mg  Mg47  1  0.86654837  0.53328885  0.16670046  1
  Mg  Mg48  1  0.66674148  0.53328750  0.16670056  1
  Mg  Mg49  1  0.19935264  0.19957004  0.33203804  1
  Mg  Mg50  1  0.00021925  0.19956906  0.33203903  1
  Mg  Mg51  1  0.00021925  0.80065019  0.33203903  1
  Mg  Mg52  1  0.80043166  0.80064972  0.33204054  1
  Mg  Mg53  1  0.80043166  0.99978194  0.33204054  1
  Mg  Mg54  1  0.19935264  0.99978260  0.33203804  1
  Mg  Mg55  1  0.99999930  0.99999965  0.33309971  1
  Mg  Mg56  1  0.60023291  0.99989134  0.33304830  1
  Mg  Mg57  1  0.39966082  0.99989149  0.33304909  1
  Mg  Mg58  1  0.00010871  0.39976582  0.33304648  1
  Mg  Mg59  1  0.39966082  0.39976833  0.33304909  1
  Mg  Mg60  1  0.00010871  0.60034289  0.33304648  1
  Mg  Mg61  1  0.60023291  0.60034157  0.33304830  1
  Mg  Mg62  1  0.20003279  0.40006555  0.33335516  1
  Mg  Mg63  1  0.59993214  0.79996657  0.33335600  1
  Mg  Mg64  1  0.20003279  0.79996724  0.33335516  1
  Mg  Mg65  1  0.59987215  0.19974580  0.33329705  1
  Mg  Mg66  1  0.80025664  0.40012832  0.33329715  1
  Mg  Mg67  1  0.59987215  0.40012636  0.33329705  1
  Mg  Mg68  1  0.19995859  0.59997930  0.33332567  1
  Mg  Mg69  1  0.40002369  0.59998069  0.33332690  1
  Mg  Mg70  1  0.40002369  0.80004301  0.33332690  1
  Mg  Mg71  1  0.80010387  0.19989328  0.33345512  1
  Mg  Mg72  1  0.39978924  0.19989512  0.33345632  1
  Mg  Mg73  1  0.80010387  0.60021058  0.33345512  1
  Mg  Mg74  1  0.26635655  0.13317827  0.50000000  1
  Mg  Mg75  1  0.86682039  0.13317902  0.50000000  1
  Mg  Mg76  1  0.06659147  0.13318534  0.50000000  1
  Mg  Mg77  1  0.46674755  0.13356789  0.50000000  1
  Mg  Mg78  1  0.66682119  0.13356747  0.50000000  1
  Mg  Mg79  1  0.06643263  0.33290117  0.50000000  1
  Mg  Mg80  1  0.26647292  0.33290324  0.50000000  1
  Mg  Mg81  1  0.46674755  0.33317866  0.50000000  1
  Mg  Mg82  1  0.86643346  0.33317999  0.50000000  1
  Mg  Mg83  1  0.66666913  0.33333406  0.50000000  1
  Mg  Mg84  1  0.26652589  0.53305619  0.50000000  1
  Mg  Mg85  1  0.46695259  0.53304800  0.50000000  1
  Mg  Mg86  1  0.06609541  0.53304720  0.50000000  1
  Mg  Mg87  1  0.66682119  0.53325372  0.50000000  1
  Mg  Mg88  1  0.86643346  0.53325347  0.50000000  1
  Mg  Mg89  1  0.46694497  0.73347249  0.50000000  1
  Mg  Mg90  1  0.26652589  0.73346870  0.50000000  1
  Mg  Mg91  1  0.66709576  0.73352634  0.50000000  1
  Mg  Mg92  1  0.06643263  0.73353046  0.50000000  1
  Mg  Mg93  1  0.86682039  0.73364237  0.50000000  1
  Mg  Mg94  1  0.06659147  0.93340613  0.50000000  1
  Mg  Mg95  1  0.86681226  0.93340613  0.50000000  1
  Mg  Mg96  1  0.26647292  0.93356968  0.50000000  1
  Mg  Mg97  1  0.66709576  0.93356943  0.50000000  1
  Mg  Mg98  1  0.46695259  0.93390459  0.50000000  1
  Mg  Mg99  1  0.80010387  0.19989328  0.66654488  1
  Mg  Mg100  1  0.39978924  0.19989512  0.66654368  1
  Mg  Mg101  1  0.80010387  0.60021058  0.66654488  1
  Mg  Mg102  1  0.19995859  0.59997930  0.66667433  1
  Mg  Mg103  1  0.40002369  0.59998069  0.66667310  1
  Mg  Mg104  1  0.40002369  0.80004301  0.66667310  1
  Mg  Mg105  1  0.59987215  0.19974580  0.66670295  1
  Mg  Mg106  1  0.80025664  0.40012832  0.66670285  1
  Mg  Mg107  1  0.59987215  0.40012636  0.66670295  1
  Mg  Mg108  1  0.20003279  0.40006555  0.66664484  1
  Mg  Mg109  1  0.59993214  0.79996657  0.66664400  1
  Mg  Mg110  1  0.20003279  0.79996724  0.66664484  1
  Mg  Mg111  1  0.60023291  0.99989134  0.66695170  1
  Mg  Mg112  1  0.39966082  0.99989149  0.66695091  1
  Mg  Mg113  1  0.00010871  0.39976582  0.66695352  1
  Mg  Mg114  1  0.39966082  0.39976833  0.66695091  1
  Mg  Mg115  1  0.00010871  0.60034289  0.66695352  1
  Mg  Mg116  1  0.60023291  0.60034157  0.66695170  1
  Mg  Mg117  1  0.99999930  0.99999965  0.66690029  1
  Mg  Mg118  1  0.19935264  0.19957004  0.66796196  1
  Mg  Mg119  1  0.00021925  0.19956906  0.66796097  1
  Mg  Mg120  1  0.00021925  0.80065019  0.66796097  1
  Mg  Mg121  1  0.80043166  0.80064972  0.66795946  1
  Mg  Mg122  1  0.80043166  0.99978194  0.66795946  1
  Mg  Mg123  1  0.19935264  0.99978260  0.66796196  1
  Mg  Mg124  1  0.46671210  0.13345169  0.83330128  1
  Mg  Mg125  1  0.66674148  0.13345299  0.83329944  1
  Mg  Mg126  1  0.46671210  0.33326041  0.83330128  1
  Mg  Mg127  1  0.86654837  0.33325952  0.83329954  1
  Mg  Mg128  1  0.86654837  0.53328885  0.83329954  1
  Mg  Mg129  1  0.66674148  0.53328750  0.83329944  1
  Mg  Mg130  1  0.66666932  0.33333416  0.83350022  1
  Mg  Mg131  1  0.26663041  0.53326077  0.83346098  1
  Mg  Mg132  1  0.46673925  0.73336913  0.83346113  1
  Mg  Mg133  1  0.26663041  0.73336964  0.83346098  1
  Mg  Mg134  1  0.26734275  0.13367138  0.83360233  1
  Mg  Mg135  1  0.86632939  0.13367190  0.83359837  1
  Mg  Mg136  1  0.86632939  0.73265749  0.83359837  1
  Mg  Mg137  1  0.06659261  0.53329631  0.83360106  1
  Mg  Mg138  1  0.46670510  0.53329687  0.83360063  1
  Mg  Mg139  1  0.46670510  0.93340823  0.83360063  1
  Mg  Mg140  1  0.26600455  0.33269141  0.83371419  1
  Mg  Mg141  1  0.06668651  0.33269098  0.83371382  1
  Mg  Mg142  1  0.66730800  0.73399587  0.83371394  1
  Mg  Mg143  1  0.06668651  0.73399652  0.83371382  1
  Mg  Mg144  1  0.26600455  0.93331315  0.83371419  1
  Mg  Mg145  1  0.66730800  0.93331213  0.83371394  1
  Mg  Mg146  1  0.06520780  0.13041655  0.83764890  1
  Mg  Mg147  1  0.06520780  0.93479124  0.83764890  1
  Mg  Mg148  1  0.86958058  0.93479029  0.83764992  1
  V  V149  1  0.99999538  0.99999769  0.00000000  1
