# generated using pymatgen
data_SrGdCuSe3
_symmetry_space_group_name_H-M   'P 1'
_cell_length_a   4.14052200
_cell_length_b   10.77981100
_cell_length_c   13.60802900
_cell_angle_alpha   90.00000000
_cell_angle_beta   90.00000000
_cell_angle_gamma   90.00000000
_symmetry_Int_Tables_number   1
_chemical_formula_structural   SrGdCuSe3
_chemical_formula_sum   'Sr4 Gd4 Cu4 Se12'
_cell_volume   607.38137332
_cell_formula_units_Z   4
loop_
 _symmetry_equiv_pos_site_id
 _symmetry_equiv_pos_as_xyz
  1  'x, y, z'
loop_
 _atom_site_type_symbol
 _atom_site_label
 _atom_site_symmetry_multiplicity
 _atom_site_fract_x
 _atom_site_fract_y
 _atom_site_fract_z
 _atom_site_occupancy
  Sr  Sr0  1  0.25000000  0.26916700  0.99951100  1
  Sr  Sr1  1  0.25000000  0.76916700  0.50048900  1
  Sr  Sr2  1  0.75000000  0.73083300  0.00048900  1
  Sr  Sr3  1  0.75000000  0.23083300  0.49951100  1
  Gd  Gd4  1  0.25000000  0.01256800  0.75603600  1
  Gd  Gd5  1  0.25000000  0.51256800  0.74396400  1
  Gd  Gd6  1  0.75000000  0.98743200  0.24396400  1
  Gd  Gd7  1  0.75000000  0.48743200  0.25603600  1
  Cu  Cu8  1  0.25000000  0.23997200  0.27840200  1
  Cu  Cu9  1  0.25000000  0.73997200  0.22159800  1
  Cu  Cu10  1  0.75000000  0.76002800  0.72159800  1
  Cu  Cu11  1  0.75000000  0.26002800  0.77840200  1
  Se  Se12  1  0.25000000  0.25977200  0.67103400  1
  Se  Se13  1  0.25000000  0.75977200  0.82896600  1
  Se  Se14  1  0.75000000  0.74022800  0.32896600  1
  Se  Se15  1  0.75000000  0.24022800  0.17103400  1
  Se  Se16  1  0.25000000  0.05395200  0.38634800  1
  Se  Se17  1  0.25000000  0.55395200  0.11365200  1
  Se  Se18  1  0.75000000  0.94604800  0.61365200  1
  Se  Se19  1  0.75000000  0.44604800  0.88634800  1
  Se  Se20  1  0.25000000  0.41639900  0.39390400  1
  Se  Se21  1  0.25000000  0.91639900  0.10609600  1
  Se  Se22  1  0.75000000  0.58360100  0.60609600  1
  Se  Se23  1  0.75000000  0.08360100  0.89390400  1
