# generated using pymatgen
data_Ni3(PbS)2
_symmetry_space_group_name_H-M   'P 1'
_cell_length_a   6.96887698
_cell_length_b   6.96887698
_cell_length_c   6.96887698
_cell_angle_alpha   109.47122063
_cell_angle_beta   109.47122063
_cell_angle_gamma   109.47122063
_symmetry_Int_Tables_number   1
_chemical_formula_structural   Ni3(PbS)2
_chemical_formula_sum   'Ni6 Pb4 S4'
_cell_volume   260.53525746
_cell_formula_units_Z   2
loop_
 _symmetry_equiv_pos_site_id
 _symmetry_equiv_pos_as_xyz
  1  'x, y, z'
loop_
 _atom_site_type_symbol
 _atom_site_label
 _atom_site_symmetry_multiplicity
 _atom_site_fract_x
 _atom_site_fract_y
 _atom_site_fract_z
 _atom_site_occupancy
  Ni  Ni0  1  0.50001800  0.75000000  0.25001800  1
  Ni  Ni1  1  0.25000000  0.24998200  0.99998200  1
  Ni  Ni2  1  0.25001800  0.50001800  0.75000000  1
  Ni  Ni3  1  0.99998200  0.25000000  0.24998200  1
  Ni  Ni4  1  0.75000000  0.25001800  0.50001800  1
  Ni  Ni5  1  0.24998200  0.99998200  0.25000000  1
  Pb  Pb6  1  0.98869300  0.50000000  0.00000000  1
  Pb  Pb7  1  0.00000000  0.98869300  0.50000000  1
  Pb  Pb8  1  0.50000000  0.00000000  0.98869300  1
  Pb  Pb9  1  0.51130700  0.51130700  0.51130700  1
  S  S10  1  0.53357300  0.50000000  0.00000000  1
  S  S11  1  0.00000000  0.53357300  0.50000000  1
  S  S12  1  0.50000000  0.00000000  0.53357300  1
  S  S13  1  0.96642700  0.96642700  0.96642700  1
