# generated using pymatgen
data_KMg3AlSi3(O5F)2
_symmetry_space_group_name_H-M   'P 1'
_cell_length_a   5.36457500
_cell_length_b   5.36400826
_cell_length_c   10.36830850
_cell_angle_alpha   85.27290350
_cell_angle_beta   99.92957531
_cell_angle_gamma   119.96465557
_symmetry_Int_Tables_number   1
_chemical_formula_structural   KMg3AlSi3(O5F)2
_chemical_formula_sum   'K1 Mg3 Al1 Si3 O10 F2'
_cell_volume   254.60034829
_cell_formula_units_Z   1
loop_
 _symmetry_equiv_pos_site_id
 _symmetry_equiv_pos_as_xyz
  1  'x, y, z'
loop_
 _atom_site_type_symbol
 _atom_site_label
 _atom_site_symmetry_multiplicity
 _atom_site_fract_x
 _atom_site_fract_y
 _atom_site_fract_z
 _atom_site_occupancy
  K  K0  1  0.48956800  0.00086900  0.96800200  1
  Mg  Mg1  1  0.33185600  0.65891900  0.50558200  1
  Mg  Mg2  1  0.67356600  0.33719600  0.50483500  1
  Mg  Mg3  1  0.99585800  0.00054400  0.50486500  1
  Al  Al4  1  0.09122900  0.33350600  0.77339500  1
  Si  Si5  1  0.75917900  0.66644200  0.77751700  1
  Si  Si6  1  0.91064900  0.66887400  0.23035700  1
  Si  Si7  1  0.24663500  0.33511000  0.23041800  1
  O  O8  1  0.99862700  0.98861500  0.83367900  1
  O  O9  1  0.04643100  0.00143800  0.17204500  1
  O  O10  1  0.03269100  0.33305400  0.60056200  1
  O  O11  1  0.70375200  0.66564600  0.61288400  1
  O  O12  1  0.95950500  0.66924300  0.38938700  1
  O  O13  1  0.30221200  0.33456200  0.38942400  1
  O  O14  1  0.87971500  0.44776500  0.83415400  1
  O  O15  1  0.45770600  0.56604800  0.83379400  1
  O  O16  1  0.07208100  0.51381400  0.17437600  1
  O  O17  1  0.55822800  0.48840900  0.17063200  1
  F  F18  1  0.36382900  0.00083800  0.59311000  1
  F  F19  1  0.62668400  0.98910700  0.40098200  1
