# generated using pymatgen
data_K5Li2EuF10
_symmetry_space_group_name_H-M   'P 1'
_cell_length_a   7.01101800
_cell_length_b   7.82892600
_cell_length_c   21.00531300
_cell_angle_alpha   90.00000000
_cell_angle_beta   90.00000000
_cell_angle_gamma   90.00000000
_symmetry_Int_Tables_number   1
_chemical_formula_structural   K5Li2EuF10
_chemical_formula_sum   'K20 Li8 Eu4 F40'
_cell_volume   1152.95518712
_cell_formula_units_Z   4
loop_
 _symmetry_equiv_pos_site_id
 _symmetry_equiv_pos_as_xyz
  1  'x, y, z'
loop_
 _atom_site_type_symbol
 _atom_site_label
 _atom_site_symmetry_multiplicity
 _atom_site_fract_x
 _atom_site_fract_y
 _atom_site_fract_z
 _atom_site_occupancy
  K  K0  1  0.74753000  0.47823300  0.45717600  1
  K  K1  1  0.75247000  0.02176700  0.95717600  1
  K  K2  1  0.25247000  0.97823300  0.54282400  1
  K  K3  1  0.24753000  0.52176700  0.04282400  1
  K  K4  1  0.25247000  0.52176700  0.54282400  1
  K  K5  1  0.24753000  0.97823300  0.04282400  1
  K  K6  1  0.74753000  0.02176700  0.45717600  1
  K  K7  1  0.75247000  0.47823300  0.95717600  1
  K  K8  1  0.57163600  0.52579400  0.28310500  1
  K  K9  1  0.92836400  0.97420600  0.78310500  1
  K  K10  1  0.42836400  0.02579400  0.71689500  1
  K  K11  1  0.07163600  0.47420600  0.21689500  1
  K  K12  1  0.42836400  0.47420600  0.71689500  1
  K  K13  1  0.07163600  0.02579400  0.21689500  1
  K  K14  1  0.57163600  0.97420600  0.28310500  1
  K  K15  1  0.92836400  0.52579400  0.78310500  1
  K  K16  1  0.06475600  0.75000000  0.36021200  1
  K  K17  1  0.43524400  0.75000000  0.86021200  1
  K  K18  1  0.93524400  0.25000000  0.63978800  1
  K  K19  1  0.56475600  0.25000000  0.13978800  1
  Li  Li20  1  0.03013100  0.75000000  0.92257100  1
  Li  Li21  1  0.46986900  0.75000000  0.42257100  1
  Li  Li22  1  0.96986900  0.25000000  0.07742900  1
  Li  Li23  1  0.53013100  0.25000000  0.57742900  1
  Li  Li24  1  0.15702300  0.75000000  0.67217900  1
  Li  Li25  1  0.34297700  0.75000000  0.17217900  1
  Li  Li26  1  0.84297700  0.25000000  0.32782100  1
  Li  Li27  1  0.65702300  0.25000000  0.82782100  1
  Eu  Eu28  1  0.75921500  0.75000000  0.10715100  1
  Eu  Eu29  1  0.74078500  0.75000000  0.60715100  1
  Eu  Eu30  1  0.24078500  0.25000000  0.89284900  1
  Eu  Eu31  1  0.25921500  0.25000000  0.39284900  1
  F  F32  1  0.95354900  0.75000000  0.00873900  1
  F  F33  1  0.54645100  0.75000000  0.50873900  1
  F  F34  1  0.04645100  0.25000000  0.99126100  1
  F  F35  1  0.45354900  0.25000000  0.49126100  1
  F  F36  1  0.55063300  0.75000000  0.02032500  1
  F  F37  1  0.94936700  0.75000000  0.52032500  1
  F  F38  1  0.44936700  0.25000000  0.97967500  1
  F  F39  1  0.05063300  0.25000000  0.47967500  1
  F  F40  1  0.84331300  0.46053900  0.09035100  1
  F  F41  1  0.65668700  0.03946100  0.59035100  1
  F  F42  1  0.15668700  0.96053900  0.90964900  1
  F  F43  1  0.34331300  0.53946100  0.40964900  1
  F  F44  1  0.15668700  0.53946100  0.90964900  1
  F  F45  1  0.34331300  0.96053900  0.40964900  1
  F  F46  1  0.84331300  0.03946100  0.09035100  1
  F  F47  1  0.65668700  0.46053900  0.59035100  1
  F  F48  1  0.50065000  0.57479500  0.14650100  1
  F  F49  1  0.99935000  0.92520500  0.64650100  1
  F  F50  1  0.49935000  0.07479500  0.85349900  1
  F  F51  1  0.00065000  0.42520500  0.35349900  1
  F  F52  1  0.49935000  0.42520500  0.85349900  1
  F  F53  1  0.00065000  0.07479500  0.35349900  1
  F  F54  1  0.50065000  0.92520500  0.14650100  1
  F  F55  1  0.99935000  0.57479500  0.64650100  1
  F  F56  1  0.80895900  0.75000000  0.21629000  1
  F  F57  1  0.69104100  0.75000000  0.71629000  1
  F  F58  1  0.19104100  0.25000000  0.78371000  1
  F  F59  1  0.30895900  0.25000000  0.28371000  1
  F  F60  1  0.68880500  0.75000000  0.37304100  1
  F  F61  1  0.81119500  0.75000000  0.87304100  1
  F  F62  1  0.31119500  0.25000000  0.62695900  1
  F  F63  1  0.18880500  0.25000000  0.12695900  1
  F  F64  1  0.20835600  0.75000000  0.75900300  1
  F  F65  1  0.29164400  0.75000000  0.25900300  1
  F  F66  1  0.79164400  0.25000000  0.24099700  1
  F  F67  1  0.70835600  0.25000000  0.74099700  1
  F  F68  1  0.39362600  0.75000000  0.63089400  1
  F  F69  1  0.10637400  0.75000000  0.13089400  1
  F  F70  1  0.60637400  0.25000000  0.36910600  1
  F  F71  1  0.89362600  0.25000000  0.86910600  1
