# generated using pymatgen
data_PuB4
_symmetry_space_group_name_H-M   'P 1'
_cell_length_a   7.10566700
_cell_length_b   7.10566700
_cell_length_c   4.01679200
_cell_angle_alpha   90.00000000
_cell_angle_beta   90.00000000
_cell_angle_gamma   90.00000000
_symmetry_Int_Tables_number   1
_chemical_formula_structural   PuB4
_chemical_formula_sum   'Pu4 B16'
_cell_volume   202.80985059
_cell_formula_units_Z   4
loop_
 _symmetry_equiv_pos_site_id
 _symmetry_equiv_pos_as_xyz
  1  'x, y, z'
loop_
 _atom_site_type_symbol
 _atom_site_label
 _atom_site_symmetry_multiplicity
 _atom_site_fract_x
 _atom_site_fract_y
 _atom_site_fract_z
 _atom_site_occupancy
  Pu  Pu0  1  0.18658400  0.68658400  0.00000000  1
  Pu  Pu1  1  0.68658400  0.81341600  0.00000000  1
  Pu  Pu2  1  0.31341600  0.18658400  0.00000000  1
  Pu  Pu3  1  0.81341600  0.31341600  0.00000000  1
  B  B4  1  0.32275500  0.46096100  0.50000000  1
  B  B5  1  0.67724500  0.53903900  0.50000000  1
  B  B6  1  0.53903900  0.32275500  0.50000000  1
  B  B7  1  0.46096100  0.67724500  0.50000000  1
  B  B8  1  0.00000000  0.00000000  0.20164900  1
  B  B9  1  0.50000000  0.50000000  0.79835100  1
  B  B10  1  0.00000000  0.00000000  0.79835100  1
  B  B11  1  0.50000000  0.50000000  0.20164900  1
  B  B12  1  0.58715500  0.08715500  0.50000000  1
  B  B13  1  0.08715500  0.41284500  0.50000000  1
  B  B14  1  0.91284500  0.58715500  0.50000000  1
  B  B15  1  0.41284500  0.91284500  0.50000000  1
  B  B16  1  0.03903900  0.17724500  0.50000000  1
  B  B17  1  0.17724500  0.96096100  0.50000000  1
  B  B18  1  0.82275500  0.03903900  0.50000000  1
  B  B19  1  0.96096100  0.82275500  0.50000000  1
