# generated using pymatgen
data_Cu3(AsO4)2
_symmetry_space_group_name_H-M   'P 1'
_cell_length_a   5.11414900
_cell_length_b   5.58368615
_cell_length_c   6.48608777
_cell_angle_alpha   108.85940053
_cell_angle_beta   87.15552073
_cell_angle_gamma   111.88256358
_symmetry_Int_Tables_number   1
_chemical_formula_structural   Cu3(AsO4)2
_chemical_formula_sum   'Cu3 As2 O8'
_cell_volume   162.11343001
_cell_formula_units_Z   1
loop_
 _symmetry_equiv_pos_site_id
 _symmetry_equiv_pos_as_xyz
  1  'x, y, z'
loop_
 _atom_site_type_symbol
 _atom_site_label
 _atom_site_symmetry_multiplicity
 _atom_site_fract_x
 _atom_site_fract_y
 _atom_site_fract_z
 _atom_site_occupancy
  Cu  Cu0  1  0.00000000  0.00000000  0.00000000  1
  Cu  Cu1  1  0.73705100  0.20198000  0.67460600  1
  Cu  Cu2  1  0.26294900  0.79802000  0.32539400  1
  As  As3  1  0.63666100  0.34455300  0.21773000  1
  As  As4  1  0.36333900  0.65544700  0.78227000  1
  O  O5  1  0.38065200  0.87367000  0.63330900  1
  O  O6  1  0.61934800  0.12633000  0.36669100  1
  O  O7  1  0.22030200  0.79471600  0.02389200  1
  O  O8  1  0.77969800  0.20528400  0.97610800  1
  O  O9  1  0.68828800  0.65379200  0.84058900  1
  O  O10  1  0.85910900  0.66758000  0.35663800  1
  O  O11  1  0.14089100  0.33242000  0.64336200  1
  O  O12  1  0.31171200  0.34620800  0.15941100  1
