# generated using pymatgen
data_Mg2PHO5
_symmetry_space_group_name_H-M   'P 1'
_cell_length_a   6.20164700
_cell_length_b   7.45925100
_cell_length_c   8.36219000
_cell_angle_alpha   90.00000000
_cell_angle_beta   90.00000000
_cell_angle_gamma   90.00000000
_symmetry_Int_Tables_number   1
_chemical_formula_structural   Mg2PHO5
_chemical_formula_sum   'Mg8 P4 H4 O20'
_cell_volume   386.83191228
_cell_formula_units_Z   4
loop_
 _symmetry_equiv_pos_site_id
 _symmetry_equiv_pos_as_xyz
  1  'x, y, z'
loop_
 _atom_site_type_symbol
 _atom_site_label
 _atom_site_symmetry_multiplicity
 _atom_site_fract_x
 _atom_site_fract_y
 _atom_site_fract_z
 _atom_site_occupancy
  Mg  Mg0  1  0.25000000  0.57660100  0.17582800  1
  Mg  Mg1  1  0.75000000  0.42339900  0.82417200  1
  Mg  Mg2  1  0.75000000  0.07660100  0.32417200  1
  Mg  Mg3  1  0.25000000  0.92339900  0.67582800  1
  Mg  Mg4  1  0.50000000  0.00000000  0.00000000  1
  Mg  Mg5  1  0.00000000  0.00000000  0.00000000  1
  Mg  Mg6  1  0.50000000  0.50000000  0.50000000  1
  Mg  Mg7  1  0.00000000  0.50000000  0.50000000  1
  P  P8  1  0.25000000  0.33417800  0.82361800  1
  P  P9  1  0.75000000  0.66582200  0.17638200  1
  P  P10  1  0.75000000  0.83417800  0.67638200  1
  P  P11  1  0.25000000  0.16582200  0.32361800  1
  H  H12  1  0.25000000  0.73420400  0.94638700  1
  H  H13  1  0.75000000  0.26579600  0.05361300  1
  H  H14  1  0.75000000  0.23420400  0.55361300  1
  H  H15  1  0.25000000  0.76579600  0.44638700  1
  O  O16  1  0.25000000  0.81363800  0.03945200  1
  O  O17  1  0.75000000  0.18636200  0.96054800  1
  O  O18  1  0.75000000  0.31363800  0.46054800  1
  O  O19  1  0.25000000  0.68636200  0.53945200  1
  O  O20  1  0.25000000  0.43929000  0.97913600  1
  O  O21  1  0.75000000  0.56071000  0.02086400  1
  O  O22  1  0.75000000  0.93929000  0.52086400  1
  O  O23  1  0.25000000  0.06071000  0.47913600  1
  O  O24  1  0.45414800  0.12357100  0.22251200  1
  O  O25  1  0.95414800  0.87642900  0.77748800  1
  O  O26  1  0.54585200  0.62357100  0.27748800  1
  O  O27  1  0.04585200  0.37642900  0.72251200  1
  O  O28  1  0.54585200  0.87642900  0.77748800  1
  O  O29  1  0.04585200  0.12357100  0.22251200  1
  O  O30  1  0.45414800  0.37642900  0.72251200  1
  O  O31  1  0.95414800  0.62357100  0.27748800  1
  O  O32  1  0.25000000  0.37251400  0.36440100  1
  O  O33  1  0.75000000  0.62748600  0.63559900  1
  O  O34  1  0.75000000  0.87251400  0.13559900  1
  O  O35  1  0.25000000  0.12748600  0.86440100  1
