# generated using pymatgen
data_MoPO5
_symmetry_space_group_name_H-M   'P 1'
_cell_length_a   6.46678900
_cell_length_b   7.57079600
_cell_length_c   7.65973100
_cell_angle_alpha   90.00000000
_cell_angle_beta   90.00000000
_cell_angle_gamma   90.00000000
_symmetry_Int_Tables_number   1
_chemical_formula_structural   MoPO5
_chemical_formula_sum   'Mo4 P4 O20'
_cell_volume   375.01078075
_cell_formula_units_Z   4
loop_
 _symmetry_equiv_pos_site_id
 _symmetry_equiv_pos_as_xyz
  1  'x, y, z'
loop_
 _atom_site_type_symbol
 _atom_site_label
 _atom_site_symmetry_multiplicity
 _atom_site_fract_x
 _atom_site_fract_y
 _atom_site_fract_z
 _atom_site_occupancy
  Mo  Mo0  1  0.25000000  0.27190400  0.83494900  1
  Mo  Mo1  1  0.75000000  0.77190400  0.66505100  1
  Mo  Mo2  1  0.25000000  0.22809600  0.33494900  1
  Mo  Mo3  1  0.75000000  0.72809600  0.16505100  1
  P  P4  1  0.25000000  0.61703200  0.12619500  1
  P  P5  1  0.75000000  0.11703200  0.37380500  1
  P  P6  1  0.25000000  0.88296800  0.62619500  1
  P  P7  1  0.75000000  0.38296800  0.87380500  1
  O  O8  1  0.75000000  0.00857500  0.54580700  1
  O  O9  1  0.75000000  0.82386500  0.88777700  1
  O  O10  1  0.93984700  0.25936200  0.86910200  1
  O  O11  1  0.56015300  0.25936200  0.86910200  1
  O  O12  1  0.75000000  0.49142500  0.04580700  1
  O  O13  1  0.25000000  0.17613500  0.11222300  1
  O  O14  1  0.06015300  0.74063800  0.13089800  1
  O  O15  1  0.43984700  0.74063800  0.13089800  1
  O  O16  1  0.75000000  0.99122100  0.21547600  1
  O  O17  1  0.25000000  0.49122100  0.28452400  1
  O  O18  1  0.56015300  0.24063800  0.36910200  1
  O  O19  1  0.25000000  0.00877900  0.78452400  1
  O  O20  1  0.75000000  0.67613500  0.38777700  1
  O  O21  1  0.25000000  0.99142500  0.45419300  1
  O  O22  1  0.25000000  0.50857500  0.95419300  1
  O  O23  1  0.25000000  0.32386500  0.61222300  1
  O  O24  1  0.06015300  0.75936200  0.63089800  1
  O  O25  1  0.43984700  0.75936200  0.63089800  1
  O  O26  1  0.75000000  0.50877900  0.71547600  1
  O  O27  1  0.93984700  0.24063800  0.36910200  1
