# generated using pymatgen
data_InCl
_symmetry_space_group_name_H-M   'P 1'
_cell_length_a   12.55094800
_cell_length_b   12.55094800
_cell_length_c   12.55094800
_cell_angle_alpha   90.00000000
_cell_angle_beta   90.00000000
_cell_angle_gamma   90.00000000
_symmetry_Int_Tables_number   1
_chemical_formula_structural   InCl
_chemical_formula_sum   'In32 Cl32'
_cell_volume   1977.10434595
_cell_formula_units_Z   32
loop_
 _symmetry_equiv_pos_site_id
 _symmetry_equiv_pos_as_xyz
  1  'x, y, z'
loop_
 _atom_site_type_symbol
 _atom_site_label
 _atom_site_symmetry_multiplicity
 _atom_site_fract_x
 _atom_site_fract_y
 _atom_site_fract_z
 _atom_site_occupancy
  In  In0  1  0.24845400  0.22268900  0.97350100  1
  In  In1  1  0.97350100  0.24845400  0.22268900  1
  In  In2  1  0.22268900  0.97350100  0.24845400  1
  In  In3  1  0.27731100  0.02649900  0.74845400  1
  In  In4  1  0.47350100  0.25154600  0.77731100  1
  In  In5  1  0.77731100  0.47350100  0.25154600  1
  In  In6  1  0.52649900  0.75154600  0.72268900  1
  In  In7  1  0.02649900  0.74845400  0.27731100  1
  In  In8  1  0.72268900  0.52649900  0.75154600  1
  In  In9  1  0.74845400  0.27731100  0.02649900  1
  In  In10  1  0.75154600  0.72268900  0.52649900  1
  In  In11  1  0.25154600  0.77731100  0.47350100  1
  In  In12  1  0.75459700  0.77658200  0.02833900  1
  In  In13  1  0.02833900  0.75459700  0.77658200  1
  In  In14  1  0.77658200  0.02833900  0.75459700  1
  In  In15  1  0.72341800  0.97166100  0.25459700  1
  In  In16  1  0.52833900  0.74540300  0.22341800  1
  In  In17  1  0.22341800  0.52833900  0.74540300  1
  In  In18  1  0.47166100  0.24540300  0.27658200  1
  In  In19  1  0.97166100  0.25459700  0.72341800  1
  In  In20  1  0.27658200  0.47166100  0.24540300  1
  In  In21  1  0.25459700  0.72341800  0.97166100  1
  In  In22  1  0.24540300  0.27658200  0.47166100  1
  In  In23  1  0.74540300  0.22341800  0.52833900  1
  In  In24  1  0.02967800  0.02967800  0.02967800  1
  In  In25  1  0.47032200  0.97032200  0.52967800  1
  In  In26  1  0.52967800  0.47032200  0.97032200  1
  In  In27  1  0.97032200  0.52967800  0.47032200  1
  In  In28  1  0.46719400  0.46719400  0.46719400  1
  In  In29  1  0.03280600  0.53280600  0.96719400  1
  In  In30  1  0.96719400  0.03280600  0.53280600  1
  In  In31  1  0.53280600  0.96719400  0.03280600  1
  Cl  Cl32  1  0.94862500  0.00365400  0.30089000  1
  Cl  Cl33  1  0.30089000  0.94862500  0.00365400  1
  Cl  Cl34  1  0.00365400  0.30089000  0.94862500  1
  Cl  Cl35  1  0.49634600  0.69911000  0.44862500  1
  Cl  Cl36  1  0.80089000  0.55137500  0.99634600  1
  Cl  Cl37  1  0.99634600  0.80089000  0.55137500  1
  Cl  Cl38  1  0.19911000  0.05137500  0.50365400  1
  Cl  Cl39  1  0.69911000  0.44862500  0.49634600  1
  Cl  Cl40  1  0.50365400  0.19911000  0.05137500  1
  Cl  Cl41  1  0.44862500  0.49634600  0.69911000  1
  Cl  Cl42  1  0.05137500  0.50365400  0.19911000  1
  Cl  Cl43  1  0.55137500  0.99634600  0.80089000  1
  Cl  Cl44  1  0.05518500  0.98914100  0.80114800  1
  Cl  Cl45  1  0.80114800  0.05518500  0.98914100  1
  Cl  Cl46  1  0.98914100  0.80114800  0.05518500  1
  Cl  Cl47  1  0.51085900  0.19885200  0.55518500  1
  Cl  Cl48  1  0.30114800  0.44481500  0.01085900  1
  Cl  Cl49  1  0.01085900  0.30114800  0.44481500  1
  Cl  Cl50  1  0.69885200  0.94481500  0.48914100  1
  Cl  Cl51  1  0.19885200  0.55518500  0.51085900  1
  Cl  Cl52  1  0.48914100  0.69885200  0.94481500  1
  Cl  Cl53  1  0.55518500  0.51085900  0.19885200  1
  Cl  Cl54  1  0.94481500  0.48914100  0.69885200  1
  Cl  Cl55  1  0.44481500  0.01085900  0.30114800  1
  Cl  Cl56  1  0.20612300  0.20612300  0.20612300  1
  Cl  Cl57  1  0.29387700  0.79387700  0.70612300  1
  Cl  Cl58  1  0.70612300  0.29387700  0.79387700  1
  Cl  Cl59  1  0.79387700  0.70612300  0.29387700  1
  Cl  Cl60  1  0.79858300  0.79858300  0.79858300  1
  Cl  Cl61  1  0.70141700  0.20141700  0.29858300  1
  Cl  Cl62  1  0.29858300  0.70141700  0.20141700  1
  Cl  Cl63  1  0.20141700  0.29858300  0.70141700  1
