# generated using pymatgen
data_Cs2ThCl6
_symmetry_space_group_name_H-M   'P 1'
_cell_length_a   7.79165820
_cell_length_b   7.79165820
_cell_length_c   6.23791100
_cell_angle_alpha   90.00000000
_cell_angle_beta   90.00000000
_cell_angle_gamma   120.00000172
_symmetry_Int_Tables_number   1
_chemical_formula_structural   Cs2ThCl6
_chemical_formula_sum   'Cs2 Th1 Cl6'
_cell_volume   327.96657497
_cell_formula_units_Z   1
loop_
 _symmetry_equiv_pos_site_id
 _symmetry_equiv_pos_as_xyz
  1  'x, y, z'
loop_
 _atom_site_type_symbol
 _atom_site_label
 _atom_site_symmetry_multiplicity
 _atom_site_fract_x
 _atom_site_fract_y
 _atom_site_fract_z
 _atom_site_occupancy
  Cs  Cs0  1  0.66666700  0.33333300  0.26050800  1
  Cs  Cs1  1  0.33333300  0.66666700  0.73949200  1
  Th  Th2  1  0.00000000  0.00000000  0.00000000  1
  Cl  Cl3  1  0.83305200  0.16694800  0.76322600  1
  Cl  Cl4  1  0.83305200  0.66610300  0.76322600  1
  Cl  Cl5  1  0.33389700  0.16694800  0.76322600  1
  Cl  Cl6  1  0.16694800  0.83305200  0.23677400  1
  Cl  Cl7  1  0.16694800  0.33389700  0.23677400  1
  Cl  Cl8  1  0.66610300  0.83305200  0.23677400  1
