# generated using pymatgen
data_GaTeCl
_symmetry_space_group_name_H-M   'P 1'
_cell_length_a   4.16141600
_cell_length_b   5.98308800
_cell_length_c   15.90599800
_cell_angle_alpha   90.00000000
_cell_angle_beta   90.00000000
_cell_angle_gamma   90.00000000
_symmetry_Int_Tables_number   1
_chemical_formula_structural   GaTeCl
_chemical_formula_sum   'Ga4 Te4 Cl4'
_cell_volume   396.02941722
_cell_formula_units_Z   4
loop_
 _symmetry_equiv_pos_site_id
 _symmetry_equiv_pos_as_xyz
  1  'x, y, z'
loop_
 _atom_site_type_symbol
 _atom_site_label
 _atom_site_symmetry_multiplicity
 _atom_site_fract_x
 _atom_site_fract_y
 _atom_site_fract_z
 _atom_site_occupancy
  Ga  Ga0  1  0.50000000  0.52838600  0.19113700  1
  Ga  Ga1  1  0.00000000  0.97161400  0.69113700  1
  Ga  Ga2  1  0.00000000  0.02838600  0.30886300  1
  Ga  Ga3  1  0.50000000  0.47161400  0.80886300  1
  Te  Te4  1  0.50000000  0.24669700  0.66419600  1
  Te  Te5  1  0.00000000  0.74669700  0.83580400  1
  Te  Te6  1  0.00000000  0.25330300  0.16419600  1
  Te  Te7  1  0.50000000  0.75330300  0.33580400  1
  Cl  Cl8  1  0.50000000  0.24078000  0.91650900  1
  Cl  Cl9  1  0.00000000  0.74078000  0.58349100  1
  Cl  Cl10  1  0.50000000  0.75922000  0.08349100  1
  Cl  Cl11  1  0.00000000  0.25922000  0.41650900  1
