# generated using pymatgen
data_NaInS2
_symmetry_space_group_name_H-M   'P 1'
_cell_length_a   7.06240605
_cell_length_b   7.06240605
_cell_length_c   7.06240616
_cell_angle_alpha   31.70287752
_cell_angle_beta   31.70287752
_cell_angle_gamma   31.70288106
_symmetry_Int_Tables_number   1
_chemical_formula_structural   NaInS2
_chemical_formula_sum   'Na1 In1 S2'
_cell_volume   86.39317960
_cell_formula_units_Z   1
loop_
 _symmetry_equiv_pos_site_id
 _symmetry_equiv_pos_as_xyz
  1  'x, y, z'
loop_
 _atom_site_type_symbol
 _atom_site_label
 _atom_site_symmetry_multiplicity
 _atom_site_fract_x
 _atom_site_fract_y
 _atom_site_fract_z
 _atom_site_occupancy
  Na  Na0  1  0.50000000  0.50000000  0.50000000  1
  In  In1  1  0.00000000  0.00000000  0.00000000  1
  S  S2  1  0.74003300  0.74003300  0.74003300  1
  S  S3  1  0.25996700  0.25996700  0.25996700  1
