# generated using pymatgen
data_PbBrF
_symmetry_space_group_name_H-M   'P 1'
_cell_length_a   4.22241800
_cell_length_b   4.22241800
_cell_length_c   7.76053400
_cell_angle_alpha   90.00000000
_cell_angle_beta   90.00000000
_cell_angle_gamma   90.00000000
_symmetry_Int_Tables_number   1
_chemical_formula_structural   PbBrF
_chemical_formula_sum   'Pb2 Br2 F2'
_cell_volume   138.36111542
_cell_formula_units_Z   2
loop_
 _symmetry_equiv_pos_site_id
 _symmetry_equiv_pos_as_xyz
  1  'x, y, z'
loop_
 _atom_site_type_symbol
 _atom_site_label
 _atom_site_symmetry_multiplicity
 _atom_site_fract_x
 _atom_site_fract_y
 _atom_site_fract_z
 _atom_site_occupancy
  Pb  Pb0  1  0.00000000  0.50000000  0.80706600  1
  Pb  Pb1  1  0.50000000  0.00000000  0.19293400  1
  Br  Br2  1  0.50000000  0.00000000  0.64756000  1
  Br  Br3  1  0.00000000  0.50000000  0.35244000  1
  F  F4  1  0.50000000  0.50000000  0.00000000  1
  F  F5  1  0.00000000  0.00000000  0.00000000  1
