# generated using pymatgen
data_K(SnSe2)2
_symmetry_space_group_name_H-M   'P 1'
_cell_length_a   10.26388803
_cell_length_b   10.26388803
_cell_length_c   7.61575201
_cell_angle_alpha   88.21231337
_cell_angle_beta   88.21231337
_cell_angle_gamma   142.28349315
_symmetry_Int_Tables_number   1
_chemical_formula_structural   K(SnSe2)2
_chemical_formula_sum   'K2 Sn4 Se8'
_cell_volume   488.51951931
_cell_formula_units_Z   2
loop_
 _symmetry_equiv_pos_site_id
 _symmetry_equiv_pos_as_xyz
  1  'x, y, z'
loop_
 _atom_site_type_symbol
 _atom_site_label
 _atom_site_symmetry_multiplicity
 _atom_site_fract_x
 _atom_site_fract_y
 _atom_site_fract_z
 _atom_site_occupancy
  K  K0  1  0.34480600  0.03074000  0.96565600  1
  K  K1  1  0.03074000  0.34480600  0.96565600  1
  Sn  Sn2  1  0.58876000  0.58876000  0.37624200  1
  Sn  Sn3  1  0.48284300  0.85964300  0.55648400  1
  Sn  Sn4  1  0.85964300  0.48284300  0.55648400  1
  Sn  Sn5  1  0.68787200  0.68787200  0.86814300  1
  Se  Se6  1  0.49498200  0.11375400  0.45969700  1
  Se  Se7  1  0.11375400  0.49498200  0.45969700  1
  Se  Se8  1  0.36732000  0.36732000  0.12153600  1
  Se  Se9  1  0.76094100  0.95606100  0.35187900  1
  Se  Se10  1  0.37232000  0.37232000  0.66876900  1
  Se  Se11  1  0.85677900  0.53017800  0.87723900  1
  Se  Se12  1  0.53017800  0.85677900  0.87723900  1
  Se  Se13  1  0.95606100  0.76094100  0.35187900  1
