# generated using pymatgen
data_CsAlH24(SeO10)2
_symmetry_space_group_name_H-M   'P 1'
_cell_length_a   12.67850500
_cell_length_b   12.67850500
_cell_length_c   12.67850500
_cell_angle_alpha   90.00000000
_cell_angle_beta   90.00000000
_cell_angle_gamma   90.00000000
_symmetry_Int_Tables_number   1
_chemical_formula_structural   CsAlH24(SeO10)2
_chemical_formula_sum   'Cs4 Al4 H96 Se8 O80'
_cell_volume   2037.99980795
_cell_formula_units_Z   4
loop_
 _symmetry_equiv_pos_site_id
 _symmetry_equiv_pos_as_xyz
  1  'x, y, z'
loop_
 _atom_site_type_symbol
 _atom_site_label
 _atom_site_symmetry_multiplicity
 _atom_site_fract_x
 _atom_site_fract_y
 _atom_site_fract_z
 _atom_site_occupancy
  Cs  Cs0  1  0.50000000  0.00000000  0.00000000  1
  Cs  Cs1  1  0.00000000  0.00000000  0.50000000  1
  Cs  Cs2  1  0.00000000  0.50000000  0.00000000  1
  Cs  Cs3  1  0.50000000  0.50000000  0.50000000  1
  Al  Al4  1  0.00000000  0.50000000  0.50000000  1
  Al  Al5  1  0.00000000  0.00000000  0.00000000  1
  Al  Al6  1  0.50000000  0.00000000  0.50000000  1
  Al  Al7  1  0.50000000  0.50000000  0.00000000  1
  H  H8  1  0.70012800  0.02463500  0.45097100  1
  H  H9  1  0.20012800  0.47536500  0.54902900  1
  H  H10  1  0.29987200  0.52463500  0.04902900  1
  H  H11  1  0.47536500  0.54902900  0.20012800  1
  H  H12  1  0.04902900  0.29987200  0.52463500  1
  H  H13  1  0.54902900  0.20012800  0.47536500  1
  H  H14  1  0.02463500  0.45097100  0.70012800  1
  H  H15  1  0.45097100  0.70012800  0.02463500  1
  H  H16  1  0.52463500  0.04902900  0.29987200  1
  H  H17  1  0.97536500  0.95097100  0.79987200  1
  H  H18  1  0.95097100  0.79987200  0.97536500  1
  H  H19  1  0.79987200  0.97536500  0.95097100  1
  H  H20  1  0.29987200  0.97536500  0.54902900  1
  H  H21  1  0.79987200  0.52463500  0.45097100  1
  H  H22  1  0.70012800  0.47536500  0.95097100  1
  H  H23  1  0.52463500  0.45097100  0.79987200  1
  H  H24  1  0.95097100  0.70012800  0.47536500  1
  H  H25  1  0.45097100  0.79987200  0.52463500  1
  H  H26  1  0.97536500  0.54902900  0.29987200  1
  H  H27  1  0.54902900  0.29987200  0.97536500  1
  H  H28  1  0.47536500  0.95097100  0.70012800  1
  H  H29  1  0.02463500  0.04902900  0.20012800  1
  H  H30  1  0.04902900  0.20012800  0.02463500  1
  H  H31  1  0.20012800  0.02463500  0.04902900  1
  H  H32  1  0.68531000  0.03439700  0.57914900  1
  H  H33  1  0.18531000  0.46560300  0.42085100  1
  H  H34  1  0.31469000  0.53439700  0.92085100  1
  H  H35  1  0.46560300  0.42085100  0.18531000  1
  H  H36  1  0.92085100  0.31469000  0.53439700  1
  H  H37  1  0.42085100  0.18531000  0.46560300  1
  H  H38  1  0.03439700  0.57914900  0.68531000  1
  H  H39  1  0.57914900  0.68531000  0.03439700  1
  H  H40  1  0.53439700  0.92085100  0.31469000  1
  H  H41  1  0.96560300  0.07914900  0.81469000  1
  H  H42  1  0.07914900  0.81469000  0.96560300  1
  H  H43  1  0.81469000  0.96560300  0.07914900  1
  H  H44  1  0.31469000  0.96560300  0.42085100  1
  H  H45  1  0.81469000  0.53439700  0.57914900  1
  H  H46  1  0.68531000  0.46560300  0.07914900  1
  H  H47  1  0.53439700  0.57914900  0.81469000  1
  H  H48  1  0.07914900  0.68531000  0.46560300  1
  H  H49  1  0.57914900  0.81469000  0.53439700  1
  H  H50  1  0.96560300  0.42085100  0.31469000  1
  H  H51  1  0.42085100  0.31469000  0.96560300  1
  H  H52  1  0.46560300  0.07914900  0.68531000  1
  H  H53  1  0.03439700  0.92085100  0.18531000  1
  H  H54  1  0.92085100  0.18531000  0.03439700  1
  H  H55  1  0.61617100  0.16719400  0.22214000  1
  H  H56  1  0.49723200  0.19873100  0.22618500  1
  H  H57  1  0.99723200  0.30126900  0.77381500  1
  H  H58  1  0.50276800  0.69873100  0.27381500  1
  H  H59  1  0.30126900  0.77381500  0.99723200  1
  H  H60  1  0.27381500  0.50276800  0.69873100  1
  H  H61  1  0.77381500  0.99723200  0.30126900  1
  H  H62  1  0.19873100  0.22618500  0.49723200  1
  H  H63  1  0.22618500  0.49723200  0.19873100  1
  H  H64  1  0.69873100  0.27381500  0.50276800  1
  H  H65  1  0.80126900  0.72618500  0.00276800  1
  H  H66  1  0.72618500  0.00276800  0.80126900  1
  H  H67  1  0.00276800  0.80126900  0.72618500  1
  H  H68  1  0.50276800  0.80126900  0.77381500  1
  H  H69  1  0.00276800  0.69873100  0.22618500  1
  H  H70  1  0.49723200  0.30126900  0.72618500  1
  H  H71  1  0.69873100  0.22618500  0.00276800  1
  H  H72  1  0.72618500  0.49723200  0.30126900  1
  H  H73  1  0.22618500  0.00276800  0.69873100  1
  H  H74  1  0.80126900  0.77381500  0.50276800  1
  H  H75  1  0.77381500  0.50276800  0.80126900  1
  H  H76  1  0.30126900  0.72618500  0.49723200  1
  H  H77  1  0.19873100  0.27381500  0.99723200  1
  H  H78  1  0.27381500  0.99723200  0.19873100  1
  H  H79  1  0.99723200  0.19873100  0.27381500  1
  H  H80  1  0.11617100  0.16719400  0.27786000  1
  H  H81  1  0.27786000  0.11617100  0.16719400  1
  H  H82  1  0.16719400  0.27786000  0.11617100  1
  H  H83  1  0.33280600  0.72214000  0.61617100  1
  H  H84  1  0.77786000  0.38382900  0.83280600  1
  H  H85  1  0.83280600  0.77786000  0.38382900  1
  H  H86  1  0.22214000  0.88382900  0.66719400  1
  H  H87  1  0.72214000  0.61617100  0.33280600  1
  H  H88  1  0.66719400  0.22214000  0.88382900  1
  H  H89  1  0.61617100  0.33280600  0.72214000  1
  H  H90  1  0.88382900  0.66719400  0.22214000  1
  H  H91  1  0.38382900  0.83280600  0.77786000  1
  H  H92  1  0.88382900  0.83280600  0.72214000  1
  H  H93  1  0.72214000  0.88382900  0.83280600  1
  H  H94  1  0.83280600  0.72214000  0.88382900  1
  H  H95  1  0.66719400  0.27786000  0.38382900  1
  H  H96  1  0.22214000  0.61617100  0.16719400  1
  H  H97  1  0.16719400  0.22214000  0.61617100  1
  H  H98  1  0.77786000  0.11617100  0.33280600  1
  H  H99  1  0.27786000  0.38382900  0.66719400  1
  H  H100  1  0.33280600  0.77786000  0.11617100  1
  H  H101  1  0.38382900  0.66719400  0.27786000  1
  H  H102  1  0.11617100  0.33280600  0.77786000  1
  H  H103  1  0.18531000  0.03439700  0.92085100  1
  Se  Se104  1  0.30927600  0.19072400  0.80927600  1
  Se  Se105  1  0.80927600  0.19072400  0.69072400  1
  Se  Se106  1  0.19072400  0.69072400  0.80927600  1
  Se  Se107  1  0.30927600  0.30927600  0.30927600  1
  Se  Se108  1  0.69072400  0.80927600  0.19072400  1
  Se  Se109  1  0.69072400  0.69072400  0.69072400  1
  Se  Se110  1  0.19072400  0.80927600  0.30927600  1
  Se  Se111  1  0.80927600  0.30927600  0.19072400  1
  O  O112  1  0.54444100  0.13726900  0.21344700  1
  O  O113  1  0.04444100  0.36273100  0.78655300  1
  O  O114  1  0.45555900  0.63726900  0.28655300  1
  O  O115  1  0.36273100  0.78655300  0.04444100  1
  O  O116  1  0.28655300  0.45555900  0.63726900  1
  O  O117  1  0.78655300  0.04444100  0.36273100  1
  O  O118  1  0.13726900  0.21344700  0.54444100  1
  O  O119  1  0.21344700  0.54444100  0.13726900  1
  O  O120  1  0.63726900  0.28655300  0.45555900  1
  O  O121  1  0.86273100  0.71344700  0.95555900  1
  O  O122  1  0.71344700  0.95555900  0.86273100  1
  O  O123  1  0.95555900  0.86273100  0.71344700  1
  O  O124  1  0.45555900  0.86273100  0.78655300  1
  O  O125  1  0.95555900  0.63726900  0.21344700  1
  O  O126  1  0.54444100  0.36273100  0.71344700  1
  O  O127  1  0.63726900  0.21344700  0.95555900  1
  O  O128  1  0.71344700  0.54444100  0.36273100  1
  O  O129  1  0.21344700  0.95555900  0.63726900  1
  O  O130  1  0.86273100  0.78655300  0.45555900  1
  O  O131  1  0.78655300  0.45555900  0.86273100  1
  O  O132  1  0.36273100  0.71344700  0.54444100  1
  O  O133  1  0.13726900  0.28655300  0.04444100  1
  O  O134  1  0.28655300  0.04444100  0.13726900  1
  O  O135  1  0.04444100  0.13726900  0.28655300  1
  O  O136  1  0.14933900  0.01251900  0.98762100  1
  O  O137  1  0.98762100  0.14933900  0.01251900  1
  O  O138  1  0.01251900  0.98762100  0.14933900  1
  O  O139  1  0.48748100  0.01237900  0.64933900  1
  O  O140  1  0.48762100  0.35066100  0.98748100  1
  O  O141  1  0.98748100  0.48762100  0.35066100  1
  O  O142  1  0.51237900  0.85066100  0.51251900  1
  O  O143  1  0.01237900  0.64933900  0.48748100  1
  O  O144  1  0.51251900  0.51237900  0.85066100  1
  O  O145  1  0.64933900  0.48748100  0.01237900  1
  O  O146  1  0.85066100  0.51251900  0.51237900  1
  O  O147  1  0.35066100  0.98748100  0.48762100  1
  O  O148  1  0.85066100  0.98748100  0.01237900  1
  O  O149  1  0.01237900  0.85066100  0.98748100  1
  O  O150  1  0.98748100  0.01237900  0.85066100  1
  O  O151  1  0.51251900  0.98762100  0.35066100  1
  O  O152  1  0.51237900  0.64933900  0.01251900  1
  O  O153  1  0.01251900  0.51237900  0.64933900  1
  O  O154  1  0.48762100  0.14933900  0.48748100  1
  O  O155  1  0.98762100  0.35066100  0.51251900  1
  O  O156  1  0.48748100  0.48762100  0.14933900  1
  O  O157  1  0.35066100  0.51251900  0.98762100  1
  O  O158  1  0.14933900  0.48748100  0.48762100  1
  O  O159  1  0.64933900  0.01251900  0.51237900  1
  O  O160  1  0.81539000  0.25842100  0.06893100  1
  O  O161  1  0.31539000  0.24157900  0.93106900  1
  O  O162  1  0.18461000  0.75842100  0.43106900  1
  O  O163  1  0.24157900  0.93106900  0.31539000  1
  O  O164  1  0.43106900  0.18461000  0.75842100  1
  O  O165  1  0.93106900  0.31539000  0.24157900  1
  O  O166  1  0.25842100  0.06893100  0.81539000  1
  O  O167  1  0.06893100  0.81539000  0.25842100  1
  O  O168  1  0.75842100  0.43106900  0.18461000  1
  O  O169  1  0.74157900  0.56893100  0.68461000  1
  O  O170  1  0.56893100  0.68461000  0.74157900  1
  O  O171  1  0.68461000  0.74157900  0.56893100  1
  O  O172  1  0.18461000  0.74157900  0.93106900  1
  O  O173  1  0.68461000  0.75842100  0.06893100  1
  O  O174  1  0.81539000  0.24157900  0.56893100  1
  O  O175  1  0.75842100  0.06893100  0.68461000  1
  O  O176  1  0.56893100  0.81539000  0.24157900  1
  O  O177  1  0.06893100  0.68461000  0.75842100  1
  O  O178  1  0.74157900  0.93106900  0.18461000  1
  O  O179  1  0.93106900  0.18461000  0.74157900  1
  O  O180  1  0.24157900  0.56893100  0.81539000  1
  O  O181  1  0.25842100  0.43106900  0.31539000  1
  O  O182  1  0.43106900  0.31539000  0.25842100  1
  O  O183  1  0.31539000  0.25842100  0.43106900  1
  O  O184  1  0.23252800  0.23252800  0.23252800  1
  O  O185  1  0.26747200  0.73252800  0.23252800  1
  O  O186  1  0.73252800  0.23252800  0.26747200  1
  O  O187  1  0.76747200  0.76747200  0.76747200  1
  O  O188  1  0.76747200  0.73252800  0.26747200  1
  O  O189  1  0.73252800  0.26747200  0.76747200  1
  O  O190  1  0.26747200  0.76747200  0.73252800  1
  O  O191  1  0.23252800  0.26747200  0.73252800  1
