# generated using pymatgen
data_InCuSe2
_symmetry_space_group_name_H-M   'P 1'
_cell_length_a   7.21839105
_cell_length_b   7.21839105
_cell_length_c   7.21839105
_cell_angle_alpha   131.94126056
_cell_angle_beta   131.94126056
_cell_angle_gamma   70.32181527
_symmetry_Int_Tables_number   1
_chemical_formula_structural   InCuSe2
_chemical_formula_sum   'In2 Cu2 Se4'
_cell_volume   203.94595141
_cell_formula_units_Z   2
loop_
 _symmetry_equiv_pos_site_id
 _symmetry_equiv_pos_as_xyz
  1  'x, y, z'
loop_
 _atom_site_type_symbol
 _atom_site_label
 _atom_site_symmetry_multiplicity
 _atom_site_fract_x
 _atom_site_fract_y
 _atom_site_fract_z
 _atom_site_occupancy
  In  In0  1  0.50000000  0.50000000  0.00000000  1
  In  In1  1  0.25000000  0.75000000  0.50000000  1
  Cu  Cu2  1  0.00000000  0.00000000  0.00000000  1
  Cu  Cu3  1  0.75000000  0.25000000  0.50000000  1
  Se  Se4  1  0.37500000  0.34435500  0.46935500  1
  Se  Se5  1  0.87500000  0.90564500  0.53064500  1
  Se  Se6  1  0.65564500  0.12500000  0.03064500  1
  Se  Se7  1  0.09435500  0.62500000  0.96935500  1
