# generated using pymatgen
data_Sr6Cu3N5
_symmetry_space_group_name_H-M   'P 1'
_cell_length_a   8.69477200
_cell_length_b   8.69477200
_cell_length_c   7.36364800
_cell_angle_alpha   90.00000000
_cell_angle_beta   90.00000000
_cell_angle_gamma   90.00000000
_symmetry_Int_Tables_number   1
_chemical_formula_structural   Sr6Cu3N5
_chemical_formula_sum   'Sr12 Cu6 N10'
_cell_volume   556.68486794
_cell_formula_units_Z   2
loop_
 _symmetry_equiv_pos_site_id
 _symmetry_equiv_pos_as_xyz
  1  'x, y, z'
loop_
 _atom_site_type_symbol
 _atom_site_label
 _atom_site_symmetry_multiplicity
 _atom_site_fract_x
 _atom_site_fract_y
 _atom_site_fract_z
 _atom_site_occupancy
  Sr  Sr0  1  0.00000000  0.00000000  0.50311500  1
  Sr  Sr1  1  0.00000000  0.00000000  0.00311500  1
  Sr  Sr2  1  0.00000000  0.50000000  0.02204400  1
  Sr  Sr3  1  0.50000000  0.00000000  0.52204400  1
  Sr  Sr4  1  0.26694000  0.30283100  0.71103000  1
  Sr  Sr5  1  0.73306000  0.69716900  0.71103000  1
  Sr  Sr6  1  0.69716900  0.26694000  0.21103000  1
  Sr  Sr7  1  0.30283100  0.73306000  0.21103000  1
  Sr  Sr8  1  0.69716900  0.73306000  0.21103000  1
  Sr  Sr9  1  0.73306000  0.30283100  0.71103000  1
  Sr  Sr10  1  0.26694000  0.69716900  0.71103000  1
  Sr  Sr11  1  0.30283100  0.26694000  0.21103000  1
  Cu  Cu12  1  0.50000000  0.50000000  0.97206500  1
  Cu  Cu13  1  0.50000000  0.50000000  0.47206500  1
  Cu  Cu14  1  0.00000000  0.35918400  0.43383700  1
  Cu  Cu15  1  0.35918400  0.00000000  0.93383700  1
  Cu  Cu16  1  0.64081600  0.00000000  0.93383700  1
  Cu  Cu17  1  0.00000000  0.64081600  0.43383700  1
  N  N18  1  0.00000000  0.50000000  0.63180500  1
  N  N19  1  0.50000000  0.00000000  0.13180500  1
  N  N20  1  0.00000000  0.78081700  0.24091300  1
  N  N21  1  0.78081700  0.00000000  0.74091300  1
  N  N22  1  0.21918300  0.00000000  0.74091300  1
  N  N23  1  0.00000000  0.21918300  0.24091300  1
  N  N24  1  0.50000000  0.71303200  0.48382500  1
  N  N25  1  0.71303200  0.50000000  0.98382500  1
  N  N26  1  0.28696800  0.50000000  0.98382500  1
  N  N27  1  0.50000000  0.28696800  0.48382500  1
