# generated using pymatgen
data_EuInPt
_symmetry_space_group_name_H-M   'P 1'
_cell_length_a   4.51155500
_cell_length_b   7.46387000
_cell_length_c   8.57640500
_cell_angle_alpha   90.00000000
_cell_angle_beta   90.00000000
_cell_angle_gamma   90.00000000
_symmetry_Int_Tables_number   1
_chemical_formula_structural   EuInPt
_chemical_formula_sum   'Eu4 In4 Pt4'
_cell_volume   288.79894615
_cell_formula_units_Z   4
loop_
 _symmetry_equiv_pos_site_id
 _symmetry_equiv_pos_as_xyz
  1  'x, y, z'
loop_
 _atom_site_type_symbol
 _atom_site_label
 _atom_site_symmetry_multiplicity
 _atom_site_fract_x
 _atom_site_fract_y
 _atom_site_fract_z
 _atom_site_occupancy
  Eu  Eu0  1  0.75000000  0.46754100  0.82215600  1
  Eu  Eu1  1  0.25000000  0.03245900  0.32215600  1
  Eu  Eu2  1  0.75000000  0.96754100  0.67784400  1
  Eu  Eu3  1  0.25000000  0.53245900  0.17784400  1
  In  In4  1  0.25000000  0.64758900  0.56431000  1
  In  In5  1  0.25000000  0.14758900  0.93569000  1
  In  In6  1  0.75000000  0.35241100  0.43569000  1
  In  In7  1  0.75000000  0.85241100  0.06431000  1
  Pt  Pt8  1  0.25000000  0.76978300  0.87717400  1
  Pt  Pt9  1  0.25000000  0.26978300  0.62282600  1
  Pt  Pt10  1  0.75000000  0.73021700  0.37717400  1
  Pt  Pt11  1  0.75000000  0.23021700  0.12282600  1
