# generated using pymatgen
data_Ba3In2F12
_symmetry_space_group_name_H-M   'P 1'
_cell_length_a   9.73056000
_cell_length_b   9.73056000
_cell_length_c   5.72380200
_cell_angle_alpha   90.00000000
_cell_angle_beta   90.00000000
_cell_angle_gamma   90.00000000
_symmetry_Int_Tables_number   1
_chemical_formula_structural   Ba3In2F12
_chemical_formula_sum   'Ba6 In4 F24'
_cell_volume   541.95131187
_cell_formula_units_Z   2
loop_
 _symmetry_equiv_pos_site_id
 _symmetry_equiv_pos_as_xyz
  1  'x, y, z'
loop_
 _atom_site_type_symbol
 _atom_site_label
 _atom_site_symmetry_multiplicity
 _atom_site_fract_x
 _atom_site_fract_y
 _atom_site_fract_z
 _atom_site_occupancy
  Ba  Ba0  1  0.50000000  0.50000000  0.00000000  1
  Ba  Ba1  1  0.00000000  0.00000000  0.00000000  1
  Ba  Ba2  1  0.32054700  0.82054700  0.50000000  1
  Ba  Ba3  1  0.82054700  0.67945300  0.50000000  1
  Ba  Ba4  1  0.17945300  0.32054700  0.50000000  1
  Ba  Ba5  1  0.67945300  0.17945300  0.50000000  1
  In  In6  1  0.13313500  0.63313500  0.00000000  1
  In  In7  1  0.63313500  0.86686500  0.00000000  1
  In  In8  1  0.36686500  0.13313500  0.00000000  1
  In  In9  1  0.86686500  0.36686500  0.00000000  1
  F  F10  1  0.29176000  0.79176000  0.00000000  1
  F  F11  1  0.79176000  0.70824000  0.00000000  1
  F  F12  1  0.20824000  0.29176000  0.00000000  1
  F  F13  1  0.70824000  0.20824000  0.00000000  1
  F  F14  1  0.55538200  0.72635700  0.25740400  1
  F  F15  1  0.44461800  0.27364300  0.25740400  1
  F  F16  1  0.27364300  0.55538200  0.25740400  1
  F  F17  1  0.72635700  0.44461800  0.25740400  1
  F  F18  1  0.22635700  0.05538200  0.74259600  1
  F  F19  1  0.05538200  0.77364300  0.74259600  1
  F  F20  1  0.50000000  0.00000000  0.77816300  1
  F  F21  1  0.00000000  0.50000000  0.77816300  1
  F  F22  1  0.00000000  0.50000000  0.22183700  1
  F  F23  1  0.50000000  0.00000000  0.22183700  1
  F  F24  1  0.22635700  0.05538200  0.25740400  1
  F  F25  1  0.05538200  0.77364300  0.25740400  1
  F  F26  1  0.94461800  0.22635700  0.25740400  1
  F  F27  1  0.77364300  0.94461800  0.25740400  1
  F  F28  1  0.27364300  0.55538200  0.74259600  1
  F  F29  1  0.72635700  0.44461800  0.74259600  1
  F  F30  1  0.55538200  0.72635700  0.74259600  1
  F  F31  1  0.44461800  0.27364300  0.74259600  1
  F  F32  1  0.77364300  0.94461800  0.74259600  1
  F  F33  1  0.94461800  0.22635700  0.74259600  1
