# generated using pymatgen
data_Cd(NO3)2
_symmetry_space_group_name_H-M   'P 1'
_cell_length_a   7.75399300
_cell_length_b   7.76198300
_cell_length_c   15.90128900
_cell_angle_alpha   90.00000000
_cell_angle_beta   90.00000000
_cell_angle_gamma   90.00000000
_symmetry_Int_Tables_number   1
_chemical_formula_structural   Cd(NO3)2
_chemical_formula_sum   'Cd8 N16 O48'
_cell_volume   957.04073361
_cell_formula_units_Z   8
loop_
 _symmetry_equiv_pos_site_id
 _symmetry_equiv_pos_as_xyz
  1  'x, y, z'
loop_
 _atom_site_type_symbol
 _atom_site_label
 _atom_site_symmetry_multiplicity
 _atom_site_fract_x
 _atom_site_fract_y
 _atom_site_fract_z
 _atom_site_occupancy
  Cd  Cd0  1  0.28334200  0.98186800  0.62164900  1
  Cd  Cd1  1  0.78334200  0.01813200  0.37835100  1
  Cd  Cd2  1  0.78334200  0.51813200  0.62164900  1
  Cd  Cd3  1  0.28334200  0.48186800  0.37835100  1
  Cd  Cd4  1  0.26320600  0.47688300  0.87485300  1
  Cd  Cd5  1  0.76320600  0.52311700  0.12514700  1
  Cd  Cd6  1  0.76320600  0.02311700  0.87485300  1
  Cd  Cd7  1  0.26320600  0.97688300  0.12514700  1
  N  N8  1  0.62923000  0.34102500  0.29401300  1
  N  N9  1  0.92040800  0.67323900  0.95289400  1
  N  N10  1  0.42040800  0.32676100  0.04710600  1
  N  N11  1  0.42040800  0.82676100  0.95289400  1
  N  N12  1  0.92040800  0.17323900  0.04710600  1
  N  N13  1  0.59459800  0.36244900  0.78712900  1
  N  N14  1  0.09459800  0.63755100  0.21287100  1
  N  N15  1  0.09459800  0.13755100  0.78712900  1
  N  N16  1  0.59459800  0.86244900  0.21287100  1
  N  N17  1  0.12923000  0.65897500  0.70598700  1
  N  N18  1  0.12923000  0.15897500  0.29401300  1
  N  N19  1  0.62923000  0.84102500  0.70598700  1
  N  N20  1  0.93558100  0.66877200  0.44802800  1
  N  N21  1  0.43558100  0.33122800  0.55197200  1
  N  N22  1  0.43558100  0.83122800  0.44802800  1
  N  N23  1  0.93558100  0.16877200  0.55197200  1
  O  O24  1  0.22762800  0.65489500  0.25791700  1
  O  O25  1  0.05371700  0.67468500  0.63564700  1
  O  O26  1  0.05371700  0.17468500  0.36435300  1
  O  O27  1  0.55371700  0.82531500  0.63564700  1
  O  O28  1  0.58932900  0.46355200  0.24528400  1
  O  O29  1  0.08932900  0.53644800  0.75471600  1
  O  O30  1  0.08932900  0.03644800  0.24528400  1
  O  O31  1  0.58932900  0.96355200  0.75471600  1
  O  O32  1  0.74408000  0.73319400  0.72684700  1
  O  O33  1  0.24408000  0.26680600  0.27315300  1
  O  O34  1  0.24408000  0.76680600  0.72684700  1
  O  O35  1  0.74408000  0.23319400  0.27315300  1
  O  O36  1  0.81078300  0.19176800  0.50169600  1
  O  O37  1  0.31078300  0.80823200  0.49830400  1
  O  O38  1  0.31078300  0.30823200  0.50169600  1
  O  O39  1  0.81078300  0.69176800  0.49830400  1
  O  O40  1  0.96758000  0.27995800  0.60808200  1
  O  O41  1  0.46758000  0.72004200  0.39191800  1
  O  O42  1  0.46758000  0.22004200  0.60808200  1
  O  O43  1  0.96758000  0.77995800  0.39191800  1
  O  O44  1  0.02740000  0.03424400  0.54606000  1
  O  O45  1  0.52740000  0.96575600  0.45394000  1
  O  O46  1  0.52740000  0.46575600  0.54606000  1
  O  O47  1  0.02740000  0.53424400  0.45394000  1
  O  O48  1  0.94342700  0.78134400  0.89418500  1
  O  O49  1  0.01703400  0.04289800  0.04069800  1
  O  O50  1  0.51703400  0.95710200  0.95930200  1
  O  O51  1  0.51703400  0.45710200  0.04069800  1
  O  O52  1  0.72762800  0.84510500  0.25791700  1
  O  O53  1  0.22762800  0.15489500  0.74208300  1
  O  O54  1  0.55371700  0.32531500  0.36435300  1
  O  O55  1  0.72762800  0.34510500  0.74208300  1
  O  O56  1  0.57891000  0.77502200  0.14569300  1
  O  O57  1  0.07891000  0.22497800  0.85430700  1
  O  O58  1  0.07891000  0.72497800  0.14569300  1
  O  O59  1  0.57891000  0.27502200  0.85430700  1
  O  O60  1  0.47590300  0.96644300  0.23344800  1
  O  O61  1  0.97590300  0.03355700  0.76655200  1
  O  O62  1  0.79924200  0.69647500  0.00534300  1
  O  O63  1  0.47590300  0.46644300  0.76655200  1
  O  O64  1  0.01703400  0.54289800  0.95930200  1
  O  O65  1  0.94342700  0.28134400  0.10581500  1
  O  O66  1  0.44342700  0.71865600  0.89418500  1
  O  O67  1  0.44342700  0.21865600  0.10581500  1
  O  O68  1  0.79924200  0.19647500  0.99465700  1
  O  O69  1  0.29924200  0.80352500  0.00534300  1
  O  O70  1  0.29924200  0.30352500  0.99465700  1
  O  O71  1  0.97590300  0.53355700  0.23344800  1
