# generated using pymatgen
data_Gd(Sn3Ru2)2
_symmetry_space_group_name_H-M   'P 1'
_cell_length_a   6.96594376
_cell_length_b   6.96594376
_cell_length_c   6.96594376
_cell_angle_alpha   120.37398285
_cell_angle_beta   120.37398285
_cell_angle_gamma   89.35345412
_symmetry_Int_Tables_number   1
_chemical_formula_structural   Gd(Sn3Ru2)2
_chemical_formula_sum   'Gd1 Sn6 Ru4'
_cell_volume   237.64736198
_cell_formula_units_Z   1
loop_
 _symmetry_equiv_pos_site_id
 _symmetry_equiv_pos_as_xyz
  1  'x, y, z'
loop_
 _atom_site_type_symbol
 _atom_site_label
 _atom_site_symmetry_multiplicity
 _atom_site_fract_x
 _atom_site_fract_y
 _atom_site_fract_z
 _atom_site_occupancy
  Gd  Gd0  1  0.00000000  0.00000000  0.00000000  1
  Sn  Sn1  1  0.00000000  0.50000000  0.50000000  1
  Sn  Sn2  1  0.46977400  0.46977400  0.35160400  1
  Sn  Sn3  1  0.53022600  0.88183000  0.00000000  1
  Sn  Sn4  1  0.88183000  0.53022600  0.00000000  1
  Sn  Sn5  1  0.11817000  0.11817000  0.64839600  1
  Sn  Sn6  1  0.50000000  0.00000000  0.50000000  1
  Ru  Ru7  1  0.40383200  0.40383200  0.65295100  1
  Ru  Ru8  1  0.75088100  0.75088100  0.34704900  1
  Ru  Ru9  1  0.24911900  0.59616800  0.00000000  1
  Ru  Ru10  1  0.59616800  0.24911900  0.00000000  1
