# generated using pymatgen
data_Ni5Sb2
_symmetry_space_group_name_H-M   'P 1'
_cell_length_a   7.02655782
_cell_length_b   7.02655782
_cell_length_c   6.14276726
_cell_angle_alpha   64.41802092
_cell_angle_beta   64.41802092
_cell_angle_gamma   45.34237466
_symmetry_Int_Tables_number   1
_chemical_formula_structural   Ni5Sb2
_chemical_formula_sum   'Ni10 Sb4'
_cell_volume   190.65278861
_cell_formula_units_Z   2
loop_
 _symmetry_equiv_pos_site_id
 _symmetry_equiv_pos_as_xyz
  1  'x, y, z'
loop_
 _atom_site_type_symbol
 _atom_site_label
 _atom_site_symmetry_multiplicity
 _atom_site_fract_x
 _atom_site_fract_y
 _atom_site_fract_z
 _atom_site_occupancy
  Ni  Ni0  1  0.24799700  0.75200300  0.00000000  1
  Ni  Ni1  1  0.75200300  0.24799700  0.00000000  1
  Ni  Ni2  1  0.62779300  0.62779300  0.14950300  1
  Ni  Ni3  1  0.37220700  0.37220700  0.85049700  1
  Ni  Ni4  1  0.10183400  0.10183400  0.59473200  1
  Ni  Ni5  1  0.89816600  0.89816600  0.40526800  1
  Ni  Ni6  1  0.47630300  0.98171700  0.74141200  1
  Ni  Ni7  1  0.01828300  0.52369700  0.25858800  1
  Ni  Ni8  1  0.98171700  0.47630400  0.74141200  1
  Ni  Ni9  1  0.52369700  0.01828300  0.25858800  1
  Sb  Sb10  1  0.12691200  0.12691200  0.15058400  1
  Sb  Sb11  1  0.87308800  0.87308800  0.84941600  1
  Sb  Sb12  1  0.60282800  0.60282800  0.59735400  1
  Sb  Sb13  1  0.39717200  0.39717200  0.40264600  1
