# generated using pymatgen
data_BrF3
_symmetry_space_group_name_H-M   'P 1'
_cell_length_a   4.87029826
_cell_length_b   4.87029826
_cell_length_c   6.22883300
_cell_angle_alpha   90.00000000
_cell_angle_beta   90.00000000
_cell_angle_gamma   106.88786761
_symmetry_Int_Tables_number   1
_chemical_formula_structural   BrF3
_chemical_formula_sum   'Br2 F6'
_cell_volume   141.37514585
_cell_formula_units_Z   2
loop_
 _symmetry_equiv_pos_site_id
 _symmetry_equiv_pos_as_xyz
  1  'x, y, z'
loop_
 _atom_site_type_symbol
 _atom_site_label
 _atom_site_symmetry_multiplicity
 _atom_site_fract_x
 _atom_site_fract_y
 _atom_site_fract_z
 _atom_site_occupancy
  Br  Br0  1  0.16019100  0.83980900  0.74223200  1
  Br  Br1  1  0.83980900  0.16019100  0.24223200  1
  F  F2  1  0.93237200  0.06762800  0.90919400  1
  F  F3  1  0.06762800  0.93237200  0.40919400  1
  F  F4  1  0.73763800  0.26236200  0.50110300  1
  F  F5  1  0.26236200  0.73763800  0.00110300  1
  F  F6  1  0.62986800  0.37013200  0.11747100  1
  F  F7  1  0.37013200  0.62986800  0.61747100  1
