# generated using pymatgen
data_TiPCl9
_symmetry_space_group_name_H-M   'P 1'
_cell_length_a   7.27727100
_cell_length_b   9.25107429
_cell_length_c   9.86307479
_cell_angle_alpha   101.35200540
_cell_angle_beta   97.11138262
_cell_angle_gamma   95.33356306
_symmetry_Int_Tables_number   1
_chemical_formula_structural   TiPCl9
_chemical_formula_sum   'Ti2 P2 Cl18'
_cell_volume   641.29480732
_cell_formula_units_Z   2
loop_
 _symmetry_equiv_pos_site_id
 _symmetry_equiv_pos_as_xyz
  1  'x, y, z'
loop_
 _atom_site_type_symbol
 _atom_site_label
 _atom_site_symmetry_multiplicity
 _atom_site_fract_x
 _atom_site_fract_y
 _atom_site_fract_z
 _atom_site_occupancy
  Ti  Ti0  1  0.38812800  0.36400400  0.32452800  1
  Ti  Ti1  1  0.61187200  0.63599600  0.67547200  1
  P  P2  1  0.05202600  0.19571800  0.77689200  1
  P  P3  1  0.94797400  0.80428200  0.22310800  1
  Cl  Cl4  1  0.92110700  0.71149400  0.75008500  1
  Cl  Cl5  1  0.83713200  0.60955300  0.11497600  1
  Cl  Cl6  1  0.37476400  0.57113500  0.22371800  1
  Cl  Cl7  1  0.62523600  0.42886500  0.77628200  1
  Cl  Cl8  1  0.41970300  0.17087000  0.43939500  1
  Cl  Cl9  1  0.58029700  0.82913000  0.56060500  1
  Cl  Cl10  1  0.07889300  0.28850600  0.24991500  1
  Cl  Cl11  1  0.48222900  0.75855500  0.85881800  1
  Cl  Cl12  1  0.51777100  0.24144500  0.14118200  1
  Cl  Cl13  1  0.30017900  0.51639300  0.54517600  1
  Cl  Cl14  1  0.14327400  0.88471800  0.12877200  1
  Cl  Cl15  1  0.69982100  0.48360700  0.45482400  1
  Cl  Cl16  1  0.94366100  0.21054200  0.58987000  1
  Cl  Cl17  1  0.05633900  0.78945800  0.41013000  1
  Cl  Cl18  1  0.24536200  0.06113000  0.76422300  1
  Cl  Cl19  1  0.75463800  0.93887000  0.23577700  1
  Cl  Cl20  1  0.85672600  0.11528200  0.87122800  1
  Cl  Cl21  1  0.16286800  0.39044700  0.88502400  1
