# generated using pymatgen
data_GdSi2
_symmetry_space_group_name_H-M   'P 1'
_cell_length_a   7.72097274
_cell_length_b   7.72097274
_cell_length_c   7.72097274
_cell_angle_alpha   149.65589356
_cell_angle_beta   149.65589356
_cell_angle_gamma   43.44674914
_symmetry_Int_Tables_number   1
_chemical_formula_structural   GdSi2
_chemical_formula_sum   'Gd2 Si4'
_cell_volume   117.15257962
_cell_formula_units_Z   2
loop_
 _symmetry_equiv_pos_site_id
 _symmetry_equiv_pos_as_xyz
  1  'x, y, z'
loop_
 _atom_site_type_symbol
 _atom_site_label
 _atom_site_symmetry_multiplicity
 _atom_site_fract_x
 _atom_site_fract_y
 _atom_site_fract_z
 _atom_site_occupancy
  Gd  Gd0  1  0.50000000  0.50000000  0.00000000  1
  Gd  Gd1  1  0.25000000  0.75000000  0.50000000  1
  Si  Si2  1  0.83287000  0.33287000  0.50000000  1
  Si  Si3  1  0.08287000  0.08287000  0.00000000  1
  Si  Si4  1  0.66713000  0.16713000  0.50000000  1
  Si  Si5  1  0.91713000  0.91713000  0.00000000  1
