# generated using pymatgen
data_K4CdCl6
_symmetry_space_group_name_H-M   'P 1'
_cell_length_a   8.72620742
_cell_length_b   8.72620742
_cell_length_c   8.72620751
_cell_angle_alpha   89.87045822
_cell_angle_beta   89.87045822
_cell_angle_gamma   89.87045593
_symmetry_Int_Tables_number   1
_chemical_formula_structural   K4CdCl6
_chemical_formula_sum   'K8 Cd2 Cl12'
_cell_volume   664.46678274
_cell_formula_units_Z   2
loop_
 _symmetry_equiv_pos_site_id
 _symmetry_equiv_pos_as_xyz
  1  'x, y, z'
loop_
 _atom_site_type_symbol
 _atom_site_label
 _atom_site_symmetry_multiplicity
 _atom_site_fract_x
 _atom_site_fract_y
 _atom_site_fract_z
 _atom_site_occupancy
  K  K0  1  0.25000000  0.25000000  0.25000000  1
  K  K1  1  0.75000000  0.75000000  0.75000000  1
  K  K2  1  0.75000000  0.12653500  0.37346500  1
  K  K3  1  0.37346500  0.75000000  0.12653500  1
  K  K4  1  0.12653500  0.37346500  0.75000000  1
  K  K5  1  0.25000000  0.87346500  0.62653500  1
  K  K6  1  0.62653500  0.25000000  0.87346500  1
  K  K7  1  0.87346500  0.62653500  0.25000000  1
  Cd  Cd8  1  0.00000000  0.00000000  0.00000000  1
  Cd  Cd9  1  0.50000000  0.50000000  0.50000000  1
  Cl  Cl10  1  0.44354600  0.57033000  0.79372100  1
  Cl  Cl11  1  0.79372100  0.44354600  0.57033000  1
  Cl  Cl12  1  0.57033000  0.79372100  0.44354600  1
  Cl  Cl13  1  0.05645400  0.70627900  0.92967000  1
  Cl  Cl14  1  0.92967000  0.05645400  0.70627900  1
  Cl  Cl15  1  0.70627900  0.92967000  0.05645400  1
  Cl  Cl16  1  0.55645400  0.42967000  0.20627900  1
  Cl  Cl17  1  0.20627900  0.55645400  0.42967000  1
  Cl  Cl18  1  0.42967000  0.20627900  0.55645400  1
  Cl  Cl19  1  0.94354600  0.29372100  0.07033000  1
  Cl  Cl20  1  0.29372100  0.07033000  0.94354600  1
  Cl  Cl21  1  0.07033000  0.94354600  0.29372100  1
