# generated using pymatgen
data_LiAuS
_symmetry_space_group_name_H-M   'P 1'
_cell_length_a   7.28736604
_cell_length_b   7.26132796
_cell_length_c   6.42695616
_cell_angle_alpha   63.99253565
_cell_angle_beta   63.57603452
_cell_angle_gamma   52.43142983
_symmetry_Int_Tables_number   1
_chemical_formula_structural   LiAuS
_chemical_formula_sum   'Li4 Au4 S4'
_cell_volume   234.61055685
_cell_formula_units_Z   4
loop_
 _symmetry_equiv_pos_site_id
 _symmetry_equiv_pos_as_xyz
  1  'x, y, z'
loop_
 _atom_site_type_symbol
 _atom_site_label
 _atom_site_symmetry_multiplicity
 _atom_site_fract_x
 _atom_site_fract_y
 _atom_site_fract_z
 _atom_site_occupancy
  Li  Li0  1  0.14900500  0.14900500  0.85099500  1
  Li  Li1  1  0.85099500  0.85099500  0.14900500  1
  Li  Li2  1  0.10099500  0.10099500  0.39900500  1
  Li  Li3  1  0.39900500  0.39900500  0.10099500  1
  Au  Au4  1  0.62500000  0.62500000  0.62500000  1
  Au  Au5  1  0.12500000  0.62500000  0.62500000  1
  Au  Au6  1  0.62500000  0.62500000  0.12500000  1
  Au  Au7  1  0.62500000  0.12500000  0.62500000  1
  S  S8  1  0.03786900  0.46213100  0.46213100  1
  S  S9  1  0.78786900  0.21213100  0.21213100  1
  S  S10  1  0.46213100  0.03786900  0.03786900  1
  S  S11  1  0.21213100  0.78786900  0.78786900  1
