# generated using pymatgen
data_Nd2NCl3
_symmetry_space_group_name_H-M   'P 1'
_cell_length_a   6.29308500
_cell_length_b   6.91205600
_cell_length_c   13.55418000
_cell_angle_alpha   90.00000000
_cell_angle_beta   90.00000000
_cell_angle_gamma   90.00000000
_symmetry_Int_Tables_number   1
_chemical_formula_structural   Nd2NCl3
_chemical_formula_sum   'Nd8 N4 Cl12'
_cell_volume   589.58183518
_cell_formula_units_Z   4
loop_
 _symmetry_equiv_pos_site_id
 _symmetry_equiv_pos_as_xyz
  1  'x, y, z'
loop_
 _atom_site_type_symbol
 _atom_site_label
 _atom_site_symmetry_multiplicity
 _atom_site_fract_x
 _atom_site_fract_y
 _atom_site_fract_z
 _atom_site_occupancy
  Nd  Nd0  1  0.00646100  0.32516100  0.40788800  1
  Nd  Nd1  1  0.50646100  0.17483900  0.09211200  1
  Nd  Nd2  1  0.49353900  0.32516100  0.59211200  1
  Nd  Nd3  1  0.99353900  0.17483900  0.90788800  1
  Nd  Nd4  1  0.99353900  0.67483900  0.59211200  1
  Nd  Nd5  1  0.49353900  0.82516100  0.90788800  1
  Nd  Nd6  1  0.50646100  0.67483900  0.40788800  1
  Nd  Nd7  1  0.00646100  0.82516100  0.09211200  1
  N  N8  1  0.75000000  0.49244300  0.50000000  1
  N  N9  1  0.25000000  0.00755700  0.00000000  1
  N  N10  1  0.25000000  0.50755700  0.50000000  1
  N  N11  1  0.75000000  0.99244300  0.00000000  1
  Cl  Cl12  1  0.10365300  0.36160500  0.71788000  1
  Cl  Cl13  1  0.60365300  0.13839500  0.78212000  1
  Cl  Cl14  1  0.39634700  0.36160500  0.28212000  1
  Cl  Cl15  1  0.89634700  0.13839500  0.21788000  1
  Cl  Cl16  1  0.75000000  0.50150300  0.00000000  1
  Cl  Cl17  1  0.25000000  0.99849700  0.50000000  1
  Cl  Cl18  1  0.25000000  0.49849700  0.00000000  1
  Cl  Cl19  1  0.75000000  0.00150300  0.50000000  1
  Cl  Cl20  1  0.10365300  0.86160500  0.78212000  1
  Cl  Cl21  1  0.60365300  0.63839500  0.71788000  1
  Cl  Cl22  1  0.39634700  0.86160500  0.21788000  1
  Cl  Cl23  1  0.89634700  0.63839500  0.28212000  1
