# generated using pymatgen
data_Y(MnGe)2
_symmetry_space_group_name_H-M   'P 1'
_cell_length_a   6.12874449
_cell_length_b   6.12874449
_cell_length_c   6.12874449
_cell_angle_alpha   142.41013422
_cell_angle_beta   142.41013422
_cell_angle_gamma   54.21148381
_symmetry_Int_Tables_number   1
_chemical_formula_structural   Y(MnGe)2
_chemical_formula_sum   'Y1 Mn2 Ge2'
_cell_volume   85.08413304
_cell_formula_units_Z   1
loop_
 _symmetry_equiv_pos_site_id
 _symmetry_equiv_pos_as_xyz
  1  'x, y, z'
loop_
 _atom_site_type_symbol
 _atom_site_label
 _atom_site_symmetry_multiplicity
 _atom_site_fract_x
 _atom_site_fract_y
 _atom_site_fract_z
 _atom_site_occupancy
  Y  Y0  1  0.00000000  0.00000000  0.00000000  1
  Mn  Mn1  1  0.75000000  0.25000000  0.50000000  1
  Mn  Mn2  1  0.25000000  0.75000000  0.50000000  1
  Ge  Ge3  1  0.61938800  0.61938800  0.00000000  1
  Ge  Ge4  1  0.38061200  0.38061200  0.00000000  1
