# generated using pymatgen
data_Th2S3
_symmetry_space_group_name_H-M   'P 1'
_cell_length_a   3.93877800
_cell_length_b   10.87890600
_cell_length_c   10.89326100
_cell_angle_alpha   90.00000000
_cell_angle_beta   90.00000000
_cell_angle_gamma   90.00000000
_symmetry_Int_Tables_number   1
_chemical_formula_structural   Th2S3
_chemical_formula_sum   'Th8 S12'
_cell_volume   466.77182880
_cell_formula_units_Z   4
loop_
 _symmetry_equiv_pos_site_id
 _symmetry_equiv_pos_as_xyz
  1  'x, y, z'
loop_
 _atom_site_type_symbol
 _atom_site_label
 _atom_site_symmetry_multiplicity
 _atom_site_fract_x
 _atom_site_fract_y
 _atom_site_fract_z
 _atom_site_occupancy
  Th  Th0  1  0.25000000  0.01226200  0.30429000  1
  Th  Th1  1  0.75000000  0.98773800  0.69571000  1
  Th  Th2  1  0.75000000  0.51226200  0.19571000  1
  Th  Th3  1  0.25000000  0.48773700  0.80429000  1
  Th  Th4  1  0.25000000  0.68376800  0.48466100  1
  Th  Th5  1  0.75000000  0.31623200  0.51533900  1
  Th  Th6  1  0.75000000  0.18376800  0.01533900  1
  Th  Th7  1  0.25000000  0.81623200  0.98466100  1
  S  S8  1  0.25000000  0.05625000  0.87500900  1
  S  S9  1  0.75000000  0.94375000  0.12499100  1
  S  S10  1  0.75000000  0.55625000  0.62499100  1
  S  S11  1  0.25000000  0.44375000  0.37500900  1
  S  S12  1  0.25000000  0.12399700  0.55221900  1
  S  S13  1  0.75000000  0.87600300  0.44778100  1
  S  S14  1  0.75000000  0.62399700  0.94778100  1
  S  S15  1  0.25000000  0.37600300  0.05221900  1
  S  S16  1  0.25000000  0.70317900  0.22221000  1
  S  S17  1  0.75000000  0.29682100  0.77779000  1
  S  S18  1  0.75000000  0.20317900  0.27779000  1
  S  S19  1  0.25000000  0.79682100  0.72221000  1
