# generated using pymatgen
data_TbSiRu
_symmetry_space_group_name_H-M   'P 1'
_cell_length_a   4.36050600
_cell_length_b   7.04347300
_cell_length_c   7.10913400
_cell_angle_alpha   90.00000000
_cell_angle_beta   90.00000000
_cell_angle_gamma   90.00000000
_symmetry_Int_Tables_number   1
_chemical_formula_structural   TbSiRu
_chemical_formula_sum   'Tb4 Si4 Ru4'
_cell_volume   218.34358808
_cell_formula_units_Z   4
loop_
 _symmetry_equiv_pos_site_id
 _symmetry_equiv_pos_as_xyz
  1  'x, y, z'
loop_
 _atom_site_type_symbol
 _atom_site_label
 _atom_site_symmetry_multiplicity
 _atom_site_fract_x
 _atom_site_fract_y
 _atom_site_fract_z
 _atom_site_occupancy
  Tb  Tb0  1  0.25000000  0.98358700  0.81455400  1
  Tb  Tb1  1  0.75000000  0.01641300  0.18544600  1
  Tb  Tb2  1  0.25000000  0.48358700  0.68544600  1
  Tb  Tb3  1  0.75000000  0.51641300  0.31455400  1
  Si  Si4  1  0.25000000  0.30592700  0.10556700  1
  Si  Si5  1  0.75000000  0.69407300  0.89443300  1
  Si  Si6  1  0.25000000  0.80592700  0.39443300  1
  Si  Si7  1  0.75000000  0.19407300  0.60556700  1
  Ru  Ru8  1  0.75000000  0.84765800  0.56789100  1
  Ru  Ru9  1  0.25000000  0.15234200  0.43210900  1
  Ru  Ru10  1  0.75000000  0.34765800  0.93210900  1
  Ru  Ru11  1  0.25000000  0.65234200  0.06789100  1
