# generated using pymatgen
data_NaSbCl6
_symmetry_space_group_name_H-M   'P 1'
_cell_length_a   6.61256100
_cell_length_b   6.61256100
_cell_length_c   10.94956800
_cell_angle_alpha   90.00000000
_cell_angle_beta   90.00000000
_cell_angle_gamma   90.00000000
_symmetry_Int_Tables_number   1
_chemical_formula_structural   NaSbCl6
_chemical_formula_sum   'Na2 Sb2 Cl12'
_cell_volume   478.78040500
_cell_formula_units_Z   2
loop_
 _symmetry_equiv_pos_site_id
 _symmetry_equiv_pos_as_xyz
  1  'x, y, z'
loop_
 _atom_site_type_symbol
 _atom_site_label
 _atom_site_symmetry_multiplicity
 _atom_site_fract_x
 _atom_site_fract_y
 _atom_site_fract_z
 _atom_site_occupancy
  Na  Na0  1  0.00000000  0.00000000  0.75000000  1
  Na  Na1  1  0.00000000  0.00000000  0.25000000  1
  Sb  Sb2  1  0.50000000  0.00000000  0.50000000  1
  Sb  Sb3  1  0.00000000  0.50000000  0.00000000  1
  Cl  Cl4  1  0.79038600  0.20093600  0.00000000  1
  Cl  Cl5  1  0.79906400  0.79038600  0.50000000  1
  Cl  Cl6  1  0.20093600  0.20961400  0.50000000  1
  Cl  Cl7  1  0.20961400  0.79906400  0.00000000  1
  Cl  Cl8  1  0.21154000  0.35089200  0.15584900  1
  Cl  Cl9  1  0.64910800  0.21154000  0.65584900  1
  Cl  Cl10  1  0.35089200  0.78846000  0.65584900  1
  Cl  Cl11  1  0.78846000  0.64910800  0.15584900  1
  Cl  Cl12  1  0.78846000  0.64910800  0.84415100  1
  Cl  Cl13  1  0.35089200  0.78846000  0.34415100  1
  Cl  Cl14  1  0.64910800  0.21154000  0.34415100  1
  Cl  Cl15  1  0.21154000  0.35089200  0.84415100  1
