# generated using pymatgen
data_AlTeI7
_symmetry_space_group_name_H-M   'P 1'
_cell_length_a   7.48030400
_cell_length_b   7.75886000
_cell_length_c   16.86105845
_cell_angle_alpha   75.37986125
_cell_angle_beta   90.00000000
_cell_angle_gamma   90.00000000
_symmetry_Int_Tables_number   1
_chemical_formula_structural   AlTeI7
_chemical_formula_sum   'Al2 Te2 I14'
_cell_volume   946.90642491
_cell_formula_units_Z   2
loop_
 _symmetry_equiv_pos_site_id
 _symmetry_equiv_pos_as_xyz
  1  'x, y, z'
loop_
 _atom_site_type_symbol
 _atom_site_label
 _atom_site_symmetry_multiplicity
 _atom_site_fract_x
 _atom_site_fract_y
 _atom_site_fract_z
 _atom_site_occupancy
  Al  Al0  1  0.99556400  0.71173200  0.65435700  1
  Al  Al1  1  0.00443600  0.71173200  0.15435700  1
  Te  Te2  1  0.59767800  0.99824600  0.50169400  1
  Te  Te3  1  0.40232200  0.99824600  0.00169400  1
  I  I4  1  0.38436800  0.89181100  0.38868800  1
  I  I5  1  0.39333200  0.27168100  0.53290700  1
  I  I6  1  0.16949700  0.21549900  0.89032500  1
  I  I7  1  0.83050300  0.21549900  0.39032500  1
  I  I8  1  0.11981100  0.02547100  0.15478200  1
  I  I9  1  0.60666800  0.27168100  0.03290700  1
  I  I10  1  0.12601700  0.64722200  0.02112200  1
  I  I11  1  0.87398300  0.64722200  0.52112200  1
  I  I12  1  0.66477000  0.68620800  0.16184800  1
  I  I13  1  0.33523000  0.68620800  0.66184800  1
  I  I14  1  0.14304900  0.49002900  0.27879800  1
  I  I15  1  0.85695100  0.49002900  0.77879800  1
  I  I16  1  0.61563200  0.89181100  0.88868800  1
  I  I17  1  0.88018900  0.02547100  0.65478200  1
