# generated using pymatgen
data_K3RhCl6
_symmetry_space_group_name_H-M   'P 1'
_cell_length_a   7.56815200
_cell_length_b   12.14162200
_cell_length_c   12.73532367
_cell_angle_alpha   71.68105661
_cell_angle_beta   90.00000000
_cell_angle_gamma   90.00000000
_symmetry_Int_Tables_number   1
_chemical_formula_structural   K3RhCl6
_chemical_formula_sum   'K12 Rh4 Cl24'
_cell_volume   1110.93822259
_cell_formula_units_Z   4
loop_
 _symmetry_equiv_pos_site_id
 _symmetry_equiv_pos_as_xyz
  1  'x, y, z'
loop_
 _atom_site_type_symbol
 _atom_site_label
 _atom_site_symmetry_multiplicity
 _atom_site_fract_x
 _atom_site_fract_y
 _atom_site_fract_z
 _atom_site_occupancy
  K  K0  1  0.46748700  0.35945400  0.40113700  1
  K  K1  1  0.56995300  0.76588600  0.18224900  1
  K  K2  1  0.06995300  0.73411400  0.81775100  1
  K  K3  1  0.43004700  0.23411400  0.81775100  1
  K  K4  1  0.06462500  0.61271400  0.18092900  1
  K  K5  1  0.56462500  0.88728600  0.81907100  1
  K  K6  1  0.93537500  0.38728600  0.81907100  1
  K  K7  1  0.43537500  0.11271400  0.18092900  1
  K  K8  1  0.93004700  0.26588600  0.18224900  1
  K  K9  1  0.53251300  0.64054600  0.59886300  1
  K  K10  1  0.96748700  0.14054600  0.59886300  1
  K  K11  1  0.03251300  0.85945400  0.40113700  1
  Rh  Rh12  1  0.50000000  0.00000000  0.50000000  1
  Rh  Rh13  1  0.00000000  0.50000000  0.50000000  1
  Rh  Rh14  1  0.50000000  0.50000000  0.00000000  1
  Rh  Rh15  1  0.00000000  0.00000000  0.00000000  1
  Cl  Cl16  1  0.74435100  0.40050700  0.59373900  1
  Cl  Cl17  1  0.31207600  0.86238200  0.62303000  1
  Cl  Cl18  1  0.81207600  0.63761800  0.37697000  1
  Cl  Cl19  1  0.68792400  0.13761800  0.37697000  1
  Cl  Cl20  1  0.87102700  0.82163900  0.99953900  1
  Cl  Cl21  1  0.37102700  0.67836100  0.00046100  1
  Cl  Cl22  1  0.12897300  0.17836100  0.00046100  1
  Cl  Cl23  1  0.62897300  0.32163900  0.99953900  1
  Cl  Cl24  1  0.80838800  0.00473500  0.14680700  1
  Cl  Cl25  1  0.30838800  0.49526500  0.85319300  1
  Cl  Cl26  1  0.19161200  0.99526500  0.85319300  1
  Cl  Cl27  1  0.69161200  0.50473500  0.14680700  1
  Cl  Cl28  1  0.20487200  0.89829100  0.13895000  1
  Cl  Cl29  1  0.70487200  0.60170900  0.86105000  1
  Cl  Cl30  1  0.79512800  0.10170900  0.86105000  1
  Cl  Cl31  1  0.29512800  0.39829100  0.13895000  1
  Cl  Cl32  1  0.00122400  0.37983800  0.38454900  1
  Cl  Cl33  1  0.75564900  0.90050700  0.59373900  1
  Cl  Cl34  1  0.99877600  0.62016200  0.61545100  1
  Cl  Cl35  1  0.49877600  0.87983800  0.38454900  1
  Cl  Cl36  1  0.50122400  0.12016200  0.61545100  1
  Cl  Cl37  1  0.24435100  0.09949300  0.40626100  1
  Cl  Cl38  1  0.25564900  0.59949300  0.40626100  1
  Cl  Cl39  1  0.18792400  0.36238200  0.62303000  1
