# generated using pymatgen
data_Dy2O3
_symmetry_space_group_name_H-M   'P 1'
_cell_length_a   9.24566469
_cell_length_b   9.24566469
_cell_length_c   9.24566469
_cell_angle_alpha   109.47122063
_cell_angle_beta   109.47122063
_cell_angle_gamma   109.47122063
_symmetry_Int_Tables_number   1
_chemical_formula_structural   Dy2O3
_chemical_formula_sum   'Dy16 O24'
_cell_volume   608.40465280
_cell_formula_units_Z   8
loop_
 _symmetry_equiv_pos_site_id
 _symmetry_equiv_pos_as_xyz
  1  'x, y, z'
loop_
 _atom_site_type_symbol
 _atom_site_label
 _atom_site_symmetry_multiplicity
 _atom_site_fract_x
 _atom_site_fract_y
 _atom_site_fract_z
 _atom_site_occupancy
  Dy  Dy0  1  0.71753800  0.75000000  0.46753800  1
  Dy  Dy1  1  0.25000000  0.03246200  0.78246200  1
  Dy  Dy2  1  0.46753800  0.71753800  0.75000000  1
  Dy  Dy3  1  0.75000000  0.46753800  0.71753800  1
  Dy  Dy4  1  0.03246200  0.78246200  0.25000000  1
  Dy  Dy5  1  0.78246200  0.25000000  0.03246200  1
  Dy  Dy6  1  0.28246200  0.25000000  0.53246200  1
  Dy  Dy7  1  0.75000000  0.96753800  0.21753800  1
  Dy  Dy8  1  0.53246200  0.28246200  0.25000000  1
  Dy  Dy9  1  0.25000000  0.53246200  0.28246200  1
  Dy  Dy10  1  0.96753800  0.21753800  0.75000000  1
  Dy  Dy11  1  0.21753800  0.75000000  0.96753800  1
  Dy  Dy12  1  0.50000000  0.50000000  0.00000000  1
  Dy  Dy13  1  0.00000000  0.00000000  0.00000000  1
  Dy  Dy14  1  0.00000000  0.50000000  0.50000000  1
  Dy  Dy15  1  0.50000000  0.00000000  0.50000000  1
  O  O16  1  0.22943500  0.27183500  0.76028400  1
  O  O17  1  0.01155200  0.46915100  0.73971600  1
  O  O18  1  0.27056500  0.03084900  0.04240000  1
  O  O19  1  0.73971600  0.01155200  0.46915100  1
  O  O20  1  0.27183500  0.76028400  0.22943500  1
  O  O21  1  0.22816500  0.45760000  0.48844800  1
  O  O22  1  0.45760000  0.48844800  0.22816500  1
  O  O23  1  0.46915100  0.73971600  0.01155200  1
  O  O24  1  0.04240000  0.27056500  0.03084900  1
  O  O25  1  0.03084900  0.04240000  0.27056500  1
  O  O26  1  0.76028400  0.22943500  0.27183500  1
  O  O27  1  0.48844800  0.22816500  0.45760000  1
  O  O28  1  0.77056500  0.72816500  0.23971600  1
  O  O29  1  0.98844800  0.53084900  0.26028400  1
  O  O30  1  0.72943500  0.96915100  0.95760000  1
  O  O31  1  0.26028400  0.98844800  0.53084900  1
  O  O32  1  0.51155200  0.77183500  0.54240000  1
  O  O33  1  0.23971600  0.77056500  0.72816500  1
  O  O34  1  0.96915100  0.95760000  0.72943500  1
  O  O35  1  0.95760000  0.72943500  0.96915100  1
  O  O36  1  0.53084900  0.26028400  0.98844800  1
  O  O37  1  0.54240000  0.51155200  0.77183500  1
  O  O38  1  0.77183500  0.54240000  0.51155200  1
  O  O39  1  0.72816500  0.23971600  0.77056500  1
