# generated using pymatgen
data_LiMnAsO4
_symmetry_space_group_name_H-M   'P 1'
_cell_length_a   4.99929500
_cell_length_b   6.24638900
_cell_length_c   10.91589800
_cell_angle_alpha   90.00000000
_cell_angle_beta   90.00000000
_cell_angle_gamma   90.00000000
_symmetry_Int_Tables_number   1
_chemical_formula_structural   LiMnAsO4
_chemical_formula_sum   'Li4 Mn4 As4 O16'
_cell_volume   340.87665558
_cell_formula_units_Z   4
loop_
 _symmetry_equiv_pos_site_id
 _symmetry_equiv_pos_as_xyz
  1  'x, y, z'
loop_
 _atom_site_type_symbol
 _atom_site_label
 _atom_site_symmetry_multiplicity
 _atom_site_fract_x
 _atom_site_fract_y
 _atom_site_fract_z
 _atom_site_occupancy
  Li  Li0  1  0.00000000  0.00000000  0.00000000  1
  Li  Li1  1  0.50000000  0.00000000  0.50000000  1
  Li  Li2  1  0.00000000  0.50000000  0.00000000  1
  Li  Li3  1  0.50000000  0.50000000  0.50000000  1
  Mn  Mn4  1  0.98981200  0.25000000  0.27664100  1
  Mn  Mn5  1  0.51018800  0.25000000  0.77664100  1
  Mn  Mn6  1  0.01018800  0.75000100  0.72335900  1
  Mn  Mn7  1  0.48981200  0.75000100  0.22335900  1
  As  As8  1  0.07096600  0.25000000  0.59086900  1
  As  As9  1  0.42903400  0.25000000  0.09086900  1
  As  As10  1  0.92903400  0.75000100  0.40913100  1
  As  As11  1  0.57096600  0.75000100  0.90913100  1
  O  O12  1  0.77104500  0.25000000  0.09351200  1
  O  O13  1  0.22895500  0.75000100  0.90648800  1
  O  O14  1  0.72895500  0.25000000  0.59351200  1
  O  O15  1  0.27104500  0.75000100  0.40648800  1
  O  O16  1  0.71499300  0.75000100  0.05271700  1
  O  O17  1  0.28500700  0.25000000  0.94728300  1
  O  O18  1  0.21499300  0.25000000  0.44728300  1
  O  O19  1  0.78500700  0.75000100  0.55271600  1
  O  O20  1  0.22177800  0.46461400  0.66551300  1
  O  O21  1  0.72177800  0.53538700  0.83448700  1
  O  O22  1  0.77822200  0.96461400  0.33448700  1
  O  O23  1  0.27822200  0.03538700  0.16551300  1
  O  O24  1  0.77822200  0.53538700  0.33448700  1
  O  O25  1  0.27822200  0.46461400  0.16551300  1
  O  O26  1  0.22177800  0.03538700  0.66551300  1
  O  O27  1  0.72177800  0.96461400  0.83448700  1
