# generated using pymatgen
data_As2Os
_symmetry_space_group_name_H-M   'P 1'
_cell_length_a   3.05305500
_cell_length_b   5.47790700
_cell_length_c   6.25976100
_cell_angle_alpha   90.00000000
_cell_angle_beta   90.00000000
_cell_angle_gamma   90.00000000
_symmetry_Int_Tables_number   1
_chemical_formula_structural   As2Os
_chemical_formula_sum   'As4 Os2'
_cell_volume   104.69044237
_cell_formula_units_Z   2
loop_
 _symmetry_equiv_pos_site_id
 _symmetry_equiv_pos_as_xyz
  1  'x, y, z'
loop_
 _atom_site_type_symbol
 _atom_site_label
 _atom_site_symmetry_multiplicity
 _atom_site_fract_x
 _atom_site_fract_y
 _atom_site_fract_z
 _atom_site_occupancy
  As  As0  1  0.50000000  0.32899300  0.86508600  1
  As  As1  1  0.50000000  0.67100700  0.13491400  1
  As  As2  1  0.00000000  0.17100700  0.36508600  1
  As  As3  1  0.00000000  0.82899300  0.63491400  1
  Os  Os4  1  0.50000000  0.50000000  0.50000000  1
  Os  Os5  1  0.00000000  0.00000000  0.00000000  1
