# generated using pymatgen
data_Cu4SiP8
_symmetry_space_group_name_H-M   'P 1'
_cell_length_a   9.09865948
_cell_length_b   9.09865948
_cell_length_c   9.09865948
_cell_angle_alpha   95.69353670
_cell_angle_beta   95.69353670
_cell_angle_gamma   143.28172617
_symmetry_Int_Tables_number   1
_chemical_formula_structural   Cu4SiP8
_chemical_formula_sum   'Cu8 Si2 P16'
_cell_volume   427.42433740
_cell_formula_units_Z   2
loop_
 _symmetry_equiv_pos_site_id
 _symmetry_equiv_pos_as_xyz
  1  'x, y, z'
loop_
 _atom_site_type_symbol
 _atom_site_label
 _atom_site_symmetry_multiplicity
 _atom_site_fract_x
 _atom_site_fract_y
 _atom_site_fract_z
 _atom_site_occupancy
  Cu  Cu0  1  0.36482100  0.57728000  0.80913800  1
  Cu  Cu1  1  0.80568300  0.11482100  0.28754100  1
  Cu  Cu2  1  0.82728000  0.51814200  0.71245900  1
  Cu  Cu3  1  0.76814200  0.55568300  0.19086200  1
  Cu  Cu4  1  0.88517900  0.17272000  0.69086200  1
  Cu  Cu5  1  0.44431700  0.63517900  0.21245900  1
  Cu  Cu6  1  0.42272000  0.23185800  0.78754100  1
  Cu  Cu7  1  0.48185800  0.19431700  0.30913800  1
  Si  Si8  1  0.25000000  0.75000000  0.50000000  1
  Si  Si9  1  0.00000000  0.00000000  0.00000000  1
  P  P10  1  0.36085200  0.15753800  0.02770300  1
  P  P11  1  0.40753800  0.87983500  0.29668600  1
  P  P12  1  0.66685100  0.63914800  0.79668600  1
  P  P13  1  0.12016500  0.41685100  0.52770300  1
  P  P14  1  0.88914800  0.59246200  0.47229700  1
  P  P15  1  0.84246200  0.87016500  0.20331400  1
  P  P16  1  0.58314900  0.11085200  0.70331400  1
  P  P17  1  0.12983500  0.33314900  0.97229700  1
  P  P18  1  0.07465800  0.95590100  0.57410300  1
  P  P19  1  0.75055500  0.82465800  0.61875700  1
  P  P20  1  0.20590100  0.13179800  0.38124300  1
  P  P21  1  0.38179800  0.50055500  0.42589700  1
  P  P22  1  0.17534200  0.79409900  0.92589700  1
  P  P23  1  0.49944500  0.92534200  0.88124300  1
  P  P24  1  0.04409900  0.61820200  0.11875700  1
  P  P25  1  0.86820200  0.24944500  0.07410300  1
