# generated using pymatgen
data_Zr2NiP
_symmetry_space_group_name_H-M   'P 1'
_cell_length_a   3.64904100
_cell_length_b   5.26774900
_cell_length_c   7.49056456
_cell_angle_alpha   69.72275165
_cell_angle_beta   90.00000000
_cell_angle_gamma   90.00000000
_symmetry_Int_Tables_number   1
_chemical_formula_structural   Zr2NiP
_chemical_formula_sum   'Zr4 Ni2 P2'
_cell_volume   135.06211114
_cell_formula_units_Z   2
loop_
 _symmetry_equiv_pos_site_id
 _symmetry_equiv_pos_as_xyz
  1  'x, y, z'
loop_
 _atom_site_type_symbol
 _atom_site_label
 _atom_site_symmetry_multiplicity
 _atom_site_fract_x
 _atom_site_fract_y
 _atom_site_fract_z
 _atom_site_occupancy
  Zr  Zr0  1  0.25000000  0.71765800  0.07455000  1
  Zr  Zr1  1  0.75000000  0.28234200  0.92545000  1
  Zr  Zr2  1  0.25000000  0.22063300  0.57024700  1
  Zr  Zr3  1  0.75000000  0.77936700  0.42975300  1
  Ni  Ni4  1  0.25000000  0.64696600  0.71022400  1
  Ni  Ni5  1  0.75000000  0.35303400  0.28977600  1
  P  P6  1  0.25000000  0.14268900  0.21212400  1
  P  P7  1  0.75000000  0.85731100  0.78787600  1
