# generated using pymatgen
data_NdFeO3
_symmetry_space_group_name_H-M   'P 1'
_cell_length_a   5.50009600
_cell_length_b   5.69712100
_cell_length_c   7.86371600
_cell_angle_alpha   90.00000000
_cell_angle_beta   90.00000000
_cell_angle_gamma   90.00000000
_symmetry_Int_Tables_number   1
_chemical_formula_structural   NdFeO3
_chemical_formula_sum   'Nd4 Fe4 O12'
_cell_volume   246.40727944
_cell_formula_units_Z   4
loop_
 _symmetry_equiv_pos_site_id
 _symmetry_equiv_pos_as_xyz
  1  'x, y, z'
loop_
 _atom_site_type_symbol
 _atom_site_label
 _atom_site_symmetry_multiplicity
 _atom_site_fract_x
 _atom_site_fract_y
 _atom_site_fract_z
 _atom_site_occupancy
  Nd  Nd0  1  0.01404000  0.94336700  0.75000000  1
  Nd  Nd1  1  0.51404000  0.55663300  0.25000000  1
  Nd  Nd2  1  0.48596000  0.44336700  0.75000000  1
  Nd  Nd3  1  0.98596000  0.05663300  0.25000000  1
  Fe  Fe4  1  0.00000000  0.50000000  0.50000000  1
  Fe  Fe5  1  0.50000000  0.00000000  0.50000000  1
  Fe  Fe6  1  0.50000000  0.00000000  0.00000000  1
  Fe  Fe7  1  0.00000000  0.50000000  0.00000000  1
  O  O8  1  0.70274000  0.29711200  0.44985100  1
  O  O9  1  0.20274000  0.20288800  0.55014900  1
  O  O10  1  0.79726000  0.79711200  0.05014900  1
  O  O11  1  0.29726000  0.70288800  0.94985100  1
  O  O12  1  0.29726000  0.70288800  0.55014900  1
  O  O13  1  0.79726000  0.79711200  0.44985100  1
  O  O14  1  0.20274000  0.20288800  0.94985100  1
  O  O15  1  0.70274000  0.29711200  0.05014900  1
  O  O16  1  0.09469900  0.47134700  0.25000000  1
  O  O17  1  0.59469900  0.02865300  0.75000000  1
  O  O18  1  0.40530100  0.97134700  0.25000000  1
  O  O19  1  0.90530100  0.52865300  0.75000000  1
