# generated using pymatgen
data_Cd4Sb2I3
_symmetry_space_group_name_H-M   'P 1'
_cell_length_a   13.89713500
_cell_length_b   13.89713500
_cell_length_c   13.89713500
_cell_angle_alpha   90.00000000
_cell_angle_beta   90.00000000
_cell_angle_gamma   90.00000000
_symmetry_Int_Tables_number   1
_chemical_formula_structural   Cd4Sb2I3
_chemical_formula_sum   'Cd32 Sb16 I24'
_cell_volume   2683.95870231
_cell_formula_units_Z   8
loop_
 _symmetry_equiv_pos_site_id
 _symmetry_equiv_pos_as_xyz
  1  'x, y, z'
loop_
 _atom_site_type_symbol
 _atom_site_label
 _atom_site_symmetry_multiplicity
 _atom_site_fract_x
 _atom_site_fract_y
 _atom_site_fract_z
 _atom_site_occupancy
  Cd  Cd0  1  0.03151600  0.01798900  0.25449800  1
  Cd  Cd1  1  0.25449800  0.03151600  0.01798900  1
  Cd  Cd2  1  0.01798900  0.25449800  0.03151600  1
  Cd  Cd3  1  0.48201100  0.74550200  0.53151600  1
  Cd  Cd4  1  0.75449800  0.46848400  0.98201100  1
  Cd  Cd5  1  0.98201100  0.75449800  0.46848400  1
  Cd  Cd6  1  0.24550200  0.96848400  0.51798900  1
  Cd  Cd7  1  0.74550200  0.53151600  0.48201100  1
  Cd  Cd8  1  0.51798900  0.24550200  0.96848400  1
  Cd  Cd9  1  0.53151600  0.48201100  0.74550200  1
  Cd  Cd10  1  0.96848400  0.51798900  0.24550200  1
  Cd  Cd11  1  0.46848400  0.98201100  0.75449800  1
  Cd  Cd12  1  0.96848400  0.98201100  0.74550200  1
  Cd  Cd13  1  0.74550200  0.96848400  0.98201100  1
  Cd  Cd14  1  0.98201100  0.74550200  0.96848400  1
  Cd  Cd15  1  0.51798900  0.25449800  0.46848400  1
  Cd  Cd16  1  0.24550200  0.53151600  0.01798900  1
  Cd  Cd17  1  0.01798900  0.24550200  0.53151600  1
  Cd  Cd18  1  0.75449800  0.03151600  0.48201100  1
  Cd  Cd19  1  0.25449800  0.46848400  0.51798900  1
  Cd  Cd20  1  0.48201100  0.75449800  0.03151600  1
  Cd  Cd21  1  0.46848400  0.51798900  0.25449800  1
  Cd  Cd22  1  0.03151600  0.48201100  0.75449800  1
  Cd  Cd23  1  0.53151600  0.01798900  0.24550200  1
  Cd  Cd24  1  0.77816700  0.22183300  0.72183300  1
  Cd  Cd25  1  0.72183300  0.77816700  0.22183300  1
  Cd  Cd26  1  0.22183300  0.72183300  0.77816700  1
  Cd  Cd27  1  0.27816700  0.27816700  0.27816700  1
  Cd  Cd28  1  0.22183300  0.77816700  0.27816700  1
  Cd  Cd29  1  0.27816700  0.22183300  0.77816700  1
  Cd  Cd30  1  0.77816700  0.27816700  0.22183300  1
  Cd  Cd31  1  0.72183300  0.72183300  0.72183300  1
  Sb  Sb32  1  0.89369700  0.10630300  0.60630300  1
  Sb  Sb33  1  0.60630300  0.89369700  0.10630300  1
  Sb  Sb34  1  0.10630300  0.60630300  0.89369700  1
  Sb  Sb35  1  0.39369700  0.39369700  0.39369700  1
  Sb  Sb36  1  0.10630300  0.89369700  0.39369700  1
  Sb  Sb37  1  0.39369700  0.10630300  0.89369700  1
  Sb  Sb38  1  0.89369700  0.39369700  0.10630300  1
  Sb  Sb39  1  0.60630300  0.60630300  0.60630300  1
  Sb  Sb40  1  0.55881400  0.05881400  0.44118600  1
  Sb  Sb41  1  0.44118600  0.55881400  0.05881400  1
  Sb  Sb42  1  0.05881400  0.44118600  0.55881400  1
  Sb  Sb43  1  0.94118600  0.94118600  0.94118600  1
  Sb  Sb44  1  0.44118600  0.94118600  0.55881400  1
  Sb  Sb45  1  0.55881400  0.44118600  0.94118600  1
  Sb  Sb46  1  0.94118600  0.55881400  0.44118600  1
  Sb  Sb47  1  0.05881400  0.05881400  0.05881400  1
  I  I48  1  0.23299400  0.18071400  0.57155100  1
  I  I49  1  0.57155100  0.23299400  0.18071400  1
  I  I50  1  0.18071400  0.57155100  0.23299400  1
  I  I51  1  0.31928600  0.42844900  0.73299400  1
  I  I52  1  0.07155100  0.26700600  0.81928600  1
  I  I53  1  0.81928600  0.07155100  0.26700600  1
  I  I54  1  0.92844900  0.76700600  0.68071400  1
  I  I55  1  0.42844900  0.73299400  0.31928600  1
  I  I56  1  0.68071400  0.92844900  0.76700600  1
  I  I57  1  0.73299400  0.31928600  0.42844900  1
  I  I58  1  0.76700600  0.68071400  0.92844900  1
  I  I59  1  0.26700600  0.81928600  0.07155100  1
  I  I60  1  0.76700600  0.81928600  0.42844900  1
  I  I61  1  0.42844900  0.76700600  0.81928600  1
  I  I62  1  0.81928600  0.42844900  0.76700600  1
  I  I63  1  0.68071400  0.57155100  0.26700600  1
  I  I64  1  0.92844900  0.73299400  0.18071400  1
  I  I65  1  0.18071400  0.92844900  0.73299400  1
  I  I66  1  0.07155100  0.23299400  0.31928600  1
  I  I67  1  0.57155100  0.26700600  0.68071400  1
  I  I68  1  0.31928600  0.07155100  0.23299400  1
  I  I69  1  0.26700600  0.68071400  0.57155100  1
  I  I70  1  0.23299400  0.31928600  0.07155100  1
  I  I71  1  0.73299400  0.18071400  0.92844900  1
