# generated using pymatgen
data_K3GeH3S3O2
_symmetry_space_group_name_H-M   'P 1'
_cell_length_a   6.80299100
_cell_length_b   7.54871718
_cell_length_c   10.15410541
_cell_angle_alpha   87.93254206
_cell_angle_beta   98.18621985
_cell_angle_gamma   110.37901294
_symmetry_Int_Tables_number   1
_chemical_formula_structural   K3GeH3S3O2
_chemical_formula_sum   'K6 Ge2 H6 S6 O4'
_cell_volume   483.78249086
_cell_formula_units_Z   2
loop_
 _symmetry_equiv_pos_site_id
 _symmetry_equiv_pos_as_xyz
  1  'x, y, z'
loop_
 _atom_site_type_symbol
 _atom_site_label
 _atom_site_symmetry_multiplicity
 _atom_site_fract_x
 _atom_site_fract_y
 _atom_site_fract_z
 _atom_site_occupancy
  K  K0  1  0.23564800  0.36001500  0.05249900  1
  K  K1  1  0.76435200  0.63998500  0.94750100  1
  K  K2  1  0.74896500  0.76172000  0.55767300  1
  K  K3  1  0.25103500  0.23828000  0.44232700  1
  K  K4  1  0.60559700  0.12242800  0.77394100  1
  K  K5  1  0.39440300  0.87757200  0.22605900  1
  Ge  Ge6  1  0.80530700  0.38461300  0.27612900  1
  Ge  Ge7  1  0.19469300  0.61538700  0.72387100  1
  H  H8  1  0.06446700  0.94048100  0.82788400  1
  H  H9  1  0.93553300  0.05951900  0.17211600  1
  H  H10  1  0.05959600  0.12905600  0.76371400  1
  H  H11  1  0.94040400  0.87094400  0.23628600  1
  H  H12  1  0.85995900  0.41625800  0.62325500  1
  H  H13  1  0.14004100  0.58374200  0.37674500  1
  S  S14  1  0.73540100  0.22226000  0.08808700  1
  S  S15  1  0.26459900  0.77774000  0.91191300  1
  S  S16  1  0.27028500  0.79809800  0.55010400  1
  S  S17  1  0.66021900  0.60617700  0.25628200  1
  S  S18  1  0.33978100  0.39382300  0.74371800  1
  S  S19  1  0.72971500  0.20190200  0.44989600  1
  O  O20  1  0.03795600  0.99622500  0.21038400  1
  O  O21  1  0.09822400  0.50412200  0.29407500  1
  O  O22  1  0.90177600  0.49587800  0.70592500  1
  O  O23  1  0.96204400  0.00377500  0.78961600  1
