# generated using pymatgen
data_Sr4Nb2O9
_symmetry_space_group_name_H-M   'P 1'
_cell_length_a   5.94910966
_cell_length_b   5.94910966
_cell_length_c   15.94286700
_cell_angle_alpha   90.00000000
_cell_angle_beta   90.00000000
_cell_angle_gamma   119.99999624
_symmetry_Int_Tables_number   1
_chemical_formula_structural   Sr4Nb2O9
_chemical_formula_sum   'Sr8 Nb4 O18'
_cell_volume   488.65350733
_cell_formula_units_Z   2
loop_
 _symmetry_equiv_pos_site_id
 _symmetry_equiv_pos_as_xyz
  1  'x, y, z'
loop_
 _atom_site_type_symbol
 _atom_site_label
 _atom_site_symmetry_multiplicity
 _atom_site_fract_x
 _atom_site_fract_y
 _atom_site_fract_z
 _atom_site_occupancy
  Sr  Sr0  1  0.66666700  0.33333300  0.13790400  1
  Sr  Sr1  1  0.33333300  0.66666700  0.64283400  1
  Sr  Sr2  1  0.33333300  0.66666700  0.86209600  1
  Sr  Sr3  1  0.66666700  0.33333300  0.35716600  1
  Sr  Sr4  1  0.00000000  0.00000000  0.25003100  1
  Sr  Sr5  1  0.00000000  0.00000000  0.00000000  1
  Sr  Sr6  1  0.00000000  0.00000000  0.74996900  1
  Sr  Sr7  1  0.00000000  0.00000000  0.50000000  1
  Nb  Nb8  1  0.66666700  0.33333300  0.65557800  1
  Nb  Nb9  1  0.66666700  0.33333300  0.84737900  1
  Nb  Nb10  1  0.33333300  0.66666700  0.34442200  1
  Nb  Nb11  1  0.33333300  0.66666700  0.15262100  1
  O  O12  1  0.08297600  0.35871800  0.09940600  1
  O  O13  1  0.35147500  0.27274500  0.60382600  1
  O  O14  1  0.64852500  0.72725500  0.39617400  1
  O  O15  1  0.44330400  0.03663400  0.75099300  1
  O  O16  1  0.40667100  0.44330400  0.24900700  1
  O  O17  1  0.35871800  0.27574200  0.90059400  1
  O  O18  1  0.27574200  0.91702400  0.09940600  1
  O  O19  1  0.59332900  0.55669600  0.75099300  1
  O  O20  1  0.91702400  0.64128200  0.90059400  1
  O  O21  1  0.96336600  0.40667100  0.75099300  1
  O  O22  1  0.03663400  0.59332900  0.24900700  1
  O  O23  1  0.55669600  0.96336600  0.24900700  1
  O  O24  1  0.27274500  0.92127000  0.39617400  1
  O  O25  1  0.07873000  0.35147500  0.39617400  1
  O  O26  1  0.72725500  0.07873000  0.60382600  1
  O  O27  1  0.72425800  0.08297600  0.90059400  1
  O  O28  1  0.92127000  0.64852500  0.60382600  1
  O  O29  1  0.64128200  0.72425800  0.09940600  1
