# generated using pymatgen
data_K2ReF8
_symmetry_space_group_name_H-M   'P 1'
_cell_length_a   6.00233700
_cell_length_b   8.87033500
_cell_length_c   12.75719700
_cell_angle_alpha   90.00000000
_cell_angle_beta   90.00000000
_cell_angle_gamma   90.00000000
_symmetry_Int_Tables_number   1
_chemical_formula_structural   K2ReF8
_chemical_formula_sum   'K8 Re4 F32'
_cell_volume   679.22812265
_cell_formula_units_Z   4
loop_
 _symmetry_equiv_pos_site_id
 _symmetry_equiv_pos_as_xyz
  1  'x, y, z'
loop_
 _atom_site_type_symbol
 _atom_site_label
 _atom_site_symmetry_multiplicity
 _atom_site_fract_x
 _atom_site_fract_y
 _atom_site_fract_z
 _atom_site_occupancy
  K  K0  1  0.25000000  0.04866000  0.20970300  1
  K  K1  1  0.75000000  0.95134000  0.79029700  1
  K  K2  1  0.25000000  0.54866000  0.29029700  1
  K  K3  1  0.75000000  0.45134000  0.70970300  1
  K  K4  1  0.25000000  0.16962700  0.55964900  1
  K  K5  1  0.75000000  0.83037300  0.44035100  1
  K  K6  1  0.25000000  0.66962700  0.94035100  1
  K  K7  1  0.75000000  0.33037300  0.05964900  1
  Re  Re8  1  0.25000000  0.21843500  0.87687500  1
  Re  Re9  1  0.75000000  0.78156500  0.12312500  1
  Re  Re10  1  0.25000000  0.71843500  0.62312500  1
  Re  Re11  1  0.75000000  0.28156500  0.37687500  1
  F  F12  1  0.25000000  0.76923800  0.47173700  1
  F  F13  1  0.75000000  0.23076200  0.52826300  1
  F  F14  1  0.25000000  0.26923800  0.02826300  1
  F  F15  1  0.75000000  0.73076200  0.97173700  1
  F  F16  1  0.25000000  0.00410300  0.84028500  1
  F  F17  1  0.75000000  0.99589700  0.15971500  1
  F  F18  1  0.25000000  0.50410300  0.65971500  1
  F  F19  1  0.75000000  0.49589700  0.34028500  1
  F  F20  1  0.02410500  0.86476100  0.06570600  1
  F  F21  1  0.52410500  0.13523900  0.93429400  1
  F  F22  1  0.47589500  0.36476100  0.43429400  1
  F  F23  1  0.97589500  0.63523900  0.56570600  1
  F  F24  1  0.55118800  0.10314800  0.38525100  1
  F  F25  1  0.05118800  0.89685200  0.61474900  1
  F  F26  1  0.94881200  0.60314800  0.11474900  1
  F  F27  1  0.44881200  0.39685200  0.88525100  1
  F  F28  1  0.44881200  0.89685200  0.61474900  1
  F  F29  1  0.94881200  0.10314800  0.38525100  1
  F  F30  1  0.05118800  0.39685200  0.88525100  1
  F  F31  1  0.55118800  0.60314800  0.11474900  1
  F  F32  1  0.55070600  0.29064000  0.25264000  1
  F  F33  1  0.05070600  0.70936000  0.74736000  1
  F  F34  1  0.94929400  0.79064000  0.24736000  1
  F  F35  1  0.44929400  0.20936000  0.75264000  1
  F  F36  1  0.44929400  0.70936000  0.74736000  1
  F  F37  1  0.94929400  0.29064000  0.25264000  1
  F  F38  1  0.05070600  0.20936000  0.75264000  1
  F  F39  1  0.55070600  0.79064000  0.24736000  1
  F  F40  1  0.02410500  0.36476100  0.43429400  1
  F  F41  1  0.52410500  0.63523900  0.56570600  1
  F  F42  1  0.47589500  0.86476100  0.06570600  1
  F  F43  1  0.97589500  0.13523900  0.93429400  1
