# generated using pymatgen
data_ZrAs2
_symmetry_space_group_name_H-M   'P 1'
_cell_length_a   3.72672300
_cell_length_b   6.86200800
_cell_length_c   9.14417400
_cell_angle_alpha   90.00000000
_cell_angle_beta   90.00000000
_cell_angle_gamma   90.00000000
_symmetry_Int_Tables_number   1
_chemical_formula_structural   ZrAs2
_chemical_formula_sum   'Zr4 As8'
_cell_volume   233.84216066
_cell_formula_units_Z   4
loop_
 _symmetry_equiv_pos_site_id
 _symmetry_equiv_pos_as_xyz
  1  'x, y, z'
loop_
 _atom_site_type_symbol
 _atom_site_label
 _atom_site_symmetry_multiplicity
 _atom_site_fract_x
 _atom_site_fract_y
 _atom_site_fract_z
 _atom_site_occupancy
  Zr  Zr0  1  0.25000000  0.77267700  0.16186900  1
  Zr  Zr1  1  0.75000000  0.22732300  0.83813100  1
  Zr  Zr2  1  0.25000000  0.27267700  0.33813100  1
  Zr  Zr3  1  0.75000000  0.72732300  0.66186900  1
  As  As4  1  0.25000000  0.91699300  0.85262500  1
  As  As5  1  0.75000000  0.08300700  0.14737500  1
  As  As6  1  0.25000000  0.41699300  0.64737500  1
  As  As7  1  0.75000000  0.58300700  0.35262500  1
  As  As8  1  0.75000000  0.62032600  0.95774500  1
  As  As9  1  0.25000000  0.37967400  0.04225500  1
  As  As10  1  0.75000000  0.12032600  0.54225500  1
  As  As11  1  0.25000000  0.87967400  0.45774500  1
