# generated using pymatgen
data_H8S(NO2)2
_symmetry_space_group_name_H-M   'P 1'
_cell_length_a   6.06063800
_cell_length_b   8.22217800
_cell_length_c   10.80150100
_cell_angle_alpha   90.00000000
_cell_angle_beta   90.00000000
_cell_angle_gamma   90.00000000
_symmetry_Int_Tables_number   1
_chemical_formula_structural   H8S(NO2)2
_chemical_formula_sum   'H32 S4 N8 O16'
_cell_volume   538.25655714
_cell_formula_units_Z   4
loop_
 _symmetry_equiv_pos_site_id
 _symmetry_equiv_pos_as_xyz
  1  'x, y, z'
loop_
 _atom_site_type_symbol
 _atom_site_label
 _atom_site_symmetry_multiplicity
 _atom_site_fract_x
 _atom_site_fract_y
 _atom_site_fract_z
 _atom_site_occupancy
  H  H0  1  0.42057100  0.45466800  0.83587400  1
  H  H1  1  0.92057100  0.54533200  0.16412600  1
  H  H2  1  0.92057100  0.04533200  0.33587400  1
  H  H3  1  0.42057100  0.95466800  0.66412600  1
  H  H4  1  0.14891600  0.39550100  0.83839000  1
  H  H5  1  0.64891600  0.60449900  0.16161000  1
  H  H6  1  0.64891600  0.10449900  0.33839000  1
  H  H7  1  0.14891600  0.89550100  0.66161000  1
  H  H8  1  0.25479300  0.49113700  0.71211300  1
  H  H9  1  0.75479300  0.50886300  0.28788700  1
  H  H10  1  0.75479300  0.00886300  0.21211300  1
  H  H11  1  0.25479300  0.99113700  0.78788700  1
  H  H12  1  0.22152100  0.59605900  0.84659700  1
  H  H13  1  0.72152100  0.40394100  0.15340300  1
  H  H14  1  0.20114800  0.26032800  0.17790800  1
  H  H15  1  0.72152100  0.90394100  0.34659700  1
  H  H16  1  0.41044000  0.19109100  0.08731400  1
  H  H17  1  0.91044000  0.80890900  0.91268600  1
  H  H18  1  0.91044000  0.30890900  0.58731400  1
  H  H19  1  0.41044000  0.69109100  0.41268600  1
  H  H20  1  0.14844600  0.20550500  0.02861700  1
  H  H21  1  0.64844600  0.79449500  0.97138300  1
  H  H22  1  0.64844600  0.29449500  0.52861700  1
  H  H23  1  0.14844600  0.70550500  0.47138300  1
  H  H24  1  0.20686400  0.06097900  0.13535900  1
  H  H25  1  0.70686400  0.93902100  0.86464100  1
  H  H26  1  0.70686400  0.43902100  0.63535900  1
  H  H27  1  0.20686400  0.56097900  0.36464100  1
  H  H28  1  0.20114800  0.76032800  0.32209200  1
  H  H29  1  0.70114800  0.23967200  0.67790800  1
  H  H30  1  0.70114800  0.73967200  0.82209200  1
  H  H31  1  0.22152100  0.09605900  0.65340300  1
  S  S32  1  0.24764900  0.74143900  0.07543200  1
  S  S33  1  0.74764900  0.25856100  0.92456800  1
  S  S34  1  0.74764900  0.75856100  0.57543200  1
  S  S35  1  0.24764900  0.24143900  0.42456800  1
  N  N36  1  0.25988900  0.48402200  0.80689800  1
  N  N37  1  0.75988900  0.51597800  0.19310200  1
  N  N38  1  0.75988900  0.01597800  0.30689800  1
  N  N39  1  0.25988900  0.98402200  0.69310200  1
  N  N40  1  0.24273500  0.17999200  0.10777300  1
  N  N41  1  0.74273500  0.82000800  0.89222700  1
  N  N42  1  0.74273500  0.32000800  0.60777300  1
  N  N43  1  0.24273500  0.67999200  0.39222700  1
  O  O44  1  0.48889500  0.76653100  0.10213900  1
  O  O45  1  0.98889500  0.23346900  0.89786100  1
  O  O46  1  0.98889500  0.73346900  0.60213900  1
  O  O47  1  0.48889500  0.26653100  0.39786100  1
  O  O48  1  0.11625900  0.85190700  0.15700400  1
  O  O49  1  0.61625900  0.14809300  0.84299600  1
  O  O50  1  0.61625900  0.64809300  0.65700400  1
  O  O51  1  0.11625900  0.35190700  0.34299600  1
  O  O52  1  0.20454300  0.78323500  0.94179200  1
  O  O53  1  0.70454300  0.21676500  0.05820800  1
  O  O54  1  0.70454300  0.71676500  0.44179200  1
  O  O55  1  0.20454300  0.28323500  0.55820800  1
  O  O56  1  0.18633100  0.56980900  0.10006200  1
  O  O57  1  0.68633100  0.43019100  0.89993800  1
  O  O58  1  0.68633100  0.93019100  0.60006200  1
  O  O59  1  0.18633100  0.06980900  0.39993800  1
