# generated using pymatgen
data_Hg5(ClO2)2
_symmetry_space_group_name_H-M   'P 1'
_cell_length_a   9.02084158
_cell_length_b   9.02084158
_cell_length_c   9.02084158
_cell_angle_alpha   139.53191372
_cell_angle_beta   97.14284220
_cell_angle_gamma   96.59722072
_symmetry_Int_Tables_number   1
_chemical_formula_structural   Hg5(ClO2)2
_chemical_formula_sum   'Hg10 Cl4 O8'
_cell_volume   447.02514542
_cell_formula_units_Z   2
loop_
 _symmetry_equiv_pos_site_id
 _symmetry_equiv_pos_as_xyz
  1  'x, y, z'
loop_
 _atom_site_type_symbol
 _atom_site_label
 _atom_site_symmetry_multiplicity
 _atom_site_fract_x
 _atom_site_fract_y
 _atom_site_fract_z
 _atom_site_occupancy
  Hg  Hg0  1  0.86097300  0.78470200  0.64567500  1
  Hg  Hg1  1  0.63902700  0.28470200  0.92372800  1
  Hg  Hg2  1  0.36097300  0.71529800  0.07627200  1
  Hg  Hg3  1  0.13902700  0.21529800  0.35432500  1
  Hg  Hg4  1  0.59090100  0.25000000  0.34090100  1
  Hg  Hg5  1  0.90909900  0.25000000  0.65909900  1
  Hg  Hg6  1  0.40909900  0.75000000  0.65909900  1
  Hg  Hg7  1  0.09090100  0.75000000  0.34090100  1
  Hg  Hg8  1  0.25000000  0.25000000  0.00000000  1
  Hg  Hg9  1  0.75000000  0.75000000  0.00000000  1
  Cl  Cl10  1  0.39114000  0.22992400  0.62106400  1
  Cl  Cl11  1  0.10886000  0.72992400  0.83878400  1
  Cl  Cl12  1  0.89114000  0.27007600  0.16121600  1
  Cl  Cl13  1  0.60886000  0.77007600  0.37893600  1
  O  O14  1  0.17828900  0.52356800  0.05344300  1
  O  O15  1  0.32171100  0.37515400  0.34528000  1
  O  O16  1  0.47012500  0.12484600  0.94655700  1
  O  O17  1  0.02987500  0.97643200  0.65472000  1
  O  O18  1  0.97012500  0.02356800  0.34528000  1
  O  O19  1  0.52987500  0.87515400  0.05344300  1
  O  O20  1  0.82171100  0.47643200  0.94655700  1
  O  O21  1  0.67828900  0.62484600  0.65472000  1
