# generated using pymatgen
data_Sb2IF15
_symmetry_space_group_name_H-M   'P 1'
_cell_length_a   15.19317200
_cell_length_b   8.67993200
_cell_length_c   10.14969473
_cell_angle_alpha   67.46895078
_cell_angle_beta   90.00000000
_cell_angle_gamma   90.00000000
_symmetry_Int_Tables_number   1
_chemical_formula_structural   Sb2IF15
_chemical_formula_sum   'Sb8 I4 F60'
_cell_volume   1236.33323522
_cell_formula_units_Z   4
loop_
 _symmetry_equiv_pos_site_id
 _symmetry_equiv_pos_as_xyz
  1  'x, y, z'
loop_
 _atom_site_type_symbol
 _atom_site_label
 _atom_site_symmetry_multiplicity
 _atom_site_fract_x
 _atom_site_fract_y
 _atom_site_fract_z
 _atom_site_occupancy
  Sb  Sb0  1  0.54869300  0.80131500  0.35566900  1
  Sb  Sb1  1  0.04869300  0.19868500  0.14433100  1
  Sb  Sb2  1  0.45130700  0.19868500  0.64433100  1
  Sb  Sb3  1  0.95130700  0.80131500  0.85566900  1
  Sb  Sb4  1  0.74552200  0.10028600  0.38595800  1
  Sb  Sb5  1  0.24552200  0.89971400  0.11404200  1
  Sb  Sb6  1  0.25447800  0.89971400  0.61404200  1
  Sb  Sb7  1  0.75447800  0.10028600  0.88595800  1
  I  I8  1  0.88922800  0.69900200  0.30335200  1
  I  I9  1  0.38922800  0.30099800  0.19664800  1
  I  I10  1  0.11077200  0.30099800  0.69664800  1
  I  I11  1  0.61077200  0.69900200  0.80335200  1
  F  F12  1  0.64692100  0.65770500  0.39153800  1
  F  F13  1  0.14692100  0.34229500  0.10846200  1
  F  F14  1  0.35307900  0.34229500  0.60846200  1
  F  F15  1  0.85307900  0.65770500  0.89153800  1
  F  F16  1  0.55626800  0.86208000  0.15657400  1
  F  F17  1  0.05626800  0.13792000  0.34342600  1
  F  F18  1  0.44373200  0.13792000  0.84342600  1
  F  F19  1  0.94373200  0.86208000  0.65657400  1
  F  F20  1  0.55260900  0.77087700  0.55755200  1
  F  F21  1  0.05260900  0.22912300  0.94244800  1
  F  F22  1  0.44739100  0.22912300  0.44244800  1
  F  F23  1  0.94739100  0.77087700  0.05755200  1
  F  F24  1  0.51487500  0.73589500  0.90857000  1
  F  F25  1  0.01487500  0.26410500  0.59143000  1
  F  F26  1  0.48512500  0.26410500  0.09143000  1
  F  F27  1  0.98512500  0.73589500  0.40857000  1
  F  F28  1  0.54339900  0.51785700  0.81330200  1
  F  F29  1  0.04339900  0.48214300  0.68669800  1
  F  F30  1  0.45660100  0.48214300  0.18669800  1
  F  F31  1  0.95660100  0.51785700  0.31330200  1
  F  F32  1  0.65859500  0.58300700  0.98142800  1
  F  F33  1  0.15859500  0.41699300  0.51857200  1
  F  F34  1  0.34140500  0.41699300  0.01857200  1
  F  F35  1  0.84140500  0.58300700  0.48142800  1
  F  F36  1  0.70078200  0.59104700  0.74051400  1
  F  F37  1  0.20078200  0.40895300  0.75948600  1
  F  F38  1  0.29921800  0.40895300  0.25948600  1
  F  F39  1  0.79921800  0.59104700  0.24051400  1
  F  F40  1  0.83935500  0.25168600  0.90067100  1
  F  F41  1  0.33935500  0.74831400  0.59932900  1
  F  F42  1  0.16064500  0.74831400  0.09932900  1
  F  F43  1  0.66064500  0.25168600  0.40067100  1
  F  F44  1  0.65499900  0.18957800  0.94167000  1
  F  F45  1  0.15499900  0.81042200  0.55833000  1
  F  F46  1  0.34500100  0.81042200  0.05833000  1
  F  F47  1  0.84500100  0.18957800  0.44167000  1
  F  F48  1  0.68631400  0.91879600  0.86487600  1
  F  F49  1  0.18631400  0.08120400  0.63512400  1
  F  F50  1  0.31368600  0.08120400  0.13512400  1
  F  F51  1  0.81368600  0.91879600  0.36487600  1
  F  F52  1  0.78025200  0.94393400  0.07383400  1
  F  F53  1  0.28025200  0.05606600  0.42616600  1
  F  F54  1  0.21974800  0.05606600  0.92616600  1
  F  F55  1  0.71974800  0.94393400  0.57383400  1
  F  F56  1  0.73978900  0.22289800  0.68874300  1
  F  F57  1  0.23978900  0.77710200  0.81125700  1
  F  F58  1  0.26021100  0.77710200  0.31125700  1
  F  F59  1  0.76021100  0.22289800  0.18874300  1
  F  F60  1  0.85988000  0.98912300  0.82499900  1
  F  F61  1  0.35988000  0.01087700  0.67500100  1
  F  F62  1  0.14012000  0.01087700  0.17500100  1
  F  F63  1  0.64012000  0.98912300  0.32499900  1
  F  F64  1  0.03467700  0.97374300  0.83483400  1
  F  F65  1  0.53467700  0.02625700  0.66516600  1
  F  F66  1  0.96532300  0.02625700  0.16516600  1
  F  F67  1  0.46532300  0.97374300  0.33483400  1
  F  F68  1  0.03924500  0.63875400  0.88666500  1
  F  F69  1  0.53924500  0.36124600  0.61333500  1
  F  F70  1  0.96075500  0.36124600  0.11333500  1
  F  F71  1  0.46075500  0.63875400  0.38666500  1
