# generated using pymatgen
data_KLaGeSe4
_symmetry_space_group_name_H-M   'P 1'
_cell_length_a   7.12578400
_cell_length_b   6.99967200
_cell_length_c   9.20113688
_cell_angle_alpha   72.36482220
_cell_angle_beta   90.00000000
_cell_angle_gamma   90.00000000
_symmetry_Int_Tables_number   1
_chemical_formula_structural   KLaGeSe4
_chemical_formula_sum   'K2 La2 Ge2 Se8'
_cell_volume   437.36793701
_cell_formula_units_Z   2
loop_
 _symmetry_equiv_pos_site_id
 _symmetry_equiv_pos_as_xyz
  1  'x, y, z'
loop_
 _atom_site_type_symbol
 _atom_site_label
 _atom_site_symmetry_multiplicity
 _atom_site_fract_x
 _atom_site_fract_y
 _atom_site_fract_z
 _atom_site_occupancy
  K  K0  1  0.49165800  0.25803900  0.93662600  1
  K  K1  1  0.99165800  0.74196100  0.06337400  1
  La  La2  1  0.50293500  0.23310400  0.44586600  1
  La  La3  1  0.00293500  0.76689600  0.55413400  1
  Ge  Ge4  1  0.47093000  0.78259000  0.31716900  1
  Ge  Ge5  1  0.97093000  0.21741000  0.68283100  1
  Se  Se6  1  0.91773300  0.41832200  0.42542600  1
  Se  Se7  1  0.41773300  0.58167800  0.57457400  1
  Se  Se8  1  0.74483800  0.98741900  0.28360500  1
  Se  Se9  1  0.24483800  0.01258100  0.71639500  1
  Se  Se10  1  0.72785900  0.97107400  0.73052200  1
  Se  Se11  1  0.22785900  0.02892600  0.26947800  1
  Se  Se12  1  0.46742600  0.58206300  0.15318700  1
  Se  Se13  1  0.96742600  0.41793700  0.84681300  1
