# generated using pymatgen
data_Rb2CrF5
_symmetry_space_group_name_H-M   'P 1'
_cell_length_a   5.87365300
_cell_length_b   7.71161600
_cell_length_c   12.23494000
_cell_angle_alpha   90.00000000
_cell_angle_beta   90.00000000
_cell_angle_gamma   90.00000000
_symmetry_Int_Tables_number   1
_chemical_formula_structural   Rb2CrF5
_chemical_formula_sum   'Rb8 Cr4 F20'
_cell_volume   554.18596848
_cell_formula_units_Z   4
loop_
 _symmetry_equiv_pos_site_id
 _symmetry_equiv_pos_as_xyz
  1  'x, y, z'
loop_
 _atom_site_type_symbol
 _atom_site_label
 _atom_site_symmetry_multiplicity
 _atom_site_fract_x
 _atom_site_fract_y
 _atom_site_fract_z
 _atom_site_occupancy
  Rb  Rb0  1  0.25000000  0.49240300  0.27426600  1
  Rb  Rb1  1  0.75000000  0.50759700  0.72573400  1
  Rb  Rb2  1  0.25000000  0.99240300  0.22573400  1
  Rb  Rb3  1  0.75000000  0.00759700  0.77426600  1
  Rb  Rb4  1  0.25000000  0.14758900  0.58359700  1
  Rb  Rb5  1  0.75000000  0.85241100  0.41640300  1
  Rb  Rb6  1  0.25000000  0.64758900  0.91640300  1
  Rb  Rb7  1  0.75000000  0.35241100  0.08359700  1
  Cr  Cr8  1  0.25000000  0.65634900  0.56093900  1
  Cr  Cr9  1  0.75000000  0.34365100  0.43906100  1
  Cr  Cr10  1  0.25000000  0.15634900  0.93906100  1
  Cr  Cr11  1  0.75000000  0.84365100  0.06093900  1
  F  F12  1  0.51403900  0.19717400  0.38332800  1
  F  F13  1  0.01403900  0.80282600  0.61667200  1
  F  F14  1  0.98596100  0.69717400  0.11667200  1
  F  F15  1  0.48596100  0.30282600  0.88332800  1
  F  F16  1  0.48596100  0.80282600  0.61667200  1
  F  F17  1  0.98596100  0.19717400  0.38332800  1
  F  F18  1  0.01403900  0.30282600  0.88332800  1
  F  F19  1  0.51403900  0.69717400  0.11667200  1
  F  F20  1  0.25000000  0.78286000  0.42177900  1
  F  F21  1  0.75000000  0.21714000  0.57822100  1
  F  F22  1  0.25000000  0.28286000  0.07822100  1
  F  F23  1  0.75000000  0.71714000  0.92177900  1
  F  F24  1  0.50000000  0.50000000  0.50000000  1
  F  F25  1  0.00000000  0.50000000  0.50000000  1
  F  F26  1  0.00000000  0.00000000  0.00000000  1
  F  F27  1  0.50000000  0.00000000  0.00000000  1
  F  F28  1  0.75000000  0.98468000  0.19026400  1
  F  F29  1  0.25000000  0.01532000  0.80973600  1
  F  F30  1  0.75000000  0.48468000  0.30973600  1
  F  F31  1  0.25000000  0.51532000  0.69026400  1
