# generated using pymatgen
data_CsCu2Br3
_symmetry_space_group_name_H-M   'P 1'
_cell_length_a   8.21428452
_cell_length_b   8.21428452
_cell_length_c   5.62208100
_cell_angle_alpha   90.00000000
_cell_angle_beta   90.00000000
_cell_angle_gamma   104.80172507
_symmetry_Int_Tables_number   1
_chemical_formula_structural   CsCu2Br3
_chemical_formula_sum   'Cs2 Cu4 Br6'
_cell_volume   366.75857297
_cell_formula_units_Z   2
loop_
 _symmetry_equiv_pos_site_id
 _symmetry_equiv_pos_as_xyz
  1  'x, y, z'
loop_
 _atom_site_type_symbol
 _atom_site_label
 _atom_site_symmetry_multiplicity
 _atom_site_fract_x
 _atom_site_fract_y
 _atom_site_fract_z
 _atom_site_occupancy
  Cs  Cs0  1  0.67825600  0.32174400  0.75000000  1
  Cs  Cs1  1  0.32174400  0.67825600  0.25000000  1
  Cu  Cu2  1  0.15176500  0.15176500  0.00000000  1
  Cu  Cu3  1  0.84823500  0.84823500  0.50000000  1
  Cu  Cu4  1  0.84823500  0.84823500  0.00000000  1
  Cu  Cu5  1  0.15176500  0.15176500  0.50000000  1
  Br  Br6  1  0.11547100  0.88452900  0.75000000  1
  Br  Br7  1  0.88452900  0.11547100  0.25000000  1
  Br  Br8  1  0.16301300  0.39882900  0.75000000  1
  Br  Br9  1  0.83698700  0.60117100  0.25000000  1
  Br  Br10  1  0.39882900  0.16301300  0.25000000  1
  Br  Br11  1  0.60117100  0.83698700  0.75000000  1
