# generated using pymatgen
data_Rb4Cu5Cl9
_symmetry_space_group_name_H-M   'P 1'
_cell_length_a   8.83686500
_cell_length_b   15.62266000
_cell_length_c   15.86844266
_cell_angle_alpha   72.06544485
_cell_angle_beta   90.00000000
_cell_angle_gamma   90.00000000
_symmetry_Int_Tables_number   1
_chemical_formula_structural   Rb4Cu5Cl9
_chemical_formula_sum   'Rb16 Cu20 Cl36'
_cell_volume   2084.27347500
_cell_formula_units_Z   4
loop_
 _symmetry_equiv_pos_site_id
 _symmetry_equiv_pos_as_xyz
  1  'x, y, z'
loop_
 _atom_site_type_symbol
 _atom_site_label
 _atom_site_symmetry_multiplicity
 _atom_site_fract_x
 _atom_site_fract_y
 _atom_site_fract_z
 _atom_site_occupancy
  Rb  Rb0  1  0.30917300  0.99790000  0.00047100  1
  Rb  Rb1  1  0.69082700  0.99790000  0.50047100  1
  Rb  Rb2  1  0.16483100  0.98202900  0.30133800  1
  Rb  Rb3  1  0.83516900  0.98202900  0.80133800  1
  Rb  Rb4  1  0.47325300  0.46974400  0.47835900  1
  Rb  Rb5  1  0.52674700  0.46974400  0.97835900  1
  Rb  Rb6  1  0.04501400  0.48258000  0.11820500  1
  Rb  Rb7  1  0.95498600  0.48258000  0.61820500  1
  Rb  Rb8  1  0.18498300  0.73235900  0.88510200  1
  Rb  Rb9  1  0.81501700  0.73235900  0.38510200  1
  Rb  Rb10  1  0.34451200  0.75213100  0.56921400  1
  Rb  Rb11  1  0.65548800  0.75213100  0.06921400  1
  Rb  Rb12  1  0.46260900  0.24952900  0.76461000  1
  Rb  Rb13  1  0.53739100  0.24952900  0.26461000  1
  Rb  Rb14  1  0.02720900  0.26069000  0.40133500  1
  Rb  Rb15  1  0.97279100  0.26069000  0.90133500  1
  Cu  Cu16  1  0.62829700  0.57525600  0.71829000  1
  Cu  Cu17  1  0.37170300  0.57525600  0.21829000  1
  Cu  Cu18  1  0.88192900  0.57279100  0.81548200  1
  Cu  Cu19  1  0.11807100  0.57279100  0.31548200  1
  Cu  Cu20  1  0.39088600  0.15944500  0.55994800  1
  Cu  Cu21  1  0.60911400  0.15944500  0.05994800  1
  Cu  Cu22  1  0.15098500  0.14347400  0.66284600  1
  Cu  Cu23  1  0.84901500  0.14347400  0.16284600  1
  Cu  Cu24  1  0.67897100  0.70030000  0.79720900  1
  Cu  Cu25  1  0.32102900  0.70030000  0.29720900  1
  Cu  Cu26  1  0.08482800  0.78750100  0.12204600  1
  Cu  Cu27  1  0.91517200  0.78750100  0.62204600  1
  Cu  Cu28  1  0.35655900  0.98221400  0.73632300  1
  Cu  Cu29  1  0.64344100  0.98221400  0.23632300  1
  Cu  Cu30  1  0.20528900  0.02459500  0.58548200  1
  Cu  Cu31  1  0.79471100  0.02459500  0.08548200  1
  Cu  Cu32  1  0.22680300  0.48251900  0.79649500  1
  Cu  Cu33  1  0.77319700  0.48251900  0.29649500  1
  Cu  Cu34  1  0.74396400  0.24185800  0.58663400  1
  Cu  Cu35  1  0.25603600  0.24185800  0.08663400  1
  Cl  Cl36  1  0.31189500  0.45408100  0.68308800  1
  Cl  Cl37  1  0.68810500  0.45408100  0.18308800  1
  Cl  Cl38  1  0.12145400  0.47927600  0.91784100  1
  Cl  Cl39  1  0.87854600  0.47927600  0.41784100  1
  Cl  Cl40  1  0.16466400  0.10846800  0.80916600  1
  Cl  Cl41  1  0.83533600  0.10846800  0.30916600  1
  Cl  Cl42  1  0.31605500  0.09038100  0.45421300  1
  Cl  Cl43  1  0.68394500  0.09038100  0.95421300  1
  Cl  Cl44  1  0.72160900  0.83099400  0.69028700  1
  Cl  Cl45  1  0.27839100  0.83099400  0.19028700  1
  Cl  Cl46  1  0.18653900  0.89501100  0.69435600  1
  Cl  Cl47  1  0.81346100  0.89501100  0.19435600  1
  Cl  Cl48  1  0.00344000  0.85496600  0.48744100  1
  Cl  Cl49  1  0.99656000  0.85496600  0.98744100  1
  Cl  Cl50  1  0.46048000  0.89244400  0.87394900  1
  Cl  Cl51  1  0.53952000  0.89244400  0.37394900  1
  Cl  Cl52  1  0.03213600  0.65604400  0.70345600  1
  Cl  Cl53  1  0.96786400  0.65604400  0.20345600  1
  Cl  Cl54  1  0.44683800  0.63641500  0.78679700  1
  Cl  Cl55  1  0.55316200  0.63641500  0.28679700  1
  Cl  Cl56  1  0.64680400  0.61333900  0.57118700  1
  Cl  Cl57  1  0.35319600  0.61333900  0.07118700  1
  Cl  Cl58  1  0.80810500  0.63882200  0.92482200  1
  Cl  Cl59  1  0.19189500  0.63882200  0.42482200  1
  Cl  Cl60  1  0.82166300  0.27220000  0.70137000  1
  Cl  Cl61  1  0.17833700  0.27220000  0.20137000  1
  Cl  Cl62  1  0.63163300  0.25174100  0.46429500  1
  Cl  Cl63  1  0.36836700  0.25174100  0.96429500  1
  Cl  Cl64  1  0.54212600  0.08149500  0.67573700  1
  Cl  Cl65  1  0.45787400  0.08149500  0.17573700  1
  Cl  Cl66  1  0.95636300  0.09941400  0.58865200  1
  Cl  Cl67  1  0.04363700  0.09941400  0.08865200  1
  Cl  Cl68  1  0.25281900  0.27931900  0.57043800  1
  Cl  Cl69  1  0.74718100  0.27931900  0.07043800  1
  Cl  Cl70  1  0.74522300  0.44967300  0.81101700  1
  Cl  Cl71  1  0.25477700  0.44967300  0.31101700  1
