# generated using pymatgen
data_FeCoH18(NCl)6
_symmetry_space_group_name_H-M   'P 1'
_cell_length_a   11.39968300
_cell_length_b   11.39968300
_cell_length_c   11.39968300
_cell_angle_alpha   90.00000000
_cell_angle_beta   90.00000000
_cell_angle_gamma   90.00000000
_symmetry_Int_Tables_number   1
_chemical_formula_structural   FeCoH18(NCl)6
_chemical_formula_sum   'Fe4 Co4 H72 N24 Cl24'
_cell_volume   1481.42041148
_cell_formula_units_Z   4
loop_
 _symmetry_equiv_pos_site_id
 _symmetry_equiv_pos_as_xyz
  1  'x, y, z'
loop_
 _atom_site_type_symbol
 _atom_site_label
 _atom_site_symmetry_multiplicity
 _atom_site_fract_x
 _atom_site_fract_y
 _atom_site_fract_z
 _atom_site_occupancy
  Fe  Fe0  1  0.00000000  0.00000000  0.00000000  1
  Fe  Fe1  1  0.50000000  0.00000000  0.50000000  1
  Fe  Fe2  1  0.50000000  0.50000000  0.00000000  1
  Fe  Fe3  1  0.00000000  0.50000000  0.50000000  1
  Co  Co4  1  0.50000000  0.50000000  0.50000000  1
  Co  Co5  1  0.00000000  0.50000000  0.00000000  1
  Co  Co6  1  0.00000000  0.00000000  0.50000000  1
  Co  Co7  1  0.50000000  0.00000000  0.00000000  1
  H  H8  1  0.09928400  0.63305900  0.14895200  1
  H  H9  1  0.59928400  0.86694100  0.85104800  1
  H  H10  1  0.90071600  0.13305900  0.35104800  1
  H  H11  1  0.86694100  0.85104800  0.59928400  1
  H  H12  1  0.35104800  0.90071600  0.13305900  1
  H  H13  1  0.85104800  0.59928400  0.86694100  1
  H  H14  1  0.63305900  0.14895200  0.09928400  1
  H  H15  1  0.14895200  0.09928400  0.63305900  1
  H  H16  1  0.13305900  0.35104800  0.90071600  1
  H  H17  1  0.36694100  0.64895200  0.40071600  1
  H  H18  1  0.64895200  0.40071600  0.36694100  1
  H  H19  1  0.40071600  0.36694100  0.64895200  1
  H  H20  1  0.90071600  0.36694100  0.85104800  1
  H  H21  1  0.40071600  0.13305900  0.14895200  1
  H  H22  1  0.09928400  0.86694100  0.64895200  1
  H  H23  1  0.13305900  0.14895200  0.40071600  1
  H  H24  1  0.64895200  0.09928400  0.86694100  1
  H  H25  1  0.14895200  0.40071600  0.13305900  1
  H  H26  1  0.36694100  0.85104800  0.90071600  1
  H  H27  1  0.85104800  0.90071600  0.36694100  1
  H  H28  1  0.86694100  0.64895200  0.09928400  1
  H  H29  1  0.63305900  0.35104800  0.59928400  1
  H  H30  1  0.35104800  0.59928400  0.63305900  1
  H  H31  1  0.59928400  0.63305900  0.35104800  1
  H  H32  1  0.18478400  0.62564400  0.03119500  1
  H  H33  1  0.68478400  0.87435600  0.96880500  1
  H  H34  1  0.81521600  0.12564400  0.46880500  1
  H  H35  1  0.87435600  0.96880500  0.68478400  1
  H  H36  1  0.46880500  0.81521600  0.12564400  1
  H  H37  1  0.96880500  0.68478400  0.87435600  1
  H  H38  1  0.62564400  0.03119500  0.18478400  1
  H  H39  1  0.21173600  0.46829000  0.93027700  1
  H  H40  1  0.03119500  0.18478400  0.62564400  1
  H  H41  1  0.37435600  0.53119500  0.31521600  1
  H  H42  1  0.53119500  0.31521600  0.37435600  1
  H  H43  1  0.31521600  0.37435600  0.53119500  1
  H  H44  1  0.81521600  0.37435600  0.96880500  1
  H  H45  1  0.31521600  0.12564400  0.03119500  1
  H  H46  1  0.18478400  0.87435600  0.53119500  1
  H  H47  1  0.12564400  0.03119500  0.31521600  1
  H  H48  1  0.53119500  0.18478400  0.87435600  1
  H  H49  1  0.03119500  0.31521600  0.12564400  1
  H  H50  1  0.37435600  0.96880500  0.81521600  1
  H  H51  1  0.96880500  0.81521600  0.37435600  1
  H  H52  1  0.87435600  0.53119500  0.18478400  1
  H  H53  1  0.62564400  0.46880500  0.68478400  1
  H  H54  1  0.46880500  0.68478400  0.62564400  1
  H  H55  1  0.68478400  0.62564400  0.46880500  1
  H  H56  1  0.06972300  0.71173600  0.03171000  1
  H  H57  1  0.56972300  0.78826400  0.96829000  1
  H  H58  1  0.93027700  0.21173600  0.46829000  1
  H  H59  1  0.78826400  0.96829000  0.56972300  1
  H  H60  1  0.46829000  0.93027700  0.21173600  1
  H  H61  1  0.96829000  0.56972300  0.78826400  1
  H  H62  1  0.71173600  0.03171000  0.06972300  1
  H  H63  1  0.03171000  0.06972300  0.71173600  1
  H  H64  1  0.56972300  0.71173600  0.46829000  1
  H  H65  1  0.46829000  0.56972300  0.71173600  1
  H  H66  1  0.71173600  0.46829000  0.56972300  1
  H  H67  1  0.78826400  0.53171000  0.06972300  1
  H  H68  1  0.96829000  0.93027700  0.28826400  1
  H  H69  1  0.28826400  0.96829000  0.93027700  1
  H  H70  1  0.03171000  0.43027700  0.21173600  1
  H  H71  1  0.53171000  0.06972300  0.78826400  1
  H  H72  1  0.21173600  0.03171000  0.43027700  1
  H  H73  1  0.06972300  0.78826400  0.53171000  1
  H  H74  1  0.43027700  0.21173600  0.03171000  1
  H  H75  1  0.93027700  0.28826400  0.96829000  1
  H  H76  1  0.43027700  0.28826400  0.53171000  1
  H  H77  1  0.53171000  0.43027700  0.28826400  1
  H  H78  1  0.28826400  0.53171000  0.43027700  1
  H  H79  1  0.12564400  0.46880500  0.81521600  1
  N  N80  1  0.09854000  0.63049300  0.05846700  1
  N  N81  1  0.59854000  0.86950700  0.94153300  1
  N  N82  1  0.90146000  0.13049300  0.44153300  1
  N  N83  1  0.86950700  0.94153300  0.59854000  1
  N  N84  1  0.44153300  0.90146000  0.13049300  1
  N  N85  1  0.94153300  0.59854000  0.86950700  1
  N  N86  1  0.63049300  0.05846700  0.09854000  1
  N  N87  1  0.05846700  0.09854000  0.63049300  1
  N  N88  1  0.13049300  0.44153300  0.90146000  1
  N  N89  1  0.36950700  0.55846700  0.40146000  1
  N  N90  1  0.55846700  0.40146000  0.36950700  1
  N  N91  1  0.40146000  0.36950700  0.55846700  1
  N  N92  1  0.90146000  0.36950700  0.94153300  1
  N  N93  1  0.40146000  0.13049300  0.05846700  1
  N  N94  1  0.09854000  0.86950700  0.55846700  1
  N  N95  1  0.13049300  0.05846700  0.40146000  1
  N  N96  1  0.55846700  0.09854000  0.86950700  1
  N  N97  1  0.05846700  0.40146000  0.13049300  1
  N  N98  1  0.36950700  0.94153300  0.90146000  1
  N  N99  1  0.94153300  0.90146000  0.36950700  1
  N  N100  1  0.86950700  0.55846700  0.09854000  1
  N  N101  1  0.63049300  0.44153300  0.59854000  1
  N  N102  1  0.44153300  0.59854000  0.63049300  1
  N  N103  1  0.59854000  0.63049300  0.44153300  1
  Cl  Cl104  1  0.42928300  0.13442800  0.35219200  1
  Cl  Cl105  1  0.92928300  0.36557200  0.64780800  1
  Cl  Cl106  1  0.57071700  0.63442800  0.14780800  1
  Cl  Cl107  1  0.36557200  0.64780800  0.92928300  1
  Cl  Cl108  1  0.92928300  0.13442800  0.14780800  1
  Cl  Cl109  1  0.64780800  0.92928300  0.36557200  1
  Cl  Cl110  1  0.13442800  0.35219200  0.42928300  1
  Cl  Cl111  1  0.35219200  0.42928300  0.13442800  1
  Cl  Cl112  1  0.63442800  0.14780800  0.57071700  1
  Cl  Cl113  1  0.86557200  0.85219200  0.07071700  1
  Cl  Cl114  1  0.85219200  0.07071700  0.86557200  1
  Cl  Cl115  1  0.07071700  0.86557200  0.85219200  1
  Cl  Cl116  1  0.57071700  0.86557200  0.64780800  1
  Cl  Cl117  1  0.07071700  0.63442800  0.35219200  1
  Cl  Cl118  1  0.42928300  0.36557200  0.85219200  1
  Cl  Cl119  1  0.63442800  0.35219200  0.07071700  1
  Cl  Cl120  1  0.85219200  0.42928300  0.36557200  1
  Cl  Cl121  1  0.35219200  0.07071700  0.63442800  1
  Cl  Cl122  1  0.86557200  0.64780800  0.57071700  1
  Cl  Cl123  1  0.64780800  0.57071700  0.86557200  1
  Cl  Cl124  1  0.36557200  0.85219200  0.42928300  1
  Cl  Cl125  1  0.13442800  0.14780800  0.92928300  1
  Cl  Cl126  1  0.14780800  0.92928300  0.13442800  1
  Cl  Cl127  1  0.14780800  0.57071700  0.63442800  1
