# generated using pymatgen
data_TiGePd
_symmetry_space_group_name_H-M   'P 1'
_cell_length_a   3.88011600
_cell_length_b   6.41143700
_cell_length_c   7.60929700
_cell_angle_alpha   90.00000000
_cell_angle_beta   90.00000000
_cell_angle_gamma   90.00000000
_symmetry_Int_Tables_number   1
_chemical_formula_structural   TiGePd
_chemical_formula_sum   'Ti4 Ge4 Pd4'
_cell_volume   189.29738916
_cell_formula_units_Z   4
loop_
 _symmetry_equiv_pos_site_id
 _symmetry_equiv_pos_as_xyz
  1  'x, y, z'
loop_
 _atom_site_type_symbol
 _atom_site_label
 _atom_site_symmetry_multiplicity
 _atom_site_fract_x
 _atom_site_fract_y
 _atom_site_fract_z
 _atom_site_occupancy
  Ti  Ti0  1  0.75000000  0.46520700  0.68322200  1
  Ti  Ti1  1  0.25000000  0.53479300  0.31677800  1
  Ti  Ti2  1  0.75000000  0.96520700  0.81677800  1
  Ti  Ti3  1  0.25000000  0.03479300  0.18322200  1
  Ge  Ge4  1  0.75000000  0.75719300  0.12404500  1
  Ge  Ge5  1  0.25000000  0.74280700  0.62404500  1
  Ge  Ge6  1  0.25000000  0.24280700  0.87595500  1
  Ge  Ge7  1  0.75000000  0.25719300  0.37595500  1
  Pd  Pd8  1  0.25000000  0.14448100  0.56132400  1
  Pd  Pd9  1  0.25000000  0.64448100  0.93867600  1
  Pd  Pd10  1  0.75000000  0.35551900  0.06132400  1
  Pd  Pd11  1  0.75000000  0.85551900  0.43867600  1
