# generated using pymatgen
data_TbSiIr
_symmetry_space_group_name_H-M   'P 1'
_cell_length_a   4.26600400
_cell_length_b   6.92696200
_cell_length_c   7.41592800
_cell_angle_alpha   90.00000000
_cell_angle_beta   90.00000000
_cell_angle_gamma   90.00000000
_symmetry_Int_Tables_number   1
_chemical_formula_structural   TbSiIr
_chemical_formula_sum   'Tb4 Si4 Ir4'
_cell_volume   219.14399177
_cell_formula_units_Z   4
loop_
 _symmetry_equiv_pos_site_id
 _symmetry_equiv_pos_as_xyz
  1  'x, y, z'
loop_
 _atom_site_type_symbol
 _atom_site_label
 _atom_site_symmetry_multiplicity
 _atom_site_fract_x
 _atom_site_fract_y
 _atom_site_fract_z
 _atom_site_occupancy
  Tb  Tb0  1  0.75000000  0.50172900  0.81363400  1
  Tb  Tb1  1  0.25000000  0.99827100  0.31363400  1
  Tb  Tb2  1  0.75000000  0.00172900  0.68636600  1
  Tb  Tb3  1  0.25000000  0.49827100  0.18636600  1
  Si  Si4  1  0.25000000  0.80011700  0.89199900  1
  Si  Si5  1  0.25000000  0.30011700  0.60800100  1
  Si  Si6  1  0.75000000  0.19988300  0.10800100  1
  Si  Si7  1  0.75000000  0.69988300  0.39199900  1
  Ir  Ir8  1  0.25000000  0.65609800  0.56951800  1
  Ir  Ir9  1  0.25000000  0.15609800  0.93048200  1
  Ir  Ir10  1  0.75000000  0.84390200  0.06951800  1
  Ir  Ir11  1  0.75000000  0.34390200  0.43048200  1
