# generated using pymatgen
data_Rb2PbO3
_symmetry_space_group_name_H-M   'P 1'
_cell_length_a   6.15375700
_cell_length_b   7.53616400
_cell_length_c   11.08534400
_cell_angle_alpha   90.00000000
_cell_angle_beta   90.00000000
_cell_angle_gamma   90.00000000
_symmetry_Int_Tables_number   1
_chemical_formula_structural   Rb2PbO3
_chemical_formula_sum   'Rb8 Pb4 O12'
_cell_volume   514.09083127
_cell_formula_units_Z   4
loop_
 _symmetry_equiv_pos_site_id
 _symmetry_equiv_pos_as_xyz
  1  'x, y, z'
loop_
 _atom_site_type_symbol
 _atom_site_label
 _atom_site_symmetry_multiplicity
 _atom_site_fract_x
 _atom_site_fract_y
 _atom_site_fract_z
 _atom_site_occupancy
  Rb  Rb0  1  0.76406300  0.39185100  0.08745000  1
  Rb  Rb1  1  0.73593700  0.89185100  0.91255000  1
  Rb  Rb2  1  0.26406300  0.10814900  0.08745000  1
  Rb  Rb3  1  0.26406300  0.10814900  0.41255000  1
  Rb  Rb4  1  0.23593700  0.60814900  0.58745000  1
  Rb  Rb5  1  0.73593700  0.89185100  0.58745000  1
  Rb  Rb6  1  0.23593700  0.60814900  0.91255000  1
  Rb  Rb7  1  0.76406300  0.39185100  0.41255000  1
  Pb  Pb8  1  0.26213000  0.15770700  0.75000000  1
  Pb  Pb9  1  0.73787000  0.84229300  0.25000000  1
  Pb  Pb10  1  0.76213000  0.34229300  0.75000000  1
  Pb  Pb11  1  0.23787000  0.65770700  0.25000000  1
  O  O12  1  0.00445300  0.23183700  0.61980900  1
  O  O13  1  0.17643300  0.38916200  0.25000000  1
  O  O14  1  0.49554700  0.73183700  0.11980900  1
  O  O15  1  0.99554700  0.76816300  0.11980900  1
  O  O16  1  0.00445300  0.23183700  0.88019100  1
  O  O17  1  0.82356700  0.61083800  0.75000000  1
  O  O18  1  0.49554700  0.73183700  0.38019100  1
  O  O19  1  0.32356700  0.88916200  0.75000000  1
  O  O20  1  0.67643300  0.11083800  0.25000000  1
  O  O21  1  0.50445300  0.26816300  0.61980900  1
  O  O22  1  0.50445300  0.26816300  0.88019100  1
  O  O23  1  0.99554700  0.76816300  0.38019100  1
