# generated using pymatgen
data_Ta3Br7
_symmetry_space_group_name_H-M   'P 1'
_cell_length_a   10.32343594
_cell_length_b   10.32343594
_cell_length_c   11.94127100
_cell_angle_alpha   90.00000000
_cell_angle_beta   90.00000000
_cell_angle_gamma   92.97386590
_symmetry_Int_Tables_number   1
_chemical_formula_structural   Ta3Br7
_chemical_formula_sum   'Ta12 Br28'
_cell_volume   1270.90717533
_cell_formula_units_Z   4
loop_
 _symmetry_equiv_pos_site_id
 _symmetry_equiv_pos_as_xyz
  1  'x, y, z'
loop_
 _atom_site_type_symbol
 _atom_site_label
 _atom_site_symmetry_multiplicity
 _atom_site_fract_x
 _atom_site_fract_y
 _atom_site_fract_z
 _atom_site_occupancy
  Ta  Ta0  1  0.61096400  0.38903600  0.92068900  1
  Ta  Ta1  1  0.88903600  0.11096400  0.42068900  1
  Ta  Ta2  1  0.11096400  0.88903600  0.57931100  1
  Ta  Ta3  1  0.38903600  0.61096400  0.07931100  1
  Ta  Ta4  1  0.44388100  0.34529200  0.10867000  1
  Ta  Ta5  1  0.05611900  0.15470800  0.60867000  1
  Ta  Ta6  1  0.15470800  0.05611900  0.39133000  1
  Ta  Ta7  1  0.34529200  0.44388100  0.89133000  1
  Ta  Ta8  1  0.55611900  0.65470800  0.89133000  1
  Ta  Ta9  1  0.94388100  0.84529200  0.39133000  1
  Ta  Ta10  1  0.84529200  0.94388100  0.60867000  1
  Ta  Ta11  1  0.65470800  0.55611900  0.10867000  1
  Br  Br12  1  0.37298000  0.12702000  0.25000000  1
  Br  Br13  1  0.12702000  0.37298000  0.75000000  1
  Br  Br14  1  0.62702000  0.87298000  0.75000000  1
  Br  Br15  1  0.87298000  0.62702000  0.25000000  1
  Br  Br16  1  0.58569400  0.16443700  0.02067200  1
  Br  Br17  1  0.91430600  0.33556300  0.52067200  1
  Br  Br18  1  0.33556300  0.91430600  0.47932800  1
  Br  Br19  1  0.16443700  0.58569400  0.97932800  1
  Br  Br20  1  0.41430600  0.83556300  0.97932800  1
  Br  Br21  1  0.08569400  0.66443700  0.47932800  1
  Br  Br22  1  0.66443700  0.08569400  0.52067200  1
  Br  Br23  1  0.83556300  0.41430600  0.02067200  1
  Br  Br24  1  0.62085100  0.37914900  0.26520300  1
  Br  Br25  1  0.87914900  0.12085100  0.76520300  1
  Br  Br26  1  0.12085100  0.87914900  0.23479700  1
  Br  Br27  1  0.37914900  0.62085100  0.73479700  1
  Br  Br28  1  0.75582000  0.75582000  0.00000000  1
  Br  Br29  1  0.74418000  0.74418000  0.50000000  1
  Br  Br30  1  0.24418000  0.24418000  0.00000000  1
  Br  Br31  1  0.25582000  0.25582000  0.50000000  1
  Br  Br32  1  0.53158900  0.71557300  0.23853200  1
  Br  Br33  1  0.96841100  0.78442700  0.73853200  1
  Br  Br34  1  0.78442700  0.96841100  0.26146800  1
  Br  Br35  1  0.71557300  0.53158900  0.76146800  1
  Br  Br36  1  0.46841100  0.28442700  0.76146800  1
  Br  Br37  1  0.03158900  0.21557300  0.26146800  1
  Br  Br38  1  0.21557300  0.03158900  0.73853200  1
  Br  Br39  1  0.28442700  0.46841100  0.23853200  1
