# generated using pymatgen
data_EuIn4Pd
_symmetry_space_group_name_H-M   'P 1'
_cell_length_a   8.93360586
_cell_length_b   8.93360586
_cell_length_c   7.49112200
_cell_angle_alpha   90.00000000
_cell_angle_beta   90.00000000
_cell_angle_gamma   150.17357236
_symmetry_Int_Tables_number   1
_chemical_formula_structural   EuIn4Pd
_chemical_formula_sum   'Eu2 In8 Pd2'
_cell_volume   297.36076700
_cell_formula_units_Z   2
loop_
 _symmetry_equiv_pos_site_id
 _symmetry_equiv_pos_as_xyz
  1  'x, y, z'
loop_
 _atom_site_type_symbol
 _atom_site_label
 _atom_site_symmetry_multiplicity
 _atom_site_fract_x
 _atom_site_fract_y
 _atom_site_fract_z
 _atom_site_occupancy
  Eu  Eu0  1  0.12292900  0.87707100  0.75000000  1
  Eu  Eu1  1  0.87707100  0.12292900  0.25000000  1
  In  In2  1  0.50000000  0.50000000  0.50000000  1
  In  In3  1  0.50000000  0.50000000  0.00000000  1
  In  In4  1  0.68399200  0.31600800  0.04803400  1
  In  In5  1  0.31600800  0.68399200  0.95196600  1
  In  In6  1  0.31600800  0.68399200  0.54803400  1
  In  In7  1  0.68399200  0.31600800  0.45196600  1
  In  In8  1  0.06775100  0.93224900  0.25000000  1
  In  In9  1  0.93224900  0.06775100  0.75000000  1
  Pd  Pd10  1  0.22428900  0.77571100  0.25000000  1
  Pd  Pd11  1  0.77571100  0.22428900  0.75000000  1
