# generated using pymatgen
data_LaSi2Ru
_symmetry_space_group_name_H-M   'P 1'
_cell_length_a   4.11216800
_cell_length_b   4.56491400
_cell_length_c   8.41499860
_cell_angle_alpha   77.67119945
_cell_angle_beta   90.00000000
_cell_angle_gamma   90.00000000
_symmetry_Int_Tables_number   1
_chemical_formula_structural   LaSi2Ru
_chemical_formula_sum   'La2 Si4 Ru2'
_cell_volume   154.32087024
_cell_formula_units_Z   2
loop_
 _symmetry_equiv_pos_site_id
 _symmetry_equiv_pos_as_xyz
  1  'x, y, z'
loop_
 _atom_site_type_symbol
 _atom_site_label
 _atom_site_symmetry_multiplicity
 _atom_site_fract_x
 _atom_site_fract_y
 _atom_site_fract_z
 _atom_site_occupancy
  La  La0  1  0.25000000  0.91227100  0.20062900  1
  La  La1  1  0.75000000  0.08772900  0.79937100  1
  Si  Si2  1  0.25000000  0.16908400  0.50839500  1
  Si  Si3  1  0.75000000  0.83091600  0.49160500  1
  Si  Si4  1  0.75000000  0.46228000  0.09101000  1
  Si  Si5  1  0.25000000  0.53772000  0.90899000  1
  Ru  Ru6  1  0.75000000  0.37862700  0.38878200  1
  Ru  Ru7  1  0.25000000  0.62137300  0.61121800  1
