# generated using pymatgen
data_NaTiF4
_symmetry_space_group_name_H-M   'P 1'
_cell_length_a   5.07485000
_cell_length_b   5.83458800
_cell_length_c   11.17161300
_cell_angle_alpha   90.00000000
_cell_angle_beta   90.00000000
_cell_angle_gamma   90.00000000
_symmetry_Int_Tables_number   1
_chemical_formula_structural   NaTiF4
_chemical_formula_sum   'Na4 Ti4 F16'
_cell_volume   330.78765042
_cell_formula_units_Z   4
loop_
 _symmetry_equiv_pos_site_id
 _symmetry_equiv_pos_as_xyz
  1  'x, y, z'
loop_
 _atom_site_type_symbol
 _atom_site_label
 _atom_site_symmetry_multiplicity
 _atom_site_fract_x
 _atom_site_fract_y
 _atom_site_fract_z
 _atom_site_occupancy
  Na  Na0  1  0.50000000  0.00000000  0.50000000  1
  Na  Na1  1  0.00000000  0.50000000  0.50000000  1
  Na  Na2  1  0.50000000  0.00000000  0.00000000  1
  Na  Na3  1  0.00000000  0.50000000  0.00000000  1
  Ti  Ti4  1  0.50000000  0.34339200  0.25000000  1
  Ti  Ti5  1  0.00000000  0.15660800  0.75000000  1
  Ti  Ti6  1  0.50000000  0.65660800  0.75000000  1
  Ti  Ti7  1  0.00000000  0.84339200  0.25000000  1
  F  F8  1  0.33117100  0.32018900  0.09739200  1
  F  F9  1  0.83117100  0.17981100  0.90260800  1
  F  F10  1  0.66882900  0.32018900  0.40260800  1
  F  F11  1  0.16882900  0.17981100  0.59739200  1
  F  F12  1  0.66882900  0.67981100  0.90260800  1
  F  F13  1  0.16882900  0.82018900  0.09739200  1
  F  F14  1  0.33117100  0.67981100  0.59739200  1
  F  F15  1  0.83117100  0.82018900  0.40260800  1
  F  F16  1  0.74522300  0.08569600  0.19082300  1
  F  F17  1  0.24522300  0.41430400  0.80917700  1
  F  F18  1  0.25477700  0.08569600  0.30917700  1
  F  F19  1  0.75477700  0.41430400  0.69082300  1
  F  F20  1  0.25477700  0.91430400  0.80917700  1
  F  F21  1  0.75477700  0.58569600  0.19082300  1
  F  F22  1  0.74522300  0.91430400  0.69082300  1
  F  F23  1  0.24522300  0.58569600  0.30917700  1
