# generated using pymatgen
data_CsHgCl3
_symmetry_space_group_name_H-M   'P 1'
_cell_length_a   13.71152031
_cell_length_b   13.71152031
_cell_length_c   9.69073700
_cell_angle_alpha   90.00000000
_cell_angle_beta   90.00000000
_cell_angle_gamma   120.00000149
_symmetry_Int_Tables_number   1
_chemical_formula_structural   CsHgCl3
_chemical_formula_sum   'Cs9 Hg9 Cl27'
_cell_volume   1577.82435301
_cell_formula_units_Z   9
loop_
 _symmetry_equiv_pos_site_id
 _symmetry_equiv_pos_as_xyz
  1  'x, y, z'
loop_
 _atom_site_type_symbol
 _atom_site_label
 _atom_site_symmetry_multiplicity
 _atom_site_fract_x
 _atom_site_fract_y
 _atom_site_fract_z
 _atom_site_occupancy
  Cs  Cs0  1  0.55060800  0.44759700  0.13559600  1
  Cs  Cs1  1  0.89698900  0.44939200  0.46892900  1
  Cs  Cs2  1  0.55240300  0.10301100  0.80226200  1
  Cs  Cs3  1  0.23132800  0.44526200  0.82790600  1
  Cs  Cs4  1  0.21393400  0.76867200  0.16124000  1
  Cs  Cs5  1  0.55473800  0.78606600  0.49457300  1
  Cs  Cs6  1  0.22757900  0.11023000  0.47665300  1
  Cs  Cs7  1  0.88265100  0.77242100  0.80998700  1
  Cs  Cs8  1  0.88977000  0.11734900  0.14332000  1
  Hg  Hg9  1  0.22685300  0.11626900  0.97801200  1
  Hg  Hg10  1  0.88941600  0.77314700  0.31134500  1
  Hg  Hg11  1  0.88373100  0.11058400  0.64467800  1
  Hg  Hg12  1  0.55181000  0.44104800  0.65246100  1
  Hg  Hg13  1  0.88923800  0.44819000  0.98579400  1
  Hg  Hg14  1  0.55895200  0.11076200  0.31912700  1
  Hg  Hg15  1  0.21856900  0.43994300  0.30750700  1
  Hg  Hg16  1  0.22137400  0.78143100  0.64084100  1
  Hg  Hg17  1  0.56005700  0.77862600  0.97417400  1
  Cl  Cl18  1  0.22800000  0.28359700  0.13938800  1
  Cl  Cl19  1  0.05559700  0.77200000  0.47272100  1
  Cl  Cl20  1  0.71640300  0.94440300  0.80605400  1
  Cl  Cl21  1  0.04773700  0.44632700  0.16370500  1
  Cl  Cl22  1  0.39859000  0.95226300  0.49703900  1
  Cl  Cl23  1  0.55367300  0.60141000  0.83037200  1
  Cl  Cl24  1  0.39587700  0.25560900  0.79813300  1
  Cl  Cl25  1  0.85973200  0.60412300  0.13146600  1
  Cl  Cl26  1  0.74439100  0.14026800  0.46479900  1
  Cl  Cl27  1  0.07342500  0.08714000  0.82935700  1
  Cl  Cl28  1  0.01371500  0.92657500  0.16269000  1
  Cl  Cl29  1  0.91286000  0.98628500  0.49602300  1
  Cl  Cl30  1  0.34202100  0.07873300  0.13268700  1
  Cl  Cl31  1  0.73671200  0.65797900  0.46602000  1
  Cl  Cl32  1  0.92126700  0.26328800  0.79935400  1
  Cl  Cl33  1  0.42467900  0.44901500  0.48717700  1
  Cl  Cl34  1  0.02433500  0.57532100  0.82051100  1
  Cl  Cl35  1  0.55098500  0.97566500  0.15384400  1
  Cl  Cl36  1  0.39547100  0.76746000  0.86687600  1
  Cl  Cl37  1  0.23254000  0.62801100  0.53354300  1
  Cl  Cl38  1  0.37198900  0.60452900  0.20020900  1
  Cl  Cl39  1  0.68765400  0.79066900  0.15360700  1
  Cl  Cl40  1  0.20933100  0.89698500  0.82027300  1
  Cl  Cl41  1  0.10301500  0.31234600  0.48694000  1
  Cl  Cl42  1  0.55700500  0.27276200  0.41278500  1
  Cl  Cl43  1  0.72723800  0.28424200  0.07945200  1
  Cl  Cl44  1  0.71575800  0.44299500  0.74611900  1
