# generated using pymatgen
data_Rb3Mo2Cl9
_symmetry_space_group_name_H-M   'P 1'
_cell_length_a   7.33098094
_cell_length_b   7.33098094
_cell_length_c   17.84505200
_cell_angle_alpha   90.00000000
_cell_angle_beta   90.00000000
_cell_angle_gamma   120.00000848
_symmetry_Int_Tables_number   1
_chemical_formula_structural   Rb3Mo2Cl9
_chemical_formula_sum   'Rb6 Mo4 Cl18'
_cell_volume   830.56302471
_cell_formula_units_Z   2
loop_
 _symmetry_equiv_pos_site_id
 _symmetry_equiv_pos_as_xyz
  1  'x, y, z'
loop_
 _atom_site_type_symbol
 _atom_site_label
 _atom_site_symmetry_multiplicity
 _atom_site_fract_x
 _atom_site_fract_y
 _atom_site_fract_z
 _atom_site_occupancy
  Rb  Rb0  1  0.00000000  0.00000000  0.25000000  1
  Rb  Rb1  1  0.00000000  0.00000000  0.75000000  1
  Rb  Rb2  1  0.33333300  0.66666700  0.06723100  1
  Rb  Rb3  1  0.66666700  0.33333300  0.56723100  1
  Rb  Rb4  1  0.33333300  0.66666700  0.43276900  1
  Rb  Rb5  1  0.66666700  0.33333300  0.93276900  1
  Mo  Mo6  1  0.33333300  0.66666700  0.82794000  1
  Mo  Mo7  1  0.66666700  0.33333300  0.32794000  1
  Mo  Mo8  1  0.66666700  0.33333300  0.17206000  1
  Mo  Mo9  1  0.33333300  0.66666700  0.67206000  1
  Cl  Cl10  1  0.82272300  0.17727700  0.40535500  1
  Cl  Cl11  1  0.82272300  0.64544600  0.40535500  1
  Cl  Cl12  1  0.35455400  0.17727700  0.40535500  1
  Cl  Cl13  1  0.64544600  0.82272300  0.90535500  1
  Cl  Cl14  1  0.17727700  0.35455400  0.59464500  1
  Cl  Cl15  1  0.17727700  0.82272300  0.90535500  1
  Cl  Cl16  1  0.17727700  0.35455400  0.90535500  1
  Cl  Cl17  1  0.82272300  0.17727700  0.09464500  1
  Cl  Cl18  1  0.35455400  0.17727700  0.09464500  1
  Cl  Cl19  1  0.64544600  0.82272300  0.59464500  1
  Cl  Cl20  1  0.50372600  0.00745300  0.25000000  1
  Cl  Cl21  1  0.49627400  0.50372600  0.75000000  1
  Cl  Cl22  1  0.00745300  0.50372600  0.75000000  1
  Cl  Cl23  1  0.99254700  0.49627400  0.25000000  1
  Cl  Cl24  1  0.50372600  0.49627400  0.25000000  1
  Cl  Cl25  1  0.49627400  0.99254700  0.75000000  1
  Cl  Cl26  1  0.82272300  0.64544600  0.09464500  1
  Cl  Cl27  1  0.17727700  0.82272300  0.59464500  1
