# generated using pymatgen
data_Tb2Fe3Si5
_symmetry_space_group_name_H-M   'P 1'
_cell_length_a   10.39271000
_cell_length_b   10.39271000
_cell_length_c   5.50779200
_cell_angle_alpha   90.00000000
_cell_angle_beta   90.00000000
_cell_angle_gamma   90.00000000
_symmetry_Int_Tables_number   1
_chemical_formula_structural   Tb2Fe3Si5
_chemical_formula_sum   'Tb8 Fe12 Si20'
_cell_volume   594.88791791
_cell_formula_units_Z   4
loop_
 _symmetry_equiv_pos_site_id
 _symmetry_equiv_pos_as_xyz
  1  'x, y, z'
loop_
 _atom_site_type_symbol
 _atom_site_label
 _atom_site_symmetry_multiplicity
 _atom_site_fract_x
 _atom_site_fract_y
 _atom_site_fract_z
 _atom_site_occupancy
  Tb  Tb0  1  0.23597900  0.06948400  0.00000000  1
  Tb  Tb1  1  0.06948400  0.76402100  0.00000000  1
  Tb  Tb2  1  0.93051600  0.23597900  0.00000000  1
  Tb  Tb3  1  0.76402100  0.93051600  0.00000000  1
  Tb  Tb4  1  0.26402100  0.56948400  0.50000000  1
  Tb  Tb5  1  0.73597900  0.43051600  0.50000000  1
  Tb  Tb6  1  0.56948400  0.73597900  0.50000000  1
  Tb  Tb7  1  0.43051600  0.26402100  0.50000000  1
  Fe  Fe8  1  0.85479700  0.12298800  0.50000000  1
  Fe  Fe9  1  0.00000000  0.50000000  0.25000000  1
  Fe  Fe10  1  0.50000000  0.00000000  0.75000000  1
  Fe  Fe11  1  0.00000000  0.50000000  0.75000000  1
  Fe  Fe12  1  0.35479700  0.37701200  0.00000000  1
  Fe  Fe13  1  0.37701200  0.64520300  0.00000000  1
  Fe  Fe14  1  0.62298800  0.35479700  0.00000000  1
  Fe  Fe15  1  0.64520300  0.62298800  0.00000000  1
  Fe  Fe16  1  0.12298800  0.14520300  0.50000000  1
  Fe  Fe17  1  0.87701200  0.85479700  0.50000000  1
  Fe  Fe18  1  0.14520300  0.87701200  0.50000000  1
  Fe  Fe19  1  0.50000000  0.00000000  0.25000000  1
  Si  Si20  1  0.32019700  0.02139400  0.50000000  1
  Si  Si21  1  0.67980300  0.97860600  0.50000000  1
  Si  Si22  1  0.97860600  0.32019700  0.50000000  1
  Si  Si23  1  0.02139400  0.67980300  0.50000000  1
  Si  Si24  1  0.52139400  0.82019700  0.00000000  1
  Si  Si25  1  0.82019700  0.47860600  0.00000000  1
  Si  Si26  1  0.17980300  0.52139400  0.00000000  1
  Si  Si27  1  0.47860600  0.17980300  0.00000000  1
  Si  Si28  1  0.67730400  0.17730400  0.75000000  1
  Si  Si29  1  0.17730400  0.32269600  0.75000000  1
  Si  Si30  1  0.82269600  0.67730400  0.75000000  1
  Si  Si31  1  0.32269600  0.82269600  0.75000000  1
  Si  Si32  1  0.32269600  0.82269600  0.25000000  1
  Si  Si33  1  0.82269600  0.67730400  0.25000000  1
  Si  Si34  1  0.17730400  0.32269600  0.25000000  1
  Si  Si35  1  0.00000000  0.00000000  0.27121600  1
  Si  Si36  1  0.50000000  0.50000000  0.77121600  1
  Si  Si37  1  0.00000000  0.00000000  0.72878400  1
  Si  Si38  1  0.50000000  0.50000000  0.22878400  1
  Si  Si39  1  0.67730400  0.17730400  0.25000000  1
