# generated using pymatgen
data_Hg(AuF4)2
_symmetry_space_group_name_H-M   'P 1'
_cell_length_a   5.92562500
_cell_length_b   5.92562500
_cell_length_c   10.67290100
_cell_angle_alpha   90.00000000
_cell_angle_beta   90.00000000
_cell_angle_gamma   90.00000000
_symmetry_Int_Tables_number   1
_chemical_formula_structural   Hg(AuF4)2
_chemical_formula_sum   'Hg2 Au4 F16'
_cell_volume   374.75791051
_cell_formula_units_Z   2
loop_
 _symmetry_equiv_pos_site_id
 _symmetry_equiv_pos_as_xyz
  1  'x, y, z'
loop_
 _atom_site_type_symbol
 _atom_site_label
 _atom_site_symmetry_multiplicity
 _atom_site_fract_x
 _atom_site_fract_y
 _atom_site_fract_z
 _atom_site_occupancy
  Hg  Hg0  1  0.00000000  0.00000000  0.75000000  1
  Hg  Hg1  1  0.00000000  0.00000000  0.25000000  1
  Au  Au2  1  0.50000000  0.00000000  0.50000000  1
  Au  Au3  1  0.00000000  0.50000000  0.50000000  1
  Au  Au4  1  0.50000000  0.00000000  0.00000000  1
  Au  Au5  1  0.00000000  0.50000000  0.00000000  1
  F  F6  1  0.68696800  0.84944400  0.62811800  1
  F  F7  1  0.31303200  0.15055600  0.62811800  1
  F  F8  1  0.84944400  0.68696800  0.87188200  1
  F  F9  1  0.84944400  0.31303200  0.62811800  1
  F  F10  1  0.15055600  0.68696800  0.62811800  1
  F  F11  1  0.31303200  0.84944400  0.87188200  1
  F  F12  1  0.84944400  0.68696800  0.12811800  1
  F  F13  1  0.31303200  0.84944400  0.12811800  1
  F  F14  1  0.68696800  0.15055600  0.12811800  1
  F  F15  1  0.84944400  0.31303200  0.37188200  1
  F  F16  1  0.15055600  0.68696800  0.37188200  1
  F  F17  1  0.15055600  0.31303200  0.12811800  1
  F  F18  1  0.68696800  0.84944400  0.37188200  1
  F  F19  1  0.31303200  0.15055600  0.37188200  1
  F  F20  1  0.15055600  0.31303200  0.87188200  1
  F  F21  1  0.68696800  0.15055600  0.87188200  1
