# generated using pymatgen
data_TlReO4
_symmetry_space_group_name_H-M   'P 1'
_cell_length_a   13.58043000
_cell_length_b   5.83672100
_cell_length_c   17.83026584
_cell_angle_alpha   89.39535540
_cell_angle_beta   90.00000000
_cell_angle_gamma   90.00000000
_symmetry_Int_Tables_number   1
_chemical_formula_structural   TlReO4
_chemical_formula_sum   'Tl12 Re12 O48'
_cell_volume   1413.24055091
_cell_formula_units_Z   12
loop_
 _symmetry_equiv_pos_site_id
 _symmetry_equiv_pos_as_xyz
  1  'x, y, z'
loop_
 _atom_site_type_symbol
 _atom_site_label
 _atom_site_symmetry_multiplicity
 _atom_site_fract_x
 _atom_site_fract_y
 _atom_site_fract_z
 _atom_site_occupancy
  Tl  Tl0  1  0.37086800  0.52074900  0.57994000  1
  Tl  Tl1  1  0.87086800  0.97925100  0.42006000  1
  Tl  Tl2  1  0.62913200  0.47925100  0.42006000  1
  Tl  Tl3  1  0.12913200  0.02074900  0.57994000  1
  Tl  Tl4  1  0.37000400  0.49225500  0.25244000  1
  Tl  Tl5  1  0.87000400  0.00774500  0.74756000  1
  Tl  Tl6  1  0.62999600  0.50774500  0.74756000  1
  Tl  Tl7  1  0.12999600  0.99225500  0.25244000  1
  Tl  Tl8  1  0.37587100  0.50768500  0.91469900  1
  Tl  Tl9  1  0.87587100  0.99231500  0.08530100  1
  Tl  Tl10  1  0.62412900  0.49231500  0.08530100  1
  Tl  Tl11  1  0.12412900  0.00768500  0.91469900  1
  Re  Re12  1  0.11517100  0.52995800  0.41679700  1
  Re  Re13  1  0.61517100  0.97004200  0.58320300  1
  Re  Re14  1  0.88482900  0.47004200  0.58320300  1
  Re  Re15  1  0.38482900  0.02995800  0.41679700  1
  Re  Re16  1  0.12637500  0.49486700  0.08264600  1
  Re  Re17  1  0.62637500  0.00513300  0.91735400  1
  Re  Re18  1  0.87362500  0.50513300  0.91735400  1
  Re  Re19  1  0.37362500  0.99486700  0.08264600  1
  Re  Re20  1  0.12338500  0.51426800  0.74944400  1
  Re  Re21  1  0.62338500  0.98573200  0.25055600  1
  Re  Re22  1  0.87661500  0.48573200  0.25055600  1
  Re  Re23  1  0.37661500  0.01426800  0.74944400  1
  O  O24  1  0.80990600  0.55936600  0.50805900  1
  O  O25  1  0.30990600  0.94063400  0.49194100  1
  O  O26  1  0.19009400  0.44063400  0.49194100  1
  O  O27  1  0.69009400  0.05936600  0.50805900  1
  O  O28  1  0.82319800  0.51628000  0.66849000  1
  O  O29  1  0.32319800  0.98372000  0.33151000  1
  O  O30  1  0.17680200  0.48372000  0.33151000  1
  O  O31  1  0.67680200  0.01628000  0.66849000  1
  O  O32  1  0.99348600  0.63195600  0.58176200  1
  O  O33  1  0.49348600  0.86804400  0.41823800  1
  O  O34  1  0.00651400  0.36804400  0.41823800  1
  O  O35  1  0.50651400  0.13195600  0.58176200  1
  O  O36  1  0.91221500  0.17627300  0.57548500  1
  O  O37  1  0.41221500  0.32372700  0.42451500  1
  O  O38  1  0.08778500  0.82372700  0.42451500  1
  O  O39  1  0.58778500  0.67627300  0.57548500  1
  O  O40  1  0.70193600  0.13062600  0.84822600  1
  O  O41  1  0.45054300  0.78211400  0.04535400  1
  O  O42  1  0.20193600  0.36937400  0.15177400  1
  O  O43  1  0.79806400  0.63062600  0.84822600  1
  O  O44  1  0.55539300  0.78718800  0.87671500  1
  O  O45  1  0.05539300  0.71281200  0.12328500  1
  O  O46  1  0.44460700  0.21281200  0.12328500  1
  O  O47  1  0.94460700  0.28718800  0.87671500  1
  O  O48  1  0.20107100  0.62999200  0.68002600  1
  O  O49  1  0.70107100  0.87000800  0.31997400  1
  O  O50  1  0.79892900  0.37000800  0.31997400  1
  O  O51  1  0.29892900  0.12999200  0.68002600  1
  O  O52  1  0.04150400  0.72884600  0.77888900  1
  O  O53  1  0.54150400  0.77115400  0.22111100  1
  O  O54  1  0.95849600  0.27115400  0.22111100  1
  O  O55  1  0.45849600  0.22884600  0.77888900  1
  O  O56  1  0.19319300  0.42048900  0.82696300  1
  O  O57  1  0.69319300  0.07951100  0.17303700  1
  O  O58  1  0.80680700  0.57951100  0.17303700  1
  O  O59  1  0.30680700  0.92048900  0.82696300  1
  O  O60  1  0.05774900  0.28109900  0.71311500  1
  O  O61  1  0.55774900  0.21890100  0.28688500  1
  O  O62  1  0.94225100  0.71890100  0.28688500  1
  O  O63  1  0.44225100  0.78109900  0.71311500  1
  O  O64  1  0.80179000  0.38732200  0.99009300  1
  O  O65  1  0.30179000  0.11267800  0.00990700  1
  O  O66  1  0.19821000  0.61267800  0.00990700  1
  O  O67  1  0.69821000  0.88732200  0.99009300  1
  O  O68  1  0.04945700  0.28211400  0.04535400  1
  O  O69  1  0.54945700  0.21788600  0.95464600  1
  O  O70  1  0.95054300  0.71788600  0.95464600  1
  O  O71  1  0.29806400  0.86937400  0.15177400  1
