# generated using pymatgen
data_Gd2CBr
_symmetry_space_group_name_H-M   'P 1'
_cell_length_a   3.73060551
_cell_length_b   3.73060551
_cell_length_c   14.39714700
_cell_angle_alpha   90.00000000
_cell_angle_beta   90.00000000
_cell_angle_gamma   119.99999128
_symmetry_Int_Tables_number   1
_chemical_formula_structural   Gd2CBr
_chemical_formula_sum   'Gd4 C2 Br2'
_cell_volume   173.52648239
_cell_formula_units_Z   2
loop_
 _symmetry_equiv_pos_site_id
 _symmetry_equiv_pos_as_xyz
  1  'x, y, z'
loop_
 _atom_site_type_symbol
 _atom_site_label
 _atom_site_symmetry_multiplicity
 _atom_site_fract_x
 _atom_site_fract_y
 _atom_site_fract_z
 _atom_site_occupancy
  Gd  Gd0  1  0.33333300  0.66666700  0.09016800  1
  Gd  Gd1  1  0.66666700  0.33333300  0.59016800  1
  Gd  Gd2  1  0.66666700  0.33333300  0.90983200  1
  Gd  Gd3  1  0.33333300  0.66666700  0.40983200  1
  C  C4  1  0.00000000  0.00000000  0.00000000  1
  C  C5  1  0.00000000  0.00000000  0.50000000  1
  Br  Br6  1  0.33333300  0.66666700  0.75000000  1
  Br  Br7  1  0.66666700  0.33333300  0.25000000  1
