# generated using pymatgen
data_Mn4Be3Ge3SeO12
_symmetry_space_group_name_H-M   'P 1'
_cell_length_a   8.61585000
_cell_length_b   8.61585000
_cell_length_c   8.61585000
_cell_angle_alpha   90.00000000
_cell_angle_beta   90.00000000
_cell_angle_gamma   90.00000000
_symmetry_Int_Tables_number   1
_chemical_formula_structural   Mn4Be3Ge3SeO12
_chemical_formula_sum   'Mn8 Be6 Ge6 Se2 O24'
_cell_volume   639.57928352
_cell_formula_units_Z   2
loop_
 _symmetry_equiv_pos_site_id
 _symmetry_equiv_pos_as_xyz
  1  'x, y, z'
loop_
 _atom_site_type_symbol
 _atom_site_label
 _atom_site_symmetry_multiplicity
 _atom_site_fract_x
 _atom_site_fract_y
 _atom_site_fract_z
 _atom_site_occupancy
  Mn  Mn0  1  0.67392100  0.67392100  0.67392100  1
  Mn  Mn1  1  0.82607900  0.17392100  0.82607900  1
  Mn  Mn2  1  0.17392100  0.82607900  0.82607900  1
  Mn  Mn3  1  0.82607900  0.82607900  0.17392100  1
  Mn  Mn4  1  0.67392100  0.32607900  0.32607900  1
  Mn  Mn5  1  0.32607900  0.32607900  0.67392100  1
  Mn  Mn6  1  0.17392100  0.17392100  0.17392100  1
  Mn  Mn7  1  0.32607900  0.67392100  0.32607900  1
  Be  Be8  1  0.25000000  0.50000000  0.00000000  1
  Be  Be9  1  0.50000000  0.00000000  0.75000000  1
  Be  Be10  1  0.50000000  0.00000000  0.25000000  1
  Be  Be11  1  0.00000000  0.25000000  0.50000000  1
  Be  Be12  1  0.00000000  0.75000000  0.50000000  1
  Be  Be13  1  0.75000000  0.50000000  0.00000000  1
  Ge  Ge14  1  0.25000000  0.00000000  0.50000000  1
  Ge  Ge15  1  0.50000000  0.75000000  0.00000000  1
  Ge  Ge16  1  0.50000000  0.25000000  0.00000000  1
  Ge  Ge17  1  0.00000000  0.50000000  0.25000000  1
  Ge  Ge18  1  0.00000000  0.50000000  0.75000000  1
  Ge  Ge19  1  0.75000000  0.00000000  0.50000000  1
  Se  Se20  1  0.00000000  0.00000000  0.00000000  1
  Se  Se21  1  0.50000000  0.50000000  0.50000000  1
  O  O22  1  0.13606000  0.85282400  0.58759900  1
  O  O23  1  0.63606000  0.08759900  0.35282400  1
  O  O24  1  0.91240100  0.64717600  0.63606000  1
  O  O25  1  0.08759900  0.64717600  0.36394000  1
  O  O26  1  0.64717600  0.63606000  0.91240100  1
  O  O27  1  0.35282400  0.36394000  0.91240100  1
  O  O28  1  0.86394000  0.85282400  0.41240100  1
  O  O29  1  0.86394000  0.14717600  0.58759900  1
  O  O30  1  0.63606000  0.91240100  0.64717600  1
  O  O31  1  0.14717600  0.58759900  0.86394000  1
  O  O32  1  0.58759900  0.13606000  0.85282400  1
  O  O33  1  0.58759900  0.86394000  0.14717600  1
  O  O34  1  0.85282400  0.41240100  0.86394000  1
  O  O35  1  0.41240100  0.86394000  0.85282400  1
  O  O36  1  0.13606000  0.14717600  0.41240100  1
  O  O37  1  0.36394000  0.91240100  0.35282400  1
  O  O38  1  0.36394000  0.08759900  0.64717600  1
  O  O39  1  0.85282400  0.58759900  0.13606000  1
  O  O40  1  0.91240100  0.35282400  0.36394000  1
  O  O41  1  0.64717600  0.36394000  0.08759900  1
  O  O42  1  0.35282400  0.63606000  0.08759900  1
  O  O43  1  0.41240100  0.13606000  0.14717600  1
  O  O44  1  0.14717600  0.41240100  0.13606000  1
  O  O45  1  0.08759900  0.35282400  0.63606000  1
