# generated using pymatgen
data_SICl7
_symmetry_space_group_name_H-M   'P 1'
_cell_length_a   13.04998800
_cell_length_b   8.87679000
_cell_length_c   10.58883482
_cell_angle_alpha   71.97372947
_cell_angle_beta   90.00000000
_cell_angle_gamma   90.00000000
_symmetry_Int_Tables_number   1
_chemical_formula_structural   SICl7
_chemical_formula_sum   'S4 I4 Cl28'
_cell_volume   1166.42227951
_cell_formula_units_Z   4
loop_
 _symmetry_equiv_pos_site_id
 _symmetry_equiv_pos_as_xyz
  1  'x, y, z'
loop_
 _atom_site_type_symbol
 _atom_site_label
 _atom_site_symmetry_multiplicity
 _atom_site_fract_x
 _atom_site_fract_y
 _atom_site_fract_z
 _atom_site_occupancy
  S  S0  1  0.91944200  0.76349700  0.13424200  1
  S  S1  1  0.58055800  0.26349700  0.13424200  1
  S  S2  1  0.08055800  0.23650300  0.86575800  1
  S  S3  1  0.41944200  0.73650300  0.86575800  1
  I  I4  1  0.60209200  0.34596400  0.73227100  1
  I  I5  1  0.10209200  0.15403600  0.26772900  1
  I  I6  1  0.39790800  0.65403600  0.26772900  1
  I  I7  1  0.89790800  0.84596400  0.73227100  1
  Cl  Cl8  1  0.72082200  0.41361300  0.90233900  1
  Cl  Cl9  1  0.77917800  0.91361300  0.90233900  1
  Cl  Cl10  1  0.27917800  0.58638700  0.09766100  1
  Cl  Cl11  1  0.22082200  0.08638700  0.09766100  1
  Cl  Cl12  1  0.89439600  0.55549900  0.09784900  1
  Cl  Cl13  1  0.39439600  0.94450100  0.90215100  1
  Cl  Cl14  1  0.10560400  0.44450100  0.90215100  1
  Cl  Cl15  1  0.60560400  0.05549900  0.09784900  1
  Cl  Cl16  1  0.81103800  0.75097600  0.27467400  1
  Cl  Cl17  1  0.31103800  0.74902400  0.72532600  1
  Cl  Cl18  1  0.18896200  0.24902400  0.72532600  1
  Cl  Cl19  1  0.68896200  0.25097600  0.27467400  1
  Cl  Cl20  1  0.04850800  0.71241700  0.24653700  1
  Cl  Cl21  1  0.54850800  0.78758300  0.75346300  1
  Cl  Cl22  1  0.95149200  0.28758300  0.75346300  1
  Cl  Cl23  1  0.45149200  0.21241700  0.24653700  1
  Cl  Cl24  1  0.04869300  0.86495500  0.88924800  1
  Cl  Cl25  1  0.54869300  0.63504500  0.11075200  1
  Cl  Cl26  1  0.95130700  0.13504500  0.11075200  1
  Cl  Cl27  1  0.45130700  0.36495500  0.88924800  1
  Cl  Cl28  1  0.74999900  0.83445300  0.58779200  1
  Cl  Cl29  1  0.24999900  0.66554700  0.41220800  1
  Cl  Cl30  1  0.25000100  0.16554700  0.41220800  1
  Cl  Cl31  1  0.75000100  0.33445300  0.58779200  1
  Cl  Cl32  1  0.02151800  0.77216900  0.58421600  1
  Cl  Cl33  1  0.52151800  0.72783100  0.41578400  1
  Cl  Cl34  1  0.97848200  0.22783100  0.41578400  1
  Cl  Cl35  1  0.47848200  0.27216900  0.58421600  1
