# generated using pymatgen
data_SmCoGe
_symmetry_space_group_name_H-M   'P 1'
_cell_length_a   4.35674000
_cell_length_b   7.00722100
_cell_length_c   7.19188300
_cell_angle_alpha   90.00000000
_cell_angle_beta   90.00000000
_cell_angle_gamma   90.00000000
_symmetry_Int_Tables_number   1
_chemical_formula_structural   SmCoGe
_chemical_formula_sum   'Sm4 Co4 Ge4'
_cell_volume   219.55840717
_cell_formula_units_Z   4
loop_
 _symmetry_equiv_pos_site_id
 _symmetry_equiv_pos_as_xyz
  1  'x, y, z'
loop_
 _atom_site_type_symbol
 _atom_site_label
 _atom_site_symmetry_multiplicity
 _atom_site_fract_x
 _atom_site_fract_y
 _atom_site_fract_z
 _atom_site_occupancy
  Sm  Sm0  1  0.25000000  0.68769800  0.97766700  1
  Sm  Sm1  1  0.75000000  0.31230200  0.02233300  1
  Sm  Sm2  1  0.75000000  0.18769800  0.52233300  1
  Sm  Sm3  1  0.25000000  0.81230200  0.47766700  1
  Co  Co4  1  0.75000000  0.56782400  0.35644700  1
  Co  Co5  1  0.75000000  0.93217600  0.85644700  1
  Co  Co6  1  0.25000000  0.06782400  0.14355300  1
  Co  Co7  1  0.25000000  0.43217600  0.64355300  1
  Ge  Ge8  1  0.75000000  0.60664600  0.69454700  1
  Ge  Ge9  1  0.75000000  0.89335400  0.19454700  1
  Ge  Ge10  1  0.25000000  0.10664600  0.80545300  1
  Ge  Ge11  1  0.25000000  0.39335400  0.30545300  1
