# generated using pymatgen
data_KSn2Br5
_symmetry_space_group_name_H-M   'P 1'
_cell_length_a   9.62016636
_cell_length_b   9.62016636
_cell_length_c   9.62016636
_cell_angle_alpha   127.70749061
_cell_angle_beta   127.70749061
_cell_angle_gamma   77.09936305
_symmetry_Int_Tables_number   1
_chemical_formula_structural   KSn2Br5
_chemical_formula_sum   'K2 Sn4 Br10'
_cell_volume   540.83830583
_cell_formula_units_Z   2
loop_
 _symmetry_equiv_pos_site_id
 _symmetry_equiv_pos_as_xyz
  1  'x, y, z'
loop_
 _atom_site_type_symbol
 _atom_site_label
 _atom_site_symmetry_multiplicity
 _atom_site_fract_x
 _atom_site_fract_y
 _atom_site_fract_z
 _atom_site_occupancy
  K  K0  1  0.25000000  0.25000000  0.00000000  1
  K  K1  1  0.75000000  0.75000000  0.00000000  1
  Sn  Sn2  1  0.67702300  0.17702300  0.85404600  1
  Sn  Sn3  1  0.32297700  0.82297700  0.14595400  1
  Sn  Sn4  1  0.82297700  0.67702300  0.50000000  1
  Sn  Sn5  1  0.17702300  0.32297700  0.50000000  1
  Br  Br6  1  0.29643400  0.79643400  0.82525900  1
  Br  Br7  1  0.70356600  0.20356600  0.17474100  1
  Br  Br8  1  0.97117500  0.47117500  0.17474100  1
  Br  Br9  1  0.02882500  0.52882500  0.82525900  1
  Br  Br10  1  0.00000000  0.00000000  0.00000000  1
  Br  Br11  1  0.50000000  0.50000000  0.00000000  1
  Br  Br12  1  0.52882500  0.70356600  0.50000000  1
  Br  Br13  1  0.47117500  0.29643400  0.50000000  1
  Br  Br14  1  0.20356600  0.02882500  0.50000000  1
  Br  Br15  1  0.79643400  0.97117500  0.50000000  1
