# generated using pymatgen
data_NaGaH4
_symmetry_space_group_name_H-M   'P 1'
_cell_length_a   4.81948723
_cell_length_b   4.81948723
_cell_length_c   7.08934700
_cell_angle_alpha   90.00000000
_cell_angle_beta   90.00000000
_cell_angle_gamma   94.69510954
_symmetry_Int_Tables_number   1
_chemical_formula_structural   NaGaH4
_chemical_formula_sum   'Na2 Ga2 H8'
_cell_volume   164.11494151
_cell_formula_units_Z   2
loop_
 _symmetry_equiv_pos_site_id
 _symmetry_equiv_pos_as_xyz
  1  'x, y, z'
loop_
 _atom_site_type_symbol
 _atom_site_label
 _atom_site_symmetry_multiplicity
 _atom_site_fract_x
 _atom_site_fract_y
 _atom_site_fract_z
 _atom_site_occupancy
  Na  Na0  1  0.33805100  0.33805100  0.25000000  1
  Na  Na1  1  0.66194900  0.66194900  0.75000000  1
  Ga  Ga2  1  0.83192300  0.83192300  0.25000000  1
  Ga  Ga3  1  0.16807700  0.16807700  0.75000000  1
  H  H4  1  0.84276300  0.20838300  0.75000000  1
  H  H5  1  0.15723700  0.79161700  0.25000000  1
  H  H6  1  0.20838300  0.84276300  0.75000000  1
  H  H7  1  0.79161700  0.15723700  0.25000000  1
  H  H8  1  0.68510500  0.68510500  0.43004400  1
  H  H9  1  0.31489500  0.31489500  0.93004400  1
  H  H10  1  0.68510500  0.68510500  0.06995600  1
  H  H11  1  0.31489500  0.31489500  0.56995600  1
