# generated using pymatgen
data_K2Mn3S4
_symmetry_space_group_name_H-M   'P 1'
_cell_length_a   6.02701200
_cell_length_b   7.31283700
_cell_length_c   11.14605001
_cell_angle_alpha   67.67333054
_cell_angle_beta   90.00000000
_cell_angle_gamma   90.00000000
_symmetry_Int_Tables_number   1
_chemical_formula_structural   K2Mn3S4
_chemical_formula_sum   'K4 Mn6 S8'
_cell_volume   454.42912659
_cell_formula_units_Z   2
loop_
 _symmetry_equiv_pos_site_id
 _symmetry_equiv_pos_as_xyz
  1  'x, y, z'
loop_
 _atom_site_type_symbol
 _atom_site_label
 _atom_site_symmetry_multiplicity
 _atom_site_fract_x
 _atom_site_fract_y
 _atom_site_fract_z
 _atom_site_occupancy
  K  K0  1  0.49449600  0.50000000  0.75000000  1
  K  K1  1  0.00000000  0.50000000  0.50000000  1
  K  K2  1  0.00000000  0.50000000  0.00000000  1
  K  K3  1  0.50550400  0.50000000  0.25000000  1
  Mn  Mn4  1  0.24996200  0.00128400  0.52913400  1
  Mn  Mn5  1  0.24996200  0.99871600  0.97086600  1
  Mn  Mn6  1  0.75003800  0.99871600  0.47086600  1
  Mn  Mn7  1  0.75003800  0.00128400  0.02913400  1
  Mn  Mn8  1  0.24940000  0.00000000  0.25000000  1
  Mn  Mn9  1  0.75060000  0.00000000  0.75000000  1
  S  S10  1  0.53463400  0.79187700  0.93688100  1
  S  S11  1  0.03255700  0.79216600  0.16696400  1
  S  S12  1  0.03255700  0.20783400  0.33303600  1
  S  S13  1  0.53463400  0.20812300  0.56311900  1
  S  S14  1  0.96744300  0.79216600  0.66696400  1
  S  S15  1  0.96744300  0.20783400  0.83303600  1
  S  S16  1  0.46536600  0.79187700  0.43688100  1
  S  S17  1  0.46536600  0.20812300  0.06311900  1
