# generated using pymatgen
data_CsSnCl3
_symmetry_space_group_name_H-M   'P 1'
_cell_length_a   7.91253300
_cell_length_b   5.84800300
_cell_length_c   17.10394541
_cell_angle_alpha   72.79715727
_cell_angle_beta   90.00000000
_cell_angle_gamma   90.00000000
_symmetry_Int_Tables_number   1
_chemical_formula_structural   CsSnCl3
_chemical_formula_sum   'Cs4 Sn4 Cl12'
_cell_volume   756.03637822
_cell_formula_units_Z   4
loop_
 _symmetry_equiv_pos_site_id
 _symmetry_equiv_pos_as_xyz
  1  'x, y, z'
loop_
 _atom_site_type_symbol
 _atom_site_label
 _atom_site_symmetry_multiplicity
 _atom_site_fract_x
 _atom_site_fract_y
 _atom_site_fract_z
 _atom_site_occupancy
  Cs  Cs0  1  0.00722600  0.59936400  0.65202300  1
  Cs  Cs1  1  0.50722600  0.40063600  0.84797700  1
  Cs  Cs2  1  0.99277400  0.40063600  0.34797700  1
  Cs  Cs3  1  0.49277400  0.59936400  0.15202300  1
  Sn  Sn4  1  0.95743200  0.86880200  0.88689200  1
  Sn  Sn5  1  0.45743200  0.13119800  0.61310800  1
  Sn  Sn6  1  0.04256800  0.13119800  0.11310800  1
  Sn  Sn7  1  0.54256800  0.86880200  0.38689200  1
  Cl  Cl8  1  0.96726900  0.43356200  0.87528900  1
  Cl  Cl9  1  0.46726900  0.56643800  0.62471100  1
  Cl  Cl10  1  0.03273100  0.56643800  0.12471100  1
  Cl  Cl11  1  0.53273100  0.43356200  0.37528900  1
  Cl  Cl12  1  0.66701800  0.81054800  0.95462700  1
  Cl  Cl13  1  0.16701800  0.18945200  0.54537300  1
  Cl  Cl14  1  0.33298200  0.18945200  0.04537300  1
  Cl  Cl15  1  0.83298200  0.81054800  0.45462700  1
  Cl  Cl16  1  0.68885900  0.02078600  0.24686500  1
  Cl  Cl17  1  0.18885900  0.97921400  0.25313500  1
  Cl  Cl18  1  0.31114100  0.97921400  0.75313500  1
  Cl  Cl19  1  0.81114100  0.02078600  0.74686500  1
