# generated using pymatgen
data_BiSCl
_symmetry_space_group_name_H-M   'P 1'
_cell_length_a   4.02616000
_cell_length_b   8.04963700
_cell_length_c   10.49309400
_cell_angle_alpha   90.00000000
_cell_angle_beta   90.00000000
_cell_angle_gamma   90.00000000
_symmetry_Int_Tables_number   1
_chemical_formula_structural   BiSCl
_chemical_formula_sum   'Bi4 S4 Cl4'
_cell_volume   340.07201086
_cell_formula_units_Z   4
loop_
 _symmetry_equiv_pos_site_id
 _symmetry_equiv_pos_as_xyz
  1  'x, y, z'
loop_
 _atom_site_type_symbol
 _atom_site_label
 _atom_site_symmetry_multiplicity
 _atom_site_fract_x
 _atom_site_fract_y
 _atom_site_fract_z
 _atom_site_occupancy
  Bi  Bi0  1  0.25000000  0.12104900  0.13375600  1
  Bi  Bi1  1  0.75000000  0.87895100  0.86624400  1
  Bi  Bi2  1  0.25000000  0.62104900  0.36624400  1
  Bi  Bi3  1  0.75000000  0.37895100  0.63375600  1
  S  S4  1  0.75000000  0.17992900  0.96147000  1
  S  S5  1  0.25000000  0.32007100  0.46147000  1
  S  S6  1  0.75000000  0.67992900  0.53853000  1
  S  S7  1  0.25000000  0.82007100  0.03853000  1
  Cl  Cl8  1  0.25000000  0.02812400  0.70355200  1
  Cl  Cl9  1  0.75000000  0.47187600  0.20355200  1
  Cl  Cl10  1  0.25000000  0.52812400  0.79644800  1
  Cl  Cl11  1  0.75000000  0.97187600  0.29644800  1
