# generated using pymatgen
data_FeNi2BO5
_symmetry_space_group_name_H-M   'P 1'
_cell_length_a   3.03659500
_cell_length_b   9.32560800
_cell_length_c   12.35701000
_cell_angle_alpha   90.00000000
_cell_angle_beta   90.00000000
_cell_angle_gamma   90.00000000
_symmetry_Int_Tables_number   1
_chemical_formula_structural   FeNi2BO5
_chemical_formula_sum   'Fe4 Ni8 B4 O20'
_cell_volume   349.92697846
_cell_formula_units_Z   4
loop_
 _symmetry_equiv_pos_site_id
 _symmetry_equiv_pos_as_xyz
  1  'x, y, z'
loop_
 _atom_site_type_symbol
 _atom_site_label
 _atom_site_symmetry_multiplicity
 _atom_site_fract_x
 _atom_site_fract_y
 _atom_site_fract_z
 _atom_site_occupancy
  Fe  Fe0  1  0.00000000  0.26028000  0.61457200  1
  Fe  Fe1  1  0.00000000  0.73972000  0.38542800  1
  Fe  Fe2  1  0.00000000  0.76028000  0.88542800  1
  Fe  Fe3  1  0.00000000  0.23971900  0.11457100  1
  Ni  Ni4  1  0.50000100  0.50000000  0.50000000  1
  Ni  Ni5  1  0.00000000  0.50000000  0.00000000  1
  Ni  Ni6  1  0.00000000  0.00000000  0.50000000  1
  Ni  Ni7  1  0.50000100  0.00000000  0.00000000  1
  Ni  Ni8  1  0.50000100  0.49927500  0.78207700  1
  Ni  Ni9  1  0.50000100  0.50072500  0.21792300  1
  Ni  Ni10  1  0.50000100  0.99927600  0.71792300  1
  Ni  Ni11  1  0.50000100  0.00072400  0.28207700  1
  B  B12  1  0.00000000  0.27334800  0.36025900  1
  B  B13  1  0.00000000  0.22665300  0.86025900  1
  B  B14  1  0.00000000  0.77334800  0.13974200  1
  B  B15  1  0.00000000  0.72665200  0.63974200  1
  O  O16  1  0.00000000  0.12504700  0.35893800  1
  O  O17  1  0.50000100  0.88364000  0.42243400  1
  O  O18  1  0.50000100  0.61636000  0.92243300  1
  O  O19  1  0.50000100  0.38364000  0.07756700  1
  O  O20  1  0.00000000  0.37495300  0.85893800  1
  O  O21  1  0.00000000  0.62504700  0.14106300  1
  O  O22  1  0.00000000  0.87495300  0.64106200  1
  O  O23  1  0.50000100  0.11636000  0.57756700  1
  O  O24  1  0.00000000  0.15160000  0.76281600  1
  O  O25  1  0.00000000  0.34840000  0.26281500  1
  O  O26  1  0.00000000  0.65159900  0.73718400  1
  O  O27  1  0.00000000  0.84840000  0.23718500  1
  O  O28  1  0.00000000  0.15078600  0.95759500  1
  O  O29  1  0.00000000  0.84921400  0.04240400  1
  O  O30  1  0.50000100  0.39260500  0.64330300  1
  O  O31  1  0.00000000  0.34921300  0.45759500  1
  O  O32  1  0.50000100  0.10739500  0.14330200  1
  O  O33  1  0.50000100  0.89260600  0.85669700  1
  O  O34  1  0.50000100  0.60739500  0.35669700  1
  O  O35  1  0.00000000  0.65078700  0.54240400  1
