# generated using pymatgen
data_Y4RuI5
_symmetry_space_group_name_H-M   'P 1'
_cell_length_a   12.43559600
_cell_length_b   12.43559600
_cell_length_c   18.35522000
_cell_angle_alpha   90.00000000
_cell_angle_beta   90.00000000
_cell_angle_gamma   90.00000000
_symmetry_Int_Tables_number   1
_chemical_formula_structural   Y4RuI5
_chemical_formula_sum   'Y32 Ru8 I40'
_cell_volume   2838.52552044
_cell_formula_units_Z   8
loop_
 _symmetry_equiv_pos_site_id
 _symmetry_equiv_pos_as_xyz
  1  'x, y, z'
loop_
 _atom_site_type_symbol
 _atom_site_label
 _atom_site_symmetry_multiplicity
 _atom_site_fract_x
 _atom_site_fract_y
 _atom_site_fract_z
 _atom_site_occupancy
  Y  Y0  1  0.88737200  0.11262800  0.21795500  1
  Y  Y1  1  0.38737200  0.38737200  0.71795500  1
  Y  Y2  1  0.61262800  0.61262800  0.71795500  1
  Y  Y3  1  0.88737200  0.88737200  0.78204500  1
  Y  Y4  1  0.11262800  0.11262800  0.78204500  1
  Y  Y5  1  0.11262800  0.88737200  0.21795500  1
  Y  Y6  1  0.61262800  0.38737200  0.28204500  1
  Y  Y7  1  0.38737200  0.61262800  0.28204500  1
  Y  Y8  1  0.37760400  0.62239600  0.58448800  1
  Y  Y9  1  0.87760400  0.87760400  0.08448800  1
  Y  Y10  1  0.12239600  0.12239600  0.08448800  1
  Y  Y11  1  0.37760400  0.37760400  0.41551200  1
  Y  Y12  1  0.62239600  0.62239600  0.41551200  1
  Y  Y13  1  0.62239600  0.37760400  0.58448800  1
  Y  Y14  1  0.12239600  0.87760400  0.91551200  1
  Y  Y15  1  0.87760400  0.12239600  0.91551200  1
  Y  Y16  1  0.68002500  0.11484700  0.07526000  1
  Y  Y17  1  0.38515300  0.18002500  0.57526000  1
  Y  Y18  1  0.61484700  0.81997500  0.57526000  1
  Y  Y19  1  0.68002500  0.88515300  0.92474000  1
  Y  Y20  1  0.31997500  0.11484700  0.92474000  1
  Y  Y21  1  0.31997500  0.88515300  0.07526000  1
  Y  Y22  1  0.61484700  0.18002500  0.42474000  1
  Y  Y23  1  0.38515300  0.81997500  0.42474000  1
  Y  Y24  1  0.81997500  0.38515300  0.42474000  1
  Y  Y25  1  0.11484700  0.31997500  0.92474000  1
  Y  Y26  1  0.88515300  0.68002500  0.92474000  1
  Y  Y27  1  0.81997500  0.61484700  0.57526000  1
  Y  Y28  1  0.18002500  0.38515300  0.57526000  1
  Y  Y29  1  0.18002500  0.61484700  0.42474000  1
  Y  Y30  1  0.88515300  0.31997500  0.07526000  1
  Y  Y31  1  0.11484700  0.68002500  0.07526000  1
  Ru  Ru32  1  0.89583100  0.10416900  0.07036400  1
  Ru  Ru33  1  0.39583100  0.39583100  0.57036400  1
  Ru  Ru34  1  0.60416900  0.60416900  0.57036400  1
  Ru  Ru35  1  0.89583100  0.89583100  0.92963600  1
  Ru  Ru36  1  0.10416900  0.10416900  0.92963600  1
  Ru  Ru37  1  0.10416900  0.89583100  0.07036400  1
  Ru  Ru38  1  0.60416900  0.39583100  0.42963600  1
  Ru  Ru39  1  0.39583100  0.60416900  0.42963600  1
  I  I40  1  0.60558700  0.87250900  0.08864100  1
  I  I41  1  0.62749100  0.10558700  0.58864100  1
  I  I42  1  0.37250900  0.89441300  0.58864100  1
  I  I43  1  0.60558700  0.12749100  0.91135900  1
  I  I44  1  0.39441300  0.87250900  0.91135900  1
  I  I45  1  0.39441300  0.12749100  0.08864100  1
  I  I46  1  0.37250900  0.10558700  0.41135900  1
  I  I47  1  0.62749100  0.89441300  0.41135900  1
  I  I48  1  0.89441300  0.62749100  0.41135900  1
  I  I49  1  0.87250900  0.39441300  0.91135900  1
  I  I50  1  0.12749100  0.60558700  0.91135900  1
  I  I51  1  0.89441300  0.37250900  0.58864100  1
  I  I52  1  0.10558700  0.62749100  0.58864100  1
  I  I53  1  0.10558700  0.37250900  0.41135900  1
  I  I54  1  0.12749100  0.39441300  0.08864100  1
  I  I55  1  0.87250900  0.60558700  0.08864100  1
  I  I56  1  0.63800500  0.36199500  0.09048100  1
  I  I57  1  0.13800500  0.13800500  0.59048100  1
  I  I58  1  0.86199500  0.86199500  0.59048100  1
  I  I59  1  0.63800500  0.63800500  0.90951900  1
  I  I60  1  0.36199500  0.36199500  0.90951900  1
  I  I61  1  0.36199500  0.63800500  0.09048100  1
  I  I62  1  0.86199500  0.13800500  0.40951900  1
  I  I63  1  0.13800500  0.86199500  0.40951900  1
  I  I64  1  0.36971700  0.63028300  0.76094900  1
  I  I65  1  0.86971700  0.86971700  0.26094900  1
  I  I66  1  0.13028300  0.13028300  0.26094900  1
  I  I67  1  0.36971700  0.36971700  0.23905100  1
  I  I68  1  0.63028300  0.63028300  0.23905100  1
  I  I69  1  0.63028300  0.36971700  0.76094900  1
  I  I70  1  0.13028300  0.86971700  0.73905100  1
  I  I71  1  0.86971700  0.13028300  0.73905100  1
  I  I72  1  0.62988800  0.12988800  0.25000000  1
  I  I73  1  0.37011200  0.12988800  0.75000000  1
  I  I74  1  0.62988800  0.87011200  0.75000000  1
  I  I75  1  0.37011200  0.87011200  0.25000000  1
  I  I76  1  0.87011200  0.37011200  0.25000000  1
  I  I77  1  0.12988800  0.37011200  0.75000000  1
  I  I78  1  0.87011200  0.62988800  0.75000000  1
  I  I79  1  0.12988800  0.62988800  0.25000000  1
