# generated using pymatgen
data_Sm2Ge2Ru
_symmetry_space_group_name_H-M   'P 1'
_cell_length_a   5.94855768
_cell_length_b   5.94855768
_cell_length_c   10.48151752
_cell_angle_alpha   62.99067338
_cell_angle_beta   62.99067338
_cell_angle_gamma   42.78517382
_symmetry_Int_Tables_number   1
_chemical_formula_structural   Sm2Ge2Ru
_chemical_formula_sum   'Sm4 Ge4 Ru2'
_cell_volume   219.93128387
_cell_formula_units_Z   2
loop_
 _symmetry_equiv_pos_site_id
 _symmetry_equiv_pos_as_xyz
  1  'x, y, z'
loop_
 _atom_site_type_symbol
 _atom_site_label
 _atom_site_symmetry_multiplicity
 _atom_site_fract_x
 _atom_site_fract_y
 _atom_site_fract_z
 _atom_site_occupancy
  Sm  Sm0  1  0.31512400  0.31512400  0.11020500  1
  Sm  Sm1  1  0.68487600  0.68487600  0.88979500  1
  Sm  Sm2  1  0.49810400  0.49810400  0.67387800  1
  Sm  Sm3  1  0.50189600  0.50189600  0.32612200  1
  Ge  Ge4  1  0.00611300  0.00611300  0.12659600  1
  Ge  Ge5  1  0.99388700  0.99388700  0.87340400  1
  Ge  Ge6  1  0.84982900  0.84982900  0.56659500  1
  Ge  Ge7  1  0.15017100  0.15017100  0.43340500  1
  Ru  Ru8  1  0.22656800  0.22656800  0.62479100  1
  Ru  Ru9  1  0.77343200  0.77343200  0.37520900  1
