# generated using pymatgen
data_CoP4H16(NO8)2
_symmetry_space_group_name_H-M   'P 1'
_cell_length_a   7.16463200
_cell_length_b   7.40126052
_cell_length_c   7.82042418
_cell_angle_alpha   98.89680196
_cell_angle_beta   109.04948153
_cell_angle_gamma   90.02146678
_symmetry_Int_Tables_number   1
_chemical_formula_structural   CoP4H16(NO8)2
_chemical_formula_sum   'Co1 P4 H16 N2 O16'
_cell_volume   386.69530589
_cell_formula_units_Z   1
loop_
 _symmetry_equiv_pos_site_id
 _symmetry_equiv_pos_as_xyz
  1  'x, y, z'
loop_
 _atom_site_type_symbol
 _atom_site_label
 _atom_site_symmetry_multiplicity
 _atom_site_fract_x
 _atom_site_fract_y
 _atom_site_fract_z
 _atom_site_occupancy
  Co  Co0  1  0.00000000  0.50000000  0.00000000  1
  P  P1  1  0.83756200  0.25073400  0.26173400  1
  P  P2  1  0.16243800  0.74926600  0.73826600  1
  P  P3  1  0.75365100  0.78228200  0.73880900  1
  P  P4  1  0.24634900  0.21771800  0.26119100  1
  H  H5  1  0.64909400  0.82826200  0.18897300  1
  H  H6  1  0.35090600  0.17173800  0.81102700  1
  H  H7  1  0.67238700  0.59883400  0.17631400  1
  H  H8  1  0.32761300  0.40116600  0.82368600  1
  H  H9  1  0.56928100  0.71465000  0.32549300  1
  H  H10  1  0.55427100  0.31775100  0.90444000  1
  H  H11  1  0.11822600  0.70438000  0.34176200  1
  H  H12  1  0.88177400  0.29562000  0.65823800  1
  H  H13  1  0.12049100  0.83681900  0.19817900  1
  H  H14  1  0.43214300  0.73304200  0.57471400  1
  H  H15  1  0.56785700  0.26695800  0.42528600  1
  H  H16  1  0.87950900  0.16318100  0.80182100  1
  H  H17  1  0.76269000  0.01761500  0.02625200  1
  H  H18  1  0.23731000  0.98238500  0.97374800  1
  H  H19  1  0.43071900  0.28535000  0.67450700  1
  H  H20  1  0.44572900  0.68224900  0.09556000  1
  N  N21  1  0.41642900  0.29406300  0.80386500  1
  N  N22  1  0.58357100  0.70593700  0.19613500  1
  O  O23  1  0.06084200  0.72039500  0.21165400  1
  O  O24  1  0.07384100  0.23636100  0.35452700  1
  O  O25  1  0.75097600  0.05276100  0.15892400  1
  O  O26  1  0.92615900  0.76363900  0.64547300  1
  O  O27  1  0.22850200  0.02303300  0.15660800  1
  O  O28  1  0.93915800  0.27960500  0.78834600  1
  O  O29  1  0.76512100  0.30179900  0.42311500  1
  O  O30  1  0.77149800  0.97696700  0.84339200  1
  O  O31  1  0.43061500  0.24383900  0.44232500  1
  O  O32  1  0.56938500  0.75616100  0.55767500  1
  O  O33  1  0.24081400  0.36825500  0.14992300  1
  O  O34  1  0.20058000  0.61677900  0.87598500  1
  O  O35  1  0.23487900  0.69820100  0.57688500  1
  O  O36  1  0.75918600  0.63174500  0.85007700  1
  O  O37  1  0.79942000  0.38322100  0.12401500  1
  O  O38  1  0.24902400  0.94723900  0.84107600  1
