# generated using pymatgen
data_Li2NiGe3O8
_symmetry_space_group_name_H-M   'P 1'
_cell_length_a   8.30532900
_cell_length_b   8.30532900
_cell_length_c   8.30532900
_cell_angle_alpha   90.00000000
_cell_angle_beta   90.00000000
_cell_angle_gamma   90.00000000
_symmetry_Int_Tables_number   1
_chemical_formula_structural   Li2NiGe3O8
_chemical_formula_sum   'Li8 Ni4 Ge12 O32'
_cell_volume   572.88905170
_cell_formula_units_Z   4
loop_
 _symmetry_equiv_pos_site_id
 _symmetry_equiv_pos_as_xyz
  1  'x, y, z'
loop_
 _atom_site_type_symbol
 _atom_site_label
 _atom_site_symmetry_multiplicity
 _atom_site_fract_x
 _atom_site_fract_y
 _atom_site_fract_z
 _atom_site_occupancy
  Li  Li0  1  0.50321100  0.50321100  0.50321100  1
  Li  Li1  1  0.25321100  0.24678900  0.75321100  1
  Li  Li2  1  0.75321100  0.25321100  0.24678900  1
  Li  Li3  1  0.24678900  0.75321100  0.25321100  1
  Li  Li4  1  0.99678900  0.49678900  0.00321100  1
  Li  Li5  1  0.00321100  0.99678900  0.49678900  1
  Li  Li6  1  0.49678900  0.00321100  0.99678900  1
  Li  Li7  1  0.74678900  0.74678900  0.74678900  1
  Ni  Ni8  1  0.12500000  0.12500000  0.12500000  1
  Ni  Ni9  1  0.37500000  0.87500000  0.62500000  1
  Ni  Ni10  1  0.62500000  0.37500000  0.87500000  1
  Ni  Ni11  1  0.87500000  0.62500000  0.37500000  1
  Ge  Ge12  1  0.87744500  0.37255500  0.62500000  1
  Ge  Ge13  1  0.37255500  0.62500000  0.87744500  1
  Ge  Ge14  1  0.62744500  0.12500000  0.62255500  1
  Ge  Ge15  1  0.87255500  0.87500000  0.12255500  1
  Ge  Ge16  1  0.12255500  0.87255500  0.87500000  1
  Ge  Ge17  1  0.62255500  0.62744500  0.12500000  1
  Ge  Ge18  1  0.87500000  0.12255500  0.87255500  1
  Ge  Ge19  1  0.37500000  0.37744500  0.12744500  1
  Ge  Ge20  1  0.62500000  0.87744500  0.37255500  1
  Ge  Ge21  1  0.12744500  0.37500000  0.37744500  1
  Ge  Ge22  1  0.12500000  0.62255500  0.62744500  1
  Ge  Ge23  1  0.37744500  0.12744500  0.37500000  1
  O  O24  1  0.61587000  0.11587000  0.38413000  1
  O  O25  1  0.64954400  0.35670500  0.62383000  1
  O  O26  1  0.14954400  0.14329500  0.37617000  1
  O  O27  1  0.35670500  0.62383000  0.64954400  1
  O  O28  1  0.64329500  0.12383000  0.85045600  1
  O  O29  1  0.62383000  0.64954400  0.35670500  1
  O  O30  1  0.87617000  0.35045600  0.85670500  1
  O  O31  1  0.89954400  0.37383000  0.39329500  1
  O  O32  1  0.39954400  0.12617000  0.60670500  1
  O  O33  1  0.10045600  0.87383000  0.10670500  1
  O  O34  1  0.12617000  0.60670500  0.39954400  1
  O  O35  1  0.10670500  0.10045600  0.87383000  1
  O  O36  1  0.60670500  0.39954400  0.12617000  1
  O  O37  1  0.37383000  0.39329500  0.89954400  1
  O  O38  1  0.39329500  0.89954400  0.37383000  1
  O  O39  1  0.87383000  0.10670500  0.10045600  1
  O  O40  1  0.88413000  0.88413000  0.88413000  1
  O  O41  1  0.63413000  0.86587000  0.13413000  1
  O  O42  1  0.13413000  0.63413000  0.86587000  1
  O  O43  1  0.86587000  0.13413000  0.63413000  1
  O  O44  1  0.62617000  0.89329500  0.60045600  1
  O  O45  1  0.38413000  0.61587000  0.11587000  1
  O  O46  1  0.11587000  0.38413000  0.61587000  1
  O  O47  1  0.36587000  0.36587000  0.36587000  1
  O  O48  1  0.89329500  0.60045600  0.62617000  1
  O  O49  1  0.35045600  0.85670500  0.87617000  1
  O  O50  1  0.85045600  0.64329500  0.12383000  1
  O  O51  1  0.14329500  0.37617000  0.14954400  1
  O  O52  1  0.85670500  0.87617000  0.35045600  1
  O  O53  1  0.12383000  0.85045600  0.64329500  1
  O  O54  1  0.37617000  0.14954400  0.14329500  1
  O  O55  1  0.60045600  0.62617000  0.89329500  1
