# generated using pymatgen
data_YNiSn
_symmetry_space_group_name_H-M   'P 1'
_cell_length_a   4.47676900
_cell_length_b   7.16784500
_cell_length_c   7.69921600
_cell_angle_alpha   90.00000000
_cell_angle_beta   90.00000000
_cell_angle_gamma   90.00000000
_symmetry_Int_Tables_number   1
_chemical_formula_structural   YNiSn
_chemical_formula_sum   'Y4 Ni4 Sn4'
_cell_volume   247.05849685
_cell_formula_units_Z   4
loop_
 _symmetry_equiv_pos_site_id
 _symmetry_equiv_pos_as_xyz
  1  'x, y, z'
loop_
 _atom_site_type_symbol
 _atom_site_label
 _atom_site_symmetry_multiplicity
 _atom_site_fract_x
 _atom_site_fract_y
 _atom_site_fract_z
 _atom_site_occupancy
  Y  Y0  1  0.75000000  0.51265300  0.79714900  1
  Y  Y1  1  0.25000000  0.98734700  0.29714900  1
  Y  Y2  1  0.25000000  0.48734700  0.20285100  1
  Y  Y3  1  0.75000000  0.01265300  0.70285100  1
  Ni  Ni4  1  0.75000000  0.80097700  0.08523700  1
  Ni  Ni5  1  0.25000000  0.19902300  0.91476300  1
  Ni  Ni6  1  0.75000000  0.30097700  0.41476300  1
  Ni  Ni7  1  0.25000000  0.69902300  0.58523700  1
  Sn  Sn8  1  0.25000000  0.80908200  0.91298800  1
  Sn  Sn9  1  0.25000000  0.30908200  0.58701200  1
  Sn  Sn10  1  0.75000000  0.69091800  0.41298800  1
  Sn  Sn11  1  0.75000000  0.19091800  0.08701200  1
