# generated using pymatgen
data_EuVO4
_symmetry_space_group_name_H-M   'P 1'
_cell_length_a   6.15390358
_cell_length_b   6.15390358
_cell_length_c   6.15390358
_cell_angle_alpha   106.13455814
_cell_angle_beta   106.13455814
_cell_angle_gamma   116.37292098
_symmetry_Int_Tables_number   1
_chemical_formula_structural   EuVO4
_chemical_formula_sum   'Eu2 V2 O8'
_cell_volume   177.42818693
_cell_formula_units_Z   2
loop_
 _symmetry_equiv_pos_site_id
 _symmetry_equiv_pos_as_xyz
  1  'x, y, z'
loop_
 _atom_site_type_symbol
 _atom_site_label
 _atom_site_symmetry_multiplicity
 _atom_site_fract_x
 _atom_site_fract_y
 _atom_site_fract_z
 _atom_site_occupancy
  Eu  Eu0  1  0.50000000  0.50000000  0.00000000  1
  Eu  Eu1  1  0.75000000  0.25000000  0.50000000  1
  V  V2  1  0.25000000  0.75000000  0.50000000  1
  V  V3  1  0.00000000  0.00000000  0.00000000  1
  O  O4  1  0.82932000  0.01099000  0.18167000  1
  O  O5  1  0.89765000  0.57932000  0.31833000  1
  O  O6  1  0.26099000  0.57932000  0.68167000  1
  O  O7  1  0.82932000  0.64765000  0.81833000  1
  O  O8  1  0.35235000  0.17068000  0.18167000  1
  O  O9  1  0.42068000  0.73901000  0.31833000  1
  O  O10  1  0.42068000  0.10235000  0.68167000  1
  O  O11  1  0.98901000  0.17068000  0.81833000  1
