# generated using pymatgen
data_Pr2(ReB2)3
_symmetry_space_group_name_H-M   'P 1'
_cell_length_a   6.34678831
_cell_length_b   6.34678831
_cell_length_c   7.64084105
_cell_angle_alpha   89.44398444
_cell_angle_beta   89.44398444
_cell_angle_gamma   114.84515313
_symmetry_Int_Tables_number   1
_chemical_formula_structural   Pr2(ReB2)3
_chemical_formula_sum   'Pr4 Re6 B12'
_cell_volume   279.25421868
_cell_formula_units_Z   2
loop_
 _symmetry_equiv_pos_site_id
 _symmetry_equiv_pos_as_xyz
  1  'x, y, z'
loop_
 _atom_site_type_symbol
 _atom_site_label
 _atom_site_symmetry_multiplicity
 _atom_site_fract_x
 _atom_site_fract_y
 _atom_site_fract_z
 _atom_site_occupancy
  Pr  Pr0  1  0.90732900  0.55889800  0.32624800  1
  Pr  Pr1  1  0.44110200  0.09267100  0.17375200  1
  Pr  Pr2  1  0.09267100  0.44110200  0.67375200  1
  Pr  Pr3  1  0.55889800  0.90732900  0.82624800  1
  Re  Re4  1  0.41619800  0.58380200  0.25000000  1
  Re  Re5  1  0.58380200  0.41619800  0.75000000  1
  Re  Re6  1  0.01072000  0.19513700  0.08743800  1
  Re  Re7  1  0.80486300  0.98928000  0.41256200  1
  Re  Re8  1  0.98928000  0.80486300  0.91256200  1
  Re  Re9  1  0.19513700  0.01072000  0.58743800  1
  B  B10  1  0.75711200  0.84718300  0.13238600  1
  B  B11  1  0.15281700  0.24288800  0.36761400  1
  B  B12  1  0.24288800  0.15281700  0.86761400  1
  B  B13  1  0.84718300  0.75711200  0.63238600  1
  B  B14  1  0.41521100  0.84168500  0.48010800  1
  B  B15  1  0.15831500  0.58478900  0.01989200  1
  B  B16  1  0.58478900  0.15831500  0.51989200  1
  B  B17  1  0.84168500  0.41521100  0.98010800  1
  B  B18  1  0.55958100  0.65023700  0.53309700  1
  B  B19  1  0.34976300  0.44041900  0.96690300  1
  B  B20  1  0.44041900  0.34976300  0.46690300  1
  B  B21  1  0.65023700  0.55958100  0.03309700  1
