# generated using pymatgen
data_Ca2FeSbO6
_symmetry_space_group_name_H-M   'P 1'
_cell_length_a   7.83209363
_cell_length_b   7.85648381
_cell_length_c   7.85648381
_cell_angle_alpha   88.58854209
_cell_angle_beta   89.88312437
_cell_angle_gamma   90.11687563
_symmetry_Int_Tables_number   1
_chemical_formula_structural   Ca2FeSbO6
_chemical_formula_sum   'Ca8 Fe4 Sb4 O24'
_cell_volume   483.28205134
_cell_formula_units_Z   4
loop_
 _symmetry_equiv_pos_site_id
 _symmetry_equiv_pos_as_xyz
  1  'x, y, z'
loop_
 _atom_site_type_symbol
 _atom_site_label
 _atom_site_symmetry_multiplicity
 _atom_site_fract_x
 _atom_site_fract_y
 _atom_site_fract_z
 _atom_site_occupancy
  Ca  Ca0  1  0.74938300  0.48098200  0.46873100  1
  Ca  Ca1  1  0.74938300  0.98098200  0.96873100  1
  Ca  Ca2  1  0.75061700  0.46873100  0.98098200  1
  Ca  Ca3  1  0.75061700  0.96873100  0.48098200  1
  Ca  Ca4  1  0.24938300  0.53126900  0.01901800  1
  Ca  Ca5  1  0.24938300  0.03126900  0.51901800  1
  Ca  Ca6  1  0.25061700  0.51901800  0.53126900  1
  Ca  Ca7  1  0.25061700  0.01901800  0.03126900  1
  Fe  Fe8  1  0.50000000  0.75000000  0.75000000  1
  Fe  Fe9  1  0.00000000  0.75000000  0.25000000  1
  Fe  Fe10  1  0.50000000  0.25000000  0.25000000  1
  Fe  Fe11  1  0.00000000  0.25000000  0.75000000  1
  Sb  Sb12  1  0.00000000  0.25000000  0.25000000  1
  Sb  Sb13  1  0.00000000  0.75000000  0.75000000  1
  Sb  Sb14  1  0.50000000  0.25000000  0.75000000  1
  Sb  Sb15  1  0.50000000  0.75000000  0.25000000  1
  O  O16  1  0.25208300  0.68866100  0.28096300  1
  O  O17  1  0.25208300  0.18866100  0.78096300  1
  O  O18  1  0.24791700  0.28096300  0.18866100  1
  O  O19  1  0.24791700  0.78096300  0.68866100  1
  O  O20  1  0.74791700  0.31133900  0.71903700  1
  O  O21  1  0.74791700  0.81133900  0.21903700  1
  O  O22  1  0.75208300  0.71903700  0.81133900  1
  O  O23  1  0.75208300  0.21903700  0.31133900  1
  O  O24  1  0.04904100  0.79677500  0.99623500  1
  O  O25  1  0.04904100  0.29677500  0.49623500  1
  O  O26  1  0.45095900  0.49623500  0.79677500  1
  O  O27  1  0.45095900  0.99623500  0.29677500  1
  O  O28  1  0.95095900  0.20322500  0.00376500  1
  O  O29  1  0.95095900  0.70322500  0.50376500  1
  O  O30  1  0.54904100  0.50376500  0.20322500  1
  O  O31  1  0.54904100  0.00376500  0.70322500  1
  O  O32  1  0.95246500  0.49885200  0.20352000  1
  O  O33  1  0.95246500  0.99885200  0.70352000  1
  O  O34  1  0.54753500  0.20352000  0.99885200  1
  O  O35  1  0.54753500  0.70352000  0.49885200  1
  O  O36  1  0.04753500  0.50114800  0.79648000  1
  O  O37  1  0.04753500  0.00114800  0.29648000  1
  O  O38  1  0.45246500  0.79648000  0.00114800  1
  O  O39  1  0.45246500  0.29648000  0.50114800  1
