# generated using pymatgen
data_Mg3P2
_symmetry_space_group_name_H-M   'P 1'
_cell_length_a   10.45233946
_cell_length_b   10.45233946
_cell_length_c   10.45233946
_cell_angle_alpha   109.47122063
_cell_angle_beta   109.47122063
_cell_angle_gamma   109.47122063
_symmetry_Int_Tables_number   1
_chemical_formula_structural   Mg3P2
_chemical_formula_sum   'Mg24 P16'
_cell_volume   879.06021828
_cell_formula_units_Z   8
loop_
 _symmetry_equiv_pos_site_id
 _symmetry_equiv_pos_as_xyz
  1  'x, y, z'
loop_
 _atom_site_type_symbol
 _atom_site_label
 _atom_site_symmetry_multiplicity
 _atom_site_fract_x
 _atom_site_fract_y
 _atom_site_fract_z
 _atom_site_occupancy
  Mg  Mg0  1  0.76621400  0.53276700  0.52598500  1
  Mg  Mg1  1  0.96723300  0.73344700  0.99321800  1
  Mg  Mg2  1  0.76655300  0.73378600  0.25977100  1
  Mg  Mg3  1  0.24022900  0.97401500  0.50678200  1
  Mg  Mg4  1  0.73344700  0.99321800  0.96723300  1
  Mg  Mg5  1  0.25977100  0.76655300  0.73378600  1
  Mg  Mg6  1  0.97401500  0.50678200  0.24022900  1
  Mg  Mg7  1  0.52598500  0.76621400  0.53276700  1
  Mg  Mg8  1  0.53276700  0.52598500  0.76621400  1
  Mg  Mg9  1  0.99321800  0.96723300  0.73344700  1
  Mg  Mg10  1  0.73378600  0.25977100  0.76655300  1
  Mg  Mg11  1  0.50678200  0.24022900  0.97401500  1
  Mg  Mg12  1  0.23378600  0.46723300  0.47401500  1
  Mg  Mg13  1  0.03276700  0.26655300  0.00678200  1
  Mg  Mg14  1  0.23344700  0.26621400  0.74022900  1
  Mg  Mg15  1  0.75977100  0.02598500  0.49321800  1
  Mg  Mg16  1  0.26655300  0.00678200  0.03276700  1
  Mg  Mg17  1  0.74022900  0.23344700  0.26621400  1
  Mg  Mg18  1  0.02598500  0.49321800  0.75977100  1
  Mg  Mg19  1  0.47401500  0.23378600  0.46723300  1
  Mg  Mg20  1  0.46723300  0.47401500  0.23378600  1
  Mg  Mg21  1  0.00678200  0.03276700  0.26655300  1
  Mg  Mg22  1  0.26621400  0.74022900  0.23344700  1
  Mg  Mg23  1  0.49321800  0.75977100  0.02598500  1
  P  P24  1  0.50000000  0.50000000  0.50000000  1
  P  P25  1  0.00000000  0.50000000  0.00000000  1
  P  P26  1  0.00000000  0.00000000  0.50000000  1
  P  P27  1  0.50000000  0.00000000  0.00000000  1
  P  P28  1  0.22620900  0.97620900  0.25000000  1
  P  P29  1  0.52379100  0.75000000  0.27379100  1
  P  P30  1  0.75000000  0.27379100  0.52379100  1
  P  P31  1  0.97620900  0.25000000  0.22620900  1
  P  P32  1  0.25000000  0.22620900  0.97620900  1
  P  P33  1  0.27379100  0.52379100  0.75000000  1
  P  P34  1  0.77379100  0.02379100  0.75000000  1
  P  P35  1  0.47620900  0.25000000  0.72620900  1
  P  P36  1  0.25000000  0.72620900  0.47620900  1
  P  P37  1  0.02379100  0.75000000  0.77379100  1
  P  P38  1  0.75000000  0.77379100  0.02379100  1
  P  P39  1  0.72620900  0.47620900  0.25000000  1
