# generated using pymatgen
data_NaLaMnWO6
_symmetry_space_group_name_H-M   'P 1'
_cell_length_a   5.71115400
_cell_length_b   5.63942000
_cell_length_c   8.10666325
_cell_angle_alpha   89.82864948
_cell_angle_beta   90.00000000
_cell_angle_gamma   90.00000000
_symmetry_Int_Tables_number   1
_chemical_formula_structural   NaLaMnWO6
_chemical_formula_sum   'Na2 La2 Mn2 W2 O12'
_cell_volume   261.09496807
_cell_formula_units_Z   2
loop_
 _symmetry_equiv_pos_site_id
 _symmetry_equiv_pos_as_xyz
  1  'x, y, z'
loop_
 _atom_site_type_symbol
 _atom_site_label
 _atom_site_symmetry_multiplicity
 _atom_site_fract_x
 _atom_site_fract_y
 _atom_site_fract_z
 _atom_site_occupancy
  Na  Na0  1  0.77395500  0.25365800  0.50025000  1
  Na  Na1  1  0.27395500  0.74634200  0.49975000  1
  La  La2  1  0.71301500  0.24275300  0.00006600  1
  La  La3  1  0.21301500  0.75724700  0.99993400  1
  Mn  Mn4  1  0.74960600  0.74978800  0.73762400  1
  Mn  Mn5  1  0.24960600  0.25021200  0.26237600  1
  W  W6  1  0.75597600  0.74591300  0.26087800  1
  W  W7  1  0.25597600  0.25408700  0.73912200  1
  O  O8  1  0.22862400  0.16525000  0.51807000  1
  O  O9  1  0.72862400  0.83475000  0.48193000  1
  O  O10  1  0.27971800  0.33602000  0.99019000  1
  O  O11  1  0.77971800  0.66398000  0.00981000  1
  O  O12  1  0.54522400  0.42818200  0.71752200  1
  O  O13  1  0.04522400  0.57181800  0.28247800  1
  O  O14  1  0.57049100  0.46570600  0.27735800  1
  O  O15  1  0.07049100  0.53429400  0.72264200  1
  O  O16  1  0.49036400  0.95112500  0.19155600  1
  O  O17  1  0.99036400  0.04887500  0.80844400  1
  O  O18  1  0.95962500  0.02118200  0.19309700  1
  O  O19  1  0.45962500  0.97881800  0.80690300  1
