# generated using pymatgen
data_Hg(Mo3Cl7)2
_symmetry_space_group_name_H-M   'P 1'
_cell_length_a   13.07792500
_cell_length_b   13.07792500
_cell_length_c   13.07792500
_cell_angle_alpha   90.00000000
_cell_angle_beta   90.00000000
_cell_angle_gamma   90.00000000
_symmetry_Int_Tables_number   1
_chemical_formula_structural   Hg(Mo3Cl7)2
_chemical_formula_sum   'Hg4 Mo24 Cl56'
_cell_volume   2236.74526810
_cell_formula_units_Z   4
loop_
 _symmetry_equiv_pos_site_id
 _symmetry_equiv_pos_as_xyz
  1  'x, y, z'
loop_
 _atom_site_type_symbol
 _atom_site_label
 _atom_site_symmetry_multiplicity
 _atom_site_fract_x
 _atom_site_fract_y
 _atom_site_fract_z
 _atom_site_occupancy
  Hg  Hg0  1  0.75000000  0.75000000  0.75000000  1
  Hg  Hg1  1  0.25000000  0.25000000  0.75000000  1
  Hg  Hg2  1  0.75000000  0.25000000  0.25000000  1
  Hg  Hg3  1  0.25000000  0.75000000  0.25000000  1
  Mo  Mo4  1  0.38665500  0.22527500  0.28053600  1
  Mo  Mo5  1  0.28053600  0.38665500  0.22527500  1
  Mo  Mo6  1  0.22527500  0.28053600  0.38665500  1
  Mo  Mo7  1  0.77472500  0.71946400  0.38665500  1
  Mo  Mo8  1  0.28053600  0.61334500  0.77472500  1
  Mo  Mo9  1  0.77472500  0.28053600  0.61334500  1
  Mo  Mo10  1  0.71946400  0.61334500  0.22527500  1
  Mo  Mo11  1  0.71946400  0.38665500  0.77472500  1
  Mo  Mo12  1  0.22527500  0.71946400  0.61334500  1
  Mo  Mo13  1  0.38665500  0.77472500  0.71946400  1
  Mo  Mo14  1  0.61334500  0.22527500  0.71946400  1
  Mo  Mo15  1  0.61334500  0.77472500  0.28053600  1
  Mo  Mo16  1  0.11334500  0.27472500  0.21946400  1
  Mo  Mo17  1  0.21946400  0.11334500  0.27472500  1
  Mo  Mo18  1  0.27472500  0.21946400  0.11334500  1
  Mo  Mo19  1  0.72527500  0.78053600  0.11334500  1
  Mo  Mo20  1  0.21946400  0.88665500  0.72527500  1
  Mo  Mo21  1  0.72527500  0.21946400  0.88665500  1
  Mo  Mo22  1  0.78053600  0.88665500  0.27472500  1
  Mo  Mo23  1  0.78053600  0.11334500  0.72527500  1
  Mo  Mo24  1  0.27472500  0.78053600  0.88665500  1
  Mo  Mo25  1  0.11334500  0.72527500  0.78053600  1
  Mo  Mo26  1  0.88665500  0.27472500  0.78053600  1
  Mo  Mo27  1  0.88665500  0.72527500  0.21946400  1
  Cl  Cl28  1  0.38488400  0.38488400  0.38488400  1
  Cl  Cl29  1  0.61511600  0.61511600  0.38488400  1
  Cl  Cl30  1  0.38488400  0.61511600  0.61511600  1
  Cl  Cl31  1  0.61511600  0.38488400  0.61511600  1
  Cl  Cl32  1  0.11511600  0.11511600  0.11511600  1
  Cl  Cl33  1  0.88488400  0.88488400  0.11511600  1
  Cl  Cl34  1  0.11511600  0.88488400  0.88488400  1
  Cl  Cl35  1  0.88488400  0.11511600  0.88488400  1
  Cl  Cl36  1  0.37401500  0.06884600  0.17388500  1
  Cl  Cl37  1  0.17388500  0.37401500  0.06884600  1
  Cl  Cl38  1  0.06884600  0.17388500  0.37401500  1
  Cl  Cl39  1  0.93115400  0.82611500  0.37401500  1
  Cl  Cl40  1  0.17388500  0.62598500  0.93115400  1
  Cl  Cl41  1  0.93115400  0.17388500  0.62598500  1
  Cl  Cl42  1  0.82611500  0.62598500  0.06884600  1
  Cl  Cl43  1  0.82611500  0.37401500  0.93115400  1
  Cl  Cl44  1  0.06884600  0.82611500  0.62598500  1
  Cl  Cl45  1  0.37401500  0.93115400  0.82611500  1
  Cl  Cl46  1  0.62598500  0.06884600  0.82611500  1
  Cl  Cl47  1  0.62598500  0.93115400  0.17388500  1
  Cl  Cl48  1  0.12598500  0.43115400  0.32611500  1
  Cl  Cl49  1  0.32611500  0.12598500  0.43115400  1
  Cl  Cl50  1  0.43115400  0.32611500  0.12598500  1
  Cl  Cl51  1  0.56884600  0.67388500  0.12598500  1
  Cl  Cl52  1  0.32611500  0.87401500  0.56884600  1
  Cl  Cl53  1  0.56884600  0.32611500  0.87401500  1
  Cl  Cl54  1  0.67388500  0.87401500  0.43115400  1
  Cl  Cl55  1  0.67388500  0.12598500  0.56884600  1
  Cl  Cl56  1  0.43115400  0.67388500  0.87401500  1
  Cl  Cl57  1  0.12598500  0.56884600  0.67388500  1
  Cl  Cl58  1  0.87401500  0.43115400  0.67388500  1
  Cl  Cl59  1  0.87401500  0.56884600  0.32611500  1
  Cl  Cl60  1  0.56595200  0.18726700  0.32856900  1
  Cl  Cl61  1  0.32856900  0.56595200  0.18726700  1
  Cl  Cl62  1  0.18726700  0.32856900  0.56595200  1
  Cl  Cl63  1  0.81273300  0.67143100  0.56595200  1
  Cl  Cl64  1  0.32856900  0.43404800  0.81273300  1
  Cl  Cl65  1  0.81273300  0.32856900  0.43404800  1
  Cl  Cl66  1  0.67143100  0.43404800  0.18726700  1
  Cl  Cl67  1  0.67143100  0.56595200  0.81273300  1
  Cl  Cl68  1  0.18726700  0.67143100  0.43404800  1
  Cl  Cl69  1  0.56595200  0.81273300  0.67143100  1
  Cl  Cl70  1  0.43404800  0.18726700  0.67143100  1
  Cl  Cl71  1  0.43404800  0.81273300  0.32856900  1
  Cl  Cl72  1  0.93404800  0.31273300  0.17143100  1
  Cl  Cl73  1  0.17143100  0.93404800  0.31273300  1
  Cl  Cl74  1  0.31273300  0.17143100  0.93404800  1
  Cl  Cl75  1  0.68726700  0.82856900  0.93404800  1
  Cl  Cl76  1  0.17143100  0.06595200  0.68726700  1
  Cl  Cl77  1  0.68726700  0.17143100  0.06595200  1
  Cl  Cl78  1  0.82856900  0.06595200  0.31273300  1
  Cl  Cl79  1  0.82856900  0.93404800  0.68726700  1
  Cl  Cl80  1  0.31273300  0.82856900  0.06595200  1
  Cl  Cl81  1  0.93404800  0.68726700  0.82856900  1
  Cl  Cl82  1  0.06595200  0.31273300  0.82856900  1
  Cl  Cl83  1  0.06595200  0.68726700  0.17143100  1
