# generated using pymatgen
data_RbH2OF
_symmetry_space_group_name_H-M   'P 1'
_cell_length_a   4.22104000
_cell_length_b   8.18682600
_cell_length_c   8.47497800
_cell_angle_alpha   90.00000000
_cell_angle_beta   90.00000000
_cell_angle_gamma   90.00000000
_symmetry_Int_Tables_number   1
_chemical_formula_structural   RbH2OF
_chemical_formula_sum   'Rb4 H8 O4 F4'
_cell_volume   292.86913691
_cell_formula_units_Z   4
loop_
 _symmetry_equiv_pos_site_id
 _symmetry_equiv_pos_as_xyz
  1  'x, y, z'
loop_
 _atom_site_type_symbol
 _atom_site_label
 _atom_site_symmetry_multiplicity
 _atom_site_fract_x
 _atom_site_fract_y
 _atom_site_fract_z
 _atom_site_occupancy
  Rb  Rb0  1  0.75000000  0.25972800  0.04221000  1
  Rb  Rb1  1  0.25000000  0.74027200  0.95779000  1
  Rb  Rb2  1  0.75000000  0.75972800  0.45779000  1
  Rb  Rb3  1  0.25000000  0.24027200  0.54221000  1
  H  H4  1  0.56109900  0.96827500  0.74034500  1
  H  H5  1  0.06109900  0.03172500  0.25965500  1
  H  H6  1  0.93890100  0.46827500  0.75965500  1
  H  H7  1  0.43890100  0.53172500  0.24034500  1
  H  H8  1  0.43890100  0.03172500  0.25965500  1
  H  H9  1  0.93890100  0.96827500  0.74034500  1
  H  H10  1  0.06109900  0.53172500  0.24034500  1
  H  H11  1  0.56109900  0.46827500  0.75965500  1
  O  O12  1  0.75000000  0.50478100  0.69761900  1
  O  O13  1  0.25000000  0.49521900  0.30238100  1
  O  O14  1  0.75000000  0.00478100  0.80238100  1
  O  O15  1  0.25000000  0.99521900  0.19761900  1
  F  F16  1  0.75000000  0.09812900  0.35276000  1
  F  F17  1  0.25000000  0.90187100  0.64724000  1
  F  F18  1  0.75000000  0.59812900  0.14724000  1
  F  F19  1  0.25000000  0.40187100  0.85276000  1
