# generated using pymatgen
data_Na3ReO5
_symmetry_space_group_name_H-M   'P 1'
_cell_length_a   5.60196612
_cell_length_b   5.60196612
_cell_length_c   13.81995200
_cell_angle_alpha   90.00000000
_cell_angle_beta   90.00000000
_cell_angle_gamma   120.00000136
_symmetry_Int_Tables_number   1
_chemical_formula_structural   Na3ReO5
_chemical_formula_sum   'Na9 Re3 O15'
_cell_volume   375.59354126
_cell_formula_units_Z   3
loop_
 _symmetry_equiv_pos_site_id
 _symmetry_equiv_pos_as_xyz
  1  'x, y, z'
loop_
 _atom_site_type_symbol
 _atom_site_label
 _atom_site_symmetry_multiplicity
 _atom_site_fract_x
 _atom_site_fract_y
 _atom_site_fract_z
 _atom_site_occupancy
  Na  Na0  1  0.62285300  0.92520700  0.58200200  1
  Na  Na1  1  0.30235400  0.37714700  0.24866900  1
  Na  Na2  1  0.07479300  0.69764600  0.91533600  1
  Na  Na3  1  0.69764600  0.07479300  0.08466400  1
  Na  Na4  1  0.37714700  0.30235400  0.75133100  1
  Na  Na5  1  0.92520700  0.62285300  0.41799800  1
  Na  Na6  1  0.00000000  0.72028900  0.16666700  1
  Na  Na7  1  0.72028900  0.00000000  0.83333300  1
  Na  Na8  1  0.27971100  0.27971100  0.50000000  1
  Re  Re9  1  0.00000000  0.62608700  0.66666700  1
  Re  Re10  1  0.62608700  0.00000000  0.33333300  1
  Re  Re11  1  0.37391300  0.37391300  0.00000000  1
  O  O12  1  0.16879700  0.50629200  0.06282000  1
  O  O13  1  0.33749500  0.83120300  0.72948700  1
  O  O14  1  0.49370800  0.66250500  0.39615400  1
  O  O15  1  0.00000000  0.30458800  0.66666700  1
  O  O16  1  0.30458800  0.00000000  0.33333300  1
  O  O17  1  0.69541200  0.69541200  0.00000000  1
  O  O18  1  0.66250500  0.49370800  0.60384600  1
  O  O19  1  0.83120300  0.33749500  0.27051300  1
  O  O20  1  0.50629200  0.16879700  0.93718000  1
  O  O21  1  0.31668300  0.15535100  0.10639900  1
  O  O22  1  0.83866800  0.68331700  0.77306500  1
  O  O23  1  0.84464900  0.16133200  0.43973200  1
  O  O24  1  0.16133200  0.84464900  0.56026800  1
  O  O25  1  0.15535100  0.31668300  0.89360100  1
  O  O26  1  0.68331700  0.83866800  0.22693500  1
