# generated using pymatgen
data_Cs2Au2Se3
_symmetry_space_group_name_H-M   'P 1'
_cell_length_a   8.46196534
_cell_length_b   8.46196534
_cell_length_c   7.61735980
_cell_angle_alpha   88.95868352
_cell_angle_beta   88.95868352
_cell_angle_gamma   107.49206972
_symmetry_Int_Tables_number   1
_chemical_formula_structural   Cs2Au2Se3
_chemical_formula_sum   'Cs4 Au4 Se6'
_cell_volume   519.97232735
_cell_formula_units_Z   2
loop_
 _symmetry_equiv_pos_site_id
 _symmetry_equiv_pos_as_xyz
  1  'x, y, z'
loop_
 _atom_site_type_symbol
 _atom_site_label
 _atom_site_symmetry_multiplicity
 _atom_site_fract_x
 _atom_site_fract_y
 _atom_site_fract_z
 _atom_site_occupancy
  Cs  Cs0  1  0.86560900  0.65578600  0.63295800  1
  Cs  Cs1  1  0.65578600  0.86560900  0.13295800  1
  Cs  Cs2  1  0.13439100  0.34421400  0.36704200  1
  Cs  Cs3  1  0.34421400  0.13439100  0.86704200  1
  Au  Au4  1  0.35362100  0.77663600  0.54143000  1
  Au  Au5  1  0.77663600  0.35362100  0.04143000  1
  Au  Au6  1  0.64637900  0.22336400  0.45857000  1
  Au  Au7  1  0.22336400  0.64637900  0.95857000  1
  Se  Se8  1  0.94920500  0.26679700  0.82410700  1
  Se  Se9  1  0.58278500  0.41721500  0.25000000  1
  Se  Se10  1  0.41721500  0.58278500  0.75000000  1
  Se  Se11  1  0.26679700  0.94920500  0.32410700  1
  Se  Se12  1  0.73320300  0.05079500  0.67589300  1
  Se  Se13  1  0.05079500  0.73320300  0.17589300  1
