# generated using pymatgen
data_Sc2NCl2
_symmetry_space_group_name_H-M   'P 1'
_cell_length_a   3.36966209
_cell_length_b   3.36966209
_cell_length_c   9.56576600
_cell_angle_alpha   90.00000000
_cell_angle_beta   90.00000000
_cell_angle_gamma   120.00000180
_symmetry_Int_Tables_number   1
_chemical_formula_structural   Sc2NCl2
_chemical_formula_sum   'Sc2 N1 Cl2'
_cell_volume   94.06392164
_cell_formula_units_Z   1
loop_
 _symmetry_equiv_pos_site_id
 _symmetry_equiv_pos_as_xyz
  1  'x, y, z'
loop_
 _atom_site_type_symbol
 _atom_site_label
 _atom_site_symmetry_multiplicity
 _atom_site_fract_x
 _atom_site_fract_y
 _atom_site_fract_z
 _atom_site_occupancy
  Sc  Sc0  1  0.66666700  0.33333300  0.62422200  1
  Sc  Sc1  1  0.33333300  0.66666700  0.37577800  1
  N  N2  1  0.00000000  0.00000000  0.50000000  1
  Cl  Cl3  1  0.66666700  0.33333300  0.19930200  1
  Cl  Cl4  1  0.33333300  0.66666700  0.80069800  1
