# generated using pymatgen
data_U(OF)2
_symmetry_space_group_name_H-M   'P 1'
_cell_length_a   6.14428446
_cell_length_b   6.14428446
_cell_length_c   6.14428470
_cell_angle_alpha   40.42473957
_cell_angle_beta   40.42473957
_cell_angle_gamma   40.42473503
_symmetry_Int_Tables_number   1
_chemical_formula_structural   U(OF)2
_chemical_formula_sum   'U1 O2 F2'
_cell_volume   87.95470676
_cell_formula_units_Z   1
loop_
 _symmetry_equiv_pos_site_id
 _symmetry_equiv_pos_as_xyz
  1  'x, y, z'
loop_
 _atom_site_type_symbol
 _atom_site_label
 _atom_site_symmetry_multiplicity
 _atom_site_fract_x
 _atom_site_fract_y
 _atom_site_fract_z
 _atom_site_occupancy
  U  U0  1  0.00000000  0.00000000  0.00000000  1
  O  O1  1  0.10521100  0.10521100  0.10521100  1
  O  O2  1  0.89478900  0.89478900  0.89478900  1
  F  F3  1  0.33940800  0.33940800  0.33940800  1
  F  F4  1  0.66059200  0.66059200  0.66059200  1
