# generated using pymatgen
data_Mn15(Br3O10)2
_symmetry_space_group_name_H-M   'P 1'
_cell_length_a   9.43518034
_cell_length_b   9.43518034
_cell_length_c   9.43518034
_cell_angle_alpha   60.00000000
_cell_angle_beta   60.00000000
_cell_angle_gamma   60.00000000
_symmetry_Int_Tables_number   1
_chemical_formula_structural   Mn15(Br3O10)2
_chemical_formula_sum   'Mn15 Br6 O20'
_cell_volume   593.93048707
_cell_formula_units_Z   1
loop_
 _symmetry_equiv_pos_site_id
 _symmetry_equiv_pos_as_xyz
  1  'x, y, z'
loop_
 _atom_site_type_symbol
 _atom_site_label
 _atom_site_symmetry_multiplicity
 _atom_site_fract_x
 _atom_site_fract_y
 _atom_site_fract_z
 _atom_site_occupancy
  Mn  Mn0  1  0.00000000  0.35010300  0.00000000  1
  Mn  Mn1  1  0.25000000  0.25000000  0.25000000  1
  Mn  Mn2  1  0.75000000  0.75000000  0.75000000  1
  Mn  Mn3  1  0.35010300  0.64989700  0.00000000  1
  Mn  Mn4  1  0.00000000  0.00000000  0.64989700  1
  Mn  Mn5  1  0.00000000  0.00000000  0.35010300  1
  Mn  Mn6  1  0.64989700  0.35010300  0.00000000  1
  Mn  Mn7  1  0.64989700  0.00000000  0.35010300  1
  Mn  Mn8  1  0.00000000  0.64989700  0.00000000  1
  Mn  Mn9  1  0.35010300  0.00000000  0.64989700  1
  Mn  Mn10  1  0.64989700  0.00000000  0.00000000  1
  Mn  Mn11  1  0.00000000  0.64989700  0.35010300  1
  Mn  Mn12  1  0.00000000  0.35010300  0.64989700  1
  Mn  Mn13  1  0.35010300  0.00000000  0.00000000  1
  Mn  Mn14  1  0.00000000  0.00000000  0.00000000  1
  Br  Br15  1  0.29962000  0.29962000  0.70038000  1
  Br  Br16  1  0.29962000  0.70038000  0.70038000  1
  Br  Br17  1  0.70038000  0.29962000  0.70038000  1
  Br  Br18  1  0.29962000  0.70038000  0.29962000  1
  Br  Br19  1  0.70038000  0.29962000  0.29962000  1
  Br  Br20  1  0.70038000  0.70038000  0.29962000  1
  O  O21  1  0.90032400  0.90032400  0.29902800  1
  O  O22  1  0.90032400  0.29902800  0.90032400  1
  O  O23  1  0.90212900  0.90212900  0.59787100  1
  O  O24  1  0.40212900  0.40212900  0.09787100  1
  O  O25  1  0.09787100  0.09787100  0.40212900  1
  O  O26  1  0.59787100  0.59787100  0.90212900  1
  O  O27  1  0.59787100  0.90212900  0.90212900  1
  O  O28  1  0.40212900  0.09787100  0.40212900  1
  O  O29  1  0.09787100  0.40212900  0.09787100  1
  O  O30  1  0.90212900  0.59787100  0.59787100  1
  O  O31  1  0.40212900  0.09787100  0.09787100  1
  O  O32  1  0.59787100  0.90212900  0.59787100  1
  O  O33  1  0.90212900  0.59787100  0.90212900  1
  O  O34  1  0.09787100  0.40212900  0.40212900  1
  O  O35  1  0.09967600  0.09967600  0.09967600  1
  O  O36  1  0.90032400  0.90032400  0.90032400  1
  O  O37  1  0.29902800  0.90032400  0.90032400  1
  O  O38  1  0.70097200  0.09967600  0.09967600  1
  O  O39  1  0.09967600  0.70097200  0.09967600  1
  O  O40  1  0.09967600  0.09967600  0.70097200  1
