# generated using pymatgen
data_RbAuBr3
_symmetry_space_group_name_H-M   'P 1'
_cell_length_a   7.48486740
_cell_length_b   7.48486740
_cell_length_c   8.50062933
_cell_angle_alpha   66.22607574
_cell_angle_beta   66.22607574
_cell_angle_gamma   59.96601307
_symmetry_Int_Tables_number   1
_chemical_formula_structural   RbAuBr3
_chemical_formula_sum   'Rb2 Au2 Br6'
_cell_volume   364.91372874
_cell_formula_units_Z   2
loop_
 _symmetry_equiv_pos_site_id
 _symmetry_equiv_pos_as_xyz
  1  'x, y, z'
loop_
 _atom_site_type_symbol
 _atom_site_label
 _atom_site_symmetry_multiplicity
 _atom_site_fract_x
 _atom_site_fract_y
 _atom_site_fract_z
 _atom_site_occupancy
  Rb  Rb0  1  0.72581400  0.72581400  0.77046000  1
  Rb  Rb1  1  0.27418600  0.27418600  0.22954000  1
  Au  Au2  1  0.00000000  0.00000000  0.00000000  1
  Au  Au3  1  0.50000000  0.50000000  0.50000000  1
  Br  Br4  1  0.27269200  0.80116000  0.17740400  1
  Br  Br5  1  0.19884000  0.72730800  0.82259600  1
  Br  Br6  1  0.72730800  0.19884000  0.82259600  1
  Br  Br7  1  0.80116000  0.27269200  0.17740400  1
  Br  Br8  1  0.28671200  0.28671200  0.63493200  1
  Br  Br9  1  0.71328800  0.71328800  0.36506800  1
