# generated using pymatgen
data_Zn3(AsO3)2
_symmetry_space_group_name_H-M   'P 1'
_cell_length_a   6.26716400
_cell_length_b   7.96645600
_cell_length_c   14.58860800
_cell_angle_alpha   90.00000000
_cell_angle_beta   90.00000000
_cell_angle_gamma   90.00000000
_symmetry_Int_Tables_number   1
_chemical_formula_structural   Zn3(AsO3)2
_chemical_formula_sum   'Zn12 As8 O24'
_cell_volume   728.36668989
_cell_formula_units_Z   4
loop_
 _symmetry_equiv_pos_site_id
 _symmetry_equiv_pos_as_xyz
  1  'x, y, z'
loop_
 _atom_site_type_symbol
 _atom_site_label
 _atom_site_symmetry_multiplicity
 _atom_site_fract_x
 _atom_site_fract_y
 _atom_site_fract_z
 _atom_site_occupancy
  Zn  Zn0  1  0.00000000  0.31406900  0.50000000  1
  Zn  Zn1  1  0.50000000  0.68593100  0.00000000  1
  Zn  Zn2  1  0.00000000  0.68593100  0.50000000  1
  Zn  Zn3  1  0.50000000  0.31406900  0.00000000  1
  Zn  Zn4  1  0.43564200  0.78442400  0.22220700  1
  Zn  Zn5  1  0.93564200  0.21557600  0.27779300  1
  Zn  Zn6  1  0.56435800  0.78442400  0.77779300  1
  Zn  Zn7  1  0.06435800  0.21557600  0.72220700  1
  Zn  Zn8  1  0.93564200  0.78442400  0.27779300  1
  Zn  Zn9  1  0.43564200  0.21557600  0.22220700  1
  Zn  Zn10  1  0.06435800  0.78442400  0.72220700  1
  Zn  Zn11  1  0.56435800  0.21557600  0.77779300  1
  As  As12  1  0.09162700  0.50000000  0.12583800  1
  As  As13  1  0.59162700  0.50000000  0.37416200  1
  As  As14  1  0.90837300  0.50000000  0.87416200  1
  As  As15  1  0.40837300  0.50000000  0.62583800  1
  As  As16  1  0.77383000  0.00000000  0.09807400  1
  As  As17  1  0.27383000  0.00000000  0.40192600  1
  As  As18  1  0.22617000  0.00000000  0.90192600  1
  As  As19  1  0.72617000  0.00000000  0.59807400  1
  O  O20  1  0.41130800  0.17469300  0.89553900  1
  O  O21  1  0.91130800  0.82530700  0.60446100  1
  O  O22  1  0.58869200  0.17469300  0.10446100  1
  O  O23  1  0.08869200  0.82530700  0.39553900  1
  O  O24  1  0.58869200  0.82530700  0.10446100  1
  O  O25  1  0.08869200  0.17469300  0.39553900  1
  O  O26  1  0.41130800  0.82530700  0.89553900  1
  O  O27  1  0.91130800  0.17469300  0.60446100  1
  O  O28  1  0.34393100  0.32405300  0.69967400  1
  O  O29  1  0.84393100  0.67594700  0.80032600  1
  O  O30  1  0.65606900  0.32405300  0.30032600  1
  O  O31  1  0.15606900  0.67594700  0.19967400  1
  O  O32  1  0.65606900  0.67594700  0.30032600  1
  O  O33  1  0.15606900  0.32405300  0.19967400  1
  O  O34  1  0.34393100  0.67594700  0.69967400  1
  O  O35  1  0.84393100  0.32405300  0.80032600  1
  O  O36  1  0.83914000  0.00000000  0.21862100  1
  O  O37  1  0.33914000  0.00000000  0.28137900  1
  O  O38  1  0.16086000  0.00000000  0.78137900  1
  O  O39  1  0.66086000  0.00000000  0.71862100  1
  O  O40  1  0.66687300  0.50000000  0.94080600  1
  O  O41  1  0.16687300  0.50000000  0.55919400  1
  O  O42  1  0.33312700  0.50000000  0.05919400  1
  O  O43  1  0.83312700  0.50000000  0.44080600  1
