# generated using pymatgen
data_BaNiN
_symmetry_space_group_name_H-M   'P 1'
_cell_length_a   5.45056100
_cell_length_b   9.75126700
_cell_length_c   13.75711900
_cell_angle_alpha   90.00000000
_cell_angle_beta   90.00000000
_cell_angle_gamma   90.00000000
_symmetry_Int_Tables_number   1
_chemical_formula_structural   BaNiN
_chemical_formula_sum   'Ba12 Ni12 N12'
_cell_volume   731.18916361
_cell_formula_units_Z   12
loop_
 _symmetry_equiv_pos_site_id
 _symmetry_equiv_pos_as_xyz
  1  'x, y, z'
loop_
 _atom_site_type_symbol
 _atom_site_label
 _atom_site_symmetry_multiplicity
 _atom_site_fract_x
 _atom_site_fract_y
 _atom_site_fract_z
 _atom_site_occupancy
  Ba  Ba0  1  0.47725100  0.50527900  0.75000000  1
  Ba  Ba1  1  0.97725100  0.99472100  0.25000000  1
  Ba  Ba2  1  0.02274900  0.00527900  0.75000000  1
  Ba  Ba3  1  0.52274900  0.49472100  0.25000000  1
  Ba  Ba4  1  0.97210200  0.32645700  0.41229100  1
  Ba  Ba5  1  0.47210200  0.17354300  0.58770900  1
  Ba  Ba6  1  0.52789800  0.82645700  0.08770900  1
  Ba  Ba7  1  0.02789800  0.67354300  0.91229100  1
  Ba  Ba8  1  0.02789800  0.67354300  0.58770900  1
  Ba  Ba9  1  0.52789800  0.82645700  0.41229100  1
  Ba  Ba10  1  0.47210200  0.17354300  0.91229100  1
  Ba  Ba11  1  0.97210200  0.32645700  0.08770900  1
  Ni  Ni12  1  0.43816200  0.14348300  0.16179600  1
  Ni  Ni13  1  0.93816200  0.35651700  0.83820400  1
  Ni  Ni14  1  0.06183800  0.64348300  0.33820400  1
  Ni  Ni15  1  0.56183800  0.85651700  0.66179600  1
  Ni  Ni16  1  0.56183800  0.85651700  0.83820400  1
  Ni  Ni17  1  0.06183800  0.64348300  0.16179600  1
  Ni  Ni18  1  0.93816200  0.35651700  0.66179600  1
  Ni  Ni19  1  0.43816200  0.14348300  0.33820400  1
  Ni  Ni20  1  0.00000000  0.00000000  0.00000000  1
  Ni  Ni21  1  0.50000000  0.50000000  0.00000000  1
  Ni  Ni22  1  0.50000000  0.50000000  0.50000000  1
  Ni  Ni23  1  0.00000000  0.00000000  0.50000000  1
  N  N24  1  0.34859500  0.78015200  0.75000000  1
  N  N25  1  0.84859500  0.71984800  0.25000000  1
  N  N26  1  0.15140500  0.28015200  0.75000000  1
  N  N27  1  0.65140500  0.21984800  0.25000000  1
  N  N28  1  0.22500700  0.07162100  0.42364100  1
  N  N29  1  0.72500700  0.42837900  0.57635900  1
  N  N30  1  0.27499300  0.57162100  0.07635900  1
  N  N31  1  0.77499300  0.92837900  0.92364100  1
  N  N32  1  0.77499300  0.92837900  0.57635900  1
  N  N33  1  0.27499300  0.57162100  0.42364100  1
  N  N34  1  0.72500700  0.42837900  0.92364100  1
  N  N35  1  0.22500700  0.07162100  0.07635900  1
