# generated using pymatgen
data_Ta3PbS6
_symmetry_space_group_name_H-M   'P 1'
_cell_length_a   5.82138946
_cell_length_b   5.82138946
_cell_length_c   15.06039900
_cell_angle_alpha   90.00000000
_cell_angle_beta   90.00000000
_cell_angle_gamma   119.99999385
_symmetry_Int_Tables_number   1
_chemical_formula_structural   Ta3PbS6
_chemical_formula_sum   'Ta6 Pb2 S12'
_cell_volume   441.99814510
_cell_formula_units_Z   2
loop_
 _symmetry_equiv_pos_site_id
 _symmetry_equiv_pos_as_xyz
  1  'x, y, z'
loop_
 _atom_site_type_symbol
 _atom_site_label
 _atom_site_symmetry_multiplicity
 _atom_site_fract_x
 _atom_site_fract_y
 _atom_site_fract_z
 _atom_site_occupancy
  Ta  Ta0  1  0.00000000  0.00000000  0.25000000  1
  Ta  Ta1  1  0.00000000  0.00000000  0.75000000  1
  Ta  Ta2  1  0.33333300  0.66666700  0.25000000  1
  Ta  Ta3  1  0.66666700  0.33333300  0.75000000  1
  Ta  Ta4  1  0.66666700  0.33333300  0.25000000  1
  Ta  Ta5  1  0.33333300  0.66666700  0.75000000  1
  Pb  Pb6  1  0.00000000  0.00000000  0.50000000  1
  Pb  Pb7  1  0.00000000  0.00000000  0.00000000  1
  S  S8  1  0.33627700  0.00000000  0.14671400  1
  S  S9  1  0.00000000  0.33627700  0.14671400  1
  S  S10  1  0.66372300  0.66372300  0.14671400  1
  S  S11  1  0.33627700  0.33627700  0.64671400  1
  S  S12  1  0.66372300  0.66372300  0.35328600  1
  S  S13  1  0.66372300  0.00000000  0.64671400  1
  S  S14  1  0.00000000  0.66372300  0.64671400  1
  S  S15  1  0.00000000  0.66372300  0.85328600  1
  S  S16  1  0.33627700  0.33627700  0.85328600  1
  S  S17  1  0.00000000  0.33627700  0.35328600  1
  S  S18  1  0.33627700  0.00000000  0.35328600  1
  S  S19  1  0.66372300  0.00000000  0.85328600  1
