# generated using pymatgen
data_BaBiSe3
_symmetry_space_group_name_H-M   'P 1'
_cell_length_a   4.40284600
_cell_length_b   16.60386000
_cell_length_c   17.17848400
_cell_angle_alpha   90.00000000
_cell_angle_beta   90.00000000
_cell_angle_gamma   90.00000000
_symmetry_Int_Tables_number   1
_chemical_formula_structural   BaBiSe3
_chemical_formula_sum   'Ba8 Bi8 Se24'
_cell_volume   1255.81999287
_cell_formula_units_Z   8
loop_
 _symmetry_equiv_pos_site_id
 _symmetry_equiv_pos_as_xyz
  1  'x, y, z'
loop_
 _atom_site_type_symbol
 _atom_site_label
 _atom_site_symmetry_multiplicity
 _atom_site_fract_x
 _atom_site_fract_y
 _atom_site_fract_z
 _atom_site_occupancy
  Ba  Ba0  1  0.22812400  0.60247700  0.40695400  1
  Ba  Ba1  1  0.72812400  0.89752300  0.59304600  1
  Ba  Ba2  1  0.77187600  0.10247700  0.09304600  1
  Ba  Ba3  1  0.27187600  0.39752300  0.90695400  1
  Ba  Ba4  1  0.24552400  0.46012500  0.16771100  1
  Ba  Ba5  1  0.74552400  0.03987500  0.83228900  1
  Ba  Ba6  1  0.75447600  0.96012500  0.33228900  1
  Ba  Ba7  1  0.25447600  0.53987500  0.66771100  1
  Bi  Bi8  1  0.75763900  0.36876100  0.46974100  1
  Bi  Bi9  1  0.25763900  0.13123900  0.53025900  1
  Bi  Bi10  1  0.24236100  0.86876100  0.03025900  1
  Bi  Bi11  1  0.74236100  0.63123900  0.96974100  1
  Bi  Bi12  1  0.73708900  0.71943100  0.20643900  1
  Bi  Bi13  1  0.23708900  0.78056900  0.79356100  1
  Bi  Bi14  1  0.26291100  0.21943100  0.29356100  1
  Bi  Bi15  1  0.76291100  0.28056900  0.70643900  1
  Se  Se16  1  0.82352100  0.71196400  0.68076500  1
  Se  Se17  1  0.32352100  0.78803600  0.31923500  1
  Se  Se18  1  0.17647900  0.21196400  0.81923500  1
  Se  Se19  1  0.67647900  0.28803600  0.18076500  1
  Se  Se20  1  0.74071300  0.52407900  0.52732800  1
  Se  Se21  1  0.24071300  0.97592100  0.47267200  1
  Se  Se22  1  0.25928700  0.02407900  0.97267200  1
  Se  Se23  1  0.75928700  0.47592100  0.02732800  1
  Se  Se24  1  0.76132500  0.43359600  0.76847700  1
  Se  Se25  1  0.26132500  0.06640400  0.23152300  1
  Se  Se26  1  0.23867500  0.93359600  0.73152300  1
  Se  Se27  1  0.73867500  0.56640400  0.26847700  1
  Se  Se28  1  0.26628700  0.60217900  0.86569400  1
  Se  Se29  1  0.76628700  0.89782100  0.13430600  1
  Se  Se30  1  0.73371300  0.10217900  0.63430600  1
  Se  Se31  1  0.23371300  0.39782100  0.36569400  1
  Se  Se32  1  0.28874400  0.68324700  0.09472400  1
  Se  Se33  1  0.78874400  0.81675300  0.90527600  1
  Se  Se34  1  0.71125600  0.18324700  0.40527600  1
  Se  Se35  1  0.21125600  0.31675300  0.59472400  1
  Se  Se36  1  0.16750300  0.73853300  0.55702400  1
  Se  Se37  1  0.66750300  0.76146700  0.44297600  1
  Se  Se38  1  0.83249700  0.23853300  0.94297600  1
  Se  Se39  1  0.33249700  0.26146700  0.05702400  1
