# generated using pymatgen
data_LiCr(GeO3)2
_symmetry_space_group_name_H-M   'P 1'
_cell_length_a   8.86929600
_cell_length_b   5.43740900
_cell_length_c   9.68917944
_cell_angle_alpha   76.91953199
_cell_angle_beta   90.00000000
_cell_angle_gamma   90.00000000
_symmetry_Int_Tables_number   1
_chemical_formula_structural   LiCr(GeO3)2
_chemical_formula_sum   'Li4 Cr4 Ge8 O24'
_cell_volume   455.14609000
_cell_formula_units_Z   4
loop_
 _symmetry_equiv_pos_site_id
 _symmetry_equiv_pos_as_xyz
  1  'x, y, z'
loop_
 _atom_site_type_symbol
 _atom_site_label
 _atom_site_symmetry_multiplicity
 _atom_site_fract_x
 _atom_site_fract_y
 _atom_site_fract_z
 _atom_site_occupancy
  Li  Li0  1  0.01351800  0.03657500  0.74172000  1
  Li  Li1  1  0.51351800  0.46342500  0.25828000  1
  Li  Li2  1  0.98648200  0.96342500  0.25828000  1
  Li  Li3  1  0.48648200  0.53657500  0.74172000  1
  Cr  Cr4  1  0.84120200  0.53873000  0.74834900  1
  Cr  Cr5  1  0.34120200  0.96127000  0.25165100  1
  Cr  Cr6  1  0.15879800  0.46127000  0.25165100  1
  Cr  Cr7  1  0.65879800  0.03873000  0.74834900  1
  Ge  Ge8  1  0.15564600  0.27241500  0.95325900  1
  Ge  Ge9  1  0.65564600  0.22758500  0.04674100  1
  Ge  Ge10  1  0.84435400  0.72758500  0.04674100  1
  Ge  Ge11  1  0.34435400  0.77241500  0.95325900  1
  Ge  Ge12  1  0.65881500  0.82628800  0.44553900  1
  Ge  Ge13  1  0.15881500  0.67371200  0.55446100  1
  Ge  Ge14  1  0.34118500  0.17371200  0.55446100  1
  Ge  Ge15  1  0.84118500  0.32628800  0.44553900  1
  O  O16  1  0.16613800  0.18354100  0.14271700  1
  O  O17  1  0.66613800  0.31645900  0.85728300  1
  O  O18  1  0.83386200  0.81645900  0.85728300  1
  O  O19  1  0.33386200  0.68354100  0.14271700  1
  O  O20  1  0.97526100  0.32775400  0.88590400  1
  O  O21  1  0.47526100  0.17224600  0.11409600  1
  O  O22  1  0.02473900  0.67224600  0.11409600  1
  O  O23  1  0.52473900  0.82775400  0.88590400  1
  O  O24  1  0.20850700  0.00767800  0.88308600  1
  O  O25  1  0.70850700  0.49232200  0.11691400  1
  O  O26  1  0.79149300  0.99232200  0.11691400  1
  O  O27  1  0.29149300  0.50767800  0.88308600  1
  O  O28  1  0.66840400  0.75910500  0.63574000  1
  O  O29  1  0.16840400  0.74089500  0.36426000  1
  O  O30  1  0.33159600  0.24089500  0.36426000  1
  O  O31  1  0.83159600  0.25910500  0.63574000  1
  O  O32  1  0.49550300  0.74379100  0.36848200  1
  O  O33  1  0.99550300  0.75620900  0.63151800  1
  O  O34  1  0.50449700  0.25620900  0.63151800  1
  O  O35  1  0.00449700  0.24379100  0.36848200  1
  O  O36  1  0.81178400  0.65920700  0.38704500  1
  O  O37  1  0.31178400  0.84079300  0.61295500  1
  O  O38  1  0.18821600  0.34079300  0.61295500  1
  O  O39  1  0.68821600  0.15920700  0.38704500  1
