# generated using pymatgen
data_RbVCl3
_symmetry_space_group_name_H-M   'P 1'
_cell_length_a   7.14911147
_cell_length_b   7.14911147
_cell_length_c   6.24037200
_cell_angle_alpha   90.00000000
_cell_angle_beta   90.00000000
_cell_angle_gamma   119.99999514
_symmetry_Int_Tables_number   1
_chemical_formula_structural   RbVCl3
_chemical_formula_sum   'Rb2 V2 Cl6'
_cell_volume   276.21373500
_cell_formula_units_Z   2
loop_
 _symmetry_equiv_pos_site_id
 _symmetry_equiv_pos_as_xyz
  1  'x, y, z'
loop_
 _atom_site_type_symbol
 _atom_site_label
 _atom_site_symmetry_multiplicity
 _atom_site_fract_x
 _atom_site_fract_y
 _atom_site_fract_z
 _atom_site_occupancy
  Rb  Rb0  1  0.66666700  0.33333300  0.25000000  1
  Rb  Rb1  1  0.33333300  0.66666700  0.75000000  1
  V  V2  1  0.00000000  0.00000000  0.50000000  1
  V  V3  1  0.00000000  0.00000000  0.00000000  1
  Cl  Cl4  1  0.84290000  0.68580100  0.75000000  1
  Cl  Cl5  1  0.15710000  0.84290000  0.25000000  1
  Cl  Cl6  1  0.68580100  0.84290000  0.25000000  1
  Cl  Cl7  1  0.31419900  0.15710000  0.75000000  1
  Cl  Cl8  1  0.15710000  0.31419900  0.25000000  1
  Cl  Cl9  1  0.84290000  0.15710000  0.75000000  1
