# generated using pymatgen
data_Tl3Cd2I7
_symmetry_space_group_name_H-M   'P 1'
_cell_length_a   4.59058800
_cell_length_b   14.34547700
_cell_length_c   15.45217200
_cell_angle_alpha   90.00000000
_cell_angle_beta   90.00000000
_cell_angle_gamma   90.00000000
_symmetry_Int_Tables_number   1
_chemical_formula_structural   Tl3Cd2I7
_chemical_formula_sum   'Tl6 Cd4 I14'
_cell_volume   1017.59003238
_cell_formula_units_Z   2
loop_
 _symmetry_equiv_pos_site_id
 _symmetry_equiv_pos_as_xyz
  1  'x, y, z'
loop_
 _atom_site_type_symbol
 _atom_site_label
 _atom_site_symmetry_multiplicity
 _atom_site_fract_x
 _atom_site_fract_y
 _atom_site_fract_z
 _atom_site_occupancy
  Tl  Tl0  1  0.00000000  0.00000000  0.50000000  1
  Tl  Tl1  1  0.00000000  0.50000000  0.00000000  1
  Tl  Tl2  1  0.00000000  0.60505600  0.36561100  1
  Tl  Tl3  1  0.00000000  0.39494400  0.63438900  1
  Tl  Tl4  1  0.00000000  0.10505600  0.13438900  1
  Tl  Tl5  1  0.00000000  0.89494400  0.86561100  1
  Cd  Cd6  1  0.50000000  0.24703000  0.88595100  1
  Cd  Cd7  1  0.50000000  0.75297000  0.11404900  1
  Cd  Cd8  1  0.50000000  0.25297000  0.38595100  1
  Cd  Cd9  1  0.50000000  0.74703000  0.61404900  1
  I  I10  1  0.00000000  0.34017800  0.30904600  1
  I  I11  1  0.00000000  0.65982200  0.69095400  1
  I  I12  1  0.00000000  0.15982200  0.80904600  1
  I  I13  1  0.00000000  0.84017800  0.19095400  1
  I  I14  1  0.50000000  0.50000000  0.50000000  1
  I  I15  1  0.50000000  0.00000000  0.00000000  1
  I  I16  1  0.50000000  0.70527600  0.93829600  1
  I  I17  1  0.50000000  0.29472400  0.06170400  1
  I  I18  1  0.50000000  0.20527600  0.56170400  1
  I  I19  1  0.50000000  0.79472400  0.43829600  1
  I  I20  1  0.50000000  0.93332100  0.68198500  1
  I  I21  1  0.50000000  0.06667900  0.31801500  1
  I  I22  1  0.50000000  0.43332100  0.81801500  1
  I  I23  1  0.50000000  0.56667900  0.18198500  1
