# generated using pymatgen
data_Li4Ge5O12
_symmetry_space_group_name_H-M   'P 1'
_cell_length_a   5.20554700
_cell_length_b   9.30536455
_cell_length_c   9.75050007
_cell_angle_alpha   73.00028581
_cell_angle_beta   77.74516185
_cell_angle_gamma   78.88635280
_symmetry_Int_Tables_number   1
_chemical_formula_structural   Li4Ge5O12
_chemical_formula_sum   'Li8 Ge10 O24'
_cell_volume   437.04233452
_cell_formula_units_Z   2
loop_
 _symmetry_equiv_pos_site_id
 _symmetry_equiv_pos_as_xyz
  1  'x, y, z'
loop_
 _atom_site_type_symbol
 _atom_site_label
 _atom_site_symmetry_multiplicity
 _atom_site_fract_x
 _atom_site_fract_y
 _atom_site_fract_z
 _atom_site_occupancy
  Li  Li0  1  0.68795000  0.23177500  0.44396900  1
  Li  Li1  1  0.31205000  0.76822500  0.55603100  1
  Li  Li2  1  0.27295300  0.90647100  0.02294500  1
  Li  Li3  1  0.72704700  0.09352900  0.97705500  1
  Li  Li4  1  0.86142500  0.59311300  0.59466100  1
  Li  Li5  1  0.13857500  0.40688700  0.40533900  1
  Li  Li6  1  0.34880700  0.57626200  0.11233300  1
  Li  Li7  1  0.65119300  0.42373800  0.88766700  1
  Ge  Ge8  1  0.88274200  0.40567400  0.14847800  1
  Ge  Ge9  1  0.11725800  0.59432600  0.85152200  1
  Ge  Ge10  1  0.74022600  0.90362000  0.73248200  1
  Ge  Ge11  1  0.25977400  0.09638000  0.26751800  1
  Ge  Ge12  1  0.59156400  0.57868600  0.35469000  1
  Ge  Ge13  1  0.40843600  0.42131400  0.64531000  1
  Ge  Ge14  1  0.80697200  0.90030900  0.31714400  1
  Ge  Ge15  1  0.19302800  0.09969100  0.68285600  1
  Ge  Ge16  1  0.81149800  0.74492900  0.06511800  1
  Ge  Ge17  1  0.18850200  0.25507100  0.93488200  1
  O  O18  1  0.09137200  0.93571400  0.37141300  1
  O  O19  1  0.90862800  0.06428600  0.62858700  1
  O  O20  1  0.26695100  0.56700200  0.48377600  1
  O  O21  1  0.73304900  0.43299800  0.51622400  1
  O  O22  1  0.31909100  0.26314200  0.56862000  1
  O  O23  1  0.68090900  0.73685800  0.43138000  1
  O  O24  1  0.44326900  0.58032600  0.72987900  1
  O  O25  1  0.55673100  0.41967400  0.27012100  1
  O  O26  1  0.05071100  0.43245400  0.77519800  1
  O  O27  1  0.94928900  0.56754600  0.22480200  1
  O  O28  1  0.95029600  0.74065600  0.69798600  1
  O  O29  1  0.04970400  0.25934400  0.30201400  1
  O  O30  1  0.51163300  0.27174700  0.81126500  1
  O  O31  1  0.48836700  0.72825300  0.18873500  1
  O  O32  1  0.23318900  0.42274500  0.01331300  1
  O  O33  1  0.76681100  0.57725500  0.98668700  1
  O  O34  1  0.14857000  0.73164200  0.95123500  1
  O  O35  1  0.85143000  0.26835800  0.04876500  1
  O  O36  1  0.43941900  0.93792000  0.66064200  1
  O  O37  1  0.56058100  0.06208000  0.33935800  1
  O  O38  1  0.10268600  0.10121100  0.86712400  1
  O  O39  1  0.89731400  0.89878900  0.13287600  1
  O  O40  1  0.34579700  0.09969100  0.08192000  1
  O  O41  1  0.65420300  0.90030900  0.91808000  1
