# generated using pymatgen
data_Ca2Se3O8
_symmetry_space_group_name_H-M   'P 1'
_cell_length_a   5.60354900
_cell_length_b   8.40021056
_cell_length_c   8.87552425
_cell_angle_alpha   92.78612299
_cell_angle_beta   95.82077320
_cell_angle_gamma   97.37169687
_symmetry_Int_Tables_number   1
_chemical_formula_structural   Ca2Se3O8
_chemical_formula_sum   'Ca4 Se6 O16'
_cell_volume   411.38566320
_cell_formula_units_Z   2
loop_
 _symmetry_equiv_pos_site_id
 _symmetry_equiv_pos_as_xyz
  1  'x, y, z'
loop_
 _atom_site_type_symbol
 _atom_site_label
 _atom_site_symmetry_multiplicity
 _atom_site_fract_x
 _atom_site_fract_y
 _atom_site_fract_z
 _atom_site_occupancy
  Ca  Ca0  1  0.29160000  0.16178600  0.96149100  1
  Ca  Ca1  1  0.70840000  0.83821400  0.03850900  1
  Ca  Ca2  1  0.24169300  0.95571600  0.34823400  1
  Ca  Ca3  1  0.75830700  0.04428400  0.65176600  1
  Se  Se4  1  0.82491600  0.18878100  0.23820400  1
  Se  Se5  1  0.17508400  0.81121900  0.76179600  1
  Se  Se6  1  0.22936400  0.55663700  0.18264700  1
  Se  Se7  1  0.77063600  0.44336300  0.81735300  1
  Se  Se8  1  0.27476100  0.31992100  0.57880100  1
  Se  Se9  1  0.72524000  0.68007900  0.42119900  1
  O  O10  1  0.55011200  0.81928700  0.47655000  1
  O  O11  1  0.44988800  0.18071300  0.52345000  1
  O  O12  1  0.87143600  0.76520300  0.27907900  1
  O  O13  1  0.12856400  0.23479700  0.72092100  1
  O  O14  1  0.49453100  0.47720400  0.68550600  1
  O  O15  1  0.50546900  0.52279600  0.31449400  1
  O  O16  1  0.67774600  0.25516100  0.87036800  1
  O  O17  1  0.32225400  0.74483900  0.12963200  1
  O  O18  1  0.74656500  0.57469300  0.96084200  1
  O  O19  1  0.25343500  0.42530700  0.03915800  1
  O  O20  1  0.08633700  0.87047200  0.58429200  1
  O  O21  1  0.91366300  0.12952800  0.41570800  1
  O  O22  1  0.45222800  0.92688700  0.82187200  1
  O  O23  1  0.54777200  0.07311300  0.17812800  1
  O  O24  1  0.98961500  0.92036600  0.86005900  1
  O  O25  1  0.01038500  0.07963400  0.13994100  1
