# generated using pymatgen
data_BPS4
_symmetry_space_group_name_H-M   'P 1'
_cell_length_a   6.69368385
_cell_length_b   6.69368385
_cell_length_c   6.69368385
_cell_angle_alpha   133.48033415
_cell_angle_beta   124.24002133
_cell_angle_gamma   75.47712437
_symmetry_Int_Tables_number   1
_chemical_formula_structural   BPS4
_chemical_formula_sum   'B1 P1 S4'
_cell_volume   175.19094309
_cell_formula_units_Z   1
loop_
 _symmetry_equiv_pos_site_id
 _symmetry_equiv_pos_as_xyz
  1  'x, y, z'
loop_
 _atom_site_type_symbol
 _atom_site_label
 _atom_site_symmetry_multiplicity
 _atom_site_fract_x
 _atom_site_fract_y
 _atom_site_fract_z
 _atom_site_occupancy
  B  B0  1  0.00000000  0.50000000  0.50000000  1
  P  P1  1  0.00000000  0.00000000  0.00000000  1
  S  S2  1  0.73078600  0.63359000  0.56462900  1
  S  S3  1  0.26921400  0.83384300  0.90280400  1
  S  S4  1  0.93103900  0.36641000  0.09719600  1
  S  S5  1  0.06896100  0.16615700  0.43537100  1
