# generated using pymatgen
data_CeSiNi
_symmetry_space_group_name_H-M   'P 1'
_cell_length_a   7.57856241
_cell_length_b   7.57856241
_cell_length_c   7.57856241
_cell_angle_alpha   149.31120713
_cell_angle_beta   149.31120713
_cell_angle_gamma   43.95342545
_symmetry_Int_Tables_number   1
_chemical_formula_structural   CeSiNi
_chemical_formula_sum   'Ce2 Si2 Ni2'
_cell_volume   113.05874758
_cell_formula_units_Z   2
loop_
 _symmetry_equiv_pos_site_id
 _symmetry_equiv_pos_as_xyz
  1  'x, y, z'
loop_
 _atom_site_type_symbol
 _atom_site_label
 _atom_site_symmetry_multiplicity
 _atom_site_fract_x
 _atom_site_fract_y
 _atom_site_fract_z
 _atom_site_occupancy
  Ce  Ce0  1  0.74980300  0.74980300  0.00000000  1
  Ce  Ce1  1  0.49980300  0.99980300  0.50000000  1
  Si  Si2  1  0.33167000  0.33167000  0.00000000  1
  Si  Si3  1  0.08167000  0.58167000  0.50000000  1
  Ni  Ni4  1  0.91452700  0.41452700  0.50000000  1
  Ni  Ni5  1  0.16452700  0.16452700  0.00000000  1
