# generated using pymatgen
data_Pd(SCl3)2
_symmetry_space_group_name_H-M   'P 1'
_cell_length_a   4.75511400
_cell_length_b   6.98201791
_cell_length_c   8.41418329
_cell_angle_alpha   104.37270662
_cell_angle_beta   97.31228929
_cell_angle_gamma   91.85321562
_symmetry_Int_Tables_number   1
_chemical_formula_structural   Pd(SCl3)2
_chemical_formula_sum   'Pd1 S2 Cl6'
_cell_volume   267.81431766
_cell_formula_units_Z   1
loop_
 _symmetry_equiv_pos_site_id
 _symmetry_equiv_pos_as_xyz
  1  'x, y, z'
loop_
 _atom_site_type_symbol
 _atom_site_label
 _atom_site_symmetry_multiplicity
 _atom_site_fract_x
 _atom_site_fract_y
 _atom_site_fract_z
 _atom_site_occupancy
  Pd  Pd0  1  0.00000000  0.00000000  0.00000000  1
  S  S1  1  0.29379100  0.22595100  0.20660000  1
  S  S2  1  0.70620900  0.77404900  0.79340000  1
  Cl  Cl3  1  0.74552500  0.81784100  0.56702400  1
  Cl  Cl4  1  0.28762600  0.12877900  0.84131600  1
  Cl  Cl5  1  0.71237400  0.87122100  0.15868400  1
  Cl  Cl6  1  0.08994100  0.48176000  0.21556600  1
  Cl  Cl7  1  0.91005900  0.51824000  0.78443400  1
  Cl  Cl8  1  0.25447500  0.18215900  0.43297600  1
