# generated using pymatgen
data_Be(BH4)2
_symmetry_space_group_name_H-M   'P 1'
_cell_length_a   10.69802550
_cell_length_b   10.69802550
_cell_length_c   10.69802550
_cell_angle_alpha   100.42874401
_cell_angle_beta   100.42874401
_cell_angle_gamma   129.64097687
_symmetry_Int_Tables_number   1
_chemical_formula_structural   Be(BH4)2
_chemical_formula_sum   'Be8 B16 H64'
_cell_volume   853.24249653
_cell_formula_units_Z   8
loop_
 _symmetry_equiv_pos_site_id
 _symmetry_equiv_pos_as_xyz
  1  'x, y, z'
loop_
 _atom_site_type_symbol
 _atom_site_label
 _atom_site_symmetry_multiplicity
 _atom_site_fract_x
 _atom_site_fract_y
 _atom_site_fract_z
 _atom_site_occupancy
  Be  Be0  1  0.41118700  0.80001600  0.20959200  1
  Be  Be1  1  0.59042400  0.20159500  0.79040800  1
  Be  Be2  1  0.45159500  0.16118700  0.11117100  1
  Be  Be3  1  0.05001600  0.34042400  0.88882900  1
  Be  Be4  1  0.09042400  0.30001600  0.38882900  1
  Be  Be5  1  0.95159500  0.84042400  0.29040800  1
  Be  Be6  1  0.55001600  0.66118700  0.70959200  1
  Be  Be7  1  0.91118700  0.70159500  0.61117100  1
  B  B8  1  0.42821600  0.98195800  0.16629700  1
  B  B9  1  0.81566200  0.26191900  0.83370300  1
  B  B10  1  0.51191900  0.17821600  0.94625700  1
  B  B11  1  0.23195800  0.56566200  0.05374300  1
  B  B12  1  0.31566200  0.48195800  0.55374300  1
  B  B13  1  0.01191900  0.06566200  0.33370300  1
  B  B14  1  0.73195800  0.67821600  0.66629700  1
  B  B15  1  0.92821600  0.76191900  0.44625700  1
  B  B16  1  0.55381100  0.84394700  0.38045500  1
  B  B17  1  0.46349300  0.17335600  0.61954500  1
  B  B18  1  0.42335600  0.30381100  0.20986300  1
  B  B19  1  0.09394700  0.21349300  0.79013700  1
  B  B20  1  0.96349300  0.34394700  0.29013700  1
  B  B21  1  0.92335600  0.71349300  0.11954500  1
  B  B22  1  0.59394700  0.80381100  0.88045500  1
  B  B23  1  0.05381100  0.67335600  0.70986300  1
  H  H24  1  0.55349800  0.14102700  0.23337100  1
  H  H25  1  0.90765600  0.32012700  0.76662900  1
  H  H26  1  0.57012700  0.30349800  0.91247100  1
  H  H27  1  0.39102700  0.65765600  0.08752900  1
  H  H28  1  0.40765600  0.64102700  0.58752900  1
  H  H29  1  0.07012700  0.15765600  0.26662900  1
  H  H30  1  0.89102700  0.80349800  0.73337100  1
  H  H31  1  0.05349800  0.82012700  0.41247100  1
  H  H32  1  0.31165700  0.94141700  0.06882600  1
  H  H33  1  0.87259100  0.24283100  0.93117400  1
  H  H34  1  0.49283100  0.06165700  0.87024000  1
  H  H35  1  0.19141700  0.62259100  0.12976000  1
  H  H36  1  0.37259100  0.44141700  0.62976000  1
  H  H37  1  0.99283100  0.12259100  0.43117400  1
  H  H38  1  0.69141700  0.56165700  0.56882600  1
  H  H39  1  0.81165700  0.74283100  0.37024000  1
  H  H40  1  0.48685900  0.92605900  0.11777700  1
  H  H41  1  0.80828200  0.36908100  0.88222300  1
  H  H42  1  0.61908100  0.23685900  0.06080000  1
  H  H43  1  0.17605900  0.55828200  0.93920000  1
  H  H44  1  0.30828200  0.42605900  0.43920000  1
  H  H45  1  0.36164900  0.92062000  0.24667500  1
  H  H46  1  0.11908100  0.05828200  0.38222300  1
  H  H47  1  0.98685900  0.86908100  0.56080000  1
  H  H48  1  0.13818300  0.65439500  0.66440200  1
  H  H49  1  0.72378100  0.88818300  0.98378900  1
  H  H50  1  0.90439500  0.73999300  0.01621100  1
  H  H51  1  0.98999300  0.47378100  0.33559800  1
  H  H52  1  0.22378100  0.23999300  0.83559800  1
  H  H53  1  0.40439500  0.38818300  0.16440200  1
  H  H54  1  0.48999300  0.15439500  0.51621100  1
  H  H55  1  0.63818300  0.97378100  0.48378900  1
  H  H56  1  0.06014900  0.67586200  0.82393400  1
  H  H57  1  0.48621500  0.81014900  0.88428700  1
  H  H58  1  0.92586200  0.60192800  0.11571300  1
  H  H59  1  0.85192800  0.23621500  0.17606600  1
  H  H60  1  0.98621500  0.10192800  0.67606600  1
  H  H61  1  0.42586200  0.31014900  0.32393400  1
  H  H62  1  0.35192800  0.17586200  0.61571300  1
  H  H63  1  0.56014900  0.73621500  0.38428700  1
  H  H64  1  0.10468500  0.81689600  0.70978500  1
  H  H65  1  0.64490000  0.85468500  0.78778900  1
  H  H66  1  0.06689600  0.85711100  0.21221100  1
  H  H67  1  0.10711100  0.39490000  0.29021500  1
  H  H68  1  0.14490000  0.35711100  0.79021500  1
  H  H69  1  0.56689600  0.35468500  0.20978500  1
  H  H70  1  0.60711100  0.31689600  0.71221100  1
  H  H71  1  0.60468500  0.89490000  0.28778900  1
  H  H72  1  0.89465400  0.55065300  0.62688300  1
  H  H73  1  0.51777100  0.64465400  0.84400000  1
  H  H74  1  0.80065300  0.67377000  0.15600000  1
  H  H75  1  0.92377000  0.26777100  0.37311700  1
  H  H76  1  0.01777100  0.17377000  0.87311700  1
  H  H77  1  0.30065300  0.14465400  0.12688300  1
  H  H78  1  0.42377000  0.05065300  0.65600000  1
  H  H79  1  0.39465400  0.76777100  0.34400000  1
  H  H80  1  0.86164900  0.61497400  0.44102900  1
  H  H81  1  0.67062000  0.61164900  0.74667500  1
  H  H82  1  0.86497400  0.92394500  0.25332500  1
  H  H83  1  0.17394500  0.42062000  0.55897100  1
  H  H84  1  0.17062000  0.42394500  0.05897100  1
  H  H85  1  0.36497400  0.11164900  0.94102900  1
  H  H86  1  0.67394500  0.11497400  0.75332500  1
  H  H87  1  0.67605900  0.73685900  0.61777700  1
