# generated using pymatgen
data_HfCoSn
_symmetry_space_group_name_H-M   'P 1'
_cell_length_a   7.11017733
_cell_length_b   7.11017733
_cell_length_c   7.16404500
_cell_angle_alpha   90.00000000
_cell_angle_beta   90.00000000
_cell_angle_gamma   119.99999377
_symmetry_Int_Tables_number   1
_chemical_formula_structural   HfCoSn
_chemical_formula_sum   'Hf6 Co6 Sn6'
_cell_volume   313.65327657
_cell_formula_units_Z   6
loop_
 _symmetry_equiv_pos_site_id
 _symmetry_equiv_pos_as_xyz
  1  'x, y, z'
loop_
 _atom_site_type_symbol
 _atom_site_label
 _atom_site_symmetry_multiplicity
 _atom_site_fract_x
 _atom_site_fract_y
 _atom_site_fract_z
 _atom_site_occupancy
  Hf  Hf0  1  0.00779500  0.40151300  0.75000000  1
  Hf  Hf1  1  0.59848700  0.60628300  0.75000000  1
  Hf  Hf2  1  0.39371700  0.99220500  0.75000000  1
  Hf  Hf3  1  0.99220500  0.39371700  0.25000000  1
  Hf  Hf4  1  0.60628300  0.59848700  0.25000000  1
  Hf  Hf5  1  0.40151300  0.00779500  0.25000000  1
  Co  Co6  1  0.33333300  0.66666700  0.46644500  1
  Co  Co7  1  0.66666700  0.33333300  0.53355500  1
  Co  Co8  1  0.33333300  0.66666700  0.03355500  1
  Co  Co9  1  0.00000000  0.00000000  0.75000000  1
  Co  Co10  1  0.00000000  0.00000000  0.25000000  1
  Co  Co11  1  0.66666700  0.33333300  0.96644500  1
  Sn  Sn12  1  0.26730900  0.26730900  0.50000000  1
  Sn  Sn13  1  0.00000000  0.73269100  0.50000000  1
  Sn  Sn14  1  0.00000000  0.73269100  0.00000000  1
  Sn  Sn15  1  0.73269100  0.00000000  0.50000000  1
  Sn  Sn16  1  0.73269100  0.00000000  0.00000000  1
  Sn  Sn17  1  0.26730900  0.26730900  0.00000000  1
