# generated using pymatgen
data_Rb2GaSb2
_symmetry_space_group_name_H-M   'P 1'
_cell_length_a   9.47511200
_cell_length_b   10.98192100
_cell_length_c   15.68780200
_cell_angle_alpha   90.00000000
_cell_angle_beta   90.00000000
_cell_angle_gamma   90.00000000
_symmetry_Int_Tables_number   1
_chemical_formula_structural   Rb2GaSb2
_chemical_formula_sum   'Rb16 Ga8 Sb16'
_cell_volume   1632.39316171
_cell_formula_units_Z   8
loop_
 _symmetry_equiv_pos_site_id
 _symmetry_equiv_pos_as_xyz
  1  'x, y, z'
loop_
 _atom_site_type_symbol
 _atom_site_label
 _atom_site_symmetry_multiplicity
 _atom_site_fract_x
 _atom_site_fract_y
 _atom_site_fract_z
 _atom_site_occupancy
  Rb  Rb0  1  0.22595200  0.96731300  0.48223600  1
  Rb  Rb1  1  0.39620400  0.96621500  0.72925000  1
  Rb  Rb2  1  0.10379600  0.53378500  0.22925000  1
  Rb  Rb3  1  0.89620400  0.03378500  0.77075000  1
  Rb  Rb4  1  0.10379600  0.96621500  0.22925000  1
  Rb  Rb5  1  0.60379600  0.03378500  0.27075000  1
  Rb  Rb6  1  0.89620400  0.46621500  0.77075000  1
  Rb  Rb7  1  0.39620400  0.53378500  0.72925000  1
  Rb  Rb8  1  0.72595200  0.03268700  0.01776400  1
  Rb  Rb9  1  0.77404800  0.46731300  0.51776400  1
  Rb  Rb10  1  0.27404800  0.53268700  0.98223600  1
  Rb  Rb11  1  0.77404800  0.03268700  0.51776400  1
  Rb  Rb12  1  0.72595200  0.46731300  0.01776400  1
  Rb  Rb13  1  0.22595200  0.53268700  0.48223600  1
  Rb  Rb14  1  0.60379600  0.46621500  0.27075000  1
  Rb  Rb15  1  0.27404800  0.96731300  0.98223600  1
  Ga  Ga16  1  0.72258200  0.75000000  0.68078800  1
  Ga  Ga17  1  0.22258200  0.25000000  0.81921200  1
  Ga  Ga18  1  0.77741800  0.75000000  0.18078800  1
  Ga  Ga19  1  0.89943300  0.75000000  0.90654300  1
  Ga  Ga20  1  0.39943300  0.25000000  0.59345700  1
  Ga  Ga21  1  0.10056700  0.25000000  0.09345700  1
  Ga  Ga22  1  0.60056700  0.75000000  0.40654300  1
  Ga  Ga23  1  0.27741800  0.25000000  0.31921200  1
  Sb  Sb24  1  0.11730500  0.75000000  0.80407100  1
  Sb  Sb25  1  0.61730500  0.25000000  0.69592900  1
  Sb  Sb26  1  0.88269500  0.25000000  0.19592900  1
  Sb  Sb27  1  0.38269500  0.75000000  0.30407100  1
  Sb  Sb28  1  0.99051400  0.75000000  0.63738800  1
  Sb  Sb29  1  0.49051400  0.25000000  0.86261200  1
  Sb  Sb30  1  0.00948600  0.25000000  0.36261200  1
  Sb  Sb31  1  0.50948600  0.75000000  0.13738800  1
  Sb  Sb32  1  0.64337800  0.75000000  0.84491900  1
  Sb  Sb33  1  0.14337800  0.25000000  0.65508100  1
  Sb  Sb34  1  0.35662200  0.25000000  0.15508100  1
  Sb  Sb35  1  0.85662200  0.75000000  0.34491900  1
  Sb  Sb36  1  0.98434800  0.75000000  0.06587600  1
  Sb  Sb37  1  0.48434800  0.25000000  0.43412400  1
  Sb  Sb38  1  0.01565200  0.25000000  0.93412400  1
  Sb  Sb39  1  0.51565200  0.75000000  0.56587600  1
