# generated using pymatgen
data_Rb3TlO3
_symmetry_space_group_name_H-M   'P 1'
_cell_length_a   7.27962800
_cell_length_b   7.94390900
_cell_length_c   11.73498525
_cell_angle_alpha   85.97457414
_cell_angle_beta   90.00000000
_cell_angle_gamma   90.00000000
_symmetry_Int_Tables_number   1
_chemical_formula_structural   Rb3TlO3
_chemical_formula_sum   'Rb12 Tl4 O12'
_cell_volume   676.94481413
_cell_formula_units_Z   4
loop_
 _symmetry_equiv_pos_site_id
 _symmetry_equiv_pos_as_xyz
  1  'x, y, z'
loop_
 _atom_site_type_symbol
 _atom_site_label
 _atom_site_symmetry_multiplicity
 _atom_site_fract_x
 _atom_site_fract_y
 _atom_site_fract_z
 _atom_site_occupancy
  Rb  Rb0  1  0.86847000  0.93707600  0.65593600  1
  Rb  Rb1  1  0.63153000  0.93707600  0.15593600  1
  Rb  Rb2  1  0.17712700  0.35466300  0.57746000  1
  Rb  Rb3  1  0.30115700  0.63103100  0.31022000  1
  Rb  Rb4  1  0.80115700  0.36896900  0.18978000  1
  Rb  Rb5  1  0.69884300  0.36896900  0.68978000  1
  Rb  Rb6  1  0.19884300  0.63103100  0.81022000  1
  Rb  Rb7  1  0.32287300  0.35466300  0.07746000  1
  Rb  Rb8  1  0.82287300  0.64533700  0.42254000  1
  Rb  Rb9  1  0.67712700  0.64533700  0.92254000  1
  Rb  Rb10  1  0.36847000  0.06292400  0.84406400  1
  Rb  Rb11  1  0.13153000  0.06292400  0.34406400  1
  Tl  Tl12  1  0.40686500  0.83354000  0.56920100  1
  Tl  Tl13  1  0.59313500  0.16646000  0.43079900  1
  Tl  Tl14  1  0.09313500  0.83354000  0.06920100  1
  Tl  Tl15  1  0.90686500  0.16646000  0.93079900  1
  O  O16  1  0.93445800  0.68933800  0.19568300  1
  O  O17  1  0.96083100  0.89161600  0.89517900  1
  O  O18  1  0.46083100  0.10838400  0.60482100  1
  O  O19  1  0.36499700  0.74060700  0.03746300  1
  O  O20  1  0.86499700  0.25939300  0.46253700  1
  O  O21  1  0.63500300  0.25939300  0.96253700  1
  O  O22  1  0.13500300  0.74060700  0.53746300  1
  O  O23  1  0.56554200  0.68933800  0.69568300  1
  O  O24  1  0.03916900  0.10838400  0.10482100  1
  O  O25  1  0.06554200  0.31066200  0.80431700  1
  O  O26  1  0.43445800  0.31066200  0.30431700  1
  O  O27  1  0.53916900  0.89161600  0.39517900  1
