# generated using pymatgen
data_Ba(SiNi)2
_symmetry_space_group_name_H-M   'P 1'
_cell_length_a   4.21420160
_cell_length_b   4.21420160
_cell_length_c   11.43481500
_cell_angle_alpha   90.00000000
_cell_angle_beta   90.00000000
_cell_angle_gamma   101.03033293
_symmetry_Int_Tables_number   1
_chemical_formula_structural   Ba(SiNi)2
_chemical_formula_sum   'Ba2 Si4 Ni4'
_cell_volume   199.32491161
_cell_formula_units_Z   2
loop_
 _symmetry_equiv_pos_site_id
 _symmetry_equiv_pos_as_xyz
  1  'x, y, z'
loop_
 _atom_site_type_symbol
 _atom_site_label
 _atom_site_symmetry_multiplicity
 _atom_site_fract_x
 _atom_site_fract_y
 _atom_site_fract_z
 _atom_site_occupancy
  Ba  Ba0  1  0.79616700  0.79616700  0.75000000  1
  Ba  Ba1  1  0.20383300  0.20383300  0.25000000  1
  Si  Si2  1  0.68869900  0.68869900  0.43319200  1
  Si  Si3  1  0.31130100  0.31130100  0.93319200  1
  Si  Si4  1  0.68869900  0.68869900  0.06680800  1
  Si  Si5  1  0.31130100  0.31130100  0.56680800  1
  Ni  Ni6  1  0.20445300  0.79554700  0.00000000  1
  Ni  Ni7  1  0.79554700  0.20445300  0.50000000  1
  Ni  Ni8  1  0.20445300  0.79554700  0.50000000  1
  Ni  Ni9  1  0.79554700  0.20445300  0.00000000  1
