# generated using pymatgen
data_KAs4BrO6
_symmetry_space_group_name_H-M   'P 1'
_cell_length_a   5.34714576
_cell_length_b   5.34714576
_cell_length_c   9.23111000
_cell_angle_alpha   90.00000000
_cell_angle_beta   90.00000000
_cell_angle_gamma   119.99999707
_symmetry_Int_Tables_number   1
_chemical_formula_structural   KAs4BrO6
_chemical_formula_sum   'K1 As4 Br1 O6'
_cell_volume   228.57494129
_cell_formula_units_Z   1
loop_
 _symmetry_equiv_pos_site_id
 _symmetry_equiv_pos_as_xyz
  1  'x, y, z'
loop_
 _atom_site_type_symbol
 _atom_site_label
 _atom_site_symmetry_multiplicity
 _atom_site_fract_x
 _atom_site_fract_y
 _atom_site_fract_z
 _atom_site_occupancy
  K  K0  1  0.00000000  0.00000000  0.50000000  1
  As  As1  1  0.33333300  0.66666700  0.79220500  1
  As  As2  1  0.66666700  0.33333300  0.79220500  1
  As  As3  1  0.66666700  0.33333300  0.20779500  1
  As  As4  1  0.33333300  0.66666700  0.20779500  1
  Br  Br5  1  0.00000000  0.00000000  0.00000000  1
  O  O6  1  0.50000000  0.50000000  0.31587500  1
  O  O7  1  0.00000000  0.50000000  0.68412500  1
  O  O8  1  0.50000000  0.50000000  0.68412500  1
  O  O9  1  0.50000000  0.00000000  0.68412500  1
  O  O10  1  0.00000000  0.50000000  0.31587500  1
  O  O11  1  0.50000000  0.00000000  0.31587500  1
