# generated using pymatgen
data_CS14
_symmetry_space_group_name_H-M   'P 1'
_cell_length_a   7.96415884
_cell_length_b   7.96415884
_cell_length_c   7.96415870
_cell_angle_alpha   93.43348624
_cell_angle_beta   93.43348624
_cell_angle_gamma   93.43349245
_symmetry_Int_Tables_number   1
_chemical_formula_structural   CS14
_chemical_formula_sum   'C1 S14'
_cell_volume   502.31501274
_cell_formula_units_Z   1
loop_
 _symmetry_equiv_pos_site_id
 _symmetry_equiv_pos_as_xyz
  1  'x, y, z'
loop_
 _atom_site_type_symbol
 _atom_site_label
 _atom_site_symmetry_multiplicity
 _atom_site_fract_x
 _atom_site_fract_y
 _atom_site_fract_z
 _atom_site_occupancy
  C  C0  1  0.50000000  0.50000000  0.50000000  1
  S  S1  1  0.21018800  0.21018800  0.83982900  1
  S  S2  1  0.21018800  0.83982900  0.21018800  1
  S  S3  1  0.78981200  0.16017100  0.78981200  1
  S  S4  1  0.16017100  0.78981200  0.78981200  1
  S  S5  1  0.78981200  0.78981200  0.16017100  1
  S  S6  1  0.71019100  0.28980900  0.00000000  1
  S  S7  1  0.28980900  0.00000000  0.71019100  1
  S  S8  1  0.00000000  0.71019100  0.28980900  1
  S  S9  1  0.28980900  0.71019100  0.00000000  1
  S  S10  1  0.71019100  0.00000000  0.28980900  1
  S  S11  1  0.00000000  0.28980900  0.71019100  1
  S  S12  1  0.37975800  0.37975800  0.37975800  1
  S  S13  1  0.62024200  0.62024200  0.62024200  1
  S  S14  1  0.83982900  0.21018800  0.21018800  1
