# generated using pymatgen
data_Te2W
_symmetry_space_group_name_H-M   'P 1'
_cell_length_a   3.49794100
_cell_length_b   6.33827400
_cell_length_c   15.43185100
_cell_angle_alpha   90.00000000
_cell_angle_beta   90.00000000
_cell_angle_gamma   90.00000000
_symmetry_Int_Tables_number   1
_chemical_formula_structural   Te2W
_chemical_formula_sum   'Te8 W4'
_cell_volume   342.13815641
_cell_formula_units_Z   4
loop_
 _symmetry_equiv_pos_site_id
 _symmetry_equiv_pos_as_xyz
  1  'x, y, z'
loop_
 _atom_site_type_symbol
 _atom_site_label
 _atom_site_symmetry_multiplicity
 _atom_site_fract_x
 _atom_site_fract_y
 _atom_site_fract_z
 _atom_site_occupancy
  Te  Te0  1  0.50000000  0.79221800  0.91195400  1
  Te  Te1  1  0.00000000  0.20778200  0.41195400  1
  Te  Te2  1  0.50000000  0.69949900  0.37164300  1
  Te  Te3  1  0.00000000  0.30050100  0.87164300  1
  Te  Te4  1  0.00000000  0.85927500  0.64346200  1
  Te  Te5  1  0.50000000  0.14072500  0.14346200  1
  Te  Te6  1  0.00000000  0.64866600  0.10313100  1
  Te  Te7  1  0.50000000  0.35133400  0.60313100  1
  W  W8  1  0.50000000  0.95771500  0.51418200  1
  W  W9  1  0.00000000  0.04228500  0.01418200  1
  W  W10  1  0.50000000  0.39861800  0.00091800  1
  W  W11  1  0.00000000  0.60138200  0.50091800  1
