# generated using pymatgen
data_NbHg3F6
_symmetry_space_group_name_H-M   'P 1'
_cell_length_a   5.27996044
_cell_length_b   5.27996044
_cell_length_c   7.68500500
_cell_angle_alpha   90.00000000
_cell_angle_beta   90.00000000
_cell_angle_gamma   120.00000552
_symmetry_Int_Tables_number   1
_chemical_formula_structural   NbHg3F6
_chemical_formula_sum   'Nb1 Hg3 F6'
_cell_volume   185.53937925
_cell_formula_units_Z   1
loop_
 _symmetry_equiv_pos_site_id
 _symmetry_equiv_pos_as_xyz
  1  'x, y, z'
loop_
 _atom_site_type_symbol
 _atom_site_label
 _atom_site_symmetry_multiplicity
 _atom_site_fract_x
 _atom_site_fract_y
 _atom_site_fract_z
 _atom_site_occupancy
  Nb  Nb0  1  0.00000000  0.00000000  0.00000000  1
  Hg  Hg1  1  0.00000000  0.00000000  0.50000000  1
  Hg  Hg2  1  0.33333300  0.66666700  0.50000000  1
  Hg  Hg3  1  0.66666700  0.33333300  0.50000000  1
  F  F4  1  0.29575700  0.00000000  0.15067300  1
  F  F5  1  0.00000000  0.29575700  0.15067300  1
  F  F6  1  0.70424300  0.70424300  0.15067300  1
  F  F7  1  0.00000000  0.70424300  0.84932700  1
  F  F8  1  0.70424300  0.00000000  0.84932700  1
  F  F9  1  0.29575700  0.29575700  0.84932700  1
