# generated using pymatgen
data_Gd2NCl3
_symmetry_space_group_name_H-M   'P 1'
_cell_length_a   6.17203300
_cell_length_b   6.77507800
_cell_length_c   13.15226600
_cell_angle_alpha   90.00000000
_cell_angle_beta   90.00000000
_cell_angle_gamma   90.00000000
_symmetry_Int_Tables_number   1
_chemical_formula_structural   Gd2NCl3
_chemical_formula_sum   'Gd8 N4 Cl12'
_cell_volume   549.97522073
_cell_formula_units_Z   4
loop_
 _symmetry_equiv_pos_site_id
 _symmetry_equiv_pos_as_xyz
  1  'x, y, z'
loop_
 _atom_site_type_symbol
 _atom_site_label
 _atom_site_symmetry_multiplicity
 _atom_site_fract_x
 _atom_site_fract_y
 _atom_site_fract_z
 _atom_site_occupancy
  Gd  Gd0  1  0.99240700  0.32763600  0.40817400  1
  Gd  Gd1  1  0.49240700  0.17236400  0.09182600  1
  Gd  Gd2  1  0.50759300  0.32763600  0.59182600  1
  Gd  Gd3  1  0.00759300  0.17236400  0.90817400  1
  Gd  Gd4  1  0.00759300  0.67236400  0.59182600  1
  Gd  Gd5  1  0.50759300  0.82763600  0.90817400  1
  Gd  Gd6  1  0.49240700  0.67236400  0.40817400  1
  Gd  Gd7  1  0.99240700  0.82763600  0.09182600  1
  N  N8  1  0.75000000  0.50999100  0.50000000  1
  N  N9  1  0.25000000  0.99000900  0.00000000  1
  N  N10  1  0.25000000  0.49000900  0.50000000  1
  N  N11  1  0.75000000  0.00999100  0.00000000  1
  Cl  Cl12  1  0.11076800  0.13479400  0.22057100  1
  Cl  Cl13  1  0.61076800  0.36520600  0.27942900  1
  Cl  Cl14  1  0.38923200  0.13479400  0.77942900  1
  Cl  Cl15  1  0.88923200  0.36520600  0.72057100  1
  Cl  Cl16  1  0.75000000  0.50261700  0.00000000  1
  Cl  Cl17  1  0.25000000  0.99738300  0.50000000  1
  Cl  Cl18  1  0.25000000  0.49738300  0.00000000  1
  Cl  Cl19  1  0.75000000  0.00261700  0.50000000  1
  Cl  Cl20  1  0.11076800  0.63479400  0.27942900  1
  Cl  Cl21  1  0.61076800  0.86520600  0.22057100  1
  Cl  Cl22  1  0.38923200  0.63479400  0.72057100  1
  Cl  Cl23  1  0.88923200  0.86520600  0.77942900  1
