# generated using pymatgen
data_P2Pb2O7
_symmetry_space_group_name_H-M   'P 1'
_cell_length_a   7.08867600
_cell_length_b   7.16108333
_cell_length_c   12.97486577
_cell_angle_alpha   95.94984715
_cell_angle_beta   90.69640984
_cell_angle_gamma   90.60886304
_symmetry_Int_Tables_number   1
_chemical_formula_structural   P2Pb2O7
_chemical_formula_sum   'P8 Pb8 O28'
_cell_volume   654.99466571
_cell_formula_units_Z   4
loop_
 _symmetry_equiv_pos_site_id
 _symmetry_equiv_pos_as_xyz
  1  'x, y, z'
loop_
 _atom_site_type_symbol
 _atom_site_label
 _atom_site_symmetry_multiplicity
 _atom_site_fract_x
 _atom_site_fract_y
 _atom_site_fract_z
 _atom_site_occupancy
  P  P0  1  0.41093000  0.71323500  0.90028000  1
  P  P1  1  0.58907000  0.28676500  0.09972000  1
  P  P2  1  0.16887800  0.69806000  0.08776100  1
  P  P3  1  0.83112200  0.30194000  0.91223900  1
  P  P4  1  0.81870900  0.69456400  0.59205400  1
  P  P5  1  0.18129100  0.30543600  0.40794600  1
  P  P6  1  0.76688700  0.88756100  0.40045300  1
  P  P7  1  0.23311300  0.11243900  0.59954700  1
  Pb  Pb8  1  0.35237300  0.62277400  0.63162100  1
  Pb  Pb9  1  0.64762700  0.37722600  0.36837900  1
  Pb  Pb10  1  0.90737400  0.80687100  0.85760600  1
  Pb  Pb11  1  0.09262600  0.19312900  0.14239400  1
  Pb  Pb12  1  0.32532700  0.21328900  0.85924800  1
  Pb  Pb13  1  0.67467300  0.78671100  0.14075200  1
  Pb  Pb14  1  0.75235500  0.18891600  0.64591100  1
  Pb  Pb15  1  0.24764500  0.81108400  0.35408900  1
  O  O16  1  0.44588800  0.54955600  0.81767400  1
  O  O17  1  0.55411200  0.45044400  0.18232600  1
  O  O18  1  0.59263500  0.79500000  0.95403500  1
  O  O19  1  0.40736500  0.20500000  0.04596500  1
  O  O20  1  0.28407000  0.86271300  0.85868800  1
  O  O21  1  0.71593000  0.13728700  0.14131200  1
  O  O22  1  0.29030700  0.61352900  0.98752200  1
  O  O23  1  0.70969300  0.38647100  0.01247800  1
  O  O24  1  0.30565000  0.82648900  0.15765500  1
  O  O25  1  0.69435000  0.17351100  0.84234500  1
  O  O26  1  0.09409200  0.53048300  0.13796700  1
  O  O27  1  0.90590800  0.46951700  0.86203300  1
  O  O28  1  0.00773200  0.81644400  0.04660700  1
  O  O29  1  0.99226800  0.18355600  0.95339300  1
  O  O30  1  0.68978200  0.52346000  0.55586300  1
  O  O31  1  0.31021800  0.47654000  0.44413700  1
  O  O32  1  0.09204100  0.09538200  0.68658300  1
  O  O33  1  0.90795900  0.90461800  0.31341700  1
  O  O34  1  0.39882300  0.24377600  0.63840900  1
  O  O35  1  0.60117700  0.75622400  0.36159100  1
  O  O36  1  0.29682100  0.92499400  0.54394000  1
  O  O37  1  0.70317900  0.07500600  0.45606000  1
  O  O38  1  0.11284500  0.21909400  0.51379500  1
  O  O39  1  0.88715500  0.78090600  0.48620500  1
  O  O40  1  0.00366500  0.35916000  0.35194200  1
  O  O41  1  0.99633500  0.64084000  0.64805800  1
  O  O42  1  0.29829800  0.15444700  0.34431800  1
  O  O43  1  0.70170200  0.84555300  0.65568200  1
