# generated using pymatgen
data_RbSF5
_symmetry_space_group_name_H-M   'P 1'
_cell_length_a   6.25891000
_cell_length_b   7.86537100
_cell_length_c   10.20511900
_cell_angle_alpha   90.00000000
_cell_angle_beta   90.00000000
_cell_angle_gamma   90.00000000
_symmetry_Int_Tables_number   1
_chemical_formula_structural   RbSF5
_chemical_formula_sum   'Rb4 S4 F20'
_cell_volume   502.38422335
_cell_formula_units_Z   4
loop_
 _symmetry_equiv_pos_site_id
 _symmetry_equiv_pos_as_xyz
  1  'x, y, z'
loop_
 _atom_site_type_symbol
 _atom_site_label
 _atom_site_symmetry_multiplicity
 _atom_site_fract_x
 _atom_site_fract_y
 _atom_site_fract_z
 _atom_site_occupancy
  Rb  Rb0  1  0.25000000  0.65772800  0.65464900  1
  Rb  Rb1  1  0.75000000  0.34227200  0.34535100  1
  Rb  Rb2  1  0.75000000  0.15772800  0.84535100  1
  Rb  Rb3  1  0.25000000  0.84227200  0.15464900  1
  S  S4  1  0.25000000  0.15881400  0.59690700  1
  S  S5  1  0.75000000  0.84118600  0.40309300  1
  S  S6  1  0.75000000  0.65881400  0.90309300  1
  S  S7  1  0.25000000  0.34118600  0.09690700  1
  F  F8  1  0.25000000  0.22846300  0.74657800  1
  F  F9  1  0.75000000  0.77153700  0.25342200  1
  F  F10  1  0.75000000  0.72846300  0.75342200  1
  F  F11  1  0.25000000  0.27153700  0.24657800  1
  F  F12  1  0.95205500  0.68400000  0.43091700  1
  F  F13  1  0.45205500  0.31600000  0.56908300  1
  F  F14  1  0.04794500  0.18400000  0.06908300  1
  F  F15  1  0.54794500  0.81600000  0.93091700  1
  F  F16  1  0.44843900  0.48561400  0.15047500  1
  F  F17  1  0.94843900  0.51438600  0.84952500  1
  F  F18  1  0.55156100  0.98561400  0.34952500  1
  F  F19  1  0.05156100  0.01438600  0.65047500  1
  F  F20  1  0.55156100  0.51438600  0.84952500  1
  F  F21  1  0.05156100  0.48561400  0.15047500  1
  F  F22  1  0.44843900  0.01438600  0.65047500  1
  F  F23  1  0.94843900  0.98561400  0.34952500  1
  F  F24  1  0.45205500  0.18400000  0.06908300  1
  F  F25  1  0.95205500  0.81600000  0.93091700  1
  F  F26  1  0.54794500  0.68400000  0.43091700  1
  F  F27  1  0.04794500  0.31600000  0.56908300  1
