# generated using pymatgen
data_VPCl9
_symmetry_space_group_name_H-M   'P 1'
_cell_length_a   10.48731557
_cell_length_b   10.48731557
_cell_length_c   6.43891700
_cell_angle_alpha   90.00000000
_cell_angle_beta   90.00000000
_cell_angle_gamma   107.88867601
_symmetry_Int_Tables_number   1
_chemical_formula_structural   VPCl9
_chemical_formula_sum   'V2 P2 Cl18'
_cell_volume   673.93978206
_cell_formula_units_Z   2
loop_
 _symmetry_equiv_pos_site_id
 _symmetry_equiv_pos_as_xyz
  1  'x, y, z'
loop_
 _atom_site_type_symbol
 _atom_site_label
 _atom_site_symmetry_multiplicity
 _atom_site_fract_x
 _atom_site_fract_y
 _atom_site_fract_z
 _atom_site_occupancy
  V  V0  1  0.75000000  0.25000000  0.61335900  1
  V  V1  1  0.25000000  0.75000000  0.38664100  1
  P  P2  1  0.75000000  0.75000000  0.00000000  1
  P  P3  1  0.25000000  0.25000000  0.00000000  1
  Cl  Cl4  1  0.22450700  0.09176900  0.82264600  1
  Cl  Cl5  1  0.40823100  0.27549300  0.17735400  1
  Cl  Cl6  1  0.90809300  0.40809300  0.76773600  1
  Cl  Cl7  1  0.09190700  0.59190700  0.23226400  1
  Cl  Cl8  1  0.40809300  0.90809300  0.23226400  1
  Cl  Cl9  1  0.59190700  0.09190700  0.76773600  1
  Cl  Cl10  1  0.75000000  0.25000000  0.26980900  1
  Cl  Cl11  1  0.25000000  0.75000000  0.73019100  1
  Cl  Cl12  1  0.11248900  0.88751100  0.39152100  1
  Cl  Cl13  1  0.61248900  0.38751100  0.60847900  1
  Cl  Cl14  1  0.38751100  0.61248900  0.39152100  1
  Cl  Cl15  1  0.88751100  0.11248900  0.60847900  1
  Cl  Cl16  1  0.27549300  0.40823100  0.82264600  1
  Cl  Cl17  1  0.09176900  0.22450700  0.17735400  1
  Cl  Cl18  1  0.77549300  0.90823100  0.17735400  1
  Cl  Cl19  1  0.59176900  0.72450700  0.82264600  1
  Cl  Cl20  1  0.90823100  0.77549300  0.82264600  1
  Cl  Cl21  1  0.72450700  0.59176900  0.17735400  1
