# generated using pymatgen
data_LiGaI3
_symmetry_space_group_name_H-M   'P 1'
_cell_length_a   11.57686900
_cell_length_b   7.28492700
_cell_length_c   8.61615476
_cell_angle_alpha   87.77452091
_cell_angle_beta   90.00000000
_cell_angle_gamma   90.00000000
_symmetry_Int_Tables_number   1
_chemical_formula_structural   LiGaI3
_chemical_formula_sum   'Li4 Ga4 I12'
_cell_volume   726.10950641
_cell_formula_units_Z   4
loop_
 _symmetry_equiv_pos_site_id
 _symmetry_equiv_pos_as_xyz
  1  'x, y, z'
loop_
 _atom_site_type_symbol
 _atom_site_label
 _atom_site_symmetry_multiplicity
 _atom_site_fract_x
 _atom_site_fract_y
 _atom_site_fract_z
 _atom_site_occupancy
  Li  Li0  1  0.50000000  0.00000000  0.50000000  1
  Li  Li1  1  0.50000000  0.50000000  0.00000000  1
  Li  Li2  1  0.00000000  0.00000000  0.50000000  1
  Li  Li3  1  0.00000000  0.50000000  0.00000000  1
  Ga  Ga4  1  0.25000000  0.03374200  0.97010900  1
  Ga  Ga5  1  0.75000000  0.86679100  0.75889800  1
  Ga  Ga6  1  0.75000000  0.96625800  0.02989100  1
  Ga  Ga7  1  0.25000000  0.13320900  0.24110200  1
  I  I8  1  0.75000000  0.32454400  0.06582200  1
  I  I9  1  0.56969800  0.66506500  0.68286000  1
  I  I10  1  0.06969800  0.33493500  0.31714000  1
  I  I11  1  0.43030200  0.33493500  0.31714000  1
  I  I12  1  0.06992200  0.17800900  0.81637700  1
  I  I13  1  0.56992200  0.82199100  0.18362300  1
  I  I14  1  0.93007800  0.82199100  0.18362300  1
  I  I15  1  0.43007800  0.17800900  0.81637700  1
  I  I16  1  0.25000000  0.67545600  0.93417800  1
  I  I17  1  0.75000000  0.13722800  0.54622300  1
  I  I18  1  0.25000000  0.86277200  0.45377700  1
  I  I19  1  0.93030200  0.66506500  0.68286000  1
