# generated using pymatgen
data_Rb6Sn2S7
_symmetry_space_group_name_H-M   'P 1'
_cell_length_a   10.13666200
_cell_length_b   13.71384900
_cell_length_c   15.15346400
_cell_angle_alpha   90.00000000
_cell_angle_beta   90.00000000
_cell_angle_gamma   90.00000000
_symmetry_Int_Tables_number   1
_chemical_formula_structural   Rb6Sn2S7
_chemical_formula_sum   'Rb24 Sn8 S28'
_cell_volume   2106.52321811
_cell_formula_units_Z   4
loop_
 _symmetry_equiv_pos_site_id
 _symmetry_equiv_pos_as_xyz
  1  'x, y, z'
loop_
 _atom_site_type_symbol
 _atom_site_label
 _atom_site_symmetry_multiplicity
 _atom_site_fract_x
 _atom_site_fract_y
 _atom_site_fract_z
 _atom_site_occupancy
  Rb  Rb0  1  0.93745700  0.18047700  0.88103200  1
  Rb  Rb1  1  0.97066700  0.83906000  0.18979500  1
  Rb  Rb2  1  0.47066700  0.66094000  0.81020500  1
  Rb  Rb3  1  0.02933300  0.33906000  0.31020500  1
  Rb  Rb4  1  0.52933300  0.16094000  0.68979500  1
  Rb  Rb5  1  0.71977600  0.86092300  0.93900400  1
  Rb  Rb6  1  0.21977600  0.63907700  0.06099600  1
  Rb  Rb7  1  0.28022400  0.36092300  0.56099600  1
  Rb  Rb8  1  0.85774500  0.43013500  0.08530000  1
  Rb  Rb9  1  0.35774500  0.06986500  0.91470000  1
  Rb  Rb10  1  0.14225500  0.93013500  0.41470000  1
  Rb  Rb11  1  0.64225500  0.56986500  0.58530000  1
  Rb  Rb12  1  0.85539300  0.34798400  0.64356300  1
  Rb  Rb13  1  0.35539300  0.15201600  0.35643700  1
  Rb  Rb14  1  0.14460700  0.84798400  0.85643700  1
  Rb  Rb15  1  0.64460700  0.65201600  0.14356300  1
  Rb  Rb16  1  0.78022400  0.13907700  0.43900400  1
  Rb  Rb17  1  0.75020300  0.88413800  0.62799100  1
  Rb  Rb18  1  0.06254300  0.68047700  0.61896800  1
  Rb  Rb19  1  0.56254300  0.81952300  0.38103200  1
  Rb  Rb20  1  0.74979700  0.11586200  0.12799100  1
  Rb  Rb21  1  0.24979700  0.38413800  0.87200900  1
  Rb  Rb22  1  0.25020300  0.61586200  0.37200900  1
  Rb  Rb23  1  0.43745700  0.31952300  0.11896800  1
  Sn  Sn24  1  0.87591600  0.60549300  0.38138900  1
  Sn  Sn25  1  0.92244600  0.60667700  0.86209700  1
  Sn  Sn26  1  0.42244600  0.89332300  0.13790300  1
  Sn  Sn27  1  0.07755400  0.10667700  0.63790300  1
  Sn  Sn28  1  0.57755400  0.39332300  0.36209700  1
  Sn  Sn29  1  0.62408400  0.39450700  0.88138900  1
  Sn  Sn30  1  0.12408400  0.10549300  0.11861100  1
  Sn  Sn31  1  0.37591600  0.89450700  0.61861100  1
  S  S32  1  0.61886700  0.22979000  0.93671300  1
  S  S33  1  0.11886700  0.27021000  0.06328700  1
  S  S34  1  0.38113300  0.72979000  0.56328700  1
  S  S35  1  0.88113300  0.77021000  0.43671300  1
  S  S36  1  0.59703500  0.32848000  0.50772700  1
  S  S37  1  0.09703500  0.17152000  0.49227300  1
  S  S38  1  0.40296500  0.82848000  0.99227300  1
  S  S39  1  0.90296500  0.67152000  0.00772700  1
  S  S40  1  0.70652000  0.30411100  0.25736800  1
  S  S41  1  0.20652000  0.19588900  0.74263200  1
  S  S42  1  0.29348000  0.80411100  0.24263200  1
  S  S43  1  0.79348000  0.69588900  0.75736800  1
  S  S44  1  0.84816200  0.10386200  0.67722800  1
  S  S45  1  0.34816200  0.39613800  0.32277200  1
  S  S46  1  0.15183800  0.60386200  0.82277200  1
  S  S47  1  0.65183800  0.89613800  0.17722800  1
  S  S48  1  0.97616900  0.49698000  0.48703000  1
  S  S49  1  0.47616900  0.00302000  0.51297000  1
  S  S50  1  0.02383100  0.99698000  0.01297000  1
  S  S51  1  0.52383100  0.50302000  0.98703000  1
  S  S52  1  0.52890100  0.41124600  0.73829000  1
  S  S53  1  0.02890100  0.08875400  0.26171000  1
  S  S54  1  0.47109900  0.91124600  0.76171000  1
  S  S55  1  0.97109900  0.58875400  0.23829000  1
  S  S56  1  0.86853300  0.42735200  0.86261400  1
  S  S57  1  0.63146700  0.57264800  0.36261400  1
  S  S58  1  0.13146700  0.92735200  0.63738600  1
  S  S59  1  0.36853300  0.07264800  0.13738600  1
