# generated using pymatgen
data_Se2O5
_symmetry_space_group_name_H-M   'P 1'
_cell_length_a   7.11005800
_cell_length_b   4.85660200
_cell_length_c   14.01935087
_cell_angle_alpha   88.87427085
_cell_angle_beta   90.00000000
_cell_angle_gamma   90.00000000
_symmetry_Int_Tables_number   1
_chemical_formula_structural   Se2O5
_chemical_formula_sum   'Se8 O20'
_cell_volume   484.00487051
_cell_formula_units_Z   4
loop_
 _symmetry_equiv_pos_site_id
 _symmetry_equiv_pos_as_xyz
  1  'x, y, z'
loop_
 _atom_site_type_symbol
 _atom_site_label
 _atom_site_symmetry_multiplicity
 _atom_site_fract_x
 _atom_site_fract_y
 _atom_site_fract_z
 _atom_site_occupancy
  Se  Se0  1  0.75915100  0.63160800  0.64042000  1
  Se  Se1  1  0.25915100  0.36839200  0.85958000  1
  Se  Se2  1  0.24084900  0.36839200  0.35958000  1
  Se  Se3  1  0.74084900  0.63160800  0.14042000  1
  Se  Se4  1  0.71359300  0.50144600  0.87079600  1
  Se  Se5  1  0.21359300  0.49855400  0.62920400  1
  Se  Se6  1  0.28640700  0.49855400  0.12920400  1
  Se  Se7  1  0.78640700  0.50144600  0.37079600  1
  O  O8  1  0.74905700  0.29944400  0.63861000  1
  O  O9  1  0.24905700  0.70055600  0.86139000  1
  O  O10  1  0.25094300  0.70055600  0.36139000  1
  O  O11  1  0.75094300  0.29944400  0.13861000  1
  O  O12  1  0.71798600  0.72980200  0.77176000  1
  O  O13  1  0.21798600  0.27019800  0.72824000  1
  O  O14  1  0.28201400  0.27019800  0.22824000  1
  O  O15  1  0.78201400  0.72980200  0.27176000  1
  O  O16  1  0.82956900  0.69893300  0.46148700  1
  O  O17  1  0.32956900  0.30106700  0.03851300  1
  O  O18  1  0.17043100  0.30106700  0.53851300  1
  O  O19  1  0.67043100  0.69893300  0.96148700  1
  O  O20  1  0.60204500  0.30045900  0.37413100  1
  O  O21  1  0.10204500  0.69954100  0.12586900  1
  O  O22  1  0.39795500  0.69954100  0.62586900  1
  O  O23  1  0.89795500  0.30045900  0.87413100  1
  O  O24  1  0.97574700  0.28048700  0.34705200  1
  O  O25  1  0.47574700  0.71951300  0.15294800  1
  O  O26  1  0.02425300  0.71951300  0.65294800  1
  O  O27  1  0.52425300  0.28048700  0.84705200  1
