# generated using pymatgen
data_Sb2(S2O7)3
_symmetry_space_group_name_H-M   'P 1'
_cell_length_a   6.77956700
_cell_length_b   9.84343570
_cell_length_c   12.95211009
_cell_angle_alpha   87.33654414
_cell_angle_beta   82.60946462
_cell_angle_gamma   81.91152467
_symmetry_Int_Tables_number   1
_chemical_formula_structural   Sb2(S2O7)3
_chemical_formula_sum   'Sb4 S12 O42'
_cell_volume   848.28697691
_cell_formula_units_Z   2
loop_
 _symmetry_equiv_pos_site_id
 _symmetry_equiv_pos_as_xyz
  1  'x, y, z'
loop_
 _atom_site_type_symbol
 _atom_site_label
 _atom_site_symmetry_multiplicity
 _atom_site_fract_x
 _atom_site_fract_y
 _atom_site_fract_z
 _atom_site_occupancy
  Sb  Sb0  1  0.74347400  0.58751800  0.24303500  1
  Sb  Sb1  1  0.25652600  0.41248200  0.75696500  1
  Sb  Sb2  1  0.26719100  0.09223400  0.20508900  1
  Sb  Sb3  1  0.73280900  0.90776600  0.79491100  1
  S  S4  1  0.21618300  0.46965600  0.28557000  1
  S  S5  1  0.78381700  0.53034400  0.71443000  1
  S  S6  1  0.93397100  0.31228500  0.40051000  1
  S  S7  1  0.06602900  0.68771500  0.59949000  1
  S  S8  1  0.58279400  0.82179400  0.41899500  1
  S  S9  1  0.41720600  0.17820600  0.58100500  1
  S  S10  1  0.83703900  0.93463600  0.25656100  1
  S  S11  1  0.16296100  0.06536400  0.74343900  1
  S  S12  1  0.60390800  0.20027800  0.95884100  1
  S  S13  1  0.39609200  0.79972200  0.04115900  1
  S  S14  1  0.95717000  0.27670800  0.04419800  1
  S  S15  1  0.04283000  0.72329200  0.95580200  1
  O  O16  1  0.05627600  0.58349100  0.25818900  1
  O  O17  1  0.94372400  0.41650900  0.74181100  1
  O  O18  1  0.38797600  0.52516700  0.31122600  1
  O  O19  1  0.61202400  0.47483300  0.68877400  1
  O  O20  1  0.24917700  0.36106400  0.21088500  1
  O  O21  1  0.75082300  0.63893600  0.78911500  1
  O  O22  1  0.12271100  0.40706100  0.39686700  1
  O  O23  1  0.87728900  0.59293900  0.60313300  1
  O  O24  1  0.87471000  0.29432300  0.50900400  1
  O  O25  1  0.12529000  0.70567700  0.49099600  1
  O  O26  1  0.01914500  0.18815500  0.34370600  1
  O  O27  1  0.98085500  0.81184500  0.65629400  1
  O  O28  1  0.78370400  0.39958000  0.34283300  1
  O  O29  1  0.21629600  0.60042000  0.65716700  1
  O  O30  1  0.66782300  0.67388200  0.39149000  1
  O  O31  1  0.33217700  0.32611800  0.60851000  1
  O  O32  1  0.92421400  0.84472300  0.90403200  1
  O  O33  1  0.07578600  0.15527700  0.09596800  1
  O  O34  1  0.19072800  0.64671800  0.88317900  1
  O  O35  1  0.80927200  0.35328200  0.11682100  1
  O  O36  1  0.91585400  0.65003000  0.02852600  1
  O  O37  1  0.08414600  0.34997000  0.97147400  1
  O  O38  1  0.15482700  0.81857400  0.02544500  1
  O  O39  1  0.84517300  0.18142600  0.97455500  1
  O  O40  1  0.50787000  0.80074000  0.93821600  1
  O  O41  1  0.49213000  0.19926000  0.06178400  1
  O  O42  1  0.43543700  0.67770700  0.10496200  1
  O  O43  1  0.56456300  0.32229300  0.89503800  1
  O  O44  1  0.39683300  0.92914300  0.09605800  1
  O  O45  1  0.60316700  0.07085700  0.90394200  1
  O  O46  1  0.94316700  0.05938800  0.75187300  1
  O  O47  1  0.05683300  0.94061200  0.24812700  1
  O  O48  1  0.20021700  0.18794600  0.79571700  1
  O  O49  1  0.79978300  0.81205400  0.20428300  1
  O  O50  1  0.28366900  0.94105200  0.77181600  1
  O  O51  1  0.71633100  0.05894800  0.22818400  1
  O  O52  1  0.21455300  0.09677400  0.61938900  1
  O  O53  1  0.78544700  0.90322600  0.38061100  1
  O  O54  1  0.44418300  0.16439300  0.47095300  1
  O  O55  1  0.55581700  0.83560700  0.52904700  1
  O  O56  1  0.57050100  0.12119700  0.64393500  1
  O  O57  1  0.42949900  0.87880300  0.35606500  1
