# generated using pymatgen
data_Nb(SCl)2
_symmetry_space_group_name_H-M   'P 1'
_cell_length_a   6.44957514
_cell_length_b   6.44957514
_cell_length_c   7.41377964
_cell_angle_alpha   80.23136789
_cell_angle_beta   80.23136789
_cell_angle_gamma   120.73403186
_symmetry_Int_Tables_number   1
_chemical_formula_structural   Nb(SCl)2
_chemical_formula_sum   'Nb2 S4 Cl4'
_cell_volume   248.98151493
_cell_formula_units_Z   2
loop_
 _symmetry_equiv_pos_site_id
 _symmetry_equiv_pos_as_xyz
  1  'x, y, z'
loop_
 _atom_site_type_symbol
 _atom_site_label
 _atom_site_symmetry_multiplicity
 _atom_site_fract_x
 _atom_site_fract_y
 _atom_site_fract_z
 _atom_site_occupancy
  Nb  Nb0  1  0.12967500  0.87032500  0.00000000  1
  Nb  Nb1  1  0.87032500  0.12967500  0.00000000  1
  S  S2  1  0.85795700  0.85795700  0.29279000  1
  S  S3  1  0.14204300  0.14204300  0.70721000  1
  S  S4  1  0.33702300  0.33702300  0.87137500  1
  S  S5  1  0.66297700  0.66297700  0.12862500  1
  Cl  Cl6  1  0.43173500  0.01727800  0.20806900  1
  Cl  Cl7  1  0.98272200  0.56826500  0.79193100  1
  Cl  Cl8  1  0.56826500  0.98272200  0.79193100  1
  Cl  Cl9  1  0.01727800  0.43173500  0.20806900  1
