# generated using pymatgen
data_Pr3InSe6
_symmetry_space_group_name_H-M   'P 1'
_cell_length_a   4.17467700
_cell_length_b   14.54541200
_cell_length_c   17.75633400
_cell_angle_alpha   90.00000000
_cell_angle_beta   90.00000000
_cell_angle_gamma   90.00000000
_symmetry_Int_Tables_number   1
_chemical_formula_structural   Pr3InSe6
_chemical_formula_sum   'Pr12 In4 Se24'
_cell_volume   1078.20716120
_cell_formula_units_Z   4
loop_
 _symmetry_equiv_pos_site_id
 _symmetry_equiv_pos_as_xyz
  1  'x, y, z'
loop_
 _atom_site_type_symbol
 _atom_site_label
 _atom_site_symmetry_multiplicity
 _atom_site_fract_x
 _atom_site_fract_y
 _atom_site_fract_z
 _atom_site_occupancy
  Pr  Pr0  1  0.50000000  0.68640500  0.35454900  1
  Pr  Pr1  1  0.50000000  0.31359500  0.64545100  1
  Pr  Pr2  1  0.00000000  0.18640500  0.14545100  1
  Pr  Pr3  1  0.00000000  0.81359500  0.85454900  1
  Pr  Pr4  1  0.00000000  0.74802100  0.10564700  1
  Pr  Pr5  1  0.00000000  0.25197900  0.89435300  1
  Pr  Pr6  1  0.50000000  0.24802100  0.39435300  1
  Pr  Pr7  1  0.50000000  0.75197900  0.60564700  1
  Pr  Pr8  1  0.00000000  0.95860900  0.27695900  1
  Pr  Pr9  1  0.00000000  0.04139100  0.72304100  1
  Pr  Pr10  1  0.50000000  0.45860900  0.22304100  1
  Pr  Pr11  1  0.50000000  0.54139100  0.77695900  1
  In  In12  1  0.00000000  0.50000000  0.00000000  1
  In  In13  1  0.50000000  0.00000000  0.50000000  1
  In  In14  1  0.00000000  0.50000000  0.50000000  1
  In  In15  1  0.50000000  0.00000000  0.00000000  1
  Se  Se16  1  0.00000000  0.97693000  0.10300300  1
  Se  Se17  1  0.00000000  0.02307000  0.89699700  1
  Se  Se18  1  0.50000000  0.47693000  0.39699700  1
  Se  Se19  1  0.50000000  0.52307000  0.60300300  1
  Se  Se20  1  0.00000000  0.68954700  0.48082500  1
  Se  Se21  1  0.00000000  0.31045300  0.51917500  1
  Se  Se22  1  0.50000000  0.18954700  0.01917500  1
  Se  Se23  1  0.50000000  0.81045300  0.98082500  1
  Se  Se24  1  0.50000000  0.88749000  0.38546100  1
  Se  Se25  1  0.50000000  0.11251000  0.61453900  1
  Se  Se26  1  0.00000000  0.38749000  0.11453900  1
  Se  Se27  1  0.00000000  0.61251000  0.88546100  1
  Se  Se28  1  0.00000000  0.61140400  0.25123300  1
  Se  Se29  1  0.00000000  0.38859600  0.74876700  1
  Se  Se30  1  0.50000000  0.11140400  0.24876700  1
  Se  Se31  1  0.50000000  0.88859600  0.75123300  1
  Se  Se32  1  0.00000000  0.90617200  0.58506200  1
  Se  Se33  1  0.00000000  0.09382800  0.41493800  1
  Se  Se34  1  0.50000000  0.40617200  0.91493800  1
  Se  Se35  1  0.50000000  0.59382800  0.08506200  1
  Se  Se36  1  0.00000000  0.68215400  0.71530500  1
  Se  Se37  1  0.00000000  0.31784600  0.28469500  1
  Se  Se38  1  0.50000000  0.18215400  0.78469500  1
  Se  Se39  1  0.50000000  0.81784600  0.21530500  1
