# generated using pymatgen
data_TaCl5
_symmetry_space_group_name_H-M   'P 1'
_cell_length_a   13.66970663
_cell_length_b   13.66970663
_cell_length_c   6.46547754
_cell_angle_alpha   88.67992309
_cell_angle_beta   88.67992309
_cell_angle_gamma   87.20151819
_symmetry_Int_Tables_number   1
_chemical_formula_structural   TaCl5
_chemical_formula_sum   'Ta6 Cl30'
_cell_volume   1206.09324243
_cell_formula_units_Z   6
loop_
 _symmetry_equiv_pos_site_id
 _symmetry_equiv_pos_as_xyz
  1  'x, y, z'
loop_
 _atom_site_type_symbol
 _atom_site_label
 _atom_site_symmetry_multiplicity
 _atom_site_fract_x
 _atom_site_fract_y
 _atom_site_fract_z
 _atom_site_occupancy
  Ta  Ta0  1  0.77297400  0.56090200  0.52408600  1
  Ta  Ta1  1  0.43909800  0.22702600  0.47591400  1
  Ta  Ta2  1  0.22702600  0.43909800  0.47591400  1
  Ta  Ta3  1  0.56090200  0.77297400  0.52408600  1
  Ta  Ta4  1  0.10604700  0.89395300  0.00000000  1
  Ta  Ta5  1  0.89395300  0.10604700  0.00000000  1
  Cl  Cl6  1  0.66665500  0.47680100  0.74114000  1
  Cl  Cl7  1  0.52319900  0.33334500  0.25886000  1
  Cl  Cl8  1  0.33334500  0.52319900  0.25886000  1
  Cl  Cl9  1  0.47680100  0.66665500  0.74114000  1
  Cl  Cl10  1  0.79713900  0.43300400  0.30617400  1
  Cl  Cl11  1  0.56699600  0.20286100  0.69382600  1
  Cl  Cl12  1  0.95150900  0.95150900  0.20543800  1
  Cl  Cl13  1  0.04849100  0.04849100  0.79456200  1
  Cl  Cl14  1  0.76482600  0.12896700  0.22533100  1
  Cl  Cl15  1  0.87103300  0.23517400  0.77466900  1
  Cl  Cl16  1  0.23517400  0.87103300  0.77466900  1
  Cl  Cl17  1  0.12896700  0.76482600  0.22533100  1
  Cl  Cl18  1  0.81109900  0.00075400  0.79677300  1
  Cl  Cl19  1  0.99924600  0.18890100  0.20322700  1
  Cl  Cl20  1  0.18890100  0.99924600  0.20322700  1
  Cl  Cl21  1  0.00075400  0.81109900  0.79677300  1
  Cl  Cl22  1  0.71430800  0.71430800  0.72247900  1
  Cl  Cl23  1  0.28569200  0.28569200  0.27752100  1
  Cl  Cl24  1  0.53715100  0.90079200  0.74226900  1
  Cl  Cl25  1  0.09920800  0.46284900  0.25773100  1
  Cl  Cl26  1  0.46284900  0.09920800  0.25773100  1
  Cl  Cl27  1  0.90079200  0.53715100  0.74226900  1
  Cl  Cl28  1  0.66732600  0.85688200  0.30700800  1
  Cl  Cl29  1  0.14311800  0.33267400  0.69299200  1
  Cl  Cl30  1  0.33267400  0.14311800  0.69299200  1
  Cl  Cl31  1  0.85688200  0.66732600  0.30700800  1
  Cl  Cl32  1  0.61949800  0.61949800  0.32577200  1
  Cl  Cl33  1  0.38050200  0.38050200  0.67422800  1
  Cl  Cl34  1  0.43300400  0.79713900  0.30617400  1
  Cl  Cl35  1  0.20286100  0.56699600  0.69382600  1
