# generated using pymatgen
data_GdAl3Pd2
_symmetry_space_group_name_H-M   'P 1'
_cell_length_a   5.43465140
_cell_length_b   5.43465140
_cell_length_c   4.22183000
_cell_angle_alpha   90.00000000
_cell_angle_beta   90.00000000
_cell_angle_gamma   119.99999270
_symmetry_Int_Tables_number   1
_chemical_formula_structural   GdAl3Pd2
_chemical_formula_sum   'Gd1 Al3 Pd2'
_cell_volume   107.98782379
_cell_formula_units_Z   1
loop_
 _symmetry_equiv_pos_site_id
 _symmetry_equiv_pos_as_xyz
  1  'x, y, z'
loop_
 _atom_site_type_symbol
 _atom_site_label
 _atom_site_symmetry_multiplicity
 _atom_site_fract_x
 _atom_site_fract_y
 _atom_site_fract_z
 _atom_site_occupancy
  Gd  Gd0  1  0.00000000  0.00000000  0.00000000  1
  Al  Al1  1  0.50000000  0.00000000  0.50000000  1
  Al  Al2  1  0.50000000  0.50000000  0.50000000  1
  Al  Al3  1  0.00000000  0.50000000  0.50000000  1
  Pd  Pd4  1  0.66666700  0.33333300  0.00000000  1
  Pd  Pd5  1  0.33333300  0.66666700  0.00000000  1
