# generated using pymatgen
data_La5Pb4
_symmetry_space_group_name_H-M   'P 1'
_cell_length_a   8.66111700
_cell_length_b   8.76402000
_cell_length_c   16.51620800
_cell_angle_alpha   90.00000000
_cell_angle_beta   90.00000000
_cell_angle_gamma   90.00000000
_symmetry_Int_Tables_number   1
_chemical_formula_structural   La5Pb4
_chemical_formula_sum   'La20 Pb16'
_cell_volume   1253.68263080
_cell_formula_units_Z   4
loop_
 _symmetry_equiv_pos_site_id
 _symmetry_equiv_pos_as_xyz
  1  'x, y, z'
loop_
 _atom_site_type_symbol
 _atom_site_label
 _atom_site_symmetry_multiplicity
 _atom_site_fract_x
 _atom_site_fract_y
 _atom_site_fract_z
 _atom_site_occupancy
  La  La0  1  0.87938700  0.65944800  0.11729500  1
  La  La1  1  0.37938700  0.84055200  0.38270500  1
  La  La2  1  0.62061300  0.15944800  0.88270500  1
  La  La3  1  0.12061300  0.34055200  0.61729500  1
  La  La4  1  0.12061300  0.34055200  0.88270500  1
  La  La5  1  0.62061300  0.15944800  0.61729500  1
  La  La6  1  0.37938700  0.84055200  0.11729500  1
  La  La7  1  0.87938700  0.65944800  0.38270500  1
  La  La8  1  0.02840700  0.17901700  0.10116700  1
  La  La9  1  0.52840700  0.32098300  0.39883300  1
  La  La10  1  0.47159300  0.67901700  0.89883300  1
  La  La11  1  0.97159300  0.82098300  0.60116700  1
  La  La12  1  0.97159300  0.82098300  0.89883300  1
  La  La13  1  0.47159300  0.67901700  0.60116700  1
  La  La14  1  0.52840700  0.32098300  0.10116700  1
  La  La15  1  0.02840700  0.17901700  0.39883300  1
  La  La16  1  0.71055000  0.99676200  0.25000000  1
  La  La17  1  0.21055000  0.50323800  0.25000000  1
  La  La18  1  0.78945000  0.49676200  0.75000000  1
  La  La19  1  0.28945000  0.00323800  0.75000000  1
  Pb  Pb20  1  0.07786600  0.88025500  0.25000000  1
  Pb  Pb21  1  0.57786600  0.61974500  0.25000000  1
  Pb  Pb22  1  0.42213400  0.38025500  0.75000000  1
  Pb  Pb23  1  0.92213400  0.11974500  0.75000000  1
  Pb  Pb24  1  0.83499500  0.35626400  0.25000000  1
  Pb  Pb25  1  0.33499500  0.14373600  0.25000000  1
  Pb  Pb26  1  0.66500500  0.85626400  0.75000000  1
  Pb  Pb27  1  0.16500500  0.64373600  0.75000000  1
  Pb  Pb28  1  0.77928700  0.46778400  0.95629700  1
  Pb  Pb29  1  0.27928700  0.03221600  0.54370300  1
  Pb  Pb30  1  0.72071300  0.96778400  0.04370300  1
  Pb  Pb31  1  0.22071300  0.53221600  0.45629700  1
  Pb  Pb32  1  0.22071300  0.53221600  0.04370300  1
  Pb  Pb33  1  0.72071300  0.96778400  0.45629700  1
  Pb  Pb34  1  0.27928700  0.03221600  0.95629700  1
  Pb  Pb35  1  0.77928700  0.46778400  0.54370300  1
