# generated using pymatgen
data_Ca(IO3)2
_symmetry_space_group_name_H-M   'P 1'
_cell_length_a   11.46479900
_cell_length_b   7.25692600
_cell_length_c   8.82961583
_cell_angle_alpha   53.68603670
_cell_angle_beta   90.00000000
_cell_angle_gamma   90.00000000
_symmetry_Int_Tables_number   1
_chemical_formula_structural   Ca(IO3)2
_chemical_formula_sum   'Ca4 I8 O24'
_cell_volume   591.94257519
_cell_formula_units_Z   4
loop_
 _symmetry_equiv_pos_site_id
 _symmetry_equiv_pos_as_xyz
  1  'x, y, z'
loop_
 _atom_site_type_symbol
 _atom_site_label
 _atom_site_symmetry_multiplicity
 _atom_site_fract_x
 _atom_site_fract_y
 _atom_site_fract_z
 _atom_site_occupancy
  Ca  Ca0  1  0.89971100  0.22570500  0.99693800  1
  Ca  Ca1  1  0.10028900  0.77429500  0.00306200  1
  Ca  Ca2  1  0.60028900  0.22570500  0.49693800  1
  Ca  Ca3  1  0.39971100  0.77429500  0.50306200  1
  I  I4  1  0.78599400  0.67991200  0.05660400  1
  I  I5  1  0.21400600  0.32008800  0.94339600  1
  I  I6  1  0.71400600  0.67991200  0.55660400  1
  I  I7  1  0.28599400  0.32008800  0.44339600  1
  I  I8  1  0.42468500  0.76242500  0.96308300  1
  I  I9  1  0.92468500  0.23757500  0.53691700  1
  I  I10  1  0.57531500  0.23757500  0.03691700  1
  I  I11  1  0.07531500  0.76242500  0.46308300  1
  O  O12  1  0.03909700  0.02526600  0.67328800  1
  O  O13  1  0.79354800  0.05827000  0.62307500  1
  O  O14  1  0.75344200  0.54340900  0.80353200  1
  O  O15  1  0.53909700  0.97473400  0.82671200  1
  O  O16  1  0.90683700  0.37863400  0.65517700  1
  O  O17  1  0.60840800  0.46774500  0.59587000  1
  O  O18  1  0.10152200  0.12157400  0.97394200  1
  O  O19  1  0.25344200  0.45659100  0.69646800  1
  O  O20  1  0.60152200  0.87842600  0.52605800  1
  O  O21  1  0.24655800  0.45659100  0.19646800  1
  O  O22  1  0.59316300  0.37863400  0.15517700  1
  O  O23  1  0.70645200  0.05827000  0.12307500  1
  O  O24  1  0.46090300  0.02526600  0.17328800  1
  O  O25  1  0.89159200  0.46774500  0.09587000  1
  O  O26  1  0.39847800  0.12157400  0.47394200  1
  O  O27  1  0.96090300  0.97473400  0.32671200  1
  O  O28  1  0.74655800  0.54340900  0.30353200  1
  O  O29  1  0.20645200  0.94173000  0.37692500  1
  O  O30  1  0.39159200  0.53225500  0.40413000  1
  O  O31  1  0.09316300  0.62136600  0.34482300  1
  O  O32  1  0.40683700  0.62136600  0.84482300  1
  O  O33  1  0.29354800  0.94173000  0.87692500  1
  O  O34  1  0.10840800  0.53225500  0.90413000  1
  O  O35  1  0.89847800  0.87842600  0.02605800  1
