# generated using pymatgen
data_Ni12P5
_symmetry_space_group_name_H-M   'P 1'
_cell_length_a   6.60068535
_cell_length_b   6.60068535
_cell_length_c   6.60068535
_cell_angle_alpha   98.36914646
_cell_angle_beta   98.36914646
_cell_angle_gamma   135.14543979
_symmetry_Int_Tables_number   1
_chemical_formula_structural   Ni12P5
_chemical_formula_sum   'Ni12 P5'
_cell_volume   187.49518996
_cell_formula_units_Z   1
loop_
 _symmetry_equiv_pos_site_id
 _symmetry_equiv_pos_as_xyz
  1  'x, y, z'
loop_
 _atom_site_type_symbol
 _atom_site_label
 _atom_site_symmetry_multiplicity
 _atom_site_fract_x
 _atom_site_fract_y
 _atom_site_fract_z
 _atom_site_occupancy
  Ni  Ni0  1  0.63430800  0.57028900  0.70219500  1
  Ni  Ni1  1  0.86809400  0.93211300  0.29780500  1
  Ni  Ni2  1  0.93211300  0.63430800  0.06401900  1
  Ni  Ni3  1  0.06035000  0.63386200  0.69421200  1
  Ni  Ni4  1  0.36613800  0.06035000  0.42648800  1
  Ni  Ni5  1  0.63386200  0.93965000  0.57351200  1
  Ni  Ni6  1  0.93965000  0.36613800  0.30578800  1
  Ni  Ni7  1  0.57028900  0.86809400  0.93598100  1
  Ni  Ni8  1  0.06788700  0.36569200  0.93598100  1
  Ni  Ni9  1  0.13190600  0.06788700  0.70219500  1
  Ni  Ni10  1  0.36569200  0.42971100  0.29780500  1
  Ni  Ni11  1  0.42971100  0.13190600  0.06401900  1
  P  P12  1  0.00000000  0.00000000  0.00000000  1
  P  P13  1  0.58687200  0.19456800  0.78144000  1
  P  P14  1  0.80543200  0.58687200  0.39230400  1
  P  P15  1  0.19456800  0.41312800  0.60769600  1
  P  P16  1  0.41312800  0.80543200  0.21856000  1
