# generated using pymatgen
data_RbMgH3
_symmetry_space_group_name_H-M   'P 1'
_cell_length_a   5.92870599
_cell_length_b   5.92870599
_cell_length_c   14.37280800
_cell_angle_alpha   90.00000000
_cell_angle_beta   90.00000000
_cell_angle_gamma   119.99999993
_symmetry_Int_Tables_number   1
_chemical_formula_structural   RbMgH3
_chemical_formula_sum   'Rb6 Mg6 H18'
_cell_volume   437.51413062
_cell_formula_units_Z   6
loop_
 _symmetry_equiv_pos_site_id
 _symmetry_equiv_pos_as_xyz
  1  'x, y, z'
loop_
 _atom_site_type_symbol
 _atom_site_label
 _atom_site_symmetry_multiplicity
 _atom_site_fract_x
 _atom_site_fract_y
 _atom_site_fract_z
 _atom_site_occupancy
  Rb  Rb0  1  0.00000000  0.00000000  0.75000000  1
  Rb  Rb1  1  0.00000000  0.00000000  0.25000000  1
  Rb  Rb2  1  0.33333300  0.66666700  0.40481700  1
  Rb  Rb3  1  0.66666700  0.33333300  0.90481700  1
  Rb  Rb4  1  0.66666700  0.33333300  0.59518300  1
  Rb  Rb5  1  0.33333300  0.66666700  0.09518300  1
  Mg  Mg6  1  0.33333300  0.66666700  0.84579900  1
  Mg  Mg7  1  0.66666700  0.33333300  0.34579900  1
  Mg  Mg8  1  0.66666700  0.33333300  0.15420100  1
  Mg  Mg9  1  0.33333300  0.66666700  0.65420100  1
  Mg  Mg10  1  0.00000000  0.00000000  0.50000000  1
  Mg  Mg11  1  0.00000000  0.00000000  0.00000000  1
  H  H12  1  0.47629700  0.95259500  0.75000000  1
  H  H13  1  0.52370300  0.47629700  0.25000000  1
  H  H14  1  0.95259500  0.47629700  0.25000000  1
  H  H15  1  0.04740500  0.52370300  0.75000000  1
  H  H16  1  0.47629700  0.52370300  0.75000000  1
  H  H17  1  0.52370300  0.04740500  0.25000000  1
  H  H18  1  0.16584800  0.83415200  0.92014200  1
  H  H19  1  0.16584800  0.33169700  0.92014200  1
  H  H20  1  0.66830300  0.83415200  0.92014200  1
  H  H21  1  0.33169700  0.16584800  0.42014200  1
  H  H22  1  0.83415200  0.66830300  0.07985800  1
  H  H23  1  0.83415200  0.16584800  0.42014200  1
  H  H24  1  0.16584800  0.33169700  0.57985800  1
  H  H25  1  0.83415200  0.16584800  0.07985800  1
  H  H26  1  0.33169700  0.16584800  0.07985800  1
  H  H27  1  0.66830300  0.83415200  0.57985800  1
  H  H28  1  0.16584800  0.83415200  0.57985800  1
  H  H29  1  0.83415200  0.66830300  0.42014200  1
