# generated using pymatgen
data_LaSO
_symmetry_space_group_name_H-M   'P 1'
_cell_length_a   7.29578896
_cell_length_b   7.29578896
_cell_length_c   5.94540000
_cell_angle_alpha   90.00000000
_cell_angle_beta   90.00000000
_cell_angle_gamma   131.86649152
_symmetry_Int_Tables_number   1
_chemical_formula_structural   LaSO
_chemical_formula_sum   'La4 S4 O4'
_cell_volume   235.67207109
_cell_formula_units_Z   4
loop_
 _symmetry_equiv_pos_site_id
 _symmetry_equiv_pos_as_xyz
  1  'x, y, z'
loop_
 _atom_site_type_symbol
 _atom_site_label
 _atom_site_symmetry_multiplicity
 _atom_site_fract_x
 _atom_site_fract_y
 _atom_site_fract_z
 _atom_site_occupancy
  La  La0  1  0.16108100  0.83891900  0.50000000  1
  La  La1  1  0.33891900  0.66108100  0.00000000  1
  La  La2  1  0.83891900  0.16108100  0.50000000  1
  La  La3  1  0.66108100  0.33891900  0.00000000  1
  S  S4  1  0.62525200  0.62525200  0.62556000  1
  S  S5  1  0.87474800  0.87474800  0.12556000  1
  S  S6  1  0.12525200  0.12525200  0.87444000  1
  S  S7  1  0.37474800  0.37474800  0.37444000  1
  O  O8  1  0.00543700  0.50543700  0.75000000  1
  O  O9  1  0.49456300  0.99456300  0.25000000  1
  O  O10  1  0.99456300  0.49456300  0.25000000  1
  O  O11  1  0.50543700  0.00543700  0.75000000  1
