# generated using pymatgen
data_KBiO3
_symmetry_space_group_name_H-M   'P 1'
_cell_length_a   10.21523600
_cell_length_b   10.21523600
_cell_length_c   10.21523600
_cell_angle_alpha   90.00000000
_cell_angle_beta   90.00000000
_cell_angle_gamma   90.00000000
_symmetry_Int_Tables_number   1
_chemical_formula_structural   KBiO3
_chemical_formula_sum   'K12 Bi12 O36'
_cell_volume   1065.97056721
_cell_formula_units_Z   12
loop_
 _symmetry_equiv_pos_site_id
 _symmetry_equiv_pos_as_xyz
  1  'x, y, z'
loop_
 _atom_site_type_symbol
 _atom_site_label
 _atom_site_symmetry_multiplicity
 _atom_site_fract_x
 _atom_site_fract_y
 _atom_site_fract_z
 _atom_site_occupancy
  K  K0  1  0.75000000  0.75000000  0.75000000  1
  K  K1  1  0.25000000  0.25000000  0.75000000  1
  K  K2  1  0.75000000  0.25000000  0.25000000  1
  K  K3  1  0.25000000  0.75000000  0.25000000  1
  K  K4  1  0.15558100  0.15558100  0.15558100  1
  K  K5  1  0.84441900  0.84441900  0.15558100  1
  K  K6  1  0.15558100  0.84441900  0.84441900  1
  K  K7  1  0.84441900  0.15558100  0.84441900  1
  K  K8  1  0.34441900  0.34441900  0.34441900  1
  K  K9  1  0.65558100  0.65558100  0.34441900  1
  K  K10  1  0.34441900  0.65558100  0.65558100  1
  K  K11  1  0.65558100  0.34441900  0.65558100  1
  Bi  Bi12  1  0.34052400  0.50000000  0.00000000  1
  Bi  Bi13  1  0.00000000  0.34052400  0.50000000  1
  Bi  Bi14  1  0.50000000  0.00000000  0.34052400  1
  Bi  Bi15  1  0.00000000  0.65947600  0.50000000  1
  Bi  Bi16  1  0.50000000  0.00000000  0.65947600  1
  Bi  Bi17  1  0.65947600  0.50000000  0.00000000  1
  Bi  Bi18  1  0.15947600  0.00000000  0.50000000  1
  Bi  Bi19  1  0.50000000  0.15947600  0.00000000  1
  Bi  Bi20  1  0.00000000  0.50000000  0.15947600  1
  Bi  Bi21  1  0.50000000  0.84052400  0.00000000  1
  Bi  Bi22  1  0.00000000  0.50000000  0.84052400  1
  Bi  Bi23  1  0.84052400  0.00000000  0.50000000  1
  O  O24  1  0.78666200  0.50286800  0.16555400  1
  O  O25  1  0.78666200  0.49713200  0.83444600  1
  O  O26  1  0.21333800  0.50286800  0.83444600  1
  O  O27  1  0.49713200  0.83444600  0.78666200  1
  O  O28  1  0.83444600  0.21333800  0.50286800  1
  O  O29  1  0.83444600  0.78666200  0.49713200  1
  O  O30  1  0.50286800  0.16555400  0.78666200  1
  O  O31  1  0.16555400  0.78666200  0.50286800  1
  O  O32  1  0.50286800  0.83444600  0.21333800  1
  O  O33  1  0.49713200  0.16555400  0.21333800  1
  O  O34  1  0.16555400  0.21333800  0.49713200  1
  O  O35  1  0.21333800  0.49713200  0.16555400  1
  O  O36  1  0.71333800  0.99713200  0.33444600  1
  O  O37  1  0.71333800  0.00286800  0.66555400  1
  O  O38  1  0.85948700  0.50000000  0.50000000  1
  O  O39  1  0.28666200  0.99713200  0.66555400  1
  O  O40  1  0.66555400  0.28666200  0.99713200  1
  O  O41  1  0.66555400  0.71333800  0.00286800  1
  O  O42  1  0.99713200  0.33444600  0.71333800  1
  O  O43  1  0.33444600  0.71333800  0.99713200  1
  O  O44  1  0.99713200  0.66555400  0.28666200  1
  O  O45  1  0.00286800  0.33444600  0.28666200  1
  O  O46  1  0.33444600  0.28666200  0.00286800  1
  O  O47  1  0.28666200  0.00286800  0.33444600  1
  O  O48  1  0.35948700  0.00000000  0.00000000  1
  O  O49  1  0.00000000  0.35948700  0.00000000  1
  O  O50  1  0.00000000  0.00000000  0.35948700  1
  O  O51  1  0.00000000  0.64051300  0.00000000  1
  O  O52  1  0.00000000  0.00000000  0.64051300  1
  O  O53  1  0.64051300  0.00000000  0.00000000  1
  O  O54  1  0.14051300  0.50000000  0.50000000  1
  O  O55  1  0.50000000  0.14051300  0.50000000  1
  O  O56  1  0.50000000  0.50000000  0.14051300  1
  O  O57  1  0.50000000  0.85948700  0.50000000  1
  O  O58  1  0.50000000  0.50000000  0.85948700  1
  O  O59  1  0.00286800  0.66555400  0.71333800  1
