# generated using pymatgen
data_Mg2Ni
_symmetry_space_group_name_H-M   'P 1'
_cell_length_a   5.19468013
_cell_length_b   5.19468013
_cell_length_c   13.14076100
_cell_angle_alpha   90.00000000
_cell_angle_beta   90.00000000
_cell_angle_gamma   120.00000171
_symmetry_Int_Tables_number   1
_chemical_formula_structural   Mg2Ni
_chemical_formula_sum   'Mg12 Ni6'
_cell_volume   307.09218347
_cell_formula_units_Z   6
loop_
 _symmetry_equiv_pos_site_id
 _symmetry_equiv_pos_as_xyz
  1  'x, y, z'
loop_
 _atom_site_type_symbol
 _atom_site_label
 _atom_site_symmetry_multiplicity
 _atom_site_fract_x
 _atom_site_fract_y
 _atom_site_fract_z
 _atom_site_occupancy
  Mg  Mg0  1  0.50000000  0.00000000  0.11569300  1
  Mg  Mg1  1  0.50000000  0.50000000  0.44902700  1
  Mg  Mg2  1  0.00000000  0.50000000  0.78236000  1
  Mg  Mg3  1  0.50000000  0.00000000  0.88430700  1
  Mg  Mg4  1  0.50000000  0.50000000  0.21764000  1
  Mg  Mg5  1  0.00000000  0.50000000  0.55097300  1
  Mg  Mg6  1  0.16475800  0.32951700  0.00000000  1
  Mg  Mg7  1  0.83524200  0.16475800  0.33333300  1
  Mg  Mg8  1  0.32951700  0.16475800  0.66666700  1
  Mg  Mg9  1  0.67048300  0.83524200  0.66666700  1
  Mg  Mg10  1  0.16475800  0.83524200  0.33333300  1
  Mg  Mg11  1  0.83524200  0.67048300  0.00000000  1
  Ni  Ni12  1  0.00000000  0.00000000  0.16666700  1
  Ni  Ni13  1  0.00000000  0.00000000  0.50000000  1
  Ni  Ni14  1  0.00000000  0.00000000  0.83333300  1
  Ni  Ni15  1  0.00000000  0.50000000  0.16666700  1
  Ni  Ni16  1  0.50000000  0.00000000  0.50000000  1
  Ni  Ni17  1  0.50000000  0.50000000  0.83333300  1
