# generated using pymatgen
data_Nb3ClO7
_symmetry_space_group_name_H-M   'P 1'
_cell_length_a   3.90802600
_cell_length_b   11.07918000
_cell_length_c   15.86173600
_cell_angle_alpha   90.00000000
_cell_angle_beta   90.00000000
_cell_angle_gamma   90.00000000
_symmetry_Int_Tables_number   1
_chemical_formula_structural   Nb3ClO7
_chemical_formula_sum   'Nb12 Cl4 O28'
_cell_volume   686.77705954
_cell_formula_units_Z   4
loop_
 _symmetry_equiv_pos_site_id
 _symmetry_equiv_pos_as_xyz
  1  'x, y, z'
loop_
 _atom_site_type_symbol
 _atom_site_label
 _atom_site_symmetry_multiplicity
 _atom_site_fract_x
 _atom_site_fract_y
 _atom_site_fract_z
 _atom_site_occupancy
  Nb  Nb0  1  0.50088800  0.03710300  0.16443700  1
  Nb  Nb1  1  0.04946200  0.25000000  0.46911900  1
  Nb  Nb2  1  0.45053800  0.25000000  0.96911900  1
  Nb  Nb3  1  0.95053800  0.75000000  0.53088100  1
  Nb  Nb4  1  0.54946200  0.75000000  0.03088100  1
  Nb  Nb5  1  0.00088800  0.96289700  0.33556300  1
  Nb  Nb6  1  0.49911200  0.53710300  0.83556300  1
  Nb  Nb7  1  0.99911200  0.46289700  0.66443700  1
  Nb  Nb8  1  0.49911200  0.96289700  0.83556300  1
  Nb  Nb9  1  0.99911200  0.03710300  0.66443700  1
  Nb  Nb10  1  0.50088800  0.46289700  0.16443700  1
  Nb  Nb11  1  0.00088800  0.53710300  0.33556300  1
  Cl  Cl12  1  0.00736400  0.75000000  0.26008800  1
  Cl  Cl13  1  0.50736400  0.25000000  0.23991200  1
  Cl  Cl14  1  0.99263600  0.25000000  0.73991200  1
  Cl  Cl15  1  0.49263600  0.75000000  0.76008800  1
  O  O16  1  0.00675100  0.12600600  0.56697100  1
  O  O17  1  0.51499000  0.25000000  0.47479300  1
  O  O18  1  0.98501000  0.25000000  0.97479300  1
  O  O19  1  0.48501000  0.75000000  0.52520700  1
  O  O20  1  0.49303500  0.11570600  0.88658800  1
  O  O21  1  0.99303500  0.88429400  0.61341200  1
  O  O22  1  0.50696500  0.61570600  0.11341200  1
  O  O23  1  0.00696500  0.38429400  0.38658800  1
  O  O24  1  0.50696500  0.88429400  0.11341200  1
  O  O25  1  0.00696500  0.11570600  0.38658800  1
  O  O26  1  0.49303500  0.38429400  0.88658800  1
  O  O27  1  0.99303500  0.61570600  0.61341200  1
  O  O28  1  0.00243600  0.46990600  0.20021700  1
  O  O29  1  0.50243600  0.53009400  0.29978300  1
  O  O30  1  0.99756400  0.96990600  0.79978300  1
  O  O31  1  0.49324900  0.12600600  0.06697100  1
  O  O32  1  0.99756400  0.53009400  0.79978300  1
  O  O33  1  0.49756400  0.46990600  0.70021700  1
  O  O34  1  0.00243600  0.03009400  0.20021700  1
  O  O35  1  0.50243600  0.96990600  0.29978300  1
  O  O36  1  0.99324900  0.62600600  0.43302900  1
  O  O37  1  0.49324900  0.37399400  0.06697100  1
  O  O38  1  0.49756400  0.03009400  0.70021700  1
  O  O39  1  0.50675100  0.87399400  0.93302900  1
  O  O40  1  0.00675100  0.37399400  0.56697100  1
  O  O41  1  0.50675100  0.62600600  0.93302900  1
  O  O42  1  0.99324900  0.87399400  0.43302900  1
  O  O43  1  0.01499000  0.75000000  0.02520700  1
