# generated using pymatgen
data_Th4H15
_symmetry_space_group_name_H-M   'P 1'
_cell_length_a   7.90283515
_cell_length_b   7.90283515
_cell_length_c   7.90283515
_cell_angle_alpha   109.47122063
_cell_angle_beta   109.47122063
_cell_angle_gamma   109.47122063
_symmetry_Int_Tables_number   1
_chemical_formula_structural   Th4H15
_chemical_formula_sum   'Th8 H30'
_cell_volume   379.95037490
_cell_formula_units_Z   2
loop_
 _symmetry_equiv_pos_site_id
 _symmetry_equiv_pos_as_xyz
  1  'x, y, z'
loop_
 _atom_site_type_symbol
 _atom_site_label
 _atom_site_symmetry_multiplicity
 _atom_site_fract_x
 _atom_site_fract_y
 _atom_site_fract_z
 _atom_site_occupancy
  Th  Th0  1  0.91583600  0.91583600  0.91583600  1
  Th  Th1  1  0.50000000  0.00000000  0.08416400  1
  Th  Th2  1  0.00000000  0.08416400  0.50000000  1
  Th  Th3  1  0.08416400  0.50000000  0.00000000  1
  Th  Th4  1  0.00000000  0.58416400  0.50000000  1
  Th  Th5  1  0.58416400  0.50000000  0.00000000  1
  Th  Th6  1  0.50000000  0.00000000  0.58416400  1
  Th  Th7  1  0.41583600  0.41583600  0.41583600  1
  H  H8  1  0.65303700  0.96967700  0.37364100  1
  H  H9  1  0.22060400  0.31664000  0.84696300  1
  H  H10  1  0.18336000  0.40396400  0.53032300  1
  H  H11  1  0.09603600  0.27939600  0.12635900  1
  H  H12  1  0.27939600  0.12635900  0.09603600  1
  H  H13  1  0.12635900  0.09603600  0.27939600  1
  H  H14  1  0.46967700  0.15303700  0.87364100  1
  H  H15  1  0.72060400  0.34696300  0.81664000  1
  H  H16  1  0.62500000  0.37500000  0.25000000  1
  H  H17  1  0.25000000  0.62500000  0.37500000  1
  H  H18  1  0.75000000  0.87500000  0.12500000  1
  H  H19  1  0.12500000  0.75000000  0.87500000  1
  H  H20  1  0.37500000  0.25000000  0.62500000  1
  H  H21  1  0.87500000  0.12500000  0.75000000  1
  H  H22  1  0.77939600  0.59603600  0.62635900  1
  H  H23  1  0.31664000  0.84696300  0.22060400  1
  H  H24  1  0.37364100  0.65303700  0.96967700  1
  H  H25  1  0.96967700  0.37364100  0.65303700  1
  H  H26  1  0.53032300  0.18336000  0.40396400  1
  H  H27  1  0.40396400  0.53032300  0.18336000  1
  H  H28  1  0.84696300  0.22060400  0.31664000  1
  H  H29  1  0.90396400  0.68336000  0.03032300  1
  H  H30  1  0.81664000  0.72060400  0.34696300  1
  H  H31  1  0.15303700  0.87364100  0.46967700  1
  H  H32  1  0.68336000  0.03032300  0.90396400  1
  H  H33  1  0.34696300  0.81664000  0.72060400  1
  H  H34  1  0.87364100  0.46967700  0.15303700  1
  H  H35  1  0.62635900  0.77939600  0.59603600  1
  H  H36  1  0.59603600  0.62635900  0.77939600  1
  H  H37  1  0.03032300  0.90396400  0.68336000  1
