# generated using pymatgen
data_Al2CuCl8
_symmetry_space_group_name_H-M   'P 1'
_cell_length_a   7.63845900
_cell_length_b   6.95171000
_cell_length_c   12.66479481
_cell_angle_alpha   84.07172088
_cell_angle_beta   90.00000000
_cell_angle_gamma   90.00000000
_symmetry_Int_Tables_number   1
_chemical_formula_structural   Al2CuCl8
_chemical_formula_sum   'Al4 Cu2 Cl16'
_cell_volume   668.90847713
_cell_formula_units_Z   2
loop_
 _symmetry_equiv_pos_site_id
 _symmetry_equiv_pos_as_xyz
  1  'x, y, z'
loop_
 _atom_site_type_symbol
 _atom_site_label
 _atom_site_symmetry_multiplicity
 _atom_site_fract_x
 _atom_site_fract_y
 _atom_site_fract_z
 _atom_site_occupancy
  Al  Al0  1  0.73907500  0.81069400  0.17974800  1
  Al  Al1  1  0.76092500  0.81069400  0.67974800  1
  Al  Al2  1  0.26092500  0.18930600  0.82025200  1
  Al  Al3  1  0.23907500  0.18930600  0.32025200  1
  Cu  Cu4  1  0.50000000  0.00000000  0.50000000  1
  Cu  Cu5  1  0.00000000  0.00000000  0.00000000  1
  Cl  Cl6  1  0.74053800  0.10275300  0.58951500  1
  Cl  Cl7  1  0.24053800  0.89724700  0.91048500  1
  Cl  Cl8  1  0.98481400  0.71029800  0.10740600  1
  Cl  Cl9  1  0.48481400  0.28970200  0.39259400  1
  Cl  Cl10  1  0.01518600  0.28970200  0.89259400  1
  Cl  Cl11  1  0.51518600  0.71029800  0.60740600  1
  Cl  Cl12  1  0.27084400  0.16566800  0.15560400  1
  Cl  Cl13  1  0.77084400  0.83433200  0.34439600  1
  Cl  Cl14  1  0.72915600  0.83433200  0.84439600  1
  Cl  Cl15  1  0.22915600  0.16566800  0.65560400  1
  Cl  Cl16  1  0.52219200  0.64975200  0.13766700  1
  Cl  Cl17  1  0.02219200  0.35024800  0.36233300  1
  Cl  Cl18  1  0.47780800  0.35024800  0.86233300  1
  Cl  Cl19  1  0.97780800  0.64975200  0.63766700  1
  Cl  Cl20  1  0.75946200  0.10275300  0.08951500  1
  Cl  Cl21  1  0.25946200  0.89724700  0.41048500  1
