# generated using pymatgen
data_Ba2In2O5
_symmetry_space_group_name_H-M   'P 1'
_cell_length_a   9.50185471
_cell_length_b   9.50185471
_cell_length_c   9.50185471
_cell_angle_alpha   142.83137747
_cell_angle_beta   141.67938427
_cell_angle_gamma   54.44992728
_symmetry_Int_Tables_number   1
_chemical_formula_structural   Ba2In2O5
_chemical_formula_sum   'Ba4 In4 O10'
_cell_volume   319.17556962
_cell_formula_units_Z   2
loop_
 _symmetry_equiv_pos_site_id
 _symmetry_equiv_pos_as_xyz
  1  'x, y, z'
loop_
 _atom_site_type_symbol
 _atom_site_label
 _atom_site_symmetry_multiplicity
 _atom_site_fract_x
 _atom_site_fract_y
 _atom_site_fract_z
 _atom_site_occupancy
  Ba  Ba0  1  0.62690800  0.08881100  0.49773100  1
  Ba  Ba1  1  0.37309200  0.87082300  0.46190300  1
  Ba  Ba2  1  0.09108000  0.58881100  0.46190300  1
  Ba  Ba3  1  0.90892000  0.37082300  0.49773100  1
  In  In4  1  0.31659700  0.25692500  0.07352200  1
  In  In5  1  0.68340300  0.75692500  0.94032800  1
  In  In6  1  0.50000000  0.47472100  0.97472100  1
  In  In7  1  0.00000000  0.97472100  0.97472100  1
  O  O8  1  0.37959100  0.60145900  0.48105000  1
  O  O9  1  0.62040900  0.10145900  0.22186800  1
  O  O10  1  0.69286800  0.58908900  0.00628600  1
  O  O11  1  0.30713200  0.31341800  0.89622100  1
  O  O12  1  0.08280300  0.08908900  0.89622100  1
  O  O13  1  0.91719700  0.81341800  0.00628600  1
  O  O14  1  0.74657500  0.22083300  0.98379700  1
  O  O15  1  0.25342500  0.23722100  0.47425800  1
  O  O16  1  0.26296400  0.73722100  0.98379700  1
  O  O17  1  0.73703600  0.72083300  0.47425800  1
