# generated using pymatgen
data_NaTaCl6
_symmetry_space_group_name_H-M   'P 1'
_cell_length_a   7.10346300
_cell_length_b   6.69464000
_cell_length_c   19.80757924
_cell_angle_alpha   89.34349708
_cell_angle_beta   90.00000000
_cell_angle_gamma   90.00000000
_symmetry_Int_Tables_number   1
_chemical_formula_structural   NaTaCl6
_chemical_formula_sum   'Na4 Ta4 Cl24'
_cell_volume   941.89012390
_cell_formula_units_Z   4
loop_
 _symmetry_equiv_pos_site_id
 _symmetry_equiv_pos_as_xyz
  1  'x, y, z'
loop_
 _atom_site_type_symbol
 _atom_site_label
 _atom_site_symmetry_multiplicity
 _atom_site_fract_x
 _atom_site_fract_y
 _atom_site_fract_z
 _atom_site_occupancy
  Na  Na0  1  0.81084400  0.21346200  0.74750100  1
  Na  Na1  1  0.31084400  0.78653800  0.75249900  1
  Na  Na2  1  0.18915600  0.78653800  0.25249900  1
  Na  Na3  1  0.68915600  0.21346200  0.24750100  1
  Ta  Ta4  1  0.71741400  0.74343100  0.61747900  1
  Ta  Ta5  1  0.21741400  0.25656900  0.88252100  1
  Ta  Ta6  1  0.28258600  0.25656900  0.38252100  1
  Ta  Ta7  1  0.78258600  0.74343100  0.11747900  1
  Cl  Cl8  1  0.81883700  0.61570000  0.23519600  1
  Cl  Cl9  1  0.31883700  0.38430000  0.26480400  1
  Cl  Cl10  1  0.18116300  0.38430000  0.76480400  1
  Cl  Cl11  1  0.68116300  0.61570000  0.73519600  1
  Cl  Cl12  1  0.60473300  0.46250300  0.09465600  1
  Cl  Cl13  1  0.10473300  0.53749700  0.40534400  1
  Cl  Cl14  1  0.39526700  0.53749700  0.90534400  1
  Cl  Cl15  1  0.89526700  0.46250300  0.59465600  1
  Cl  Cl16  1  0.50411700  0.91616200  0.15771200  1
  Cl  Cl17  1  0.00411700  0.08383800  0.34228800  1
  Cl  Cl18  1  0.49588300  0.08383800  0.84228800  1
  Cl  Cl19  1  0.99588300  0.91616200  0.65771200  1
  Cl  Cl20  1  0.74724400  0.88321600  0.01221100  1
  Cl  Cl21  1  0.24724400  0.11678400  0.48778900  1
  Cl  Cl22  1  0.25275600  0.11678400  0.98778900  1
  Cl  Cl23  1  0.75275600  0.88321600  0.51221100  1
  Cl  Cl24  1  0.95702800  0.03216800  0.15812600  1
  Cl  Cl25  1  0.45702800  0.96783200  0.34187400  1
  Cl  Cl26  1  0.04297200  0.96783200  0.84187400  1
  Cl  Cl27  1  0.54297200  0.03216800  0.65812600  1
  Cl  Cl28  1  0.06787900  0.59430500  0.09204600  1
  Cl  Cl29  1  0.56787900  0.40569500  0.40795400  1
  Cl  Cl30  1  0.93212100  0.40569500  0.90795400  1
  Cl  Cl31  1  0.43212100  0.59430500  0.59204600  1
