# generated using pymatgen
data_Al7(TlS4)3
_symmetry_space_group_name_H-M   'P 1'
_cell_length_a   12.62746000
_cell_length_b   9.20508500
_cell_length_c   9.73425070
_cell_angle_alpha   83.89618848
_cell_angle_beta   90.00000000
_cell_angle_gamma   90.00000000
_symmetry_Int_Tables_number   1
_chemical_formula_structural   Al7(TlS4)3
_chemical_formula_sum   'Al14 Tl6 S24'
_cell_volume   1125.06407149
_cell_formula_units_Z   2
loop_
 _symmetry_equiv_pos_site_id
 _symmetry_equiv_pos_as_xyz
  1  'x, y, z'
loop_
 _atom_site_type_symbol
 _atom_site_label
 _atom_site_symmetry_multiplicity
 _atom_site_fract_x
 _atom_site_fract_y
 _atom_site_fract_z
 _atom_site_occupancy
  Al  Al0  1  0.28391400  0.03060600  0.02945000  1
  Al  Al1  1  0.78391400  0.96939400  0.97055000  1
  Al  Al2  1  0.76430600  0.28953200  0.19151600  1
  Al  Al3  1  0.26430600  0.71046800  0.80848400  1
  Al  Al4  1  0.37324700  0.69685300  0.17910900  1
  Al  Al5  1  0.87324700  0.30314700  0.82089100  1
  Al  Al6  1  0.76715900  0.47798800  0.47789600  1
  Al  Al7  1  0.26715900  0.52201200  0.52210400  1
  Al  Al8  1  0.67179700  0.66906600  0.17498400  1
  Al  Al9  1  0.17179700  0.33093400  0.82501600  1
  Al  Al10  1  0.53782600  0.02133600  0.19848300  1
  Al  Al11  1  0.03782600  0.97866400  0.80151700  1
  Al  Al12  1  0.51546500  0.37155500  0.35901900  1
  Al  Al13  1  0.01546500  0.62844500  0.64098100  1
  Tl  Tl14  1  0.25465600  0.03838800  0.47820200  1
  Tl  Tl15  1  0.75465600  0.96161200  0.52179800  1
  Tl  Tl16  1  0.02599000  0.12166300  0.22533700  1
  Tl  Tl17  1  0.52599000  0.87833700  0.77466300  1
  Tl  Tl18  1  0.02274200  0.61927000  0.16684100  1
  Tl  Tl19  1  0.52274200  0.38073000  0.83315900  1
  S  S20  1  0.95875300  0.92604800  0.00643000  1
  S  S21  1  0.20426300  0.24586800  0.04553000  1
  S  S22  1  0.30805000  0.32797700  0.67736700  1
  S  S23  1  0.80805000  0.67202300  0.32263300  1
  S  S24  1  0.70426300  0.75413200  0.95447000  1
  S  S25  1  0.61320300  0.43046000  0.15691300  1
  S  S26  1  0.84773000  0.52414100  0.68583600  1
  S  S27  1  0.34773000  0.47585900  0.31416400  1
  S  S28  1  0.33134800  0.72890900  0.59506200  1
  S  S29  1  0.83134800  0.27109100  0.40493800  1
  S  S30  1  0.59393700  0.47055000  0.53124900  1
  S  S31  1  0.09393700  0.52945000  0.46875100  1
  S  S32  1  0.39483800  0.64456100  0.95869000  1
  S  S33  1  0.89483800  0.35543900  0.04131000  1
  S  S34  1  0.74609000  0.13852200  0.79244800  1
  S  S35  1  0.24609000  0.86147800  0.20755200  1
  S  S36  1  0.52818800  0.77614100  0.27181500  1
  S  S37  1  0.02818800  0.22385900  0.72818500  1
  S  S38  1  0.71895900  0.05055500  0.17233800  1
  S  S39  1  0.21895900  0.94944500  0.82766200  1
  S  S40  1  0.49449600  0.12658600  0.38870800  1
  S  S41  1  0.99449600  0.87341400  0.61129200  1
  S  S42  1  0.11320300  0.56954000  0.84308700  1
  S  S43  1  0.45875300  0.07395200  0.99357000  1
