# generated using pymatgen
data_Mn4Be3Ge3SO12
_symmetry_space_group_name_H-M   'P 1'
_cell_length_a   8.55732900
_cell_length_b   8.55732900
_cell_length_c   8.55732900
_cell_angle_alpha   90.00000000
_cell_angle_beta   90.00000000
_cell_angle_gamma   90.00000000
_symmetry_Int_Tables_number   1
_chemical_formula_structural   Mn4Be3Ge3SO12
_chemical_formula_sum   'Mn8 Be6 Ge6 S2 O24'
_cell_volume   626.63505783
_cell_formula_units_Z   2
loop_
 _symmetry_equiv_pos_site_id
 _symmetry_equiv_pos_as_xyz
  1  'x, y, z'
loop_
 _atom_site_type_symbol
 _atom_site_label
 _atom_site_symmetry_multiplicity
 _atom_site_fract_x
 _atom_site_fract_y
 _atom_site_fract_z
 _atom_site_occupancy
  Mn  Mn0  1  0.83230100  0.16769900  0.83230100  1
  Mn  Mn1  1  0.83230100  0.83230100  0.16769900  1
  Mn  Mn2  1  0.16769900  0.83230100  0.83230100  1
  Mn  Mn3  1  0.33230100  0.33230100  0.66769900  1
  Mn  Mn4  1  0.33230100  0.66769900  0.33230100  1
  Mn  Mn5  1  0.16769900  0.16769900  0.16769900  1
  Mn  Mn6  1  0.66769900  0.66769900  0.66769900  1
  Mn  Mn7  1  0.66769900  0.33230100  0.33230100  1
  Be  Be8  1  0.25000000  0.50000000  0.00000000  1
  Be  Be9  1  0.50000000  0.00000000  0.75000000  1
  Be  Be10  1  0.50000000  0.00000000  0.25000000  1
  Be  Be11  1  0.00000000  0.25000000  0.50000000  1
  Be  Be12  1  0.00000000  0.75000000  0.50000000  1
  Be  Be13  1  0.75000000  0.50000000  0.00000000  1
  Ge  Ge14  1  0.50000000  0.25000000  0.00000000  1
  Ge  Ge15  1  0.00000000  0.50000000  0.25000000  1
  Ge  Ge16  1  0.00000000  0.50000000  0.75000000  1
  Ge  Ge17  1  0.25000000  0.00000000  0.50000000  1
  Ge  Ge18  1  0.50000000  0.75000000  0.00000000  1
  Ge  Ge19  1  0.75000000  0.00000000  0.50000000  1
  S  S20  1  0.50000000  0.50000000  0.50000000  1
  S  S21  1  0.00000000  0.00000000  0.00000000  1
  O  O22  1  0.63456800  0.90902900  0.64589800  1
  O  O23  1  0.63456800  0.09097100  0.35410200  1
  O  O24  1  0.90902900  0.64589800  0.63456800  1
  O  O25  1  0.09097100  0.64589800  0.36543200  1
  O  O26  1  0.64589800  0.63456800  0.90902900  1
  O  O27  1  0.35410200  0.36543200  0.90902900  1
  O  O28  1  0.86543200  0.85410200  0.40902900  1
  O  O29  1  0.86543200  0.14589800  0.59097100  1
  O  O30  1  0.13456800  0.85410200  0.59097100  1
  O  O31  1  0.14589800  0.59097100  0.86543200  1
  O  O32  1  0.59097100  0.13456800  0.85410200  1
  O  O33  1  0.59097100  0.86543200  0.14589800  1
  O  O34  1  0.85410200  0.40902900  0.86543200  1
  O  O35  1  0.40902900  0.86543200  0.85410200  1
  O  O36  1  0.13456800  0.14589800  0.40902900  1
  O  O37  1  0.36543200  0.90902900  0.35410200  1
  O  O38  1  0.36543200  0.09097100  0.64589800  1
  O  O39  1  0.09097100  0.35410200  0.63456800  1
  O  O40  1  0.90902900  0.35410200  0.36543200  1
  O  O41  1  0.64589800  0.36543200  0.09097100  1
  O  O42  1  0.35410200  0.63456800  0.09097100  1
  O  O43  1  0.40902900  0.13456800  0.14589800  1
  O  O44  1  0.14589800  0.40902900  0.13456800  1
  O  O45  1  0.85410200  0.59097100  0.13456800  1
