# generated using pymatgen
data_Sm(GeRu)2
_symmetry_space_group_name_H-M   'P 1'
_cell_length_a   5.85428498
_cell_length_b   5.85428498
_cell_length_c   5.85428498
_cell_angle_alpha   137.04902716
_cell_angle_beta   137.04902716
_cell_angle_gamma   62.36262515
_symmetry_Int_Tables_number   1
_chemical_formula_structural   Sm(GeRu)2
_chemical_formula_sum   'Sm1 Ge2 Ru2'
_cell_volume   92.02912333
_cell_formula_units_Z   1
loop_
 _symmetry_equiv_pos_site_id
 _symmetry_equiv_pos_as_xyz
  1  'x, y, z'
loop_
 _atom_site_type_symbol
 _atom_site_label
 _atom_site_symmetry_multiplicity
 _atom_site_fract_x
 _atom_site_fract_y
 _atom_site_fract_z
 _atom_site_occupancy
  Sm  Sm0  1  0.00000000  0.00000000  0.00000000  1
  Ge  Ge1  1  0.63168500  0.63168500  0.00000000  1
  Ge  Ge2  1  0.36831500  0.36831500  0.00000000  1
  Ru  Ru3  1  0.25000000  0.75000000  0.50000000  1
  Ru  Ru4  1  0.75000000  0.25000000  0.50000000  1
