# generated using pymatgen
data_MnAs2F12
_symmetry_space_group_name_H-M   'P 1'
_cell_length_a   9.50644310
_cell_length_b   9.50644310
_cell_length_c   9.50644310
_cell_angle_alpha   132.35553764
_cell_angle_beta   132.35553764
_cell_angle_gamma   69.66807018
_symmetry_Int_Tables_number   1
_chemical_formula_structural   MnAs2F12
_chemical_formula_sum   'Mn2 As4 F24'
_cell_volume   460.15602805
_cell_formula_units_Z   2
loop_
 _symmetry_equiv_pos_site_id
 _symmetry_equiv_pos_as_xyz
  1  'x, y, z'
loop_
 _atom_site_type_symbol
 _atom_site_label
 _atom_site_symmetry_multiplicity
 _atom_site_fract_x
 _atom_site_fract_y
 _atom_site_fract_z
 _atom_site_occupancy
  Mn  Mn0  1  0.75000000  0.25000000  0.50000000  1
  Mn  Mn1  1  0.00000000  0.00000000  0.00000000  1
  As  As2  1  0.77894800  0.77894800  0.00000000  1
  As  As3  1  0.22105200  0.22105200  0.00000000  1
  As  As4  1  0.97105200  0.47105200  0.50000000  1
  As  As5  1  0.52894800  0.02894800  0.50000000  1
  F  F6  1  0.86598000  0.74101900  0.19856400  1
  F  F7  1  0.54245400  0.66741600  0.80143600  1
  F  F8  1  0.41741600  0.79245400  0.30143600  1
  F  F9  1  0.33258400  0.13402000  0.87503900  1
  F  F10  1  0.25898100  0.45754600  0.12496100  1
  F  F11  1  0.20754600  0.50898100  0.62496100  1
  F  F12  1  0.64834200  0.26657500  0.68580500  1
  F  F13  1  0.73342500  0.41923000  0.38176700  1
  F  F14  1  0.03746400  0.35165800  0.61823300  1
  F  F15  1  0.10165800  0.28746400  0.11823300  1
  F  F16  1  0.16923000  0.98342500  0.88176700  1
  F  F17  1  0.58077000  0.96253600  0.31419500  1
  F  F18  1  0.71253600  0.83077000  0.81419500  1
  F  F19  1  0.01657500  0.89834200  0.18580500  1
  F  F20  1  0.30084500  0.08515300  0.32268800  1
  F  F21  1  0.91484700  0.23753500  0.21569200  1
  F  F22  1  0.02184300  0.69915500  0.78430800  1
  F  F23  1  0.44915500  0.27184300  0.28430800  1
  F  F24  1  0.98753500  0.16484700  0.71569200  1
  F  F25  1  0.76246500  0.97815700  0.67731200  1
  F  F26  1  0.72815700  0.01246500  0.17731200  1
  F  F27  1  0.83515300  0.55084500  0.82268800  1
  F  F28  1  0.49101900  0.11598000  0.69856400  1
  F  F29  1  0.88402000  0.58258400  0.37503900  1
