# generated using pymatgen
data_EuIn2Pd
_symmetry_space_group_name_H-M   'P 1'
_cell_length_a   5.78640594
_cell_length_b   5.78640594
_cell_length_c   7.93599500
_cell_angle_alpha   90.00000000
_cell_angle_beta   90.00000000
_cell_angle_gamma   133.40047100
_symmetry_Int_Tables_number   1
_chemical_formula_structural   EuIn2Pd
_chemical_formula_sum   'Eu2 In4 Pd2'
_cell_volume   193.06166997
_cell_formula_units_Z   2
loop_
 _symmetry_equiv_pos_site_id
 _symmetry_equiv_pos_as_xyz
  1  'x, y, z'
loop_
 _atom_site_type_symbol
 _atom_site_label
 _atom_site_symmetry_multiplicity
 _atom_site_fract_x
 _atom_site_fract_y
 _atom_site_fract_z
 _atom_site_occupancy
  Eu  Eu0  1  0.06446800  0.93553200  0.25000000  1
  Eu  Eu1  1  0.93553200  0.06446800  0.75000000  1
  In  In2  1  0.64653900  0.35346100  0.55308800  1
  In  In3  1  0.35346100  0.64653900  0.44691200  1
  In  In4  1  0.64653900  0.35346100  0.94691200  1
  In  In5  1  0.35346100  0.64653900  0.05308800  1
  Pd  Pd6  1  0.21808400  0.78191600  0.75000000  1
  Pd  Pd7  1  0.78191600  0.21808400  0.25000000  1
