# generated using pymatgen
data_CoGe
_symmetry_space_group_name_H-M   'P 1'
_cell_length_a   6.15633069
_cell_length_b   6.15633069
_cell_length_c   4.92774352
_cell_angle_alpha   80.82364534
_cell_angle_beta   80.82364534
_cell_angle_gamma   35.53798691
_symmetry_Int_Tables_number   1
_chemical_formula_structural   CoGe
_chemical_formula_sum   'Co4 Ge4'
_cell_volume   107.02192581
_cell_formula_units_Z   4
loop_
 _symmetry_equiv_pos_site_id
 _symmetry_equiv_pos_as_xyz
  1  'x, y, z'
loop_
 _atom_site_type_symbol
 _atom_site_label
 _atom_site_symmetry_multiplicity
 _atom_site_fract_x
 _atom_site_fract_y
 _atom_site_fract_z
 _atom_site_occupancy
  Co  Co0  1  0.00000000  0.00000000  0.00000000  1
  Co  Co1  1  0.00000000  0.00000000  0.50000000  1
  Co  Co2  1  0.19696300  0.19696300  0.67395100  1
  Co  Co3  1  0.80303700  0.80303700  0.32604900  1
  Ge  Ge4  1  0.18316100  0.18316100  0.18104800  1
  Ge  Ge5  1  0.81683900  0.81683900  0.81895200  1
  Ge  Ge6  1  0.42994900  0.42994900  0.28226200  1
  Ge  Ge7  1  0.57005100  0.57005100  0.71773800  1
