# generated using pymatgen
data_PrSnRu
_symmetry_space_group_name_H-M   'P 1'
_cell_length_a   4.89433900
_cell_length_b   7.40211800
_cell_length_c   7.69573600
_cell_angle_alpha   90.00000000
_cell_angle_beta   90.00000000
_cell_angle_gamma   90.00000000
_symmetry_Int_Tables_number   1
_chemical_formula_structural   PrSnRu
_chemical_formula_sum   'Pr4 Sn4 Ru4'
_cell_volume   278.80477782
_cell_formula_units_Z   4
loop_
 _symmetry_equiv_pos_site_id
 _symmetry_equiv_pos_as_xyz
  1  'x, y, z'
loop_
 _atom_site_type_symbol
 _atom_site_label
 _atom_site_symmetry_multiplicity
 _atom_site_fract_x
 _atom_site_fract_y
 _atom_site_fract_z
 _atom_site_occupancy
  Pr  Pr0  1  0.25000000  0.80915200  0.46818900  1
  Pr  Pr1  1  0.75000000  0.19084800  0.53181100  1
  Pr  Pr2  1  0.75000000  0.30915200  0.03181100  1
  Pr  Pr3  1  0.25000000  0.69084800  0.96818900  1
  Sn  Sn4  1  0.75000000  0.61269500  0.69547900  1
  Sn  Sn5  1  0.75000000  0.88730500  0.19547900  1
  Sn  Sn6  1  0.25000000  0.11269500  0.80452100  1
  Sn  Sn7  1  0.25000000  0.38730500  0.30452100  1
  Ru  Ru8  1  0.75000000  0.55699200  0.34894600  1
  Ru  Ru9  1  0.75000000  0.94300800  0.84894600  1
  Ru  Ru10  1  0.25000000  0.05699200  0.15105400  1
  Ru  Ru11  1  0.25000000  0.44300800  0.65105400  1
