# generated using pymatgen
data_Rb2FeF5
_symmetry_space_group_name_H-M   'P 1'
_cell_length_a   5.91483400
_cell_length_b   7.73455200
_cell_length_c   12.23909400
_cell_angle_alpha   90.00000000
_cell_angle_beta   90.00000000
_cell_angle_gamma   90.00000000
_symmetry_Int_Tables_number   1
_chemical_formula_structural   Rb2FeF5
_chemical_formula_sum   'Rb8 Fe4 F20'
_cell_volume   559.92130738
_cell_formula_units_Z   4
loop_
 _symmetry_equiv_pos_site_id
 _symmetry_equiv_pos_as_xyz
  1  'x, y, z'
loop_
 _atom_site_type_symbol
 _atom_site_label
 _atom_site_symmetry_multiplicity
 _atom_site_fract_x
 _atom_site_fract_y
 _atom_site_fract_z
 _atom_site_occupancy
  Rb  Rb0  1  0.25000000  0.48690500  0.27457800  1
  Rb  Rb1  1  0.75000000  0.51309500  0.72542200  1
  Rb  Rb2  1  0.25000000  0.98690500  0.22542200  1
  Rb  Rb3  1  0.75000000  0.01309500  0.77457800  1
  Rb  Rb4  1  0.25000000  0.15357200  0.58434500  1
  Rb  Rb5  1  0.75000000  0.84642800  0.41565500  1
  Rb  Rb6  1  0.25000000  0.65357200  0.91565500  1
  Rb  Rb7  1  0.75000000  0.34642800  0.08434500  1
  Fe  Fe8  1  0.25000000  0.66171800  0.56198900  1
  Fe  Fe9  1  0.75000000  0.33828200  0.43801100  1
  Fe  Fe10  1  0.25000000  0.16171800  0.93801100  1
  Fe  Fe11  1  0.75000000  0.83828200  0.06198900  1
  F  F12  1  0.51277300  0.19074500  0.38486100  1
  F  F13  1  0.01277300  0.80925500  0.61513900  1
  F  F14  1  0.98722700  0.69074500  0.11513900  1
  F  F15  1  0.48722700  0.30925500  0.88486100  1
  F  F16  1  0.48722700  0.80925500  0.61513900  1
  F  F17  1  0.98722700  0.19074500  0.38486100  1
  F  F18  1  0.01277300  0.30925500  0.88486100  1
  F  F19  1  0.51277300  0.69074500  0.11513900  1
  F  F20  1  0.25000000  0.77584700  0.41899500  1
  F  F21  1  0.75000000  0.22415300  0.58100500  1
  F  F22  1  0.25000000  0.27584700  0.08100500  1
  F  F23  1  0.75000000  0.72415300  0.91899500  1
  F  F24  1  0.50000000  0.50000000  0.50000000  1
  F  F25  1  0.00000000  0.50000000  0.50000000  1
  F  F26  1  0.00000000  0.00000000  0.00000000  1
  F  F27  1  0.50000000  0.00000000  0.00000000  1
  F  F28  1  0.75000000  0.98205600  0.18972900  1
  F  F29  1  0.25000000  0.01794400  0.81027100  1
  F  F30  1  0.75000000  0.48205600  0.31027100  1
  F  F31  1  0.25000000  0.51794400  0.68972900  1
