# generated using pymatgen
data_Ba2Si3Ni
_symmetry_space_group_name_H-M   'P 1'
_cell_length_a   11.46052407
_cell_length_b   11.46052407
_cell_length_c   3.92343500
_cell_angle_alpha   90.00000000
_cell_angle_beta   90.00000000
_cell_angle_gamma   120.00000038
_symmetry_Int_Tables_number   1
_chemical_formula_structural   Ba2Si3Ni
_chemical_formula_sum   'Ba6 Si9 Ni3'
_cell_volume   446.27858451
_cell_formula_units_Z   3
loop_
 _symmetry_equiv_pos_site_id
 _symmetry_equiv_pos_as_xyz
  1  'x, y, z'
loop_
 _atom_site_type_symbol
 _atom_site_label
 _atom_site_symmetry_multiplicity
 _atom_site_fract_x
 _atom_site_fract_y
 _atom_site_fract_z
 _atom_site_occupancy
  Ba  Ba0  1  0.61817800  0.00000000  0.00000000  1
  Ba  Ba1  1  0.38182200  0.38182200  0.00000000  1
  Ba  Ba2  1  0.00000000  0.61817800  0.00000000  1
  Ba  Ba3  1  0.00000000  0.28706600  0.00000000  1
  Ba  Ba4  1  0.71293400  0.71293400  0.00000000  1
  Ba  Ba5  1  0.28706600  0.00000000  0.00000000  1
  Si  Si6  1  0.87664100  0.00000000  0.50000000  1
  Si  Si7  1  0.00000000  0.87664100  0.50000000  1
  Si  Si8  1  0.12335900  0.12335900  0.50000000  1
  Si  Si9  1  0.77969900  0.31632900  0.50000000  1
  Si  Si10  1  0.68367100  0.46337000  0.50000000  1
  Si  Si11  1  0.31632900  0.77969900  0.50000000  1
  Si  Si12  1  0.22030100  0.53663000  0.50000000  1
  Si  Si13  1  0.46337000  0.68367100  0.50000000  1
  Si  Si14  1  0.53663000  0.22030100  0.50000000  1
  Ni  Ni15  1  0.33333300  0.66666700  0.00000000  1
  Ni  Ni16  1  0.66666700  0.33333300  0.00000000  1
  Ni  Ni17  1  0.00000000  0.00000000  0.00000000  1
