# generated using pymatgen
data_Te3(PbO4)2
_symmetry_space_group_name_H-M   'P 1'
_cell_length_a   10.68551475
_cell_length_b   10.68551475
_cell_length_c   19.23715900
_cell_angle_alpha   90.00000000
_cell_angle_beta   90.00000000
_cell_angle_gamma   140.47416902
_symmetry_Int_Tables_number   1
_chemical_formula_structural   Te3(PbO4)2
_chemical_formula_sum   'Te18 Pb12 O48'
_cell_volume   1397.91178534
_cell_formula_units_Z   6
loop_
 _symmetry_equiv_pos_site_id
 _symmetry_equiv_pos_as_xyz
  1  'x, y, z'
loop_
 _atom_site_type_symbol
 _atom_site_label
 _atom_site_symmetry_multiplicity
 _atom_site_fract_x
 _atom_site_fract_y
 _atom_site_fract_z
 _atom_site_occupancy
  Te  Te0  1  0.17602800  0.94857400  0.25000000  1
  Te  Te1  1  0.94857400  0.17602800  0.25000000  1
  Te  Te2  1  0.82397200  0.05142600  0.75000000  1
  Te  Te3  1  0.05142600  0.82397200  0.75000000  1
  Te  Te4  1  0.53585000  0.76928800  0.58367600  1
  Te  Te5  1  0.76928800  0.53585000  0.91632400  1
  Te  Te6  1  0.46415000  0.23071200  0.08367600  1
  Te  Te7  1  0.23071200  0.46415000  0.41632400  1
  Te  Te8  1  0.46415000  0.23071200  0.41632400  1
  Te  Te9  1  0.23071200  0.46415000  0.08367600  1
  Te  Te10  1  0.53585000  0.76928800  0.91632400  1
  Te  Te11  1  0.76928800  0.53585000  0.58367600  1
  Te  Te12  1  0.79465900  0.79465900  0.07487400  1
  Te  Te13  1  0.79465900  0.79465900  0.42512600  1
  Te  Te14  1  0.20534100  0.20534100  0.57487400  1
  Te  Te15  1  0.20534100  0.20534100  0.92512600  1
  Te  Te16  1  0.60305400  0.60305400  0.25000000  1
  Te  Te17  1  0.39694600  0.39694600  0.75000000  1
  Pb  Pb18  1  0.31870600  0.69815700  0.25000000  1
  Pb  Pb19  1  0.69815700  0.31870600  0.25000000  1
  Pb  Pb20  1  0.68129400  0.30184300  0.75000000  1
  Pb  Pb21  1  0.30184300  0.68129400  0.75000000  1
  Pb  Pb22  1  0.93663600  0.31814000  0.58969200  1
  Pb  Pb23  1  0.31814000  0.93663600  0.91030800  1
  Pb  Pb24  1  0.06336400  0.68186000  0.08969200  1
  Pb  Pb25  1  0.68186000  0.06336400  0.41030800  1
  Pb  Pb26  1  0.06336400  0.68186000  0.41030800  1
  Pb  Pb27  1  0.68186000  0.06336400  0.08969200  1
  Pb  Pb28  1  0.93663600  0.31814000  0.91030800  1
  Pb  Pb29  1  0.31814000  0.93663600  0.58969200  1
  O  O30  1  0.01425700  0.67909700  0.25000000  1
  O  O31  1  0.67909700  0.01425700  0.25000000  1
  O  O32  1  0.98574300  0.32090300  0.75000000  1
  O  O33  1  0.32090300  0.98574300  0.75000000  1
  O  O34  1  0.50944500  0.36551100  0.25000000  1
  O  O35  1  0.36551100  0.50944500  0.25000000  1
  O  O36  1  0.49055500  0.63448900  0.75000000  1
  O  O37  1  0.63448900  0.49055500  0.75000000  1
  O  O38  1  0.00012300  0.14433600  0.88664400  1
  O  O39  1  0.14433600  0.00012300  0.61335600  1
  O  O40  1  0.99987700  0.85566400  0.38664400  1
  O  O41  1  0.85566400  0.99987700  0.11335600  1
  O  O42  1  0.99987700  0.85566400  0.11335600  1
  O  O43  1  0.85566400  0.99987700  0.38664400  1
  O  O44  1  0.00012300  0.14433600  0.61335600  1
  O  O45  1  0.14433600  0.00012300  0.88664400  1
  O  O46  1  0.29246600  0.64536600  0.61580000  1
  O  O47  1  0.64536600  0.29246600  0.88420000  1
  O  O48  1  0.70753400  0.35463400  0.11580000  1
  O  O49  1  0.35463400  0.70753400  0.38420000  1
  O  O50  1  0.70753400  0.35463400  0.38420000  1
  O  O51  1  0.35463400  0.70753400  0.11580000  1
  O  O52  1  0.29246600  0.64536600  0.88420000  1
  O  O53  1  0.64536600  0.29246600  0.61580000  1
  O  O54  1  0.64975200  0.97800300  0.67855200  1
  O  O55  1  0.97800300  0.64975200  0.82144800  1
  O  O56  1  0.35024800  0.02199700  0.17855200  1
  O  O57  1  0.02199700  0.35024800  0.32144800  1
  O  O58  1  0.35024800  0.02199700  0.32144800  1
  O  O59  1  0.02199700  0.35024800  0.17855200  1
  O  O60  1  0.41450700  0.41450700  0.86338500  1
  O  O61  1  0.41450700  0.41450700  0.63661500  1
  O  O62  1  0.58549300  0.58549300  0.36338500  1
  O  O63  1  0.58549300  0.58549300  0.13661500  1
  O  O64  1  0.58743400  0.41256600  0.50000000  1
  O  O65  1  0.41256600  0.58743400  0.00000000  1
  O  O66  1  0.41256600  0.58743400  0.50000000  1
  O  O67  1  0.58743400  0.41256600  0.00000000  1
  O  O68  1  0.98047600  0.62571900  0.53239500  1
  O  O69  1  0.62571900  0.98047600  0.96760500  1
  O  O70  1  0.01952400  0.37428100  0.03239500  1
  O  O71  1  0.37428100  0.01952400  0.46760500  1
  O  O72  1  0.01952400  0.37428100  0.46760500  1
  O  O73  1  0.37428100  0.01952400  0.03239500  1
  O  O74  1  0.98047600  0.62571900  0.96760500  1
  O  O75  1  0.62571900  0.98047600  0.53239500  1
  O  O76  1  0.97800300  0.64975200  0.67855200  1
  O  O77  1  0.64975200  0.97800300  0.82144800  1
