# generated using pymatgen
data_SbXe2F9
_symmetry_space_group_name_H-M   'P 1'
_cell_length_a   8.62127035
_cell_length_b   8.62127035
_cell_length_c   10.34177645
_cell_angle_alpha   55.44475267
_cell_angle_beta   55.44475267
_cell_angle_gamma   58.02688845
_symmetry_Int_Tables_number   1
_chemical_formula_structural   SbXe2F9
_chemical_formula_sum   'Sb2 Xe4 F18'
_cell_volume   496.30213723
_cell_formula_units_Z   2
loop_
 _symmetry_equiv_pos_site_id
 _symmetry_equiv_pos_as_xyz
  1  'x, y, z'
loop_
 _atom_site_type_symbol
 _atom_site_label
 _atom_site_symmetry_multiplicity
 _atom_site_fract_x
 _atom_site_fract_y
 _atom_site_fract_z
 _atom_site_occupancy
  Sb  Sb0  1  0.96758800  0.22349400  0.80640200  1
  Sb  Sb1  1  0.22349400  0.96758800  0.30640200  1
  Xe  Xe2  1  0.51257700  0.33047500  0.33561700  1
  Xe  Xe3  1  0.33047500  0.51257700  0.83561700  1
  Xe  Xe4  1  0.69598300  0.89276000  0.75317200  1
  Xe  Xe5  1  0.89276000  0.69598300  0.25317200  1
  F  F6  1  0.79012500  0.10200500  0.86616000  1
  F  F7  1  0.10200500  0.79012500  0.36616000  1
  F  F8  1  0.76491600  0.47599300  0.77173800  1
  F  F9  1  0.47599300  0.76491600  0.27173800  1
  F  F10  1  0.06640100  0.27035900  0.57197200  1
  F  F11  1  0.27035900  0.06640100  0.07197200  1
  F  F12  1  0.69223000  0.83153700  0.41749800  1
  F  F13  1  0.83153700  0.69223000  0.91749800  1
  F  F14  1  0.10522200  0.52600800  0.08698500  1
  F  F15  1  0.52600800  0.10522200  0.58698500  1
  F  F16  1  0.53508200  0.46728200  0.62003200  1
  F  F17  1  0.46728200  0.53508200  0.12003200  1
  F  F18  1  0.34786000  0.14142100  0.24675700  1
  F  F19  1  0.14142100  0.34786000  0.74675700  1
  F  F20  1  0.17779900  0.86563400  0.54160600  1
  F  F21  1  0.86563400  0.17779900  0.04160600  1
  F  F22  1  0.96679500  0.16365400  0.34626200  1
  F  F23  1  0.16365400  0.96679500  0.84626200  1
