# generated using pymatgen
data_CeNiGe
_symmetry_space_group_name_H-M   'P 1'
_cell_length_a   4.30563900
_cell_length_b   7.20207000
_cell_length_c   7.20830500
_cell_angle_alpha   90.00000000
_cell_angle_beta   90.00000000
_cell_angle_gamma   90.00000000
_symmetry_Int_Tables_number   1
_chemical_formula_structural   CeNiGe
_chemical_formula_sum   'Ce4 Ni4 Ge4'
_cell_volume   223.52603101
_cell_formula_units_Z   4
loop_
 _symmetry_equiv_pos_site_id
 _symmetry_equiv_pos_as_xyz
  1  'x, y, z'
loop_
 _atom_site_type_symbol
 _atom_site_label
 _atom_site_symmetry_multiplicity
 _atom_site_fract_x
 _atom_site_fract_y
 _atom_site_fract_z
 _atom_site_occupancy
  Ce  Ce0  1  0.75000000  0.51180500  0.29056100  1
  Ce  Ce1  1  0.25000000  0.48819500  0.70943900  1
  Ce  Ce2  1  0.25000000  0.98819500  0.79056100  1
  Ce  Ce3  1  0.75000000  0.01180500  0.20943900  1
  Ni  Ni4  1  0.25000000  0.70195600  0.07953500  1
  Ni  Ni5  1  0.25000000  0.20195600  0.42046500  1
  Ni  Ni6  1  0.75000000  0.79804400  0.57953500  1
  Ni  Ni7  1  0.75000000  0.29804400  0.92046500  1
  Ge  Ge8  1  0.25000000  0.80227900  0.40974800  1
  Ge  Ge9  1  0.25000000  0.30227900  0.09025200  1
  Ge  Ge10  1  0.75000000  0.69772100  0.90974800  1
  Ge  Ge11  1  0.75000000  0.19772100  0.59025200  1
