# generated using pymatgen
data_TbGeRh
_symmetry_space_group_name_H-M   'P 1'
_cell_length_a   4.33452400
_cell_length_b   6.95706000
_cell_length_c   7.56785300
_cell_angle_alpha   90.00000000
_cell_angle_beta   90.00000000
_cell_angle_gamma   90.00000000
_symmetry_Int_Tables_number   1
_chemical_formula_structural   TbGeRh
_chemical_formula_sum   'Tb4 Ge4 Rh4'
_cell_volume   228.21272064
_cell_formula_units_Z   4
loop_
 _symmetry_equiv_pos_site_id
 _symmetry_equiv_pos_as_xyz
  1  'x, y, z'
loop_
 _atom_site_type_symbol
 _atom_site_label
 _atom_site_symmetry_multiplicity
 _atom_site_fract_x
 _atom_site_fract_y
 _atom_site_fract_z
 _atom_site_occupancy
  Tb  Tb0  1  0.25000000  0.50137800  0.69583200  1
  Tb  Tb1  1  0.25000000  0.00137800  0.80416800  1
  Tb  Tb2  1  0.75000000  0.49862200  0.30416800  1
  Tb  Tb3  1  0.75000000  0.99862200  0.19583200  1
  Ge  Ge4  1  0.25000000  0.78882300  0.39546800  1
  Ge  Ge5  1  0.25000000  0.28882300  0.10453200  1
  Ge  Ge6  1  0.75000000  0.21117700  0.60453200  1
  Ge  Ge7  1  0.75000000  0.71117700  0.89546800  1
  Rh  Rh8  1  0.25000000  0.15588500  0.43237800  1
  Rh  Rh9  1  0.25000000  0.65588500  0.06762200  1
  Rh  Rh10  1  0.75000000  0.84411500  0.56762200  1
  Rh  Rh11  1  0.75000000  0.34411500  0.93237800  1
