# generated using pymatgen
data_Rb5Au3O2
_symmetry_space_group_name_H-M   'P 1'
_cell_length_a   5.79539000
_cell_length_b   7.52879800
_cell_length_c   14.58215500
_cell_angle_alpha   90.00000000
_cell_angle_beta   90.00000000
_cell_angle_gamma   90.00000000
_symmetry_Int_Tables_number   1
_chemical_formula_structural   Rb5Au3O2
_chemical_formula_sum   'Rb10 Au6 O4'
_cell_volume   636.25326260
_cell_formula_units_Z   2
loop_
 _symmetry_equiv_pos_site_id
 _symmetry_equiv_pos_as_xyz
  1  'x, y, z'
loop_
 _atom_site_type_symbol
 _atom_site_label
 _atom_site_symmetry_multiplicity
 _atom_site_fract_x
 _atom_site_fract_y
 _atom_site_fract_z
 _atom_site_occupancy
  Rb  Rb0  1  0.50000000  0.17126300  0.89687200  1
  Rb  Rb1  1  0.50000000  0.82873700  0.10312800  1
  Rb  Rb2  1  0.00000000  0.00000000  0.50000000  1
  Rb  Rb3  1  0.00000000  0.50000000  0.00000000  1
  Rb  Rb4  1  0.00000000  0.11406100  0.23544000  1
  Rb  Rb5  1  0.00000000  0.88593900  0.76456000  1
  Rb  Rb6  1  0.00000000  0.61406100  0.26456000  1
  Rb  Rb7  1  0.00000000  0.38593900  0.73544000  1
  Rb  Rb8  1  0.50000000  0.32873700  0.39687200  1
  Rb  Rb9  1  0.50000000  0.67126300  0.60312800  1
  Au  Au10  1  0.50000000  0.14752700  0.64443000  1
  Au  Au11  1  0.50000000  0.85247300  0.35557000  1
  Au  Au12  1  0.50000000  0.64752700  0.85557000  1
  Au  Au13  1  0.50000000  0.35247300  0.14443000  1
  Au  Au14  1  0.00000000  0.50000000  0.50000000  1
  Au  Au15  1  0.00000000  0.00000000  0.00000000  1
  O  O16  1  0.00000000  0.17298800  0.89151700  1
  O  O17  1  0.00000000  0.82701200  0.10848300  1
  O  O18  1  0.00000000  0.67298800  0.60848300  1
  O  O19  1  0.00000000  0.32701200  0.39151700  1
