# generated using pymatgen
data_Sr(In4Rh)2
_symmetry_space_group_name_H-M   'P 1'
_cell_length_a   4.44727600
_cell_length_b   14.12941100
_cell_length_c   16.43001400
_cell_angle_alpha   90.00000000
_cell_angle_beta   90.00000000
_cell_angle_gamma   90.00000000
_symmetry_Int_Tables_number   1
_chemical_formula_structural   Sr(In4Rh)2
_chemical_formula_sum   'Sr4 In32 Rh8'
_cell_volume   1032.41920456
_cell_formula_units_Z   4
loop_
 _symmetry_equiv_pos_site_id
 _symmetry_equiv_pos_as_xyz
  1  'x, y, z'
loop_
 _atom_site_type_symbol
 _atom_site_label
 _atom_site_symmetry_multiplicity
 _atom_site_fract_x
 _atom_site_fract_y
 _atom_site_fract_z
 _atom_site_occupancy
  Sr  Sr0  1  0.50000000  0.84242900  0.31932800  1
  Sr  Sr1  1  0.50000000  0.15757100  0.68067200  1
  Sr  Sr2  1  0.50000000  0.34242900  0.18067200  1
  Sr  Sr3  1  0.50000000  0.65757100  0.81932800  1
  In  In4  1  0.00000000  0.83399800  0.87795600  1
  In  In5  1  0.00000000  0.16600200  0.12204400  1
  In  In6  1  0.00000000  0.33399800  0.62204400  1
  In  In7  1  0.00000000  0.66600200  0.37795600  1
  In  In8  1  0.00000000  0.55034000  0.68282800  1
  In  In9  1  0.00000000  0.44966000  0.31717200  1
  In  In10  1  0.00000000  0.05034000  0.81717200  1
  In  In11  1  0.00000000  0.94966000  0.18282800  1
  In  In12  1  0.00000000  0.00000000  0.00000000  1
  In  In13  1  0.00000000  0.50000000  0.50000000  1
  In  In14  1  0.00000000  0.76011500  0.67678400  1
  In  In15  1  0.00000000  0.23988500  0.32321600  1
  In  In16  1  0.00000000  0.26011500  0.82321600  1
  In  In17  1  0.00000000  0.73988500  0.17678400  1
  In  In18  1  0.50000000  0.84010600  0.04443400  1
  In  In19  1  0.50000000  0.15989400  0.95556600  1
  In  In20  1  0.50000000  0.34010600  0.45556600  1
  In  In21  1  0.50000000  0.65989400  0.54443400  1
  In  In22  1  0.00000000  0.66998400  0.98904100  1
  In  In23  1  0.00000000  0.33001600  0.01095900  1
  In  In24  1  0.00000000  0.16998400  0.51095900  1
  In  In25  1  0.00000000  0.83001600  0.48904100  1
  In  In26  1  0.50000000  0.60006000  0.25358200  1
  In  In27  1  0.50000000  0.39994000  0.74641800  1
  In  In28  1  0.50000000  0.10006000  0.24641800  1
  In  In29  1  0.50000000  0.89994000  0.75358200  1
  In  In30  1  0.50000000  0.50000000  0.00000000  1
  In  In31  1  0.50000000  0.00000000  0.50000000  1
  In  In32  1  0.00000000  0.97943100  0.63343700  1
  In  In33  1  0.00000000  0.02056900  0.36656300  1
  In  In34  1  0.00000000  0.47943100  0.86656300  1
  In  In35  1  0.00000000  0.52056900  0.13343700  1
  Rh  Rh36  1  0.50000000  0.65392000  0.09651100  1
  Rh  Rh37  1  0.50000000  0.34608000  0.90348900  1
  Rh  Rh38  1  0.50000000  0.15392000  0.40348900  1
  Rh  Rh39  1  0.50000000  0.84608000  0.59651100  1
  Rh  Rh40  1  0.50000000  0.53450700  0.40494000  1
  Rh  Rh41  1  0.50000000  0.46549300  0.59506000  1
  Rh  Rh42  1  0.50000000  0.03450700  0.09506000  1
  Rh  Rh43  1  0.50000000  0.96549300  0.90494000  1
