# generated using pymatgen
data_TlBO2
_symmetry_space_group_name_H-M   'P 1'
_cell_length_a   7.62571600
_cell_length_b   7.62571600
_cell_length_c   9.47190500
_cell_angle_alpha   90.00000000
_cell_angle_beta   90.00000000
_cell_angle_gamma   90.00000000
_symmetry_Int_Tables_number   1
_chemical_formula_structural   TlBO2
_chemical_formula_sum   'Tl8 B8 O16'
_cell_volume   550.80590523
_cell_formula_units_Z   8
loop_
 _symmetry_equiv_pos_site_id
 _symmetry_equiv_pos_as_xyz
  1  'x, y, z'
loop_
 _atom_site_type_symbol
 _atom_site_label
 _atom_site_symmetry_multiplicity
 _atom_site_fract_x
 _atom_site_fract_y
 _atom_site_fract_z
 _atom_site_occupancy
  Tl  Tl0  1  0.73100400  0.97948800  0.90564600  1
  Tl  Tl1  1  0.02051200  0.73100400  0.15564600  1
  Tl  Tl2  1  0.97948800  0.26899600  0.65564600  1
  Tl  Tl3  1  0.26899600  0.02051200  0.40564600  1
  Tl  Tl4  1  0.73255600  0.72470300  0.49928300  1
  Tl  Tl5  1  0.27529700  0.73255600  0.74928300  1
  Tl  Tl6  1  0.72470300  0.26744400  0.24928300  1
  Tl  Tl7  1  0.26744400  0.27529700  0.99928300  1
  B  B8  1  0.54919200  0.59172500  0.02174400  1
  B  B9  1  0.40827500  0.54919200  0.27174400  1
  B  B10  1  0.59172500  0.45080800  0.77174400  1
  B  B11  1  0.45080800  0.40827500  0.52174400  1
  B  B12  1  0.85713400  0.53917600  0.91820600  1
  B  B13  1  0.46082400  0.85713400  0.16820600  1
  B  B14  1  0.53917600  0.14286600  0.66820600  1
  B  B15  1  0.14286600  0.46082400  0.41820600  1
  O  O16  1  0.21777100  0.50370100  0.28805400  1
  O  O17  1  0.49629900  0.21777100  0.53805400  1
  O  O18  1  0.50370100  0.78222900  0.03805400  1
  O  O19  1  0.78222900  0.49629900  0.78805400  1
  O  O20  1  0.51362300  0.46638900  0.38311500  1
  O  O21  1  0.53361100  0.51362300  0.63311500  1
  O  O22  1  0.46638900  0.48637700  0.13311500  1
  O  O23  1  0.48637700  0.53361100  0.88311500  1
  O  O24  1  0.25578600  0.42749400  0.53237100  1
  O  O25  1  0.57250600  0.25578600  0.78237100  1
  O  O26  1  0.42749400  0.74421400  0.28237100  1
  O  O27  1  0.74421400  0.57250600  0.03237100  1
  O  O28  1  0.96718200  0.44734400  0.43708100  1
  O  O29  1  0.55265600  0.96718200  0.68708100  1
  O  O30  1  0.44734400  0.03281800  0.18708100  1
  O  O31  1  0.03281800  0.55265600  0.93708100  1
