# generated using pymatgen
data_K2SnTe3
_symmetry_space_group_name_H-M   'P 1'
_cell_length_a   12.51129189
_cell_length_b   12.51129189
_cell_length_c   8.83783300
_cell_angle_alpha   90.00000000
_cell_angle_beta   90.00000000
_cell_angle_gamma   138.85735796
_symmetry_Int_Tables_number   1
_chemical_formula_structural   K2SnTe3
_chemical_formula_sum   'K8 Sn4 Te12'
_cell_volume   910.19341061
_cell_formula_units_Z   4
loop_
 _symmetry_equiv_pos_site_id
 _symmetry_equiv_pos_as_xyz
  1  'x, y, z'
loop_
 _atom_site_type_symbol
 _atom_site_label
 _atom_site_symmetry_multiplicity
 _atom_site_fract_x
 _atom_site_fract_y
 _atom_site_fract_z
 _atom_site_occupancy
  K  K0  1  0.07778000  0.92222000  0.00000000  1
  K  K1  1  0.42222000  0.57778000  0.50000000  1
  K  K2  1  0.92222000  0.07778000  0.00000000  1
  K  K3  1  0.57778000  0.42222000  0.50000000  1
  K  K4  1  0.23482700  0.76517300  0.00000000  1
  K  K5  1  0.73482700  0.26517300  0.50000000  1
  K  K6  1  0.26517300  0.73482700  0.50000000  1
  K  K7  1  0.76517300  0.23482700  0.00000000  1
  Sn  Sn8  1  0.41569800  0.58430200  0.00000000  1
  Sn  Sn9  1  0.08430200  0.91569800  0.50000000  1
  Sn  Sn10  1  0.58430200  0.41569800  0.00000000  1
  Sn  Sn11  1  0.91569800  0.08430200  0.50000000  1
  Te  Te12  1  0.33571300  0.03683200  0.68612000  1
  Te  Te13  1  0.53683200  0.83571300  0.81388000  1
  Te  Te14  1  0.16428700  0.46316800  0.18612000  1
  Te  Te15  1  0.96316800  0.66428700  0.31388000  1
  Te  Te16  1  0.66428700  0.96316800  0.31388000  1
  Te  Te17  1  0.46316800  0.16428700  0.18612000  1
  Te  Te18  1  0.83571300  0.53683200  0.81388000  1
  Te  Te19  1  0.03683200  0.33571300  0.68612000  1
  Te  Te20  1  0.83229300  0.83229300  0.66789900  1
  Te  Te21  1  0.33229300  0.33229300  0.83210100  1
  Te  Te22  1  0.66770700  0.66770700  0.16789900  1
  Te  Te23  1  0.16770700  0.16770700  0.33210100  1
