# generated using pymatgen
data_SrRuO3
_symmetry_space_group_name_H-M   'P 1'
_cell_length_a   5.61489500
_cell_length_b   5.66034600
_cell_length_c   7.92849800
_cell_angle_alpha   90.00000000
_cell_angle_beta   90.00000000
_cell_angle_gamma   90.00000000
_symmetry_Int_Tables_number   1
_chemical_formula_structural   SrRuO3
_chemical_formula_sum   'Sr4 Ru4 O12'
_cell_volume   251.98549330
_cell_formula_units_Z   4
loop_
 _symmetry_equiv_pos_site_id
 _symmetry_equiv_pos_as_xyz
  1  'x, y, z'
loop_
 _atom_site_type_symbol
 _atom_site_label
 _atom_site_symmetry_multiplicity
 _atom_site_fract_x
 _atom_site_fract_y
 _atom_site_fract_z
 _atom_site_occupancy
  Sr  Sr0  1  0.47603200  0.49645400  0.25000000  1
  Sr  Sr1  1  0.97603200  0.00354600  0.25000000  1
  Sr  Sr2  1  0.52396800  0.50354600  0.75000000  1
  Sr  Sr3  1  0.02396800  0.99645400  0.75000000  1
  Ru  Ru4  1  0.50000000  0.00000000  0.00000000  1
  Ru  Ru5  1  0.00000000  0.50000000  0.50000000  1
  Ru  Ru6  1  0.50000000  0.00000000  0.50000000  1
  Ru  Ru7  1  0.00000000  0.50000000  0.00000000  1
  O  O8  1  0.21821200  0.21847100  0.03219800  1
  O  O9  1  0.71821200  0.28152900  0.46780200  1
  O  O10  1  0.78178800  0.78152900  0.53219800  1
  O  O11  1  0.28178800  0.71847100  0.96780200  1
  O  O12  1  0.78178800  0.78152900  0.96780200  1
  O  O13  1  0.28178800  0.71847100  0.53219800  1
  O  O14  1  0.21821200  0.21847100  0.46780200  1
  O  O15  1  0.71821200  0.28152900  0.03219800  1
  O  O16  1  0.00547500  0.56134400  0.25000000  1
  O  O17  1  0.50547500  0.93865600  0.25000000  1
  O  O18  1  0.99452500  0.43865600  0.75000000  1
  O  O19  1  0.49452500  0.06134400  0.75000000  1
