# generated using pymatgen
data_Ga2TeO6
_symmetry_space_group_name_H-M   'P 1'
_cell_length_a   4.62573500
_cell_length_b   4.62573500
_cell_length_c   9.10721300
_cell_angle_alpha   90.00000000
_cell_angle_beta   90.00000000
_cell_angle_gamma   90.00000000
_symmetry_Int_Tables_number   1
_chemical_formula_structural   Ga2TeO6
_chemical_formula_sum   'Ga4 Te2 O12'
_cell_volume   194.87090066
_cell_formula_units_Z   2
loop_
 _symmetry_equiv_pos_site_id
 _symmetry_equiv_pos_as_xyz
  1  'x, y, z'
loop_
 _atom_site_type_symbol
 _atom_site_label
 _atom_site_symmetry_multiplicity
 _atom_site_fract_x
 _atom_site_fract_y
 _atom_site_fract_z
 _atom_site_occupancy
  Ga  Ga0  1  0.00000000  0.00000000  0.33480300  1
  Ga  Ga1  1  0.50000000  0.50000000  0.83480300  1
  Ga  Ga2  1  0.50000000  0.50000000  0.16519700  1
  Ga  Ga3  1  0.00000000  0.00000000  0.66519700  1
  Te  Te4  1  0.50000000  0.50000000  0.50000000  1
  Te  Te5  1  0.00000000  0.00000000  0.00000000  1
  O  O6  1  0.80745400  0.80745400  0.83651600  1
  O  O7  1  0.19254600  0.19254600  0.83651600  1
  O  O8  1  0.80745400  0.80745400  0.16348400  1
  O  O9  1  0.30745400  0.69254600  0.33651600  1
  O  O10  1  0.69254600  0.30745400  0.33651600  1
  O  O11  1  0.69254600  0.30745400  0.66348400  1
  O  O12  1  0.30145500  0.69854500  0.00000000  1
  O  O13  1  0.80145500  0.80145500  0.50000000  1
  O  O14  1  0.19854500  0.19854500  0.50000000  1
  O  O15  1  0.69854500  0.30145500  0.00000000  1
  O  O16  1  0.19254600  0.19254600  0.16348400  1
  O  O17  1  0.30745400  0.69254600  0.66348400  1
