# generated using pymatgen
data_La3(TaN3)2
_symmetry_space_group_name_H-M   'P 1'
_cell_length_a   10.49780834
_cell_length_b   10.49780834
_cell_length_c   10.49780834
_cell_angle_alpha   157.53962906
_cell_angle_beta   157.53962906
_cell_angle_gamma   31.97405234
_symmetry_Int_Tables_number   1
_chemical_formula_structural   La3(TaN3)2
_chemical_formula_sum   'La3 Ta2 N6'
_cell_volume   168.72742948
_cell_formula_units_Z   1
loop_
 _symmetry_equiv_pos_site_id
 _symmetry_equiv_pos_as_xyz
  1  'x, y, z'
loop_
 _atom_site_type_symbol
 _atom_site_label
 _atom_site_symmetry_multiplicity
 _atom_site_fract_x
 _atom_site_fract_y
 _atom_site_fract_z
 _atom_site_occupancy
  La  La0  1  0.18054500  0.18054500  0.00000000  1
  La  La1  1  0.81945500  0.81945500  0.00000000  1
  La  La2  1  0.00000000  0.00000000  0.00000000  1
  Ta  Ta3  1  0.60107000  0.60107000  0.00000000  1
  Ta  Ta4  1  0.39893000  0.39893000  0.00000000  1
  N  N5  1  0.08553600  0.58553600  0.50000000  1
  N  N6  1  0.58553600  0.08553600  0.50000000  1
  N  N7  1  0.91446400  0.41446400  0.50000000  1
  N  N8  1  0.41446400  0.91446400  0.50000000  1
  N  N9  1  0.69803800  0.69803800  0.00000000  1
  N  N10  1  0.30196200  0.30196200  0.00000000  1
