# generated using pymatgen
data_V3B2
_symmetry_space_group_name_H-M   'P 1'
_cell_length_a   5.73047400
_cell_length_b   5.73047400
_cell_length_c   3.01784300
_cell_angle_alpha   90.00000000
_cell_angle_beta   90.00000000
_cell_angle_gamma   90.00000000
_symmetry_Int_Tables_number   1
_chemical_formula_structural   V3B2
_chemical_formula_sum   'V6 B4'
_cell_volume   99.10093116
_cell_formula_units_Z   2
loop_
 _symmetry_equiv_pos_site_id
 _symmetry_equiv_pos_as_xyz
  1  'x, y, z'
loop_
 _atom_site_type_symbol
 _atom_site_label
 _atom_site_symmetry_multiplicity
 _atom_site_fract_x
 _atom_site_fract_y
 _atom_site_fract_z
 _atom_site_occupancy
  V  V0  1  0.00000000  0.00000000  0.00000000  1
  V  V1  1  0.50000000  0.50000000  0.00000000  1
  V  V2  1  0.32167800  0.82167800  0.50000000  1
  V  V3  1  0.82167800  0.67832200  0.50000000  1
  V  V4  1  0.17832200  0.32167800  0.50000000  1
  V  V5  1  0.67832200  0.17832200  0.50000000  1
  B  B6  1  0.11057900  0.61057900  0.00000000  1
  B  B7  1  0.61057900  0.88942100  0.00000000  1
  B  B8  1  0.38942100  0.11057900  0.00000000  1
  B  B9  1  0.88942100  0.38942100  0.00000000  1
