# generated using pymatgen
data_U(PS3)2
_symmetry_space_group_name_H-M   'P 1'
_cell_length_a   7.06178600
_cell_length_b   7.06178600
_cell_length_c   9.72134500
_cell_angle_alpha   90.00000000
_cell_angle_beta   90.00000000
_cell_angle_gamma   90.00000000
_symmetry_Int_Tables_number   1
_chemical_formula_structural   U(PS3)2
_chemical_formula_sum   'U2 P4 S12'
_cell_volume   484.79201864
_cell_formula_units_Z   2
loop_
 _symmetry_equiv_pos_site_id
 _symmetry_equiv_pos_as_xyz
  1  'x, y, z'
loop_
 _atom_site_type_symbol
 _atom_site_label
 _atom_site_symmetry_multiplicity
 _atom_site_fract_x
 _atom_site_fract_y
 _atom_site_fract_z
 _atom_site_occupancy
  U  U0  1  0.00000000  0.00000000  0.75000000  1
  U  U1  1  0.00000000  0.00000000  0.25000000  1
  P  P2  1  0.05759400  0.34646800  0.50000000  1
  P  P3  1  0.94240600  0.65353200  0.50000000  1
  P  P4  1  0.34646800  0.94240600  0.00000000  1
  P  P5  1  0.65353200  0.05759400  0.00000000  1
  S  S6  1  0.20763900  0.31458000  0.67602500  1
  S  S7  1  0.68542000  0.20763900  0.17602500  1
  S  S8  1  0.17185000  0.17437800  0.00000000  1
  S  S9  1  0.82562200  0.17185000  0.50000000  1
  S  S10  1  0.17437800  0.82815000  0.50000000  1
  S  S11  1  0.82815000  0.82562200  0.00000000  1
  S  S12  1  0.20763900  0.31458000  0.32397500  1
  S  S13  1  0.68542000  0.20763900  0.82397500  1
  S  S14  1  0.31458000  0.79236100  0.82397500  1
  S  S15  1  0.79236100  0.68542000  0.32397500  1
  S  S16  1  0.79236100  0.68542000  0.67602500  1
  S  S17  1  0.31458000  0.79236100  0.17602500  1
