# generated using pymatgen
data_In4Ag9
_symmetry_space_group_name_H-M   'P 1'
_cell_length_a   10.06540000
_cell_length_b   10.06540000
_cell_length_c   10.06540000
_cell_angle_alpha   90.00000000
_cell_angle_beta   90.00000000
_cell_angle_gamma   90.00000000
_symmetry_Int_Tables_number   1
_chemical_formula_structural   In4Ag9
_chemical_formula_sum   'In16 Ag36'
_cell_volume   1019.74859453
_cell_formula_units_Z   4
loop_
 _symmetry_equiv_pos_site_id
 _symmetry_equiv_pos_as_xyz
  1  'x, y, z'
loop_
 _atom_site_type_symbol
 _atom_site_label
 _atom_site_symmetry_multiplicity
 _atom_site_fract_x
 _atom_site_fract_y
 _atom_site_fract_z
 _atom_site_occupancy
  In  In0  1  0.18974500  0.18974500  0.53368300  1
  In  In1  1  0.81025500  0.46631700  0.18974500  1
  In  In2  1  0.46631700  0.81025500  0.18974500  1
  In  In3  1  0.81025500  0.53368300  0.81025500  1
  In  In4  1  0.53368300  0.81025500  0.81025500  1
  In  In5  1  0.18974500  0.81025500  0.46631700  1
  In  In6  1  0.81025500  0.18974500  0.46631700  1
  In  In7  1  0.53368300  0.18974500  0.18974500  1
  In  In8  1  0.46631700  0.18974500  0.81025500  1
  In  In9  1  0.18974500  0.46631700  0.81025500  1
  In  In10  1  0.18974500  0.53368300  0.18974500  1
  In  In11  1  0.81025500  0.81025500  0.53368300  1
  In  In12  1  0.12348500  0.87651500  0.87651500  1
  In  In13  1  0.87651500  0.87651500  0.12348500  1
  In  In14  1  0.87651500  0.12348500  0.87651500  1
  In  In15  1  0.12348500  0.12348500  0.12348500  1
  Ag  Ag16  1  0.68191300  0.68191300  0.02796000  1
  Ag  Ag17  1  0.31808700  0.97204000  0.68191300  1
  Ag  Ag18  1  0.97204000  0.31808700  0.68191300  1
  Ag  Ag19  1  0.31808700  0.02796000  0.31808700  1
  Ag  Ag20  1  0.02796000  0.31808700  0.31808700  1
  Ag  Ag21  1  0.68191300  0.31808700  0.97204000  1
  Ag  Ag22  1  0.31808700  0.68191300  0.97204000  1
  Ag  Ag23  1  0.02796000  0.68191300  0.68191300  1
  Ag  Ag24  1  0.97204000  0.68191300  0.31808700  1
  Ag  Ag25  1  0.68191300  0.97204000  0.31808700  1
  Ag  Ag26  1  0.68191300  0.02796000  0.68191300  1
  Ag  Ag27  1  0.31808700  0.31808700  0.02796000  1
  Ag  Ag28  1  0.50000000  0.50000000  0.14412700  1
  Ag  Ag29  1  0.85587300  0.50000000  0.50000000  1
  Ag  Ag30  1  0.14412700  0.50000000  0.50000000  1
  Ag  Ag31  1  0.50000000  0.14412700  0.50000000  1
  Ag  Ag32  1  0.60473200  0.60473200  0.60473200  1
  Ag  Ag33  1  0.39526800  0.60473200  0.39526800  1
  Ag  Ag34  1  0.39526800  0.39526800  0.60473200  1
  Ag  Ag35  1  0.60473200  0.39526800  0.39526800  1
  Ag  Ag36  1  0.83116800  0.83116800  0.83116800  1
  Ag  Ag37  1  0.16883200  0.83116800  0.16883200  1
  Ag  Ag38  1  0.16883200  0.16883200  0.83116800  1
  Ag  Ag39  1  0.83116800  0.16883200  0.16883200  1
  Ag  Ag40  1  0.32504200  0.32504200  0.32504200  1
  Ag  Ag41  1  0.67495800  0.32504200  0.67495800  1
  Ag  Ag42  1  0.67495800  0.67495800  0.32504200  1
  Ag  Ag43  1  0.32504200  0.67495800  0.67495800  1
  Ag  Ag44  1  0.00000000  0.00000000  0.35677000  1
  Ag  Ag45  1  0.00000000  0.35677000  0.00000000  1
  Ag  Ag46  1  0.00000000  0.64323000  0.00000000  1
  Ag  Ag47  1  0.64323000  0.00000000  0.00000000  1
  Ag  Ag48  1  0.35677000  0.00000000  0.00000000  1
  Ag  Ag49  1  0.00000000  0.00000000  0.64323000  1
  Ag  Ag50  1  0.50000000  0.50000000  0.85587300  1
  Ag  Ag51  1  0.50000000  0.85587300  0.50000000  1
