# generated using pymatgen
data_BiF3
_symmetry_space_group_name_H-M   'P 1'
_cell_length_a   5.01045000
_cell_length_b   6.54745800
_cell_length_c   7.10367900
_cell_angle_alpha   90.00000000
_cell_angle_beta   90.00000000
_cell_angle_gamma   90.00000000
_symmetry_Int_Tables_number   1
_chemical_formula_structural   BiF3
_chemical_formula_sum   'Bi4 F12'
_cell_volume   233.04123986
_cell_formula_units_Z   4
loop_
 _symmetry_equiv_pos_site_id
 _symmetry_equiv_pos_as_xyz
  1  'x, y, z'
loop_
 _atom_site_type_symbol
 _atom_site_label
 _atom_site_symmetry_multiplicity
 _atom_site_fract_x
 _atom_site_fract_y
 _atom_site_fract_z
 _atom_site_occupancy
  Bi  Bi0  1  0.97016300  0.63471000  0.75000000  1
  Bi  Bi1  1  0.47016300  0.86529000  0.25000000  1
  Bi  Bi2  1  0.52983700  0.13471000  0.75000000  1
  Bi  Bi3  1  0.02983700  0.36529000  0.25000000  1
  F  F4  1  0.35155200  0.16071800  0.43965500  1
  F  F5  1  0.85155200  0.33928200  0.56034500  1
  F  F6  1  0.14844800  0.66071800  0.06034500  1
  F  F7  1  0.64844800  0.83928200  0.93965500  1
  F  F8  1  0.63700800  0.54054000  0.25000000  1
  F  F9  1  0.13700800  0.95946000  0.75000000  1
  F  F10  1  0.86299200  0.04054000  0.25000000  1
  F  F11  1  0.36299200  0.45946000  0.75000000  1
  F  F12  1  0.35155200  0.16071800  0.06034500  1
  F  F13  1  0.85155200  0.33928200  0.93965500  1
  F  F14  1  0.14844800  0.66071800  0.43965500  1
  F  F15  1  0.64844800  0.83928200  0.56034500  1
