# generated using pymatgen
data_Sr3V2O7
_symmetry_space_group_name_H-M   'P 1'
_cell_length_a   3.97754415
_cell_length_b   3.97754483
_cell_length_c   10.34817482
_cell_angle_alpha   101.08037616
_cell_angle_beta   101.08038065
_cell_angle_gamma   89.99999460
_symmetry_Int_Tables_number   1
_chemical_formula_structural   Sr3V2O7
_chemical_formula_sum   'Sr3 V2 O7'
_cell_volume   157.55407090
_cell_formula_units_Z   1
loop_
 _symmetry_equiv_pos_site_id
 _symmetry_equiv_pos_as_xyz
  1  'x, y, z'
loop_
 _atom_site_type_symbol
 _atom_site_label
 _atom_site_symmetry_multiplicity
 _atom_site_fract_x
 _atom_site_fract_y
 _atom_site_fract_z
 _atom_site_occupancy
  Sr  Sr0  1  0.68046900  0.68047000  0.36093800  1
  Sr  Sr1  1  0.31953000  0.31953000  0.63906200  1
  Sr  Sr2  1  0.49999900  0.50000100  0.00000000  1
  V  V3  1  0.90219000  0.90219300  0.80438300  1
  V  V4  1  0.09780900  0.09780800  0.19561700  1
  O  O5  1  0.90429900  0.40430000  0.80859900  1
  O  O6  1  0.40430000  0.90429800  0.80859800  1
  O  O7  1  0.09570000  0.59570000  0.19140100  1
  O  O8  1  0.59570100  0.09570200  0.19140100  1
  O  O9  1  0.80732000  0.80732000  0.61464200  1
  O  O10  1  0.00000000  0.00000000  0.00000000  1
  O  O11  1  0.19267900  0.19268000  0.38535700  1
