# generated using pymatgen
data_PrNiSn
_symmetry_space_group_name_H-M   'P 1'
_cell_length_a   4.65122600
_cell_length_b   7.49757800
_cell_length_c   7.62014300
_cell_angle_alpha   90.00000000
_cell_angle_beta   90.00000000
_cell_angle_gamma   90.00000000
_symmetry_Int_Tables_number   1
_chemical_formula_structural   PrNiSn
_chemical_formula_sum   'Pr4 Ni4 Sn4'
_cell_volume   265.73671138
_cell_formula_units_Z   4
loop_
 _symmetry_equiv_pos_site_id
 _symmetry_equiv_pos_as_xyz
  1  'x, y, z'
loop_
 _atom_site_type_symbol
 _atom_site_label
 _atom_site_symmetry_multiplicity
 _atom_site_fract_x
 _atom_site_fract_y
 _atom_site_fract_z
 _atom_site_occupancy
  Pr  Pr0  1  0.25000000  0.80728100  0.47406900  1
  Pr  Pr1  1  0.75000000  0.19271900  0.52593100  1
  Pr  Pr2  1  0.75000000  0.30728100  0.02593100  1
  Pr  Pr3  1  0.25000000  0.69271900  0.97406900  1
  Ni  Ni4  1  0.75000000  0.57818400  0.32039000  1
  Ni  Ni5  1  0.75000000  0.92181600  0.82039000  1
  Ni  Ni6  1  0.25000000  0.07818400  0.17961000  1
  Ni  Ni7  1  0.25000000  0.42181600  0.67961000  1
  Sn  Sn8  1  0.75000000  0.59628300  0.68319600  1
  Sn  Sn9  1  0.75000000  0.90371700  0.18319600  1
  Sn  Sn10  1  0.25000000  0.09628300  0.81680400  1
  Sn  Sn11  1  0.25000000  0.40371700  0.31680400  1
