# generated using pymatgen
data_NaTi2O4
_symmetry_space_group_name_H-M   'P 1'
_cell_length_a   2.96685700
_cell_length_b   9.34575600
_cell_length_c   10.85562200
_cell_angle_alpha   90.00000000
_cell_angle_beta   90.00000000
_cell_angle_gamma   90.00000000
_symmetry_Int_Tables_number   1
_chemical_formula_structural   NaTi2O4
_chemical_formula_sum   'Na4 Ti8 O16'
_cell_volume   300.99949358
_cell_formula_units_Z   4
loop_
 _symmetry_equiv_pos_site_id
 _symmetry_equiv_pos_as_xyz
  1  'x, y, z'
loop_
 _atom_site_type_symbol
 _atom_site_label
 _atom_site_symmetry_multiplicity
 _atom_site_fract_x
 _atom_site_fract_y
 _atom_site_fract_z
 _atom_site_occupancy
  Na  Na0  1  0.25000000  0.74283900  0.15357000  1
  Na  Na1  1  0.75000000  0.25716100  0.84643000  1
  Na  Na2  1  0.25000000  0.24283900  0.34643000  1
  Na  Na3  1  0.75000000  0.75716100  0.65357000  1
  Ti  Ti4  1  0.75000000  0.93616200  0.88927200  1
  Ti  Ti5  1  0.25000000  0.06383800  0.11072800  1
  Ti  Ti6  1  0.75000000  0.43616200  0.61072800  1
  Ti  Ti7  1  0.25000000  0.56383800  0.38927200  1
  Ti  Ti8  1  0.25000000  0.58154600  0.89690300  1
  Ti  Ti9  1  0.75000000  0.41845400  0.10309700  1
  Ti  Ti10  1  0.25000000  0.08154600  0.60309700  1
  Ti  Ti11  1  0.75000000  0.91845400  0.39690300  1
  O  O12  1  0.75000000  0.92091200  0.07089700  1
  O  O13  1  0.25000000  0.07908800  0.92910300  1
  O  O14  1  0.75000000  0.42091200  0.42910300  1
  O  O15  1  0.25000000  0.57908800  0.57089700  1
  O  O16  1  0.75000000  0.52058200  0.78181300  1
  O  O17  1  0.25000000  0.47941800  0.21818700  1
  O  O18  1  0.75000000  0.02058200  0.71818700  1
  O  O19  1  0.25000000  0.97941800  0.28181300  1
  O  O20  1  0.75000000  0.61304000  0.02142300  1
  O  O21  1  0.25000000  0.38696000  0.97857700  1
  O  O22  1  0.75000000  0.11304000  0.47857700  1
  O  O23  1  0.25000000  0.88696000  0.52142300  1
  O  O24  1  0.25000000  0.79144500  0.85096100  1
  O  O25  1  0.75000000  0.20855500  0.14903900  1
  O  O26  1  0.25000000  0.29144500  0.64903900  1
  O  O27  1  0.75000000  0.70855500  0.35096100  1
