# generated using pymatgen
data_Eu(BO2)3
_symmetry_space_group_name_H-M   'P 1'
_cell_length_a   6.43237864
_cell_length_b   6.43237864
_cell_length_c   6.45811829
_cell_angle_alpha   62.23768014
_cell_angle_beta   62.23768014
_cell_angle_gamma   79.19566590
_symmetry_Int_Tables_number   1
_chemical_formula_structural   Eu(BO2)3
_chemical_formula_sum   'Eu2 B6 O12'
_cell_volume   209.08193122
_cell_formula_units_Z   2
loop_
 _symmetry_equiv_pos_site_id
 _symmetry_equiv_pos_as_xyz
  1  'x, y, z'
loop_
 _atom_site_type_symbol
 _atom_site_label
 _atom_site_symmetry_multiplicity
 _atom_site_fract_x
 _atom_site_fract_y
 _atom_site_fract_z
 _atom_site_occupancy
  Eu  Eu0  1  0.79483800  0.20516200  0.75000000  1
  Eu  Eu1  1  0.20516200  0.79483800  0.25000000  1
  B  B2  1  0.77763400  0.22236600  0.25000000  1
  B  B3  1  0.22236600  0.77763400  0.75000000  1
  B  B4  1  0.34035100  0.20535400  0.58470500  1
  B  B5  1  0.79464600  0.65964900  0.91529500  1
  B  B6  1  0.65964900  0.79464600  0.41529500  1
  B  B7  1  0.20535400  0.34035100  0.08470500  1
  O  O8  1  0.78026800  0.00982100  0.21265800  1
  O  O9  1  0.20942000  0.38394100  0.50341200  1
  O  O10  1  0.61605900  0.79058000  0.99658800  1
  O  O11  1  0.79058000  0.61605900  0.49658800  1
  O  O12  1  0.21424500  0.58329000  0.99103500  1
  O  O13  1  0.41671000  0.78575500  0.50896500  1
  O  O14  1  0.78575500  0.41671000  0.00896500  1
  O  O15  1  0.58329000  0.21424500  0.49103500  1
  O  O16  1  0.21973200  0.99017900  0.78734200  1
  O  O17  1  0.00982100  0.78026800  0.71265800  1
  O  O18  1  0.38394100  0.20942000  0.00341200  1
  O  O19  1  0.99017900  0.21973200  0.28734200  1
