# generated using pymatgen
data_CoAs4F18
_symmetry_space_group_name_H-M   'P 1'
_cell_length_a   13.14097600
_cell_length_b   7.42350800
_cell_length_c   10.34578790
_cell_angle_alpha   45.99689085
_cell_angle_beta   90.00000000
_cell_angle_gamma   90.00000000
_symmetry_Int_Tables_number   1
_chemical_formula_structural   CoAs4F18
_chemical_formula_sum   'Co2 As8 F36'
_cell_volume   725.95834864
_cell_formula_units_Z   2
loop_
 _symmetry_equiv_pos_site_id
 _symmetry_equiv_pos_as_xyz
  1  'x, y, z'
loop_
 _atom_site_type_symbol
 _atom_site_label
 _atom_site_symmetry_multiplicity
 _atom_site_fract_x
 _atom_site_fract_y
 _atom_site_fract_z
 _atom_site_occupancy
  Co  Co0  1  0.50000000  0.00000000  0.50000000  1
  Co  Co1  1  0.00000000  0.00000000  0.00000000  1
  As  As2  1  0.50000000  0.50000000  0.00000000  1
  As  As3  1  0.21863700  0.92147100  0.56118600  1
  As  As4  1  0.71863700  0.07852900  0.93881400  1
  As  As5  1  0.00000000  0.50000000  0.00000000  1
  As  As6  1  0.00000000  0.50000000  0.50000000  1
  As  As7  1  0.78136300  0.07852900  0.43881400  1
  As  As8  1  0.28136300  0.92147100  0.06118600  1
  As  As9  1  0.50000000  0.50000000  0.50000000  1
  F  F10  1  0.03237100  0.31689600  0.94722100  1
  F  F11  1  0.34606600  0.98820600  0.45835500  1
  F  F12  1  0.75549800  0.98254300  0.83202400  1
  F  F13  1  0.96762900  0.68310400  0.05277900  1
  F  F14  1  0.47196600  0.78967400  0.76653500  1
  F  F15  1  0.25549800  0.01745700  0.66797600  1
  F  F16  1  0.05054700  0.76891600  0.79050200  1
  F  F17  1  0.38098400  0.43227700  0.59935000  1
  F  F18  1  0.54520000  0.67895000  0.04080400  1
  F  F19  1  0.95480000  0.67895000  0.54080400  1
  F  F20  1  0.62226200  0.48945700  0.93887900  1
  F  F21  1  0.44945300  0.76891600  0.29050200  1
  F  F22  1  0.87773800  0.48945700  0.43887900  1
  F  F23  1  0.11901600  0.43227700  0.09935000  1
  F  F24  1  0.84606600  0.01179400  0.04164500  1
  F  F25  1  0.74678800  0.39545600  0.75758500  1
  F  F26  1  0.12226200  0.51054300  0.56112100  1
  F  F27  1  0.46762900  0.31689600  0.44722100  1
  F  F28  1  0.97196600  0.21032600  0.73346500  1
  F  F29  1  0.65393400  0.01179400  0.54164500  1
  F  F30  1  0.45480000  0.32105000  0.95919600  1
  F  F31  1  0.94945300  0.23108400  0.20949800  1
  F  F32  1  0.53237100  0.68310400  0.55277900  1
  F  F33  1  0.04520000  0.32105000  0.45919600  1
  F  F34  1  0.75321200  0.39545600  0.25758500  1
  F  F35  1  0.74450200  0.98254300  0.33202400  1
  F  F36  1  0.37773800  0.51054300  0.06112100  1
  F  F37  1  0.24678800  0.60454400  0.74241500  1
  F  F38  1  0.15393400  0.98820600  0.95835500  1
  F  F39  1  0.55054700  0.23108400  0.70949800  1
  F  F40  1  0.02803400  0.78967400  0.26653500  1
  F  F41  1  0.52803400  0.21032600  0.23346500  1
  F  F42  1  0.25321200  0.60454400  0.24241500  1
  F  F43  1  0.61901600  0.56772300  0.40065000  1
  F  F44  1  0.88098400  0.56772300  0.90065000  1
  F  F45  1  0.24450200  0.01745700  0.16797600  1
