# generated using pymatgen
data_PuGa3
_symmetry_space_group_name_H-M   'P 1'
_cell_length_a   10.20544611
_cell_length_b   10.20544611
_cell_length_c   10.20544637
_cell_angle_alpha   35.09084460
_cell_angle_beta   35.09084460
_cell_angle_gamma   35.09084496
_symmetry_Int_Tables_number   1
_chemical_formula_structural   PuGa3
_chemical_formula_sum   'Pu4 Ga12'
_cell_volume   313.69169204
_cell_formula_units_Z   4
loop_
 _symmetry_equiv_pos_site_id
 _symmetry_equiv_pos_as_xyz
  1  'x, y, z'
loop_
 _atom_site_type_symbol
 _atom_site_label
 _atom_site_symmetry_multiplicity
 _atom_site_fract_x
 _atom_site_fract_y
 _atom_site_fract_z
 _atom_site_occupancy
  Pu  Pu0  1  0.71110400  0.71110400  0.71110400  1
  Pu  Pu1  1  0.28889600  0.28889600  0.28889600  1
  Pu  Pu2  1  0.87200500  0.87200500  0.87200500  1
  Pu  Pu3  1  0.12799500  0.12799500  0.12799500  1
  Ga  Ga4  1  0.20831200  0.20831200  0.70919200  1
  Ga  Ga5  1  0.70919200  0.20831200  0.20831200  1
  Ga  Ga6  1  0.20831200  0.70919200  0.20831200  1
  Ga  Ga7  1  0.79168800  0.29080800  0.79168800  1
  Ga  Ga8  1  0.15435200  0.61042100  0.61042100  1
  Ga  Ga9  1  0.61042100  0.61042100  0.15435200  1
  Ga  Ga10  1  0.61042100  0.15435200  0.61042100  1
  Ga  Ga11  1  0.38957900  0.84564800  0.38957900  1
  Ga  Ga12  1  0.84564800  0.38957900  0.38957900  1
  Ga  Ga13  1  0.38957900  0.38957900  0.84564800  1
  Ga  Ga14  1  0.29080800  0.79168800  0.79168800  1
  Ga  Ga15  1  0.79168800  0.79168800  0.29080800  1
