# generated using pymatgen
data_SrV2P2O9
_symmetry_space_group_name_H-M   'P 1'
_cell_length_a   6.64177000
_cell_length_b   7.67148900
_cell_length_c   14.42507000
_cell_angle_alpha   90.00000000
_cell_angle_beta   90.00000000
_cell_angle_gamma   90.00000000
_symmetry_Int_Tables_number   1
_chemical_formula_structural   SrV2P2O9
_chemical_formula_sum   'Sr4 V8 P8 O36'
_cell_volume   734.98999643
_cell_formula_units_Z   4
loop_
 _symmetry_equiv_pos_site_id
 _symmetry_equiv_pos_as_xyz
  1  'x, y, z'
loop_
 _atom_site_type_symbol
 _atom_site_label
 _atom_site_symmetry_multiplicity
 _atom_site_fract_x
 _atom_site_fract_y
 _atom_site_fract_z
 _atom_site_occupancy
  Sr  Sr0  1  0.25000000  0.87784100  0.72072000  1
  Sr  Sr1  1  0.75000000  0.12215900  0.27928000  1
  Sr  Sr2  1  0.75000000  0.37784100  0.77928000  1
  Sr  Sr3  1  0.25000000  0.62215900  0.22072000  1
  V  V4  1  0.00000000  0.00000000  0.50000000  1
  V  V5  1  0.50000000  0.00000000  0.50000000  1
  V  V6  1  0.75000000  0.65335900  0.38294900  1
  V  V7  1  0.50000000  0.50000000  0.00000000  1
  V  V8  1  0.75000000  0.84664100  0.88294900  1
  V  V9  1  0.25000000  0.15335900  0.11705100  1
  V  V10  1  0.25000000  0.34664100  0.61705100  1
  V  V11  1  0.00000000  0.50000000  0.00000000  1
  P  P12  1  0.25000000  0.85279400  0.93925000  1
  P  P13  1  0.75000000  0.14720600  0.06075000  1
  P  P14  1  0.75000000  0.35279400  0.56075000  1
  P  P15  1  0.25000000  0.64720600  0.43925000  1
  P  P16  1  0.75000000  0.89041200  0.69066400  1
  P  P17  1  0.25000000  0.10958800  0.30933600  1
  P  P18  1  0.25000000  0.39041200  0.80933600  1
  P  P19  1  0.75000000  0.60958800  0.19066400  1
  O  O20  1  0.06062700  0.10003000  0.37217700  1
  O  O21  1  0.56062700  0.89997000  0.62782300  1
  O  O22  1  0.93937300  0.60003000  0.12782300  1
  O  O23  1  0.43937300  0.39997000  0.87217700  1
  O  O24  1  0.93937300  0.89997000  0.62782300  1
  O  O25  1  0.43937300  0.10003000  0.37217700  1
  O  O26  1  0.06062700  0.39997000  0.87217700  1
  O  O27  1  0.56062700  0.60003000  0.12782300  1
  O  O28  1  0.25000000  0.82924400  0.48928100  1
  O  O29  1  0.75000000  0.17075600  0.51071900  1
  O  O30  1  0.75000000  0.32924400  0.01071900  1
  O  O31  1  0.25000000  0.67075600  0.98928100  1
  O  O32  1  0.75000000  0.62492300  0.94584700  1
  O  O33  1  0.25000000  0.37507700  0.05415300  1
  O  O34  1  0.25000000  0.12492300  0.55415300  1
  O  O35  1  0.75000000  0.87507700  0.44584700  1
  O  O36  1  0.75000000  0.72057000  0.74951100  1
  O  O37  1  0.25000000  0.27943000  0.25048900  1
  O  O38  1  0.25000000  0.22057000  0.75048900  1
  O  O39  1  0.75000000  0.77943000  0.24951100  1
  O  O40  1  0.43511500  0.63864600  0.37450200  1
  O  O41  1  0.93511500  0.36135400  0.62549800  1
  O  O42  1  0.56488500  0.13864600  0.12549800  1
  O  O43  1  0.06488500  0.86135400  0.87450200  1
  O  O44  1  0.56488500  0.36135400  0.62549800  1
  O  O45  1  0.06488500  0.63864600  0.37450200  1
  O  O46  1  0.43511500  0.86135400  0.87450200  1
  O  O47  1  0.93511500  0.13864600  0.12549800  1
  O  O48  1  0.75000000  0.00772300  0.98600500  1
  O  O49  1  0.25000000  0.53462500  0.73354200  1
  O  O50  1  0.25000000  0.96537500  0.23354200  1
  O  O51  1  0.75000000  0.03462500  0.76645800  1
  O  O52  1  0.75000000  0.49227700  0.48600500  1
  O  O53  1  0.25000000  0.50772300  0.51399500  1
  O  O54  1  0.25000000  0.99227700  0.01399500  1
  O  O55  1  0.75000000  0.46537500  0.26645800  1
