# generated using pymatgen
data_K2UBr5
_symmetry_space_group_name_H-M   'P 1'
_cell_length_a   8.59993400
_cell_length_b   9.25527700
_cell_length_c   13.73106400
_cell_angle_alpha   90.00000000
_cell_angle_beta   90.00000000
_cell_angle_gamma   90.00000000
_symmetry_Int_Tables_number   1
_chemical_formula_structural   K2UBr5
_chemical_formula_sum   'K8 U4 Br20'
_cell_volume   1092.92089950
_cell_formula_units_Z   4
loop_
 _symmetry_equiv_pos_site_id
 _symmetry_equiv_pos_as_xyz
  1  'x, y, z'
loop_
 _atom_site_type_symbol
 _atom_site_label
 _atom_site_symmetry_multiplicity
 _atom_site_fract_x
 _atom_site_fract_y
 _atom_site_fract_z
 _atom_site_occupancy
  K  K0  1  0.44712600  0.50487300  0.67279700  1
  K  K1  1  0.94712600  0.49512700  0.82720300  1
  K  K2  1  0.55287400  0.00487300  0.32720300  1
  K  K3  1  0.05287400  0.99512700  0.17279700  1
  K  K4  1  0.55287400  0.49512700  0.32720300  1
  K  K5  1  0.05287400  0.50487300  0.17279700  1
  K  K6  1  0.44712600  0.99512700  0.67279700  1
  K  K7  1  0.94712600  0.00487300  0.82720300  1
  U  U8  1  0.92508700  0.75000000  0.50349900  1
  U  U9  1  0.57491300  0.75000000  0.00349900  1
  U  U10  1  0.07491300  0.25000000  0.49650100  1
  U  U11  1  0.42508700  0.25000000  0.99650100  1
  Br  Br12  1  0.57525000  0.75000000  0.50714600  1
  Br  Br13  1  0.33597000  0.95572000  0.92197600  1
  Br  Br14  1  0.83597000  0.04428000  0.57802400  1
  Br  Br15  1  0.66403000  0.45572000  0.07802400  1
  Br  Br16  1  0.07525000  0.25000000  0.99285400  1
  Br  Br17  1  0.66471200  0.75000000  0.79540700  1
  Br  Br18  1  0.92475000  0.75000000  0.00714600  1
  Br  Br19  1  0.42475000  0.25000000  0.49285400  1
  Br  Br20  1  0.12413700  0.75000000  0.68001500  1
  Br  Br21  1  0.16471200  0.25000000  0.70459300  1
  Br  Br22  1  0.33528800  0.25000000  0.20459300  1
  Br  Br23  1  0.83528800  0.75000000  0.29540700  1
  Br  Br24  1  0.66403000  0.04428000  0.07802400  1
  Br  Br25  1  0.62413700  0.25000000  0.81998500  1
  Br  Br26  1  0.87586300  0.25000000  0.31998500  1
  Br  Br27  1  0.37586300  0.75000000  0.18001500  1
  Br  Br28  1  0.83597000  0.45572000  0.57802400  1
  Br  Br29  1  0.33597000  0.54428000  0.92197600  1
  Br  Br30  1  0.16403000  0.95572000  0.42197600  1
  Br  Br31  1  0.16403000  0.54428000  0.42197600  1
