# generated using pymatgen
data_Pr2Te4O11
_symmetry_space_group_name_H-M   'P 1'
_cell_length_a   6.94980869
_cell_length_b   6.94980869
_cell_length_c   16.72380511
_cell_angle_alpha   76.60918967
_cell_angle_beta   76.60918967
_cell_angle_gamma   45.10441298
_symmetry_Int_Tables_number   1
_chemical_formula_structural   Pr2Te4O11
_chemical_formula_sum   'Pr4 Te8 O22'
_cell_volume   553.92674797
_cell_formula_units_Z   2
loop_
 _symmetry_equiv_pos_site_id
 _symmetry_equiv_pos_as_xyz
  1  'x, y, z'
loop_
 _atom_site_type_symbol
 _atom_site_label
 _atom_site_symmetry_multiplicity
 _atom_site_fract_x
 _atom_site_fract_y
 _atom_site_fract_z
 _atom_site_occupancy
  Pr  Pr0  1  0.13389600  0.63031000  0.53803100  1
  Pr  Pr1  1  0.36969000  0.86610400  0.96196900  1
  Pr  Pr2  1  0.86610400  0.36969000  0.46196900  1
  Pr  Pr3  1  0.63031000  0.13389600  0.03803100  1
  Te  Te4  1  0.60516100  0.15939100  0.69920100  1
  Te  Te5  1  0.84060900  0.39483900  0.80079900  1
  Te  Te6  1  0.39483900  0.84060900  0.30079900  1
  Te  Te7  1  0.15939100  0.60516100  0.19920100  1
  Te  Te8  1  0.14754400  0.58520100  0.87459500  1
  Te  Te9  1  0.41479900  0.85245600  0.62540500  1
  Te  Te10  1  0.85245600  0.41479900  0.12540500  1
  Te  Te11  1  0.58520100  0.14754400  0.37459500  1
  O  O12  1  0.84987400  0.15012600  0.75000000  1
  O  O13  1  0.15012600  0.84987400  0.25000000  1
  O  O14  1  0.19464400  0.09900500  0.82994100  1
  O  O15  1  0.90099500  0.80535600  0.67005900  1
  O  O16  1  0.80535600  0.90099500  0.17005900  1
  O  O17  1  0.09900500  0.19464400  0.32994100  1
  O  O18  1  0.61263300  0.43586900  0.89951300  1
  O  O19  1  0.56413100  0.38736700  0.60048700  1
  O  O20  1  0.38736700  0.56413100  0.10048700  1
  O  O21  1  0.43586900  0.61263300  0.39951300  1
  O  O22  1  0.04623100  0.80907000  0.95303600  1
  O  O23  1  0.19093000  0.95376900  0.54696400  1
  O  O24  1  0.67902400  0.81420500  0.37314500  1
  O  O25  1  0.18579500  0.32097600  0.12685500  1
  O  O26  1  0.32097600  0.18579500  0.62685500  1
  O  O27  1  0.81420500  0.67902400  0.87314500  1
  O  O28  1  0.25324100  0.33039100  0.44489500  1
  O  O29  1  0.66960900  0.74675900  0.05510500  1
  O  O30  1  0.74675900  0.66960900  0.55510500  1
  O  O31  1  0.33039100  0.25324100  0.94489500  1
  O  O32  1  0.80907000  0.04623100  0.45303600  1
  O  O33  1  0.95376900  0.19093000  0.04696400  1
