# generated using pymatgen
data_HoSiRh
_symmetry_space_group_name_H-M   'P 1'
_cell_length_a   4.24095600
_cell_length_b   6.88396700
_cell_length_c   7.40043800
_cell_angle_alpha   90.00000000
_cell_angle_beta   90.00000000
_cell_angle_gamma   90.00000000
_symmetry_Int_Tables_number   1
_chemical_formula_structural   HoSiRh
_chemical_formula_sum   'Ho4 Si4 Rh4'
_cell_volume   216.05283576
_cell_formula_units_Z   4
loop_
 _symmetry_equiv_pos_site_id
 _symmetry_equiv_pos_as_xyz
  1  'x, y, z'
loop_
 _atom_site_type_symbol
 _atom_site_label
 _atom_site_symmetry_multiplicity
 _atom_site_fract_x
 _atom_site_fract_y
 _atom_site_fract_z
 _atom_site_occupancy
  Ho  Ho0  1  0.25000000  0.49959100  0.68985400  1
  Ho  Ho1  1  0.75000000  0.50040900  0.31014600  1
  Ho  Ho2  1  0.25000000  0.99959100  0.81014600  1
  Ho  Ho3  1  0.75000000  0.00040900  0.18985400  1
  Si  Si4  1  0.25000000  0.29530800  0.10434700  1
  Si  Si5  1  0.75000000  0.70469200  0.89565300  1
  Si  Si6  1  0.25000000  0.79530800  0.39565300  1
  Si  Si7  1  0.75000000  0.20469200  0.60434700  1
  Rh  Rh8  1  0.75000000  0.84577300  0.56979300  1
  Rh  Rh9  1  0.25000000  0.15422700  0.43020700  1
  Rh  Rh10  1  0.75000000  0.34577300  0.93020700  1
  Rh  Rh11  1  0.25000000  0.65422700  0.06979300  1
