# generated using pymatgen
data_DyCoSn
_symmetry_space_group_name_H-M   'P 1'
_cell_length_a   4.58150900
_cell_length_b   7.23464500
_cell_length_c   7.35652800
_cell_angle_alpha   90.00000000
_cell_angle_beta   90.00000000
_cell_angle_gamma   90.00000000
_symmetry_Int_Tables_number   1
_chemical_formula_structural   DyCoSn
_chemical_formula_sum   'Dy4 Co4 Sn4'
_cell_volume   243.83646959
_cell_formula_units_Z   4
loop_
 _symmetry_equiv_pos_site_id
 _symmetry_equiv_pos_as_xyz
  1  'x, y, z'
loop_
 _atom_site_type_symbol
 _atom_site_label
 _atom_site_symmetry_multiplicity
 _atom_site_fract_x
 _atom_site_fract_y
 _atom_site_fract_z
 _atom_site_occupancy
  Dy  Dy0  1  0.75000000  0.69854700  0.52551400  1
  Dy  Dy1  1  0.25000000  0.30145300  0.47448600  1
  Dy  Dy2  1  0.75000000  0.80145300  0.02551400  1
  Dy  Dy3  1  0.25000000  0.19854700  0.97448600  1
  Co  Co4  1  0.25000000  0.94233200  0.64811600  1
  Co  Co5  1  0.75000000  0.44233200  0.85188400  1
  Co  Co6  1  0.25000000  0.55766800  0.14811600  1
  Co  Co7  1  0.75000000  0.05766800  0.35188400  1
  Sn  Sn8  1  0.75000000  0.38916100  0.20286700  1
  Sn  Sn9  1  0.25000000  0.88916100  0.29713300  1
  Sn  Sn10  1  0.75000000  0.11083900  0.70286700  1
  Sn  Sn11  1  0.25000000  0.61083900  0.79713300  1
