# generated using pymatgen
data_Na2Pd3O4
_symmetry_space_group_name_H-M   'P 1'
_cell_length_a   7.41745767
_cell_length_b   7.41745767
_cell_length_c   7.41745767
_cell_angle_alpha   155.84777395
_cell_angle_beta   136.18658090
_cell_angle_gamma   50.64972089
_symmetry_Int_Tables_number   1
_chemical_formula_structural   Na2Pd3O4
_chemical_formula_sum   'Na2 Pd3 O4'
_cell_volume   115.17271097
_cell_formula_units_Z   1
loop_
 _symmetry_equiv_pos_site_id
 _symmetry_equiv_pos_as_xyz
  1  'x, y, z'
loop_
 _atom_site_type_symbol
 _atom_site_label
 _atom_site_symmetry_multiplicity
 _atom_site_fract_x
 _atom_site_fract_y
 _atom_site_fract_z
 _atom_site_occupancy
  Na  Na0  1  0.29811000  0.79811000  0.50000000  1
  Na  Na1  1  0.70189000  0.20189000  0.50000000  1
  Pd  Pd2  1  0.10584200  0.10584200  0.00000000  1
  Pd  Pd3  1  0.89415800  0.89415800  0.00000000  1
  Pd  Pd4  1  0.50000000  0.50000000  0.00000000  1
  O  O5  1  0.86919300  0.61542800  0.25376500  1
  O  O6  1  0.13080700  0.38457200  0.74623500  1
  O  O7  1  0.63833800  0.38457200  0.25376500  1
  O  O8  1  0.36166200  0.61542800  0.74623500  1
