# generated using pymatgen
data_GaTeI7
_symmetry_space_group_name_H-M   'P 1'
_cell_length_a   7.43582200
_cell_length_b   7.70189500
_cell_length_c   16.97928699
_cell_angle_alpha   75.21532106
_cell_angle_beta   90.00000000
_cell_angle_gamma   90.00000000
_symmetry_Int_Tables_number   1
_chemical_formula_structural   GaTeI7
_chemical_formula_sum   'Ga2 Te2 I14'
_cell_volume   940.20778364
_cell_formula_units_Z   2
loop_
 _symmetry_equiv_pos_site_id
 _symmetry_equiv_pos_as_xyz
  1  'x, y, z'
loop_
 _atom_site_type_symbol
 _atom_site_label
 _atom_site_symmetry_multiplicity
 _atom_site_fract_x
 _atom_site_fract_y
 _atom_site_fract_z
 _atom_site_occupancy
  Ga  Ga0  1  0.49601700  0.71255100  0.80722800  1
  Ga  Ga1  1  0.50398300  0.71255100  0.30722800  1
  Te  Te2  1  0.09775500  0.99683600  0.65448700  1
  Te  Te3  1  0.90224500  0.99683600  0.15448700  1
  I  I4  1  0.84045600  0.68752300  0.81542500  1
  I  I5  1  0.15954400  0.68752300  0.31542500  1
  I  I6  1  0.35295100  0.48656300  0.93165000  1
  I  I7  1  0.64704900  0.48656300  0.43165000  1
  I  I8  1  0.37399100  0.64458900  0.67383200  1
  I  I9  1  0.62600900  0.64458900  0.17383200  1
  I  I10  1  0.37480300  0.03073200  0.80710300  1
  I  I11  1  0.62519700  0.03073200  0.30710300  1
  I  I12  1  0.33371700  0.21593300  0.54396900  1
  I  I13  1  0.66628300  0.21593300  0.04396900  1
  I  I14  1  0.88626800  0.27298900  0.68100500  1
  I  I15  1  0.11373200  0.27298900  0.18100500  1
  I  I16  1  0.88904500  0.88598300  0.54125100  1
  I  I17  1  0.11095500  0.88598300  0.04125100  1
