# generated using pymatgen
data_Pr3RuI3
_symmetry_space_group_name_H-M   'P 1'
_cell_length_a   4.34670000
_cell_length_b   9.43825600
_cell_length_c   12.69798834
_cell_angle_alpha   86.89424816
_cell_angle_beta   90.00000000
_cell_angle_gamma   90.00000000
_symmetry_Int_Tables_number   1
_chemical_formula_structural   Pr3RuI3
_chemical_formula_sum   'Pr6 Ru2 I6'
_cell_volume   520.17323134
_cell_formula_units_Z   2
loop_
 _symmetry_equiv_pos_site_id
 _symmetry_equiv_pos_as_xyz
  1  'x, y, z'
loop_
 _atom_site_type_symbol
 _atom_site_label
 _atom_site_symmetry_multiplicity
 _atom_site_fract_x
 _atom_site_fract_y
 _atom_site_fract_z
 _atom_site_occupancy
  Pr  Pr0  1  0.75000000  0.69099400  0.11796800  1
  Pr  Pr1  1  0.25000000  0.30900600  0.88203200  1
  Pr  Pr2  1  0.25000000  0.88458200  0.33027400  1
  Pr  Pr3  1  0.75000000  0.11541800  0.66972600  1
  Pr  Pr4  1  0.25000000  0.90381000  0.89174700  1
  Pr  Pr5  1  0.75000000  0.09619000  0.10825300  1
  Ru  Ru6  1  0.25000000  0.89024500  0.12011900  1
  Ru  Ru7  1  0.75000000  0.10975500  0.87988100  1
  I  I8  1  0.25000000  0.86828200  0.61813100  1
  I  I9  1  0.75000000  0.13171800  0.38186900  1
  I  I10  1  0.75000000  0.63471100  0.37595500  1
  I  I11  1  0.25000000  0.36528900  0.62404500  1
  I  I12  1  0.25000000  0.39495900  0.13322500  1
  I  I13  1  0.75000000  0.60504100  0.86677500  1
