# generated using pymatgen
data_Ba5(TiN3)2
_symmetry_space_group_name_H-M   'P 1'
_cell_length_a   6.62905500
_cell_length_b   9.53783480
_cell_length_c   9.95295118
_cell_angle_alpha   106.19705179
_cell_angle_beta   101.84976188
_cell_angle_gamma   108.84005945
_symmetry_Int_Tables_number   1
_chemical_formula_structural   Ba5(TiN3)2
_chemical_formula_sum   'Ba10 Ti4 N12'
_cell_volume   540.88066734
_cell_formula_units_Z   2
loop_
 _symmetry_equiv_pos_site_id
 _symmetry_equiv_pos_as_xyz
  1  'x, y, z'
loop_
 _atom_site_type_symbol
 _atom_site_label
 _atom_site_symmetry_multiplicity
 _atom_site_fract_x
 _atom_site_fract_y
 _atom_site_fract_z
 _atom_site_occupancy
  Ba  Ba0  1  0.57456500  0.41109400  0.12712500  1
  Ba  Ba1  1  0.42543500  0.58890600  0.87287500  1
  Ba  Ba2  1  0.16569000  0.86685000  0.44681600  1
  Ba  Ba3  1  0.83431000  0.13315000  0.55318400  1
  Ba  Ba4  1  0.20633000  0.44720300  0.39590900  1
  Ba  Ba5  1  0.79367000  0.55279700  0.60409100  1
  Ba  Ba6  1  0.03640000  0.72286900  0.04827400  1
  Ba  Ba7  1  0.96360000  0.27713100  0.95172600  1
  Ba  Ba8  1  0.80280300  0.01423000  0.13830800  1
  Ba  Ba9  1  0.19719700  0.98577000  0.86169200  1
  Ti  Ti10  1  0.47040700  0.24259100  0.70939600  1
  Ti  Ti11  1  0.52959300  0.75740900  0.29060400  1
  Ti  Ti12  1  0.44642200  0.15335800  0.30798500  1
  Ti  Ti13  1  0.55357800  0.84664200  0.69201500  1
  N  N14  1  0.25491400  0.70071600  0.66840500  1
  N  N15  1  0.74508600  0.29928400  0.33159500  1
  N  N16  1  0.75895900  0.83429400  0.84675800  1
  N  N17  1  0.24104100  0.16570600  0.15324200  1
  N  N18  1  0.26498900  0.56642400  0.17514200  1
  N  N19  1  0.73501100  0.43357600  0.82485800  1
  N  N20  1  0.76795900  0.75550200  0.20714500  1
  N  N21  1  0.23204100  0.24449800  0.79285500  1
  N  N22  1  0.45474800  0.93654700  0.27125900  1
  N  N23  1  0.54525200  0.06345300  0.72874100  1
  N  N24  1  0.38769700  0.21841700  0.49892100  1
  N  N25  1  0.61230300  0.78158300  0.50107900  1
