# generated using pymatgen
data_Na4Cu2S3
_symmetry_space_group_name_H-M   'P 1'
_cell_length_a   19.47401488
_cell_length_b   19.47401488
_cell_length_c   19.47401488
_cell_angle_alpha   151.70020534
_cell_angle_beta   151.70020534
_cell_angle_gamma   40.45126473
_symmetry_Int_Tables_number   1
_chemical_formula_structural   Na4Cu2S3
_chemical_formula_sum   'Na32 Cu16 S24'
_cell_volume   1656.53276216
_cell_formula_units_Z   8
loop_
 _symmetry_equiv_pos_site_id
 _symmetry_equiv_pos_as_xyz
  1  'x, y, z'
loop_
 _atom_site_type_symbol
 _atom_site_label
 _atom_site_symmetry_multiplicity
 _atom_site_fract_x
 _atom_site_fract_y
 _atom_site_fract_z
 _atom_site_occupancy
  Na  Na0  1  0.00000000  0.00000000  0.00000000  1
  Na  Na1  1  0.75000000  0.25000000  0.50000000  1
  Na  Na2  1  0.50000000  0.50000000  0.00000000  1
  Na  Na3  1  0.25000000  0.75000000  0.50000000  1
  Na  Na4  1  0.09192500  0.09192500  0.00000000  1
  Na  Na5  1  0.84192500  0.34192500  0.50000000  1
  Na  Na6  1  0.65807500  0.15807500  0.50000000  1
  Na  Na7  1  0.90807500  0.90807500  0.00000000  1
  Na  Na8  1  0.50810600  0.00810600  0.50000000  1
  Na  Na9  1  0.75810600  0.75810600  0.00000000  1
  Na  Na10  1  0.24189400  0.24189400  0.00000000  1
  Na  Na11  1  0.99189400  0.49189400  0.50000000  1
  Na  Na12  1  0.08687100  0.58687100  0.50000000  1
  Na  Na13  1  0.33687100  0.33687100  0.00000000  1
  Na  Na14  1  0.66312900  0.66312900  0.00000000  1
  Na  Na15  1  0.41312900  0.91312900  0.50000000  1
  Na  Na16  1  0.79097200  0.83235600  0.45162400  1
  Na  Na17  1  0.08934900  0.04097200  0.45861700  1
  Na  Na18  1  0.58235600  0.63073200  0.54138300  1
  Na  Na19  1  0.38073200  0.33934900  0.54837600  1
  Na  Na20  1  0.95902800  0.41764400  0.04837600  1
  Na  Na21  1  0.66065100  0.20902800  0.04138300  1
  Na  Na22  1  0.16764400  0.61926800  0.95861700  1
  Na  Na23  1  0.36926800  0.91065100  0.95162400  1
  Na  Na24  1  0.25102400  0.75583300  0.99326400  1
  Na  Na25  1  0.00775900  0.50102400  0.99519000  1
  Na  Na26  1  0.50583300  0.01256900  0.00481000  1
  Na  Na27  1  0.76256900  0.25775900  0.00673600  1
  Na  Na28  1  0.49897600  0.49416700  0.50673600  1
  Na  Na29  1  0.74224100  0.74897600  0.50481000  1
  Na  Na30  1  0.24416700  0.23743100  0.49519000  1
  Na  Na31  1  0.98743100  0.99224100  0.49326400  1
  Cu  Cu32  1  0.42774100  0.68550400  0.95513600  1
  Cu  Cu33  1  0.22260400  0.67774100  0.24223700  1
  Cu  Cu34  1  0.43550400  0.98036700  0.75776300  1
  Cu  Cu35  1  0.73036700  0.47260400  0.04486400  1
  Cu  Cu36  1  0.32225900  0.56449600  0.54486400  1
  Cu  Cu37  1  0.52739600  0.57225900  0.25776300  1
  Cu  Cu38  1  0.31449600  0.26963300  0.74223700  1
  Cu  Cu39  1  0.01963300  0.77739600  0.45513600  1
  Cu  Cu40  1  0.42451900  0.96325400  0.22538100  1
  Cu  Cu41  1  0.94913700  0.67451900  0.96126500  1
  Cu  Cu42  1  0.71325400  0.98787200  0.03873500  1
  Cu  Cu43  1  0.73787200  0.19913700  0.77461900  1
  Cu  Cu44  1  0.32548100  0.28674600  0.27461900  1
  Cu  Cu45  1  0.80086300  0.57548100  0.53873500  1
  Cu  Cu46  1  0.03674600  0.26212800  0.46126500  1
  Cu  Cu47  1  0.01212800  0.05086300  0.72538100  1
  S  S48  1  0.56522000  0.86217400  0.18830400  1
  S  S49  1  0.12691600  0.81522000  0.20304600  1
  S  S50  1  0.61217400  0.92387000  0.79695400  1
  S  S51  1  0.67387000  0.37691600  0.81169600  1
  S  S52  1  0.18478000  0.38782600  0.31169600  1
  S  S53  1  0.62308400  0.43478000  0.29695400  1
  S  S54  1  0.13782600  0.32613000  0.70304600  1
  S  S55  1  0.07613000  0.87308400  0.68830400  1
  S  S56  1  0.27882800  0.05568200  0.24976200  1
  S  S57  1  0.77906600  0.52882800  0.72314600  1
  S  S58  1  0.80568200  0.05592000  0.27685400  1
  S  S59  1  0.80592000  0.02906600  0.75023800  1
  S  S60  1  0.47117200  0.19431800  0.25023800  1
  S  S61  1  0.97093400  0.72117200  0.77685400  1
  S  S62  1  0.94431800  0.19408000  0.22314600  1
  S  S63  1  0.94408000  0.22093400  0.74976200  1
  S  S64  1  0.80111100  0.55572000  0.27901000  1
  S  S65  1  0.27210000  0.05111100  0.74539100  1
  S  S66  1  0.30572000  0.52671000  0.25460900  1
  S  S67  1  0.27671000  0.52210000  0.72099000  1
  S  S68  1  0.94888900  0.69428000  0.22099000  1
  S  S69  1  0.47790000  0.19888900  0.75460900  1
  S  S70  1  0.44428000  0.72329000  0.24539100  1
  S  S71  1  0.47329000  0.72790000  0.77901000  1
