# generated using pymatgen
data_Sc3C4
_symmetry_space_group_name_H-M   'P 1'
_cell_length_a   7.51921000
_cell_length_b   7.51921000
_cell_length_c   15.08178500
_cell_angle_alpha   90.00000000
_cell_angle_beta   90.00000000
_cell_angle_gamma   90.00000000
_symmetry_Int_Tables_number   1
_chemical_formula_structural   Sc3C4
_chemical_formula_sum   'Sc30 C40'
_cell_volume   852.70178814
_cell_formula_units_Z   10
loop_
 _symmetry_equiv_pos_site_id
 _symmetry_equiv_pos_as_xyz
  1  'x, y, z'
loop_
 _atom_site_type_symbol
 _atom_site_label
 _atom_site_symmetry_multiplicity
 _atom_site_fract_x
 _atom_site_fract_y
 _atom_site_fract_z
 _atom_site_occupancy
  Sc  Sc0  1  0.78741000  0.60044000  0.64341400  1
  Sc  Sc1  1  0.21259000  0.39956000  0.64341400  1
  Sc  Sc2  1  0.10044000  0.28741000  0.85658600  1
  Sc  Sc3  1  0.60044000  0.21259000  0.64341400  1
  Sc  Sc4  1  0.39956000  0.78741000  0.64341400  1
  Sc  Sc5  1  0.71259000  0.10044000  0.85658600  1
  Sc  Sc6  1  0.28741000  0.89956000  0.85658600  1
  Sc  Sc7  1  0.89956000  0.71259000  0.85658600  1
  Sc  Sc8  1  0.21259000  0.39956000  0.35658600  1
  Sc  Sc9  1  0.78741000  0.60044000  0.35658600  1
  Sc  Sc10  1  0.89956000  0.71259000  0.14341400  1
  Sc  Sc11  1  0.39956000  0.78741000  0.35658600  1
  Sc  Sc12  1  0.60044000  0.21259000  0.35658600  1
  Sc  Sc13  1  0.28741000  0.89956000  0.14341400  1
  Sc  Sc14  1  0.71259000  0.10044000  0.14341400  1
  Sc  Sc15  1  0.10044000  0.28741000  0.14341400  1
  Sc  Sc16  1  0.30137700  0.09680800  0.50000000  1
  Sc  Sc17  1  0.69862300  0.90319200  0.50000000  1
  Sc  Sc18  1  0.59680800  0.80137700  0.00000000  1
  Sc  Sc19  1  0.09680800  0.69862300  0.50000000  1
  Sc  Sc20  1  0.90319200  0.30137700  0.50000000  1
  Sc  Sc21  1  0.19862300  0.59680800  0.00000000  1
  Sc  Sc22  1  0.80137700  0.40319200  0.00000000  1
  Sc  Sc23  1  0.40319200  0.19862300  0.00000000  1
  Sc  Sc24  1  0.50000000  0.50000000  0.81232100  1
  Sc  Sc25  1  0.00000000  0.00000000  0.68767900  1
  Sc  Sc26  1  0.50000000  0.50000000  0.18767900  1
  Sc  Sc27  1  0.00000000  0.00000000  0.31232100  1
  Sc  Sc28  1  0.50000000  0.50000000  0.50000000  1
  Sc  Sc29  1  0.00000000  0.00000000  0.00000000  1
  C  C30  1  0.35002000  0.14998000  0.75000000  1
  C  C31  1  0.85002000  0.35002000  0.75000000  1
  C  C32  1  0.14998000  0.64998000  0.75000000  1
  C  C33  1  0.64998000  0.85002000  0.75000000  1
  C  C34  1  0.64998000  0.85002000  0.25000000  1
  C  C35  1  0.14998000  0.64998000  0.25000000  1
  C  C36  1  0.85002000  0.35002000  0.25000000  1
  C  C37  1  0.35002000  0.14998000  0.25000000  1
  C  C38  1  0.69262500  0.90262300  0.66745600  1
  C  C39  1  0.30737500  0.09737700  0.66745600  1
  C  C40  1  0.40262300  0.19262500  0.83254400  1
  C  C41  1  0.90262300  0.30737500  0.66745600  1
  C  C42  1  0.09737700  0.69262500  0.66745600  1
  C  C43  1  0.80737500  0.40262300  0.83254400  1
  C  C44  1  0.19262500  0.59737700  0.83254400  1
  C  C45  1  0.59737700  0.80737500  0.83254400  1
  C  C46  1  0.30737500  0.09737700  0.33254400  1
  C  C47  1  0.69262500  0.90262300  0.33254400  1
  C  C48  1  0.59737700  0.80737500  0.16745600  1
  C  C49  1  0.09737700  0.69262500  0.33254400  1
  C  C50  1  0.90262300  0.30737500  0.33254400  1
  C  C51  1  0.19262500  0.59737700  0.16745600  1
  C  C52  1  0.80737500  0.40262300  0.16745600  1
  C  C53  1  0.40262300  0.19262500  0.16745600  1
  C  C54  1  0.39327400  0.80331300  0.50000000  1
  C  C55  1  0.60672600  0.19668700  0.50000000  1
  C  C56  1  0.30331300  0.89327400  0.00000000  1
  C  C57  1  0.80331300  0.60672600  0.50000000  1
  C  C58  1  0.19668700  0.39327400  0.50000000  1
  C  C59  1  0.10672600  0.30331300  0.00000000  1
  C  C60  1  0.00000000  0.00000000  0.54283500  1
  C  C61  1  0.50000000  0.50000000  0.95716500  1
  C  C62  1  0.00000000  0.00000000  0.45716500  1
  C  C63  1  0.50000000  0.50000000  0.04283500  1
  C  C64  1  0.00000000  0.00000000  0.15669400  1
  C  C65  1  0.50000000  0.50000000  0.34330600  1
  C  C66  1  0.00000000  0.00000000  0.84330600  1
  C  C67  1  0.50000000  0.50000000  0.65669400  1
  C  C68  1  0.69668700  0.10672600  0.00000000  1
  C  C69  1  0.89327400  0.69668700  0.00000000  1
