# generated using pymatgen
data_Li9Mn3P8O29
_symmetry_space_group_name_H-M   'P 1'
_cell_length_a   9.93520853
_cell_length_b   9.93520853
_cell_length_c   13.80554234
_cell_angle_alpha   88.35143534
_cell_angle_beta   88.35143534
_cell_angle_gamma   58.70947738
_symmetry_Int_Tables_number   1
_chemical_formula_structural   Li9Mn3P8O29
_chemical_formula_sum   'Li18 Mn6 P16 O58'
_cell_volume   1163.87289978
_cell_formula_units_Z   2
loop_
 _symmetry_equiv_pos_site_id
 _symmetry_equiv_pos_as_xyz
  1  'x, y, z'
loop_
 _atom_site_type_symbol
 _atom_site_label
 _atom_site_symmetry_multiplicity
 _atom_site_fract_x
 _atom_site_fract_y
 _atom_site_fract_z
 _atom_site_occupancy
  Li  Li0  1  0.34023900  0.89626000  0.93669100  1
  Li  Li1  1  0.33120400  0.76549400  0.43569700  1
  Li  Li2  1  0.76674500  0.90089600  0.43805300  1
  Li  Li3  1  0.67141600  0.66630100  0.11987900  1
  Li  Li4  1  0.66630100  0.67141600  0.61987900  1
  Li  Li5  1  0.90089600  0.76674500  0.93805300  1
  Li  Li6  1  0.76549400  0.33120400  0.93569700  1
  Li  Li7  1  0.10374000  0.65976100  0.56330900  1
  Li  Li8  1  0.89626000  0.34023900  0.43669100  1
  Li  Li9  1  0.23450600  0.66879600  0.06430300  1
  Li  Li10  1  0.09910400  0.23325500  0.06194700  1
  Li  Li11  1  0.33369900  0.32858400  0.38012100  1
  Li  Li12  1  0.00000000  0.00000000  0.00000000  1
  Li  Li13  1  0.32858400  0.33369900  0.88012100  1
  Li  Li14  1  0.23325500  0.09910400  0.56194700  1
  Li  Li15  1  0.66879600  0.23450600  0.56430300  1
  Li  Li16  1  0.65976100  0.10374000  0.06330900  1
  Li  Li17  1  0.00000000  0.00000000  0.50000000  1
  Mn  Mn18  1  0.43648300  0.99842800  0.74979900  1
  Mn  Mn19  1  0.00157200  0.56351700  0.75020100  1
  Mn  Mn20  1  0.99842800  0.43648300  0.24979900  1
  Mn  Mn21  1  0.43213400  0.56786600  0.25000000  1
  Mn  Mn22  1  0.56786600  0.43213400  0.75000000  1
  Mn  Mn23  1  0.56351700  0.00157200  0.25020100  1
  P  P24  1  0.68075500  0.09449700  0.84499000  1
  P  P25  1  0.68262100  0.23099800  0.34639500  1
  P  P26  1  0.22302500  0.08810700  0.34185700  1
  P  P27  1  0.33234300  0.32493300  0.62320200  1
  P  P28  1  0.32493300  0.33234300  0.12320200  1
  P  P29  1  0.08810700  0.22302500  0.84185700  1
  P  P30  1  0.31924500  0.90550300  0.15501000  1
  P  P31  1  0.31737900  0.76900200  0.65360500  1
  P  P32  1  0.77697500  0.91189300  0.65814300  1
  P  P33  1  0.66765700  0.67506700  0.37679800  1
  P  P34  1  0.67506700  0.66765700  0.87679800  1
  P  P35  1  0.90550300  0.31924500  0.65501000  1
  P  P36  1  0.09449700  0.68075500  0.34499000  1
  P  P37  1  0.76900200  0.31737900  0.15360500  1
  P  P38  1  0.23099800  0.68262100  0.84639500  1
  P  P39  1  0.91189300  0.77697500  0.15814300  1
  O  O40  1  0.91233300  0.33441800  0.14699500  1
  O  O41  1  0.66558200  0.08766700  0.35300500  1
  O  O42  1  0.78618200  0.21381800  0.25000000  1
  O  O43  1  0.76078100  0.22988400  0.06742800  1
  O  O44  1  0.67466100  0.25350300  0.84146400  1
  O  O45  1  0.51679700  0.11963600  0.83675000  1
  O  O46  1  0.21879100  0.99811700  0.43188800  1
  O  O47  1  0.33441800  0.91233300  0.64699500  1
  O  O48  1  0.21381800  0.78618200  0.75000000  1
  O  O49  1  0.23921900  0.77011600  0.93257200  1
  O  O50  1  0.32533900  0.74649700  0.15853600  1
  O  O51  1  0.48320300  0.88036400  0.16325000  1
  O  O52  1  0.51867000  0.81197100  0.83414300  1
  O  O53  1  0.63086200  0.89694400  0.66611300  1
  O  O54  1  0.77328100  0.00206700  0.93401000  1
  O  O55  1  0.78647000  0.99955100  0.75151900  1
  O  O56  1  0.74714500  0.92701300  0.15845500  1
  O  O57  1  0.51450600  0.68647200  0.34558800  1
  O  O58  1  0.48386400  0.62061300  0.66685700  1
  O  O59  1  0.67933900  0.81841800  0.33485700  1
  O  O60  1  0.67030100  0.68338300  0.98559900  1
  O  O61  1  0.68338300  0.67030100  0.48559900  1
  O  O62  1  0.81841800  0.67933900  0.83485700  1
  O  O63  1  0.62061300  0.48386400  0.16685700  1
  O  O64  1  0.68647200  0.51450600  0.84558800  1
  O  O65  1  0.92701300  0.74714500  0.65845500  1
  O  O66  1  0.99955100  0.78647000  0.25151900  1
  O  O67  1  0.00206700  0.77328100  0.43401000  1
  O  O68  1  0.00188300  0.78120900  0.06811200  1
  O  O69  1  0.89694400  0.63086200  0.16611300  1
  O  O70  1  0.81197100  0.51867000  0.33414300  1
  O  O71  1  0.88036400  0.48320300  0.66325000  1
  O  O72  1  0.08766700  0.66558200  0.85300500  1
  O  O73  1  0.74649700  0.32533900  0.65853600  1
  O  O74  1  0.22988400  0.76078100  0.56742800  1
  O  O75  1  0.77011600  0.23921900  0.43257200  1
  O  O76  1  0.25350300  0.67466100  0.34146400  1
  O  O77  1  0.78120900  0.00188300  0.56811200  1
  O  O78  1  0.11963600  0.51679700  0.33675000  1
  O  O79  1  0.18802900  0.48133000  0.66585700  1
  O  O80  1  0.10305600  0.36913800  0.83388700  1
  O  O81  1  0.99811700  0.21879100  0.93188800  1
  O  O82  1  0.99793300  0.22671900  0.56599000  1
  O  O83  1  0.00044900  0.21353000  0.74848100  1
  O  O84  1  0.07298700  0.25285500  0.34154500  1
  O  O85  1  0.31352800  0.48549400  0.15441200  1
  O  O86  1  0.37938700  0.51613600  0.83314300  1
  O  O87  1  0.18158200  0.32066100  0.16514300  1
  O  O88  1  0.31661700  0.32969900  0.51440100  1
  O  O89  1  0.32969900  0.31661700  0.01440100  1
  O  O90  1  0.32066100  0.18158200  0.66514300  1
  O  O91  1  0.51613600  0.37938700  0.33314300  1
  O  O92  1  0.25285500  0.07298700  0.84154500  1
  O  O93  1  0.48549400  0.31352800  0.65441200  1
  O  O94  1  0.21353000  0.00044900  0.24848100  1
  O  O95  1  0.48133000  0.18802900  0.16585700  1
  O  O96  1  0.36913800  0.10305600  0.33388700  1
  O  O97  1  0.22671900  0.99793300  0.06599000  1
