# generated using pymatgen
data_Si2Mo
_symmetry_space_group_name_H-M   'P 1'
_cell_length_a   4.54597254
_cell_length_b   4.54597254
_cell_length_c   4.54597254
_cell_angle_alpha   138.51103355
_cell_angle_beta   138.51103355
_cell_angle_gamma   60.12122166
_symmetry_Int_Tables_number   1
_chemical_formula_structural   Si2Mo
_chemical_formula_sum   'Si2 Mo1'
_cell_volume   40.80421530
_cell_formula_units_Z   1
loop_
 _symmetry_equiv_pos_site_id
 _symmetry_equiv_pos_as_xyz
  1  'x, y, z'
loop_
 _atom_site_type_symbol
 _atom_site_label
 _atom_site_symmetry_multiplicity
 _atom_site_fract_x
 _atom_site_fract_y
 _atom_site_fract_z
 _atom_site_occupancy
  Si  Si0  1  0.66484000  0.66484000  0.00000000  1
  Si  Si1  1  0.33516000  0.33516000  0.00000000  1
  Mo  Mo2  1  0.00000000  0.00000000  0.00000000  1
