# generated using pymatgen
data_YIn2Ni
_symmetry_space_group_name_H-M   'P 1'
_cell_length_a   5.68359016
_cell_length_b   5.68359016
_cell_length_c   7.38187400
_cell_angle_alpha   90.00000000
_cell_angle_beta   90.00000000
_cell_angle_gamma   135.17293241
_symmetry_Int_Tables_number   1
_chemical_formula_structural   YIn2Ni
_chemical_formula_sum   'Y2 In4 Ni2'
_cell_volume   168.10567255
_cell_formula_units_Z   2
loop_
 _symmetry_equiv_pos_site_id
 _symmetry_equiv_pos_as_xyz
  1  'x, y, z'
loop_
 _atom_site_type_symbol
 _atom_site_label
 _atom_site_symmetry_multiplicity
 _atom_site_fract_x
 _atom_site_fract_y
 _atom_site_fract_z
 _atom_site_occupancy
  Y  Y0  1  0.93201000  0.06799000  0.75000000  1
  Y  Y1  1  0.06799000  0.93201000  0.25000000  1
  In  In2  1  0.64328700  0.35671300  0.95092300  1
  In  In3  1  0.35671300  0.64328700  0.04907700  1
  In  In4  1  0.35671300  0.64328700  0.45092300  1
  In  In5  1  0.64328700  0.35671300  0.54907700  1
  Ni  Ni6  1  0.21286800  0.78713200  0.75000000  1
  Ni  Ni7  1  0.78713200  0.21286800  0.25000000  1
