# generated using pymatgen
data_MnH4(BrO)2
_symmetry_space_group_name_H-M   'P 1'
_cell_length_a   3.96365052
_cell_length_b   6.00620207
_cell_length_c   6.00620252
_cell_angle_alpha   95.91231167
_cell_angle_beta   96.94943873
_cell_angle_gamma   96.94942841
_symmetry_Int_Tables_number   1
_chemical_formula_structural   MnH4(BrO)2
_chemical_formula_sum   'Mn1 H4 Br2 O2'
_cell_volume   139.88553205
_cell_formula_units_Z   1
loop_
 _symmetry_equiv_pos_site_id
 _symmetry_equiv_pos_as_xyz
  1  'x, y, z'
loop_
 _atom_site_type_symbol
 _atom_site_label
 _atom_site_symmetry_multiplicity
 _atom_site_fract_x
 _atom_site_fract_y
 _atom_site_fract_z
 _atom_site_occupancy
  Mn  Mn0  1  0.00000000  0.00000000  0.00000000  1
  H  H1  1  0.85566300  0.22550800  0.61002300  1
  H  H2  1  0.14433700  0.38997800  0.77449100  1
  H  H3  1  0.85566400  0.61002300  0.22550900  1
  H  H4  1  0.14433700  0.77449100  0.38997800  1
  Br  Br5  1  0.42342900  0.75862700  0.75862700  1
  Br  Br6  1  0.57657100  0.24137400  0.24137300  1
  O  O7  1  0.00000100  0.75801400  0.24198500  1
  O  O8  1  0.00000000  0.24198500  0.75801400  1
