# generated using pymatgen
data_Na3FePCO7
_symmetry_space_group_name_H-M   'P 1'
_cell_length_a   6.68129200
_cell_length_b   5.21795100
_cell_length_c   9.08663547
_cell_angle_alpha   89.38793239
_cell_angle_beta   90.00000000
_cell_angle_gamma   90.00000000
_symmetry_Int_Tables_number   1
_chemical_formula_structural   Na3FePCO7
_chemical_formula_sum   'Na6 Fe2 P2 C2 O14'
_cell_volume   316.76615565
_cell_formula_units_Z   2
loop_
 _symmetry_equiv_pos_site_id
 _symmetry_equiv_pos_as_xyz
  1  'x, y, z'
loop_
 _atom_site_type_symbol
 _atom_site_label
 _atom_site_symmetry_multiplicity
 _atom_site_fract_x
 _atom_site_fract_y
 _atom_site_fract_z
 _atom_site_occupancy
  Na  Na0  1  0.49606300  0.25084400  0.26210900  1
  Na  Na1  1  0.99606300  0.74915600  0.73789100  1
  Na  Na2  1  0.50393700  0.74915600  0.73789100  1
  Na  Na3  1  0.00393700  0.25084400  0.26210900  1
  Na  Na4  1  0.75000000  0.23377900  0.91652400  1
  Na  Na5  1  0.25000000  0.76622100  0.08347600  1
  Fe  Fe6  1  0.25000000  0.21809300  0.64574300  1
  Fe  Fe7  1  0.75000000  0.78190700  0.35425700  1
  P  P8  1  0.75000000  0.29770400  0.58359600  1
  P  P9  1  0.25000000  0.70229600  0.41640400  1
  C  C10  1  0.25000000  0.27179100  0.93757800  1
  C  C11  1  0.75000000  0.72820900  0.06242200  1
  O  O12  1  0.25000000  0.04736300  0.87562000  1
  O  O13  1  0.75000000  0.95263700  0.12438000  1
  O  O14  1  0.25000000  0.47664400  0.85426900  1
  O  O15  1  0.75000000  0.52335600  0.14573100  1
  O  O16  1  0.25000000  0.29022900  0.07994900  1
  O  O17  1  0.75000000  0.70977100  0.92005100  1
  O  O18  1  0.93616300  0.21795200  0.67786700  1
  O  O19  1  0.43616300  0.78204800  0.32213300  1
  O  O20  1  0.06383700  0.78204800  0.32213300  1
  O  O21  1  0.56383700  0.21795200  0.67786700  1
  O  O22  1  0.75000000  0.16875100  0.43156000  1
  O  O23  1  0.25000000  0.83124900  0.56844000  1
  O  O24  1  0.25000000  0.40479300  0.43752700  1
  O  O25  1  0.75000000  0.59520700  0.56247300  1
