# generated using pymatgen
data_K2Sb4O11
_symmetry_space_group_name_H-M   'P 1'
_cell_length_a   10.61070412
_cell_length_b   10.61070412
_cell_length_c   7.29153089
_cell_angle_alpha   85.19342404
_cell_angle_beta   85.19342404
_cell_angle_gamma   42.37867180
_symmetry_Int_Tables_number   1
_chemical_formula_structural   K2Sb4O11
_chemical_formula_sum   'K4 Sb8 O22'
_cell_volume   551.09167888
_cell_formula_units_Z   2
loop_
 _symmetry_equiv_pos_site_id
 _symmetry_equiv_pos_as_xyz
  1  'x, y, z'
loop_
 _atom_site_type_symbol
 _atom_site_label
 _atom_site_symmetry_multiplicity
 _atom_site_fract_x
 _atom_site_fract_y
 _atom_site_fract_z
 _atom_site_occupancy
  K  K0  1  0.76016400  0.76016400  0.00300200  1
  K  K1  1  0.23983600  0.23983600  0.99699800  1
  K  K2  1  0.98924500  0.98924500  0.26110000  1
  K  K3  1  0.01075500  0.01075500  0.73890000  1
  Sb  Sb4  1  0.42823700  0.42823700  0.09697200  1
  Sb  Sb5  1  0.57176300  0.57176300  0.90302800  1
  Sb  Sb6  1  0.42410800  0.42410800  0.61633900  1
  Sb  Sb7  1  0.57589200  0.57589200  0.38366100  1
  Sb  Sb8  1  0.58311600  0.06781100  0.43498000  1
  Sb  Sb9  1  0.93218900  0.41688400  0.56502000  1
  Sb  Sb10  1  0.41688400  0.93218900  0.56502000  1
  Sb  Sb11  1  0.06781100  0.58311600  0.43498000  1
  O  O12  1  0.17247600  0.56846500  0.18676000  1
  O  O13  1  0.43153500  0.82752400  0.81324000  1
  O  O14  1  0.82752400  0.43153500  0.81324000  1
  O  O15  1  0.56846500  0.17247600  0.18676000  1
  O  O16  1  0.02542000  0.44675000  0.33214000  1
  O  O17  1  0.55325000  0.97458000  0.66786000  1
  O  O18  1  0.97458000  0.55325000  0.66786000  1
  O  O19  1  0.44675000  0.02542000  0.33214000  1
  O  O20  1  0.84434400  0.33190000  0.43134300  1
  O  O21  1  0.66810000  0.15565600  0.56865700  1
  O  O22  1  0.15565600  0.66810000  0.56865700  1
  O  O23  1  0.33190000  0.84434400  0.43134300  1
  O  O24  1  0.67255200  0.32744800  0.00000000  1
  O  O25  1  0.32744800  0.67255200  0.00000000  1
  O  O26  1  0.83981800  0.83981800  0.35065000  1
  O  O27  1  0.16018200  0.16018200  0.64935000  1
  O  O28  1  0.61861200  0.61861200  0.13281300  1
  O  O29  1  0.38138800  0.38138800  0.86718700  1
  O  O30  1  0.66687800  0.66687800  0.49003800  1
  O  O31  1  0.33312200  0.33312200  0.50996200  1
  O  O32  1  0.47658200  0.47658200  0.34498200  1
  O  O33  1  0.52341800  0.52341800  0.65501800  1
