# generated using pymatgen
data_TlZnSClO4
_symmetry_space_group_name_H-M   'P 1'
_cell_length_a   9.79796700
_cell_length_b   7.35868200
_cell_length_c   8.36611966
_cell_angle_alpha   85.40005357
_cell_angle_beta   90.00000000
_cell_angle_gamma   90.00000000
_symmetry_Int_Tables_number   1
_chemical_formula_structural   TlZnSClO4
_chemical_formula_sum   'Tl4 Zn4 S4 Cl4 O16'
_cell_volume   601.25533025
_cell_formula_units_Z   4
loop_
 _symmetry_equiv_pos_site_id
 _symmetry_equiv_pos_as_xyz
  1  'x, y, z'
loop_
 _atom_site_type_symbol
 _atom_site_label
 _atom_site_symmetry_multiplicity
 _atom_site_fract_x
 _atom_site_fract_y
 _atom_site_fract_z
 _atom_site_occupancy
  Tl  Tl0  1  0.58673400  0.37759000  0.29233400  1
  Tl  Tl1  1  0.08673400  0.62241000  0.20766600  1
  Tl  Tl2  1  0.41326600  0.62241000  0.70766600  1
  Tl  Tl3  1  0.91326600  0.37759000  0.79233400  1
  Zn  Zn4  1  0.80308800  0.90514100  0.54333800  1
  Zn  Zn5  1  0.19691200  0.09485900  0.45666200  1
  Zn  Zn6  1  0.69691200  0.90514100  0.04333800  1
  Zn  Zn7  1  0.30308800  0.09485900  0.95666200  1
  S  S8  1  0.56776100  0.10620900  0.73188800  1
  S  S9  1  0.43223900  0.89379100  0.26811200  1
  S  S10  1  0.06776100  0.89379100  0.76811200  1
  S  S11  1  0.93223900  0.10620900  0.23188800  1
  Cl  Cl12  1  0.68041000  0.62587800  0.96315400  1
  Cl  Cl13  1  0.81959000  0.62587800  0.46315400  1
  Cl  Cl14  1  0.31959000  0.37412200  0.03684600  1
  Cl  Cl15  1  0.18041000  0.37412200  0.53684600  1
  O  O16  1  0.07606200  0.04738900  0.27101800  1
  O  O17  1  0.57606200  0.95261100  0.22898200  1
  O  O18  1  0.92393800  0.95261100  0.72898200  1
  O  O19  1  0.42393800  0.04738900  0.77101800  1
  O  O20  1  0.92657100  0.28671100  0.14485700  1
  O  O21  1  0.42657100  0.71328900  0.35514300  1
  O  O22  1  0.07342900  0.71328900  0.85514300  1
  O  O23  1  0.57342900  0.28671100  0.64485700  1
  O  O24  1  0.87731900  0.96006500  0.13428900  1
  O  O25  1  0.64872500  0.11183300  0.88496400  1
  O  O26  1  0.12268100  0.03993500  0.86571100  1
  O  O27  1  0.62268100  0.96006500  0.63428900  1
  O  O28  1  0.85127500  0.11183300  0.38496400  1
  O  O29  1  0.35127500  0.88816700  0.11503600  1
  O  O30  1  0.14872500  0.88816700  0.61503600  1
  O  O31  1  0.37731900  0.03993500  0.36571100  1
