# generated using pymatgen
data_Pb(NO3)2
_symmetry_space_group_name_H-M   'P 1'
_cell_length_a   7.99213100
_cell_length_b   7.99213100
_cell_length_c   7.99213100
_cell_angle_alpha   90.00000000
_cell_angle_beta   90.00000000
_cell_angle_gamma   90.00000000
_symmetry_Int_Tables_number   1
_chemical_formula_structural   Pb(NO3)2
_chemical_formula_sum   'Pb4 N8 O24'
_cell_volume   510.49063762
_cell_formula_units_Z   4
loop_
 _symmetry_equiv_pos_site_id
 _symmetry_equiv_pos_as_xyz
  1  'x, y, z'
loop_
 _atom_site_type_symbol
 _atom_site_label
 _atom_site_symmetry_multiplicity
 _atom_site_fract_x
 _atom_site_fract_y
 _atom_site_fract_z
 _atom_site_occupancy
  Pb  Pb0  1  0.00000000  0.50000000  0.50000000  1
  Pb  Pb1  1  0.50000000  0.50000000  0.00000000  1
  Pb  Pb2  1  0.50000000  0.00000000  0.50000000  1
  Pb  Pb3  1  0.00000000  0.00000000  0.00000000  1
  N  N4  1  0.35035600  0.35035600  0.35035600  1
  N  N5  1  0.35035600  0.14964400  0.85035600  1
  N  N6  1  0.14964400  0.85035600  0.35035600  1
  N  N7  1  0.85035600  0.35035600  0.14964400  1
  N  N8  1  0.64964400  0.64964400  0.64964400  1
  N  N9  1  0.14964400  0.64964400  0.85035600  1
  N  N10  1  0.85035600  0.14964400  0.64964400  1
  N  N11  1  0.64964400  0.85035600  0.14964400  1
  O  O12  1  0.77818700  0.29294400  0.02048000  1
  O  O13  1  0.20705600  0.97952000  0.27818700  1
  O  O14  1  0.22181300  0.79294400  0.47952000  1
  O  O15  1  0.27818700  0.20705600  0.97952000  1
  O  O16  1  0.27818700  0.29294400  0.47952000  1
  O  O17  1  0.47952000  0.27818700  0.29294400  1
  O  O18  1  0.29294400  0.47952000  0.27818700  1
  O  O19  1  0.20705600  0.52048000  0.77818700  1
  O  O20  1  0.97952000  0.22181300  0.70705600  1
  O  O21  1  0.70705600  0.97952000  0.22181300  1
  O  O22  1  0.02048000  0.72181300  0.79294400  1
  O  O23  1  0.52048000  0.77818700  0.20705600  1
  O  O24  1  0.79294400  0.02048000  0.72181300  1
  O  O25  1  0.77818700  0.20705600  0.52048000  1
  O  O26  1  0.72181300  0.79294400  0.02048000  1
  O  O27  1  0.22181300  0.70705600  0.97952000  1
  O  O28  1  0.72181300  0.70705600  0.52048000  1
  O  O29  1  0.52048000  0.72181300  0.70705600  1
  O  O30  1  0.70705600  0.52048000  0.72181300  1
  O  O31  1  0.79294400  0.47952000  0.22181300  1
  O  O32  1  0.02048000  0.77818700  0.29294400  1
  O  O33  1  0.29294400  0.02048000  0.77818700  1
  O  O34  1  0.97952000  0.27818700  0.20705600  1
  O  O35  1  0.47952000  0.22181300  0.79294400  1
