# generated using pymatgen
data_Gd3Ga5O12
_symmetry_space_group_name_H-M   'P 1'
_cell_length_a   10.86996289
_cell_length_b   10.86996289
_cell_length_c   10.86996289
_cell_angle_alpha   109.47122063
_cell_angle_beta   109.47122063
_cell_angle_gamma   109.47122063
_symmetry_Int_Tables_number   1
_chemical_formula_structural   Gd3Ga5O12
_chemical_formula_sum   'Gd12 Ga20 O48'
_cell_volume   988.69489867
_cell_formula_units_Z   4
loop_
 _symmetry_equiv_pos_site_id
 _symmetry_equiv_pos_as_xyz
  1  'x, y, z'
loop_
 _atom_site_type_symbol
 _atom_site_label
 _atom_site_symmetry_multiplicity
 _atom_site_fract_x
 _atom_site_fract_y
 _atom_site_fract_z
 _atom_site_occupancy
  Gd  Gd0  1  0.12500000  0.37500000  0.75000000  1
  Gd  Gd1  1  0.37500000  0.12500000  0.25000000  1
  Gd  Gd2  1  0.37500000  0.75000000  0.12500000  1
  Gd  Gd3  1  0.12500000  0.25000000  0.37500000  1
  Gd  Gd4  1  0.75000000  0.12500000  0.37500000  1
  Gd  Gd5  1  0.25000000  0.37500000  0.12500000  1
  Gd  Gd6  1  0.87500000  0.62500000  0.25000000  1
  Gd  Gd7  1  0.62500000  0.87500000  0.75000000  1
  Gd  Gd8  1  0.62500000  0.25000000  0.87500000  1
  Gd  Gd9  1  0.87500000  0.75000000  0.62500000  1
  Gd  Gd10  1  0.25000000  0.87500000  0.62500000  1
  Gd  Gd11  1  0.75000000  0.62500000  0.87500000  1
  Ga  Ga12  1  0.00000000  0.50000000  0.00000000  1
  Ga  Ga13  1  0.00000000  0.00000000  0.50000000  1
  Ga  Ga14  1  0.50000000  0.00000000  0.00000000  1
  Ga  Ga15  1  0.50000000  0.50000000  0.50000000  1
  Ga  Ga16  1  0.50000000  0.50000000  0.00000000  1
  Ga  Ga17  1  0.50000000  0.00000000  0.50000000  1
  Ga  Ga18  1  0.00000000  0.50000000  0.50000000  1
  Ga  Ga19  1  0.00000000  0.00000000  0.00000000  1
  Ga  Ga20  1  0.37500000  0.62500000  0.75000000  1
  Ga  Ga21  1  0.12500000  0.87500000  0.25000000  1
  Ga  Ga22  1  0.62500000  0.75000000  0.37500000  1
  Ga  Ga23  1  0.87500000  0.25000000  0.12500000  1
  Ga  Ga24  1  0.75000000  0.37500000  0.62500000  1
  Ga  Ga25  1  0.25000000  0.12500000  0.87500000  1
  Ga  Ga26  1  0.62500000  0.37500000  0.25000000  1
  Ga  Ga27  1  0.87500000  0.12500000  0.75000000  1
  Ga  Ga28  1  0.37500000  0.25000000  0.62500000  1
  Ga  Ga29  1  0.12500000  0.75000000  0.87500000  1
  Ga  Ga30  1  0.25000000  0.62500000  0.37500000  1
  Ga  Ga31  1  0.75000000  0.87500000  0.12500000  1
  O  O32  1  0.02533500  0.32243700  0.90259500  1
  O  O33  1  0.91984200  0.12274100  0.59740500  1
  O  O34  1  0.58015800  0.17756300  0.20289800  1
  O  O35  1  0.47466500  0.37725900  0.29710200  1
  O  O36  1  0.32243700  0.90259500  0.02533500  1
  O  O37  1  0.12274100  0.59740500  0.91984200  1
  O  O38  1  0.17756300  0.20289800  0.58015800  1
  O  O39  1  0.37725900  0.29710200  0.47466500  1
  O  O40  1  0.90259500  0.02533500  0.32243700  1
  O  O41  1  0.59740500  0.91984200  0.12274100  1
  O  O42  1  0.20289800  0.58015800  0.17756300  1
  O  O43  1  0.29710200  0.47466500  0.37725900  1
  O  O44  1  0.97466500  0.67756300  0.09740500  1
  O  O45  1  0.08015800  0.87725900  0.40259500  1
  O  O46  1  0.41984200  0.82243700  0.79710200  1
  O  O47  1  0.52533500  0.62274100  0.70289800  1
  O  O48  1  0.67756300  0.09740500  0.97466500  1
  O  O49  1  0.87725900  0.40259500  0.08015800  1
  O  O50  1  0.82243700  0.79710200  0.41984200  1
  O  O51  1  0.62274100  0.70289800  0.52533500  1
  O  O52  1  0.09740500  0.97466500  0.67756300  1
  O  O53  1  0.40259500  0.08015800  0.87725900  1
  O  O54  1  0.79710200  0.41984200  0.82243700  1
  O  O55  1  0.70289800  0.52533500  0.62274100  1
  O  O56  1  0.52533500  0.40259500  0.82243700  1
  O  O57  1  0.41984200  0.09740500  0.62274100  1
  O  O58  1  0.08015800  0.70289800  0.67756300  1
  O  O59  1  0.97466500  0.79710200  0.87725900  1
  O  O60  1  0.82243700  0.52533500  0.40259500  1
  O  O61  1  0.62274100  0.41984200  0.09740500  1
  O  O62  1  0.67756300  0.08015800  0.70289800  1
  O  O63  1  0.87725900  0.97466500  0.79710200  1
  O  O64  1  0.40259500  0.82243700  0.52533500  1
  O  O65  1  0.09740500  0.62274100  0.41984200  1
  O  O66  1  0.70289800  0.67756300  0.08015800  1
  O  O67  1  0.79710200  0.87725900  0.97466500  1
  O  O68  1  0.47466500  0.59740500  0.17756300  1
  O  O69  1  0.58015800  0.90259500  0.37725900  1
  O  O70  1  0.91984200  0.29710200  0.32243700  1
  O  O71  1  0.02533500  0.20289800  0.12274100  1
  O  O72  1  0.17756300  0.47466500  0.59740500  1
  O  O73  1  0.37725900  0.58015800  0.90259500  1
  O  O74  1  0.32243700  0.91984200  0.29710200  1
  O  O75  1  0.12274100  0.02533500  0.20289800  1
  O  O76  1  0.59740500  0.17756300  0.47466500  1
  O  O77  1  0.90259500  0.37725900  0.58015800  1
  O  O78  1  0.29710200  0.32243700  0.91984200  1
  O  O79  1  0.20289800  0.12274100  0.02533500  1
