# generated using pymatgen
data_AuI
_symmetry_space_group_name_H-M   'P 1'
_cell_length_a   4.60530200
_cell_length_b   4.60530200
_cell_length_c   15.00921400
_cell_angle_alpha   90.00000000
_cell_angle_beta   90.00000000
_cell_angle_gamma   90.00000000
_symmetry_Int_Tables_number   1
_chemical_formula_structural   AuI
_chemical_formula_sum   'Au4 I4'
_cell_volume   318.32751561
_cell_formula_units_Z   4
loop_
 _symmetry_equiv_pos_site_id
 _symmetry_equiv_pos_as_xyz
  1  'x, y, z'
loop_
 _atom_site_type_symbol
 _atom_site_label
 _atom_site_symmetry_multiplicity
 _atom_site_fract_x
 _atom_site_fract_y
 _atom_site_fract_z
 _atom_site_occupancy
  Au  Au0  1  0.75000000  0.25000000  0.75000000  1
  Au  Au1  1  0.25000000  0.25000000  0.25000000  1
  Au  Au2  1  0.75000000  0.75000000  0.25000000  1
  Au  Au3  1  0.25000000  0.75000000  0.75000000  1
  I  I4  1  0.00000000  0.50000000  0.61266900  1
  I  I5  1  0.00000000  0.50000000  0.11266900  1
  I  I6  1  0.50000000  0.00000000  0.38733100  1
  I  I7  1  0.50000000  0.00000000  0.88733100  1
