# generated using pymatgen
data_Na2PdCl4
_symmetry_space_group_name_H-M   'P 1'
_cell_length_a   9.69582300
_cell_length_b   9.69582300
_cell_length_c   7.68433100
_cell_angle_alpha   90.00000000
_cell_angle_beta   90.00000000
_cell_angle_gamma   90.00000000
_symmetry_Int_Tables_number   1
_chemical_formula_structural   Na2PdCl4
_chemical_formula_sum   'Na8 Pd4 Cl16'
_cell_volume   722.39614732
_cell_formula_units_Z   4
loop_
 _symmetry_equiv_pos_site_id
 _symmetry_equiv_pos_as_xyz
  1  'x, y, z'
loop_
 _atom_site_type_symbol
 _atom_site_label
 _atom_site_symmetry_multiplicity
 _atom_site_fract_x
 _atom_site_fract_y
 _atom_site_fract_z
 _atom_site_occupancy
  Na  Na0  1  0.80604900  0.19395100  0.25000000  1
  Na  Na1  1  0.69395100  0.69395100  0.25000000  1
  Na  Na2  1  0.30604900  0.30604900  0.25000000  1
  Na  Na3  1  0.19395100  0.80604900  0.25000000  1
  Na  Na4  1  0.69395100  0.30604900  0.75000000  1
  Na  Na5  1  0.80604900  0.80604900  0.75000000  1
  Na  Na6  1  0.19395100  0.19395100  0.75000000  1
  Na  Na7  1  0.30604900  0.69395100  0.75000000  1
  Pd  Pd8  1  0.00000000  0.50000000  0.06484900  1
  Pd  Pd9  1  0.00000000  0.50000000  0.56484900  1
  Pd  Pd10  1  0.50000000  0.00000000  0.93515100  1
  Pd  Pd11  1  0.50000000  0.00000000  0.43515100  1
  Cl  Cl12  1  0.94574000  0.26511800  0.56888400  1
  Cl  Cl13  1  0.76511800  0.55426000  0.56888400  1
  Cl  Cl14  1  0.23488200  0.44574000  0.56888400  1
  Cl  Cl15  1  0.23488200  0.55426000  0.06888400  1
  Cl  Cl16  1  0.05426000  0.26511800  0.06888400  1
  Cl  Cl17  1  0.76511800  0.44574000  0.06888400  1
  Cl  Cl18  1  0.26511800  0.05426000  0.43111600  1
  Cl  Cl19  1  0.94574000  0.73488200  0.06888400  1
  Cl  Cl20  1  0.44574000  0.76511800  0.43111600  1
  Cl  Cl21  1  0.55426000  0.23488200  0.43111600  1
  Cl  Cl22  1  0.55426000  0.76511800  0.93111600  1
  Cl  Cl23  1  0.73488200  0.94574000  0.43111600  1
  Cl  Cl24  1  0.44574000  0.23488200  0.93111600  1
  Cl  Cl25  1  0.73488200  0.05426000  0.93111600  1
  Cl  Cl26  1  0.26511800  0.94574000  0.93111600  1
  Cl  Cl27  1  0.05426000  0.73488200  0.56888400  1
