# generated using pymatgen
data_Ho3Ge3Ir2
_symmetry_space_group_name_H-M   'P 1'
_cell_length_a   5.65273349
_cell_length_b   5.65273349
_cell_length_c   14.29018400
_cell_angle_alpha   90.00000000
_cell_angle_beta   90.00000000
_cell_angle_gamma   135.17461429
_symmetry_Int_Tables_number   1
_chemical_formula_structural   Ho3Ge3Ir2
_chemical_formula_sum   'Ho6 Ge6 Ir4'
_cell_volume   321.89353059
_cell_formula_units_Z   2
loop_
 _symmetry_equiv_pos_site_id
 _symmetry_equiv_pos_as_xyz
  1  'x, y, z'
loop_
 _atom_site_type_symbol
 _atom_site_label
 _atom_site_symmetry_multiplicity
 _atom_site_fract_x
 _atom_site_fract_y
 _atom_site_fract_z
 _atom_site_occupancy
  Ho  Ho0  1  0.91563300  0.08436700  0.11024700  1
  Ho  Ho1  1  0.08436700  0.91563300  0.88975300  1
  Ho  Ho2  1  0.08436700  0.91563300  0.61024700  1
  Ho  Ho3  1  0.91563300  0.08436700  0.38975300  1
  Ho  Ho4  1  0.64214200  0.35785800  0.25000000  1
  Ho  Ho5  1  0.35785800  0.64214200  0.75000000  1
  Ge  Ge6  1  0.34443000  0.65557000  0.25000000  1
  Ge  Ge7  1  0.65557000  0.34443000  0.75000000  1
  Ge  Ge8  1  0.37690100  0.62309900  0.53509800  1
  Ge  Ge9  1  0.62309900  0.37690100  0.46490200  1
  Ge  Ge10  1  0.62309900  0.37690100  0.03509800  1
  Ge  Ge11  1  0.37690100  0.62309900  0.96490200  1
  Ir  Ir12  1  0.79954900  0.20045100  0.60266800  1
  Ir  Ir13  1  0.20045100  0.79954900  0.39733200  1
  Ir  Ir14  1  0.20045100  0.79954900  0.10266800  1
  Ir  Ir15  1  0.79954900  0.20045100  0.89733200  1
