# generated using pymatgen
data_Ca2MnAs2(H2O5)2
_symmetry_space_group_name_H-M   'P 1'
_cell_length_a   13.16734400
_cell_length_b   5.79170600
_cell_length_c   5.95453537
_cell_angle_alpha   71.86912968
_cell_angle_beta   90.00000000
_cell_angle_gamma   90.00000000
_symmetry_Int_Tables_number   1
_chemical_formula_structural   Ca2MnAs2(H2O5)2
_chemical_formula_sum   'Ca4 Mn2 As4 H8 O20'
_cell_volume   431.55418028
_cell_formula_units_Z   2
loop_
 _symmetry_equiv_pos_site_id
 _symmetry_equiv_pos_as_xyz
  1  'x, y, z'
loop_
 _atom_site_type_symbol
 _atom_site_label
 _atom_site_symmetry_multiplicity
 _atom_site_fract_x
 _atom_site_fract_y
 _atom_site_fract_z
 _atom_site_occupancy
  Ca  Ca0  1  0.88000300  0.75839500  0.56874400  1
  Ca  Ca1  1  0.38000300  0.74160500  0.43125600  1
  Ca  Ca2  1  0.11999700  0.24160500  0.43125600  1
  Ca  Ca3  1  0.61999700  0.25839500  0.56874400  1
  Mn  Mn4  1  0.50000000  0.50000000  0.00000000  1
  Mn  Mn5  1  0.00000000  0.00000000  0.00000000  1
  As  As6  1  0.87785200  0.42874600  0.22393600  1
  As  As7  1  0.37785200  0.07125400  0.77606400  1
  As  As8  1  0.12214800  0.57125400  0.77606400  1
  As  As9  1  0.62214800  0.92874600  0.22393600  1
  H  H10  1  0.71042200  0.49858500  0.89392800  1
  H  H11  1  0.21042200  0.00141500  0.10607200  1
  H  H12  1  0.28957800  0.50141500  0.10607200  1
  H  H13  1  0.78957800  0.99858500  0.89392800  1
  H  H14  1  0.65592100  0.69492200  0.68381900  1
  H  H15  1  0.15592100  0.80507800  0.31618100  1
  H  H16  1  0.34407900  0.30507800  0.31618100  1
  H  H17  1  0.84407900  0.19492200  0.68381900  1
  O  O18  1  0.64310000  0.53165900  0.80372100  1
  O  O19  1  0.14310000  0.96834100  0.19627900  1
  O  O20  1  0.96188100  0.65126000  0.24729000  1
  O  O21  1  0.46188100  0.84874000  0.75271000  1
  O  O22  1  0.03811900  0.34874000  0.75271000  1
  O  O23  1  0.53811900  0.15126000  0.24729000  1
  O  O24  1  0.94573900  0.15824800  0.28826900  1
  O  O25  1  0.44573900  0.34175200  0.71173100  1
  O  O26  1  0.05426100  0.84175200  0.71173100  1
  O  O27  1  0.55426100  0.65824800  0.28826900  1
  O  O28  1  0.82524200  0.50209800  0.94980400  1
  O  O29  1  0.32524200  0.99790200  0.05019600  1
  O  O30  1  0.17475800  0.49790200  0.05019600  1
  O  O31  1  0.67475800  0.00209800  0.94980400  1
  O  O32  1  0.79342600  0.41737600  0.45018600  1
  O  O33  1  0.29342600  0.08262400  0.54981400  1
  O  O34  1  0.20657400  0.58262400  0.54981400  1
  O  O35  1  0.70657400  0.91737600  0.45018600  1
  O  O36  1  0.85690000  0.03165900  0.80372100  1
  O  O37  1  0.35690000  0.46834100  0.19627900  1
