# generated using pymatgen
data_DySI
_symmetry_space_group_name_H-M   'P 1'
_cell_length_a   4.19540900
_cell_length_b   5.34844500
_cell_length_c   10.66682500
_cell_angle_alpha   90.00000000
_cell_angle_beta   90.00000000
_cell_angle_gamma   90.00000000
_symmetry_Int_Tables_number   1
_chemical_formula_structural   DySI
_chemical_formula_sum   'Dy2 S2 I2'
_cell_volume   239.35197191
_cell_formula_units_Z   2
loop_
 _symmetry_equiv_pos_site_id
 _symmetry_equiv_pos_as_xyz
  1  'x, y, z'
loop_
 _atom_site_type_symbol
 _atom_site_label
 _atom_site_symmetry_multiplicity
 _atom_site_fract_x
 _atom_site_fract_y
 _atom_site_fract_z
 _atom_site_occupancy
  Dy  Dy0  1  0.00000000  0.00000000  0.10729400  1
  Dy  Dy1  1  0.50000000  0.50000000  0.89270600  1
  S  S2  1  0.50000000  0.00000000  0.94185600  1
  S  S3  1  0.00000000  0.50000000  0.05814400  1
  I  I4  1  0.00000000  0.50000000  0.68413000  1
  I  I5  1  0.50000000  0.00000000  0.31587000  1
