# generated using pymatgen
data_Lu6UO12
_symmetry_space_group_name_H-M   'P 1'
_cell_length_a   6.43849378
_cell_length_b   6.43849378
_cell_length_c   6.43849308
_cell_angle_alpha   99.19852770
_cell_angle_beta   99.19852770
_cell_angle_gamma   99.19852652
_symmetry_Int_Tables_number   1
_chemical_formula_structural   Lu6UO12
_chemical_formula_sum   'Lu6 U1 O12'
_cell_volume   255.33086807
_cell_formula_units_Z   1
loop_
 _symmetry_equiv_pos_site_id
 _symmetry_equiv_pos_as_xyz
  1  'x, y, z'
loop_
 _atom_site_type_symbol
 _atom_site_label
 _atom_site_symmetry_multiplicity
 _atom_site_fract_x
 _atom_site_fract_y
 _atom_site_fract_z
 _atom_site_occupancy
  Lu  Lu0  1  0.39084500  0.67281000  0.85431200  1
  Lu  Lu1  1  0.85431200  0.39084500  0.67281000  1
  Lu  Lu2  1  0.67281000  0.85431200  0.39084500  1
  Lu  Lu3  1  0.60915500  0.32719000  0.14568800  1
  Lu  Lu4  1  0.14568800  0.60915500  0.32719000  1
  Lu  Lu5  1  0.32719000  0.14568800  0.60915500  1
  U  U6  1  0.00000000  0.00000000  0.00000000  1
  O  O7  1  0.17816400  0.42295000  0.58578400  1
  O  O8  1  0.58578400  0.17816400  0.42295000  1
  O  O9  1  0.42295000  0.58578400  0.17816300  1
  O  O10  1  0.82183700  0.57705000  0.41421600  1
  O  O11  1  0.41421600  0.82183700  0.57705000  1
  O  O12  1  0.57705000  0.41421600  0.82183700  1
  O  O13  1  0.91173100  0.05001400  0.68724700  1
  O  O14  1  0.94998600  0.31275300  0.08826900  1
  O  O15  1  0.31275300  0.08826900  0.94998600  1
  O  O16  1  0.08826900  0.94998600  0.31275300  1
  O  O17  1  0.05001400  0.68724700  0.91173100  1
  O  O18  1  0.68724700  0.91173100  0.05001400  1
