# generated using pymatgen
data_RbSnI3
_symmetry_space_group_name_H-M   'P 1'
_cell_length_a   4.79079000
_cell_length_b   10.57289200
_cell_length_c   17.63615000
_cell_angle_alpha   90.00000000
_cell_angle_beta   90.00000000
_cell_angle_gamma   90.00000000
_symmetry_Int_Tables_number   1
_chemical_formula_structural   RbSnI3
_chemical_formula_sum   'Rb4 Sn4 I12'
_cell_volume   893.31518072
_cell_formula_units_Z   4
loop_
 _symmetry_equiv_pos_site_id
 _symmetry_equiv_pos_as_xyz
  1  'x, y, z'
loop_
 _atom_site_type_symbol
 _atom_site_label
 _atom_site_symmetry_multiplicity
 _atom_site_fract_x
 _atom_site_fract_y
 _atom_site_fract_z
 _atom_site_occupancy
  Rb  Rb0  1  0.25000000  0.08444800  0.67223000  1
  Rb  Rb1  1  0.25000000  0.58444800  0.82777000  1
  Rb  Rb2  1  0.75000000  0.91555200  0.32777000  1
  Rb  Rb3  1  0.75000000  0.41555200  0.17223000  1
  Sn  Sn4  1  0.75000000  0.66220300  0.56015900  1
  Sn  Sn5  1  0.25000000  0.83779700  0.06015900  1
  Sn  Sn6  1  0.25000000  0.33779700  0.43984100  1
  Sn  Sn7  1  0.75000000  0.16220300  0.93984100  1
  I  I8  1  0.25000000  0.19973300  0.28874500  1
  I  I9  1  0.25000000  0.97635600  0.88474700  1
  I  I10  1  0.75000000  0.02364400  0.11525300  1
  I  I11  1  0.25000000  0.47635600  0.61525300  1
  I  I12  1  0.75000000  0.66276700  0.99590800  1
  I  I13  1  0.25000000  0.33723300  0.00409200  1
  I  I14  1  0.75000000  0.16276700  0.50409200  1
  I  I15  1  0.25000000  0.83723300  0.49590800  1
  I  I16  1  0.75000000  0.80026700  0.71125500  1
  I  I17  1  0.25000000  0.69973300  0.21125500  1
  I  I18  1  0.75000000  0.30026700  0.78874500  1
  I  I19  1  0.75000000  0.52364400  0.38474700  1
