# generated using pymatgen
data_PCl3O
_symmetry_space_group_name_H-M   'P 1'
_cell_length_a   6.07125300
_cell_length_b   9.81334400
_cell_length_c   9.90284300
_cell_angle_alpha   90.00000000
_cell_angle_beta   90.00000000
_cell_angle_gamma   90.00000000
_symmetry_Int_Tables_number   1
_chemical_formula_structural   PCl3O
_chemical_formula_sum   'P4 Cl12 O4'
_cell_volume   590.00439651
_cell_formula_units_Z   4
loop_
 _symmetry_equiv_pos_site_id
 _symmetry_equiv_pos_as_xyz
  1  'x, y, z'
loop_
 _atom_site_type_symbol
 _atom_site_label
 _atom_site_symmetry_multiplicity
 _atom_site_fract_x
 _atom_site_fract_y
 _atom_site_fract_z
 _atom_site_occupancy
  P  P0  1  0.87328700  0.75762800  0.81893600  1
  P  P1  1  0.12671300  0.25762800  0.18106400  1
  P  P2  1  0.62671300  0.75762800  0.31893600  1
  P  P3  1  0.37328700  0.25762800  0.68106400  1
  Cl  Cl4  1  0.17646700  0.41765400  0.64373000  1
  Cl  Cl5  1  0.82353300  0.91765400  0.35627000  1
  Cl  Cl6  1  0.32353300  0.41765400  0.14373000  1
  Cl  Cl7  1  0.67646700  0.91765400  0.85627000  1
  Cl  Cl8  1  0.08175600  0.75361900  0.97618400  1
  Cl  Cl9  1  0.91824400  0.25361900  0.02381600  1
  Cl  Cl10  1  0.41824400  0.75361900  0.47618400  1
  Cl  Cl11  1  0.58175600  0.25361900  0.52381600  1
  Cl  Cl12  1  0.67944900  0.59419000  0.84660900  1
  Cl  Cl13  1  0.32055100  0.09419000  0.15339100  1
  Cl  Cl14  1  0.82055100  0.59419000  0.34660900  1
  Cl  Cl15  1  0.17944900  0.09419000  0.65339100  1
  O  O16  1  0.98221700  0.76210900  0.68618000  1
  O  O17  1  0.01778300  0.26210900  0.31382000  1
  O  O18  1  0.51778300  0.76210900  0.18618000  1
  O  O19  1  0.48221700  0.26210900  0.81382000  1
