# generated using pymatgen
data_LaNb7O12
_symmetry_space_group_name_H-M   'P 1'
_cell_length_a   9.32203200
_cell_length_b   10.47012100
_cell_length_c   10.92651172
_cell_angle_alpha   75.64142256
_cell_angle_beta   90.00000000
_cell_angle_gamma   90.00000000
_symmetry_Int_Tables_number   1
_chemical_formula_structural   LaNb7O12
_chemical_formula_sum   'La4 Nb28 O48'
_cell_volume   1033.14489757
_cell_formula_units_Z   4
loop_
 _symmetry_equiv_pos_site_id
 _symmetry_equiv_pos_as_xyz
  1  'x, y, z'
loop_
 _atom_site_type_symbol
 _atom_site_label
 _atom_site_symmetry_multiplicity
 _atom_site_fract_x
 _atom_site_fract_y
 _atom_site_fract_z
 _atom_site_occupancy
  La  La0  1  0.51720900  0.95160700  0.33688600  1
  La  La1  1  0.01720900  0.54839300  0.66311400  1
  La  La2  1  0.48279100  0.04839300  0.66311400  1
  La  La3  1  0.98279100  0.45160700  0.33688600  1
  Nb  Nb4  1  0.88077300  0.81561600  0.41939900  1
  Nb  Nb5  1  0.38077300  0.68438400  0.58060100  1
  Nb  Nb6  1  0.11922700  0.18438400  0.58060100  1
  Nb  Nb7  1  0.61922700  0.31561600  0.41939900  1
  Nb  Nb8  1  0.88376800  0.09241300  0.28016800  1
  Nb  Nb9  1  0.38376800  0.40758700  0.71983200  1
  Nb  Nb10  1  0.11623200  0.90758700  0.71983200  1
  Nb  Nb11  1  0.61623200  0.59241300  0.28016800  1
  Nb  Nb12  1  0.87425100  0.88245800  0.15518600  1
  Nb  Nb13  1  0.37425100  0.61754200  0.84481400  1
  Nb  Nb14  1  0.12574900  0.11754200  0.84481400  1
  Nb  Nb15  1  0.62574900  0.38245800  0.15518600  1
  Nb  Nb16  1  0.86565500  0.03174700  0.58785000  1
  Nb  Nb17  1  0.36565500  0.46825300  0.41215000  1
  Nb  Nb18  1  0.13434500  0.96825300  0.41215000  1
  Nb  Nb19  1  0.63434500  0.53174700  0.58785000  1
  Nb  Nb20  1  0.12750500  0.03872500  0.14908600  1
  Nb  Nb21  1  0.62750500  0.46127500  0.85091400  1
  Nb  Nb22  1  0.87249500  0.96127500  0.85091400  1
  Nb  Nb23  1  0.37249500  0.53872500  0.14908600  1
  Nb  Nb24  1  0.87631300  0.23181100  0.71766100  1
  Nb  Nb25  1  0.37631300  0.26818900  0.28233900  1
  Nb  Nb26  1  0.12368700  0.76818900  0.28233900  1
  Nb  Nb27  1  0.62368700  0.73181100  0.71766100  1
  Nb  Nb28  1  0.88620200  0.66074600  0.99981600  1
  Nb  Nb29  1  0.38620200  0.83925400  0.00018400  1
  Nb  Nb30  1  0.11379800  0.33925400  0.00018400  1
  Nb  Nb31  1  0.61379800  0.16074600  0.99981600  1
  O  O32  1  0.77187400  0.42128000  0.71878500  1
  O  O33  1  0.27187400  0.07872000  0.28121500  1
  O  O34  1  0.22812600  0.57872000  0.28121500  1
  O  O35  1  0.72812600  0.92128000  0.71878500  1
  O  O36  1  0.73584400  0.04587100  0.15181500  1
  O  O37  1  0.23584400  0.45412900  0.84818500  1
  O  O38  1  0.26415600  0.95412900  0.84818500  1
  O  O39  1  0.76415600  0.54587100  0.15181500  1
  O  O40  1  0.72963700  0.18665700  0.58637500  1
  O  O41  1  0.22963700  0.31334300  0.41362500  1
  O  O42  1  0.27036300  0.81334300  0.41362500  1
  O  O43  1  0.77036300  0.68665700  0.58637500  1
  O  O44  1  0.76848100  0.27942500  0.29153700  1
  O  O45  1  0.26848100  0.22057500  0.70846300  1
  O  O46  1  0.23151900  0.72057500  0.70846300  1
  O  O47  1  0.73151900  0.77942500  0.29153700  1
  O  O48  1  0.74750200  0.98084000  0.42361700  1
  O  O49  1  0.24750200  0.51916000  0.57638300  1
  O  O50  1  0.25249800  0.01916000  0.57638300  1
  O  O51  1  0.75249800  0.48084000  0.42361700  1
  O  O52  1  0.25850000  0.87841200  0.13697500  1
  O  O53  1  0.75850000  0.62158800  0.86302500  1
  O  O54  1  0.74150000  0.12158800  0.86302500  1
  O  O55  1  0.24150000  0.37841200  0.13697500  1
  O  O56  1  0.76657400  0.81732700  0.00412800  1
  O  O57  1  0.26657400  0.68267300  0.99587200  1
  O  O58  1  0.23342600  0.18267300  0.99587200  1
  O  O59  1  0.73342600  0.31732700  0.00412800  1
  O  O60  1  0.00000000  0.50000000  0.00000000  1
  O  O61  1  0.50000000  0.00000000  0.00000000  1
  O  O62  1  0.99952700  0.86163600  0.56931100  1
  O  O63  1  0.49952700  0.63836400  0.43068900  1
  O  O64  1  0.00047300  0.13836400  0.43068900  1
  O  O65  1  0.50047300  0.36163600  0.56931100  1
  O  O66  1  0.00000000  0.00000000  0.00000000  1
  O  O67  1  0.50000000  0.50000000  0.00000000  1
  O  O68  1  0.99166200  0.70703200  0.15131300  1
  O  O69  1  0.49166200  0.79296800  0.84868700  1
  O  O70  1  0.00833800  0.29296800  0.84868700  1
  O  O71  1  0.50833800  0.20703200  0.15131300  1
  O  O72  1  0.99542500  0.78493300  0.86094300  1
  O  O73  1  0.49542500  0.71506700  0.13905700  1
  O  O74  1  0.00457500  0.21506700  0.13905700  1
  O  O75  1  0.50457500  0.28493300  0.86094300  1
  O  O76  1  0.00188700  0.64299000  0.42972100  1
  O  O77  1  0.50188700  0.85701000  0.57027900  1
  O  O78  1  0.99811300  0.35701000  0.57027900  1
  O  O79  1  0.49811300  0.14299000  0.42972100  1
