# generated using pymatgen
data_NdNiO3
_symmetry_space_group_name_H-M   'P 1'
_cell_length_a   5.43176200
_cell_length_b   5.49584900
_cell_length_c   7.70942900
_cell_angle_alpha   90.00000000
_cell_angle_beta   90.00000000
_cell_angle_gamma   90.00000000
_symmetry_Int_Tables_number   1
_chemical_formula_structural   NdNiO3
_chemical_formula_sum   'Nd4 Ni4 O12'
_cell_volume   230.14298278
_cell_formula_units_Z   4
loop_
 _symmetry_equiv_pos_site_id
 _symmetry_equiv_pos_as_xyz
  1  'x, y, z'
loop_
 _atom_site_type_symbol
 _atom_site_label
 _atom_site_symmetry_multiplicity
 _atom_site_fract_x
 _atom_site_fract_y
 _atom_site_fract_z
 _atom_site_occupancy
  Nd  Nd0  1  0.01095500  0.95255000  0.75000000  1
  Nd  Nd1  1  0.48904500  0.45255000  0.75000000  1
  Nd  Nd2  1  0.51095500  0.54745000  0.25000000  1
  Nd  Nd3  1  0.98904500  0.04745000  0.25000000  1
  Ni  Ni4  1  0.50000000  0.00000000  0.50000000  1
  Ni  Ni5  1  0.00000000  0.50000000  0.00000000  1
  Ni  Ni6  1  0.00000000  0.50000000  0.50000000  1
  Ni  Ni7  1  0.50000000  0.00000000  0.00000000  1
  O  O8  1  0.71378500  0.28755600  0.45700100  1
  O  O9  1  0.78621500  0.78755600  0.04299900  1
  O  O10  1  0.21378500  0.21244400  0.54299900  1
  O  O11  1  0.28621500  0.71244400  0.95700100  1
  O  O12  1  0.28621500  0.71244400  0.54299900  1
  O  O13  1  0.21378500  0.21244400  0.95700100  1
  O  O14  1  0.78621500  0.78755600  0.45700100  1
  O  O15  1  0.71378500  0.28755600  0.04299900  1
  O  O16  1  0.07897900  0.48564900  0.25000000  1
  O  O17  1  0.42102100  0.98564900  0.25000000  1
  O  O18  1  0.57897900  0.01435100  0.75000000  1
  O  O19  1  0.92102100  0.51435100  0.75000000  1
