# generated using pymatgen
data_BaPb3
_symmetry_space_group_name_H-M   'P 1'
_cell_length_a   9.75840353
_cell_length_b   9.75840353
_cell_length_c   9.75840286
_cell_angle_alpha   44.81707367
_cell_angle_beta   44.81707367
_cell_angle_gamma   44.81707724
_symmetry_Int_Tables_number   1
_chemical_formula_structural   BaPb3
_chemical_formula_sum   'Ba3 Pb9'
_cell_volume   420.03311573
_cell_formula_units_Z   3
loop_
 _symmetry_equiv_pos_site_id
 _symmetry_equiv_pos_as_xyz
  1  'x, y, z'
loop_
 _atom_site_type_symbol
 _atom_site_label
 _atom_site_symmetry_multiplicity
 _atom_site_fract_x
 _atom_site_fract_y
 _atom_site_fract_z
 _atom_site_occupancy
  Ba  Ba0  1  0.78262300  0.78262300  0.78262300  1
  Ba  Ba1  1  0.21737700  0.21737700  0.21737700  1
  Ba  Ba2  1  0.00000000  0.00000000  0.00000000  1
  Pb  Pb3  1  0.29788700  0.73422100  0.29788700  1
  Pb  Pb4  1  0.73422100  0.29788700  0.29788700  1
  Pb  Pb5  1  0.29788700  0.29788700  0.73422100  1
  Pb  Pb6  1  0.50000000  0.50000000  0.00000000  1
  Pb  Pb7  1  0.50000000  0.00000000  0.50000000  1
  Pb  Pb8  1  0.00000000  0.50000000  0.50000000  1
  Pb  Pb9  1  0.70211300  0.26577900  0.70211300  1
  Pb  Pb10  1  0.70211300  0.70211300  0.26577900  1
  Pb  Pb11  1  0.26577900  0.70211300  0.70211300  1
