# generated using pymatgen
data_VF5
_symmetry_space_group_name_H-M   'P 1'
_cell_length_a   5.52590800
_cell_length_b   7.74854600
_cell_length_c   17.40411800
_cell_angle_alpha   90.00000000
_cell_angle_beta   90.00000000
_cell_angle_gamma   90.00000000
_symmetry_Int_Tables_number   1
_chemical_formula_structural   VF5
_chemical_formula_sum   'V8 F40'
_cell_volume   745.20521404
_cell_formula_units_Z   8
loop_
 _symmetry_equiv_pos_site_id
 _symmetry_equiv_pos_as_xyz
  1  'x, y, z'
loop_
 _atom_site_type_symbol
 _atom_site_label
 _atom_site_symmetry_multiplicity
 _atom_site_fract_x
 _atom_site_fract_y
 _atom_site_fract_z
 _atom_site_occupancy
  V  V0  1  0.75000000  0.45346900  0.85919200  1
  V  V1  1  0.25000000  0.54653100  0.14080800  1
  V  V2  1  0.75000000  0.95346900  0.64080800  1
  V  V3  1  0.25000000  0.04653100  0.35919200  1
  V  V4  1  0.25000000  0.10898400  0.88108700  1
  V  V5  1  0.75000000  0.89101600  0.11891300  1
  V  V6  1  0.25000000  0.60898400  0.61891300  1
  V  V7  1  0.75000000  0.39101600  0.38108700  1
  F  F8  1  0.01743800  0.39835800  0.12648300  1
  F  F9  1  0.51743800  0.60164200  0.87351700  1
  F  F10  1  0.48256200  0.89835800  0.37351700  1
  F  F11  1  0.98256200  0.10164200  0.62648300  1
  F  F12  1  0.98256200  0.60164200  0.87351700  1
  F  F13  1  0.48256200  0.39835800  0.12648300  1
  F  F14  1  0.51743800  0.10164200  0.62648300  1
  F  F15  1  0.01743800  0.89835800  0.37351700  1
  F  F16  1  0.75000000  0.25132400  0.46147900  1
  F  F17  1  0.25000000  0.74867600  0.53852100  1
  F  F18  1  0.75000000  0.75132400  0.03852100  1
  F  F19  1  0.25000000  0.24867600  0.96147900  1
  F  F20  1  0.75000000  0.46831000  0.28577200  1
  F  F21  1  0.25000000  0.53169000  0.71422800  1
  F  F22  1  0.75000000  0.96831000  0.21422800  1
  F  F23  1  0.25000000  0.03169000  0.78577200  1
  F  F24  1  0.98257500  0.52404100  0.41386600  1
  F  F25  1  0.48257500  0.47595900  0.58613400  1
  F  F26  1  0.51742500  0.02404100  0.08613400  1
  F  F27  1  0.01742500  0.97595900  0.91386600  1
  F  F28  1  0.01742500  0.47595900  0.58613400  1
  F  F29  1  0.51742500  0.52404100  0.41386600  1
  F  F30  1  0.48257500  0.97595900  0.91386600  1
  F  F31  1  0.98257500  0.02404100  0.08613400  1
  F  F32  1  0.99965800  0.22891100  0.34018100  1
  F  F33  1  0.49965800  0.77108900  0.65981900  1
  F  F34  1  0.50034200  0.72891100  0.15981900  1
  F  F35  1  0.00034200  0.27108900  0.84018100  1
  F  F36  1  0.00034200  0.77108900  0.65981900  1
  F  F37  1  0.50034200  0.22891100  0.34018100  1
  F  F38  1  0.49965800  0.27108900  0.84018100  1
  F  F39  1  0.99965800  0.72891100  0.15981900  1
  F  F40  1  0.25000000  0.13037000  0.45362400  1
  F  F41  1  0.75000000  0.86963000  0.54637600  1
  F  F42  1  0.25000000  0.63037000  0.04637600  1
  F  F43  1  0.75000000  0.36963000  0.95362400  1
  F  F44  1  0.25000000  0.03586100  0.25792000  1
  F  F45  1  0.75000000  0.96413900  0.74208000  1
  F  F46  1  0.25000000  0.53586100  0.24208000  1
  F  F47  1  0.75000000  0.46413900  0.75792000  1
