# generated using pymatgen
data_Sr5(AuO4)2
_symmetry_space_group_name_H-M   'P 1'
_cell_length_a   6.80998457
_cell_length_b   6.80998457
_cell_length_c   6.80998457
_cell_angle_alpha   103.63000900
_cell_angle_beta   103.63000900
_cell_angle_gamma   121.91750567
_symmetry_Int_Tables_number   1
_chemical_formula_structural   Sr5(AuO4)2
_chemical_formula_sum   'Sr5 Au2 O8'
_cell_volume   234.36609171
_cell_formula_units_Z   1
loop_
 _symmetry_equiv_pos_site_id
 _symmetry_equiv_pos_as_xyz
  1  'x, y, z'
loop_
 _atom_site_type_symbol
 _atom_site_label
 _atom_site_symmetry_multiplicity
 _atom_site_fract_x
 _atom_site_fract_y
 _atom_site_fract_z
 _atom_site_occupancy
  Sr  Sr0  1  0.27858400  0.27858400  0.55716800  1
  Sr  Sr1  1  0.72141600  0.72141600  0.44283200  1
  Sr  Sr2  1  0.72141600  0.27858400  0.00000000  1
  Sr  Sr3  1  0.27858400  0.72141600  0.00000000  1
  Sr  Sr4  1  0.00000000  0.00000000  0.00000000  1
  Au  Au5  1  0.25000000  0.75000000  0.50000000  1
  Au  Au6  1  0.75000000  0.25000000  0.50000000  1
  O  O7  1  0.50501700  0.76044800  0.74457000  1
  O  O8  1  0.01587800  0.76044800  0.25543000  1
  O  O9  1  0.23955200  0.49498300  0.25543000  1
  O  O10  1  0.23955200  0.98412200  0.74457000  1
  O  O11  1  0.76044800  0.50501700  0.74457000  1
  O  O12  1  0.76044800  0.01587800  0.25543000  1
  O  O13  1  0.49498300  0.23955200  0.25543000  1
  O  O14  1  0.98412200  0.23955200  0.74457000  1
