# generated using pymatgen
data_Hg3As2F12
_symmetry_space_group_name_H-M   'P 1'
_cell_length_a   8.78142100
_cell_length_b   6.11801200
_cell_length_c   11.56345330
_cell_angle_alpha   87.65673350
_cell_angle_beta   90.00000000
_cell_angle_gamma   90.00000000
_symmetry_Int_Tables_number   1
_chemical_formula_structural   Hg3As2F12
_chemical_formula_sum   'Hg6 As4 F24'
_cell_volume   620.72518588
_cell_formula_units_Z   2
loop_
 _symmetry_equiv_pos_site_id
 _symmetry_equiv_pos_as_xyz
  1  'x, y, z'
loop_
 _atom_site_type_symbol
 _atom_site_label
 _atom_site_symmetry_multiplicity
 _atom_site_fract_x
 _atom_site_fract_y
 _atom_site_fract_z
 _atom_site_occupancy
  Hg  Hg0  1  0.73529100  0.76112100  0.57025600  1
  Hg  Hg1  1  0.23529100  0.23887900  0.92974400  1
  Hg  Hg2  1  0.26470900  0.23887900  0.42974400  1
  Hg  Hg3  1  0.76470900  0.76112100  0.07025600  1
  Hg  Hg4  1  0.50000000  0.00000000  0.50000000  1
  Hg  Hg5  1  0.00000000  0.00000000  0.00000000  1
  As  As6  1  0.14149800  0.70051200  0.67224700  1
  As  As7  1  0.64149800  0.29948800  0.82775300  1
  As  As8  1  0.85850200  0.29948800  0.32775300  1
  As  As9  1  0.35850200  0.70051200  0.17224700  1
  F  F10  1  0.96755200  0.57534500  0.62116200  1
  F  F11  1  0.46755200  0.42465500  0.87883800  1
  F  F12  1  0.03244800  0.42465500  0.37883800  1
  F  F13  1  0.53244800  0.57534500  0.12116200  1
  F  F14  1  0.21368200  0.43315800  0.70170400  1
  F  F15  1  0.71368200  0.56684200  0.79829600  1
  F  F16  1  0.78631800  0.56684200  0.29829600  1
  F  F17  1  0.28631800  0.43315800  0.20170400  1
  F  F18  1  0.06347600  0.69869600  0.81384700  1
  F  F19  1  0.56347600  0.30130400  0.68615300  1
  F  F20  1  0.19009400  0.82412800  0.22032900  1
  F  F21  1  0.69009400  0.17587200  0.27967100  1
  F  F22  1  0.80990600  0.17587200  0.77967100  1
  F  F23  1  0.30990600  0.82412800  0.72032900  1
  F  F24  1  0.28211200  0.69115100  0.02999500  1
  F  F25  1  0.78211200  0.30884900  0.47000500  1
  F  F26  1  0.71788800  0.30884900  0.97000500  1
  F  F27  1  0.21788800  0.69115100  0.52999500  1
  F  F28  1  0.44103900  0.95843200  0.13840800  1
  F  F29  1  0.94103900  0.04156800  0.36159200  1
  F  F30  1  0.55896100  0.04156800  0.86159200  1
  F  F31  1  0.05896100  0.95843200  0.63840800  1
  F  F32  1  0.43652400  0.69869600  0.31384700  1
  F  F33  1  0.93652400  0.30130400  0.18615300  1
