# generated using pymatgen
data_V3(Bi3O8)2
_symmetry_space_group_name_H-M   'P 1'
_cell_length_a   5.58064000
_cell_length_b   15.23604900
_cell_length_c   17.47726300
_cell_angle_alpha   90.00000000
_cell_angle_beta   90.00000000
_cell_angle_gamma   90.00000000
_symmetry_Int_Tables_number   1
_chemical_formula_structural   V3(Bi3O8)2
_chemical_formula_sum   'V12 Bi24 O64'
_cell_volume   1486.03757187
_cell_formula_units_Z   4
loop_
 _symmetry_equiv_pos_site_id
 _symmetry_equiv_pos_as_xyz
  1  'x, y, z'
loop_
 _atom_site_type_symbol
 _atom_site_label
 _atom_site_symmetry_multiplicity
 _atom_site_fract_x
 _atom_site_fract_y
 _atom_site_fract_z
 _atom_site_occupancy
  V  V0  1  0.75292200  0.96702600  0.25000000  1
  V  V1  1  0.25292200  0.53297400  0.25000000  1
  V  V2  1  0.74707800  0.46702600  0.75000000  1
  V  V3  1  0.24707800  0.03297400  0.75000000  1
  V  V4  1  0.73332900  0.51679300  0.38751300  1
  V  V5  1  0.23332900  0.98320700  0.11248700  1
  V  V6  1  0.76667100  0.01679300  0.61248700  1
  V  V7  1  0.26667100  0.48320700  0.88751300  1
  V  V8  1  0.26667100  0.48320700  0.61248700  1
  V  V9  1  0.76667100  0.01679300  0.88751300  1
  V  V10  1  0.23332900  0.98320700  0.38751300  1
  V  V11  1  0.73332900  0.51679300  0.11248700  1
  Bi  Bi12  1  0.79392200  0.68510600  0.25000000  1
  Bi  Bi13  1  0.29392200  0.81489400  0.25000000  1
  Bi  Bi14  1  0.70607800  0.18510600  0.75000000  1
  Bi  Bi15  1  0.20607800  0.31489400  0.75000000  1
  Bi  Bi16  1  0.73324700  0.32890600  0.25000000  1
  Bi  Bi17  1  0.23324700  0.17109400  0.25000000  1
  Bi  Bi18  1  0.76675300  0.82890600  0.75000000  1
  Bi  Bi19  1  0.26675300  0.67109400  0.75000000  1
  Bi  Bi20  1  0.77920700  0.16550700  0.41056700  1
  Bi  Bi21  1  0.27920700  0.33449300  0.08943300  1
  Bi  Bi22  1  0.72079300  0.66550700  0.58943300  1
  Bi  Bi23  1  0.22079300  0.83449300  0.91056700  1
  Bi  Bi24  1  0.22079300  0.83449300  0.58943300  1
  Bi  Bi25  1  0.72079300  0.66550700  0.91056700  1
  Bi  Bi26  1  0.27920700  0.33449300  0.41056700  1
  Bi  Bi27  1  0.77920700  0.16550700  0.08943300  1
  Bi  Bi28  1  0.71123800  0.82985600  0.42912000  1
  Bi  Bi29  1  0.21123800  0.67014400  0.07088000  1
  Bi  Bi30  1  0.78876200  0.32985600  0.57088000  1
  Bi  Bi31  1  0.28876200  0.17014400  0.92912000  1
  Bi  Bi32  1  0.28876200  0.17014400  0.57088000  1
  Bi  Bi33  1  0.78876200  0.32985600  0.92912000  1
  Bi  Bi34  1  0.21123800  0.67014400  0.42912000  1
  Bi  Bi35  1  0.71123800  0.82985600  0.07088000  1
  O  O36  1  0.99509800  0.75193100  0.98477700  1
  O  O37  1  0.49509800  0.74806900  0.51522300  1
  O  O38  1  0.50490200  0.25193100  0.01522300  1
  O  O39  1  0.00490200  0.24806900  0.48477700  1
  O  O40  1  0.00490200  0.24806900  0.01522300  1
  O  O41  1  0.50490200  0.25193100  0.48477700  1
  O  O42  1  0.49509800  0.74806900  0.98477700  1
  O  O43  1  0.99509800  0.75193100  0.51522300  1
  O  O44  1  0.91401400  0.73185700  0.36677400  1
  O  O45  1  0.41401400  0.76814300  0.13322600  1
  O  O46  1  0.58598600  0.23185700  0.63322600  1
  O  O47  1  0.08598600  0.26814300  0.86677400  1
  O  O48  1  0.08598600  0.26814300  0.63322600  1
  O  O49  1  0.58598600  0.23185700  0.86677400  1
  O  O50  1  0.41401400  0.76814300  0.36677400  1
  O  O51  1  0.91401400  0.73185700  0.13322600  1
  O  O52  1  0.99636700  0.25215500  0.32673900  1
  O  O53  1  0.49636700  0.24784500  0.17326100  1
  O  O54  1  0.50363300  0.75215500  0.67326100  1
  O  O55  1  0.00363300  0.74784500  0.82673900  1
  O  O56  1  0.00363300  0.74784500  0.67326100  1
  O  O57  1  0.50363300  0.75215500  0.82673900  1
  O  O58  1  0.49636700  0.24784500  0.32673900  1
  O  O59  1  0.99636700  0.25215500  0.17326100  1
  O  O60  1  0.99202000  0.93901300  0.33475700  1
  O  O61  1  0.49202000  0.56098700  0.16524300  1
  O  O62  1  0.50798000  0.43901300  0.66524300  1
  O  O63  1  0.00798000  0.06098700  0.83475700  1
  O  O64  1  0.00798000  0.06098700  0.66524300  1
  O  O65  1  0.50798000  0.43901300  0.83475700  1
  O  O66  1  0.49202000  0.56098700  0.33475700  1
  O  O67  1  0.99202000  0.93901300  0.16524300  1
  O  O68  1  0.99535700  0.53294700  0.33301900  1
  O  O69  1  0.49535700  0.96705300  0.16698100  1
  O  O70  1  0.50464300  0.03294700  0.66698100  1
  O  O71  1  0.00464300  0.46705300  0.83301900  1
  O  O72  1  0.00464300  0.46705300  0.66698100  1
  O  O73  1  0.50464300  0.03294700  0.83301900  1
  O  O74  1  0.49535700  0.96705300  0.33301900  1
  O  O75  1  0.99535700  0.53294700  0.16698100  1
  O  O76  1  0.68194000  0.40517200  0.39993400  1
  O  O77  1  0.18194000  0.09482800  0.10006600  1
  O  O78  1  0.81806000  0.90517200  0.60006600  1
  O  O79  1  0.31806000  0.59482800  0.89993400  1
  O  O80  1  0.31806000  0.59482800  0.60006600  1
  O  O81  1  0.81806000  0.90517200  0.89993400  1
  O  O82  1  0.18194000  0.09482800  0.39993400  1
  O  O83  1  0.68194000  0.40517200  0.10006600  1
  O  O84  1  0.76073800  0.57231800  0.47278700  1
  O  O85  1  0.26073800  0.92768200  0.02721300  1
  O  O86  1  0.73926200  0.07231800  0.52721300  1
  O  O87  1  0.23926200  0.42768200  0.97278700  1
  O  O88  1  0.23926200  0.42768200  0.52721300  1
  O  O89  1  0.73926200  0.07231800  0.97278700  1
  O  O90  1  0.26073800  0.92768200  0.47278700  1
  O  O91  1  0.76073800  0.57231800  0.02721300  1
  O  O92  1  0.69029500  0.83242600  0.25000000  1
  O  O93  1  0.19029500  0.66757400  0.25000000  1
  O  O94  1  0.80970500  0.33242600  0.75000000  1
  O  O95  1  0.30970500  0.16757400  0.75000000  1
  O  O96  1  0.80397400  0.07810900  0.25000000  1
  O  O97  1  0.30397400  0.42189100  0.25000000  1
  O  O98  1  0.69602600  0.57810900  0.75000000  1
  O  O99  1  0.19602600  0.92189100  0.75000000  1
