# generated using pymatgen
data_UI3
_symmetry_space_group_name_H-M   'P 1'
_cell_length_a   8.02369686
_cell_length_b   8.02369686
_cell_length_c   10.01992900
_cell_angle_alpha   90.00000000
_cell_angle_beta   90.00000000
_cell_angle_gamma   149.54275937
_symmetry_Int_Tables_number   1
_chemical_formula_structural   UI3
_chemical_formula_sum   'U2 I6'
_cell_volume   326.98802139
_cell_formula_units_Z   2
loop_
 _symmetry_equiv_pos_site_id
 _symmetry_equiv_pos_as_xyz
  1  'x, y, z'
loop_
 _atom_site_type_symbol
 _atom_site_label
 _atom_site_symmetry_multiplicity
 _atom_site_fract_x
 _atom_site_fract_y
 _atom_site_fract_z
 _atom_site_occupancy
  U  U0  1  0.26165700  0.73834300  0.25000000  1
  U  U1  1  0.73834300  0.26165700  0.75000000  1
  I  I2  1  0.65464500  0.34535500  0.43247200  1
  I  I3  1  0.34535500  0.65464500  0.56752800  1
  I  I4  1  0.09011800  0.90988200  0.75000000  1
  I  I5  1  0.90988200  0.09011800  0.25000000  1
  I  I6  1  0.65464500  0.34535500  0.06752800  1
  I  I7  1  0.34535500  0.65464500  0.93247200  1
