# generated using pymatgen
data_Li3AsS3
_symmetry_space_group_name_H-M   'P 1'
_cell_length_a   6.69607800
_cell_length_b   8.14443000
_cell_length_c   9.90269600
_cell_angle_alpha   90.00000000
_cell_angle_beta   90.00000000
_cell_angle_gamma   90.00000000
_symmetry_Int_Tables_number   1
_chemical_formula_structural   Li3AsS3
_chemical_formula_sum   'Li12 As4 S12'
_cell_volume   540.05083995
_cell_formula_units_Z   4
loop_
 _symmetry_equiv_pos_site_id
 _symmetry_equiv_pos_as_xyz
  1  'x, y, z'
loop_
 _atom_site_type_symbol
 _atom_site_label
 _atom_site_symmetry_multiplicity
 _atom_site_fract_x
 _atom_site_fract_y
 _atom_site_fract_z
 _atom_site_occupancy
  Li  Li0  1  0.11605000  0.75217200  0.11154200  1
  Li  Li1  1  0.88395000  0.24782800  0.61154200  1
  Li  Li2  1  0.38395000  0.25217200  0.11154200  1
  Li  Li3  1  0.61605000  0.74782800  0.61154200  1
  Li  Li4  1  0.35335500  0.07867400  0.81005000  1
  Li  Li5  1  0.64664500  0.92132600  0.31005000  1
  Li  Li6  1  0.44876900  0.56752600  0.27848200  1
  Li  Li7  1  0.55123100  0.43247400  0.77848200  1
  Li  Li8  1  0.05123100  0.06752600  0.27848200  1
  Li  Li9  1  0.94876900  0.93247400  0.77848200  1
  Li  Li10  1  0.14664500  0.57867400  0.81005000  1
  Li  Li11  1  0.85335500  0.42132600  0.31005000  1
  As  As12  1  0.09706500  0.75509700  0.49915700  1
  As  As13  1  0.90293500  0.24490300  0.99915700  1
  As  As14  1  0.40293500  0.25509700  0.49915700  1
  As  As15  1  0.59706500  0.74490300  0.99915700  1
  S  S16  1  0.79138900  0.65924500  0.82427300  1
  S  S17  1  0.20861100  0.34075500  0.32427300  1
  S  S18  1  0.70861100  0.15924500  0.82427300  1
  S  S19  1  0.29138900  0.84075500  0.32427300  1
  S  S20  1  0.22014000  0.31583700  0.68695600  1
  S  S21  1  0.77986000  0.68416300  0.18695600  1
  S  S22  1  0.35782800  0.54301900  0.01023900  1
  S  S23  1  0.64217200  0.45698100  0.51023900  1
  S  S24  1  0.14217200  0.04301900  0.01023900  1
  S  S25  1  0.85782800  0.95698100  0.51023900  1
  S  S26  1  0.27986000  0.81583700  0.68695600  1
  S  S27  1  0.72014000  0.18416300  0.18695600  1
