# generated using pymatgen
data_Yb2Sn5Pt3
_symmetry_space_group_name_H-M   'P 1'
_cell_length_a   4.49334000
_cell_length_b   7.43751400
_cell_length_c   26.74316100
_cell_angle_alpha   90.00000000
_cell_angle_beta   90.00000000
_cell_angle_gamma   90.00000000
_symmetry_Int_Tables_number   1
_chemical_formula_structural   Yb2Sn5Pt3
_chemical_formula_sum   'Yb8 Sn20 Pt12'
_cell_volume   893.73716299
_cell_formula_units_Z   4
loop_
 _symmetry_equiv_pos_site_id
 _symmetry_equiv_pos_as_xyz
  1  'x, y, z'
loop_
 _atom_site_type_symbol
 _atom_site_label
 _atom_site_symmetry_multiplicity
 _atom_site_fract_x
 _atom_site_fract_y
 _atom_site_fract_z
 _atom_site_occupancy
  Yb  Yb0  1  0.75000000  0.25139400  0.92294200  1
  Yb  Yb1  1  0.75000000  0.28298900  0.22705200  1
  Yb  Yb2  1  0.25000000  0.21701100  0.72705200  1
  Yb  Yb3  1  0.75000000  0.78298900  0.27294800  1
  Yb  Yb4  1  0.75000000  0.75139400  0.57705800  1
  Yb  Yb5  1  0.25000000  0.74860600  0.07705800  1
  Yb  Yb6  1  0.25000000  0.71701100  0.77294800  1
  Yb  Yb7  1  0.25000000  0.24860600  0.42294200  1
  Sn  Sn8  1  0.75000000  0.21538100  0.63112000  1
  Sn  Sn9  1  0.75000000  0.87967700  0.70174100  1
  Sn  Sn10  1  0.75000000  0.46165200  0.04343100  1
  Sn  Sn11  1  0.25000000  0.59388500  0.65313600  1
  Sn  Sn12  1  0.75000000  0.90611500  0.15313600  1
  Sn  Sn13  1  0.25000000  0.03834800  0.54343100  1
  Sn  Sn14  1  0.25000000  0.78461900  0.36888000  1
  Sn  Sn15  1  0.25000000  0.46471200  0.54348000  1
  Sn  Sn16  1  0.25000000  0.53834800  0.95656900  1
  Sn  Sn17  1  0.25000000  0.28461900  0.13112000  1
  Sn  Sn18  1  0.25000000  0.96471200  0.95652000  1
  Sn  Sn19  1  0.25000000  0.62032300  0.20174100  1
  Sn  Sn20  1  0.75000000  0.37967700  0.79825900  1
  Sn  Sn21  1  0.25000000  0.12032300  0.29825900  1
  Sn  Sn22  1  0.75000000  0.03528800  0.04348000  1
  Sn  Sn23  1  0.75000000  0.71538100  0.86888000  1
  Sn  Sn24  1  0.75000000  0.53528800  0.45652000  1
  Sn  Sn25  1  0.75000000  0.96165200  0.45656900  1
  Sn  Sn26  1  0.75000000  0.40611500  0.34686400  1
  Sn  Sn27  1  0.25000000  0.09388500  0.84686400  1
  Pt  Pt28  1  0.25000000  0.00072900  0.20125100  1
  Pt  Pt29  1  0.25000000  0.96458900  0.64341300  1
  Pt  Pt30  1  0.75000000  0.49927100  0.70125100  1
  Pt  Pt31  1  0.75000000  0.03541100  0.35658700  1
  Pt  Pt32  1  0.75000000  0.25730300  0.52778100  1
  Pt  Pt33  1  0.75000000  0.75730300  0.97221900  1
  Pt  Pt34  1  0.75000000  0.99927100  0.79874900  1
  Pt  Pt35  1  0.25000000  0.24269700  0.02778100  1
  Pt  Pt36  1  0.75000000  0.53541100  0.14341300  1
  Pt  Pt37  1  0.25000000  0.46458900  0.85658700  1
  Pt  Pt38  1  0.25000000  0.74269700  0.47221900  1
  Pt  Pt39  1  0.25000000  0.50072900  0.29874900  1
