# generated using pymatgen
data_UGeIr
_symmetry_space_group_name_H-M   'P 1'
_cell_length_a   4.36750000
_cell_length_b   6.67557200
_cell_length_c   7.71541100
_cell_angle_alpha   90.00000000
_cell_angle_beta   90.00000000
_cell_angle_gamma   90.00000000
_symmetry_Int_Tables_number   1
_chemical_formula_structural   UGeIr
_chemical_formula_sum   'U4 Ge4 Ir4'
_cell_volume   224.94713381
_cell_formula_units_Z   4
loop_
 _symmetry_equiv_pos_site_id
 _symmetry_equiv_pos_as_xyz
  1  'x, y, z'
loop_
 _atom_site_type_symbol
 _atom_site_label
 _atom_site_symmetry_multiplicity
 _atom_site_fract_x
 _atom_site_fract_y
 _atom_site_fract_z
 _atom_site_occupancy
  U  U0  1  0.25000000  0.49181900  0.20320900  1
  U  U1  1  0.75000000  0.50818100  0.79679100  1
  U  U2  1  0.25000000  0.99181900  0.29679100  1
  U  U3  1  0.75000000  0.00818100  0.70320900  1
  Ge  Ge4  1  0.25000000  0.81936100  0.91558800  1
  Ge  Ge5  1  0.75000000  0.18063900  0.08441200  1
  Ge  Ge6  1  0.25000000  0.31936100  0.58441200  1
  Ge  Ge7  1  0.75000000  0.68063900  0.41558800  1
  Ir  Ir8  1  0.75000000  0.77128700  0.08592700  1
  Ir  Ir9  1  0.25000000  0.22871300  0.91407300  1
  Ir  Ir10  1  0.75000000  0.27128700  0.41407300  1
  Ir  Ir11  1  0.25000000  0.72871300  0.58592700  1
