# generated using pymatgen
data_CaIn4Ir
_symmetry_space_group_name_H-M   'P 1'
_cell_length_a   4.29695500
_cell_length_b   7.59448500
_cell_length_c   8.79013400
_cell_angle_alpha   90.00000000
_cell_angle_beta   90.00000000
_cell_angle_gamma   90.00000000
_symmetry_Int_Tables_number   1
_chemical_formula_structural   CaIn4Ir
_chemical_formula_sum   'Ca2 In8 Ir2'
_cell_volume   286.84985182
_cell_formula_units_Z   2
loop_
 _symmetry_equiv_pos_site_id
 _symmetry_equiv_pos_as_xyz
  1  'x, y, z'
loop_
 _atom_site_type_symbol
 _atom_site_label
 _atom_site_symmetry_multiplicity
 _atom_site_fract_x
 _atom_site_fract_y
 _atom_site_fract_z
 _atom_site_occupancy
  Ca  Ca0  1  0.00000000  0.40178200  0.25000000  1
  Ca  Ca1  1  0.00000000  0.59821800  0.75000000  1
  In  In2  1  0.00000000  0.00000000  0.00000000  1
  In  In3  1  0.50000000  0.31513400  0.56513000  1
  In  In4  1  0.50000000  0.06731300  0.25000000  1
  In  In5  1  0.00000000  0.00000000  0.50000000  1
  In  In6  1  0.50000000  0.93268700  0.75000000  1
  In  In7  1  0.50000000  0.31513400  0.93487000  1
  In  In8  1  0.50000000  0.68486600  0.06513000  1
  In  In9  1  0.50000000  0.68486600  0.43487000  1
  Ir  Ir10  1  0.00000000  0.80481300  0.25000000  1
  Ir  Ir11  1  0.00000000  0.19518700  0.75000000  1
