# generated using pymatgen
data_La2Ge2O7
_symmetry_space_group_name_H-M   'P 1'
_cell_length_a   7.08387600
_cell_length_b   7.13138307
_cell_length_c   12.91356133
_cell_angle_alpha   94.09990881
_cell_angle_beta   90.38095681
_cell_angle_gamma   91.01095410
_symmetry_Int_Tables_number   1
_chemical_formula_structural   La2Ge2O7
_chemical_formula_sum   'La8 Ge8 O28'
_cell_volume   650.57391633
_cell_formula_units_Z   4
loop_
 _symmetry_equiv_pos_site_id
 _symmetry_equiv_pos_as_xyz
  1  'x, y, z'
loop_
 _atom_site_type_symbol
 _atom_site_label
 _atom_site_symmetry_multiplicity
 _atom_site_fract_x
 _atom_site_fract_y
 _atom_site_fract_z
 _atom_site_occupancy
  La  La0  1  0.33360600  0.82875400  0.10679600  1
  La  La1  1  0.66639400  0.17124600  0.89320400  1
  La  La2  1  0.63356400  0.76188300  0.37139300  1
  La  La3  1  0.36643600  0.23811700  0.62860700  1
  La  La4  1  0.11848500  0.08645400  0.36020400  1
  La  La5  1  0.88151500  0.91354600  0.63979600  1
  La  La6  1  0.05121200  0.33169700  0.11666500  1
  La  La7  1  0.94878800  0.66830300  0.88333500  1
  Ge  Ge8  1  0.85286900  0.37824700  0.61509800  1
  Ge  Ge9  1  0.14713100  0.62175300  0.38490200  1
  Ge  Ge10  1  0.62416300  0.26415700  0.40272000  1
  Ge  Ge11  1  0.37583700  0.73584300  0.59728000  1
  Ge  Ge12  1  0.51052100  0.32699000  0.17218100  1
  Ge  Ge13  1  0.48947900  0.67301000  0.82781900  1
  Ge  Ge14  1  0.84409300  0.85185200  0.11723500  1
  Ge  Ge15  1  0.15590700  0.14814800  0.88276500  1
  O  O16  1  0.00506400  0.01381600  0.18319700  1
  O  O17  1  0.99493600  0.98618400  0.81680300  1
  O  O18  1  0.00773600  0.66813600  0.07871000  1
  O  O19  1  0.99226400  0.33186400  0.92129000  1
  O  O20  1  0.65257500  0.78421000  0.19207400  1
  O  O21  1  0.34742500  0.21579000  0.80792600  1
  O  O22  1  0.75106300  0.90307700  0.99557800  1
  O  O23  1  0.24893700  0.09692300  0.00442200  1
  O  O24  1  0.92657900  0.58664900  0.68467800  1
  O  O25  1  0.07342100  0.41335100  0.31532200  1
  O  O26  1  0.03537600  0.22729100  0.56856200  1
  O  O27  1  0.96462400  0.77270900  0.43143800  1
  O  O28  1  0.70776900  0.22011100  0.68319500  1
  O  O29  1  0.29223100  0.77988900  0.31680500  1
  O  O30  1  0.70200100  0.43397400  0.50610100  1
  O  O31  1  0.29799900  0.56602600  0.49389900  1
  O  O32  1  0.64655900  0.50884500  0.87377900  1
  O  O33  1  0.35344100  0.49115500  0.12622100  1
  O  O34  1  0.62824300  0.86467200  0.78945200  1
  O  O35  1  0.37175700  0.13532800  0.21054800  1
  O  O36  1  0.29842200  0.71750500  0.91084800  1
  O  O37  1  0.70157800  0.28249500  0.08915200  1
  O  O38  1  0.39514800  0.57739300  0.69883700  1
  O  O39  1  0.60485200  0.42260700  0.30116300  1
  O  O40  1  0.58737000  0.83541600  0.55433600  1
  O  O41  1  0.41263000  0.16458400  0.44566400  1
  O  O42  1  0.22322500  0.92051200  0.62152600  1
  O  O43  1  0.77677500  0.07948800  0.37847400  1
