# generated using pymatgen
data_Zr6Ag7F31
_symmetry_space_group_name_H-M   'P 1'
_cell_length_a   8.85317551
_cell_length_b   8.85317551
_cell_length_c   8.85317478
_cell_angle_alpha   106.74587704
_cell_angle_beta   106.74587704
_cell_angle_gamma   106.74587421
_symmetry_Int_Tables_number   1
_chemical_formula_structural   Zr6Ag7F31
_chemical_formula_sum   'Zr6 Ag7 F31'
_cell_volume   581.84651623
_cell_formula_units_Z   1
loop_
 _symmetry_equiv_pos_site_id
 _symmetry_equiv_pos_as_xyz
  1  'x, y, z'
loop_
 _atom_site_type_symbol
 _atom_site_label
 _atom_site_symmetry_multiplicity
 _atom_site_fract_x
 _atom_site_fract_y
 _atom_site_fract_z
 _atom_site_occupancy
  Zr  Zr0  1  0.11474600  0.03602900  0.35660300  1
  Zr  Zr1  1  0.35660300  0.11474600  0.03602900  1
  Zr  Zr2  1  0.03602900  0.35660300  0.11474600  1
  Zr  Zr3  1  0.88525400  0.96397100  0.64339700  1
  Zr  Zr4  1  0.64339700  0.88525400  0.96397100  1
  Zr  Zr5  1  0.96397100  0.64339700  0.88525400  1
  Ag  Ag6  1  0.50000000  0.50000000  0.50000000  1
  Ag  Ag7  1  0.81234700  0.28958400  0.42940700  1
  Ag  Ag8  1  0.42940700  0.81234700  0.28958400  1
  Ag  Ag9  1  0.28958400  0.42940700  0.81234700  1
  Ag  Ag10  1  0.18765300  0.71041600  0.57059300  1
  Ag  Ag11  1  0.57059300  0.18765300  0.71041600  1
  Ag  Ag12  1  0.71041600  0.57059300  0.18765300  1
  F  F13  1  0.00000000  0.00000000  0.00000000  1
  F  F14  1  0.09053400  0.25135000  0.30378100  1
  F  F15  1  0.30378100  0.09053400  0.25135000  1
  F  F16  1  0.25135000  0.30378100  0.09053400  1
  F  F17  1  0.90946600  0.74865000  0.69621900  1
  F  F18  1  0.69621900  0.90946600  0.74865000  1
  F  F19  1  0.74865000  0.69621900  0.90946600  1
  F  F20  1  0.04506300  0.78833800  0.15955200  1
  F  F21  1  0.15955200  0.04506300  0.78833800  1
  F  F22  1  0.78833800  0.15955200  0.04506300  1
  F  F23  1  0.95493700  0.21166200  0.84044800  1
  F  F24  1  0.84044800  0.95493700  0.21166200  1
  F  F25  1  0.21166200  0.84044800  0.95493700  1
  F  F26  1  0.85257000  0.45036100  0.97970500  1
  F  F27  1  0.45036100  0.97970500  0.85257000  1
  F  F28  1  0.97970500  0.85257000  0.45036100  1
  F  F29  1  0.14743000  0.54963900  0.02029500  1
  F  F30  1  0.54963900  0.02029500  0.14743000  1
  F  F31  1  0.02029500  0.14743000  0.54963900  1
  F  F32  1  0.74417400  0.44174100  0.67574800  1
  F  F33  1  0.44174100  0.67574800  0.74417400  1
  F  F34  1  0.67574800  0.74417400  0.44174100  1
  F  F35  1  0.25582600  0.55825900  0.32425200  1
  F  F36  1  0.55825900  0.32425200  0.25582600  1
  F  F37  1  0.32425200  0.25582600  0.55825900  1
  F  F38  1  0.05568000  0.52926600  0.71054000  1
  F  F39  1  0.52926600  0.71054000  0.05568000  1
  F  F40  1  0.71054000  0.05568000  0.52926600  1
  F  F41  1  0.94432000  0.47073400  0.28946000  1
  F  F42  1  0.47073400  0.28946000  0.94432000  1
  F  F43  1  0.28946000  0.94432000  0.47073400  1
