# generated using pymatgen
data_K5V3O10
_symmetry_space_group_name_H-M   'P 1'
_cell_length_a   8.32561700
_cell_length_b   8.32561700
_cell_length_c   19.15875700
_cell_angle_alpha   90.00000000
_cell_angle_beta   90.00000000
_cell_angle_gamma   90.00000000
_symmetry_Int_Tables_number   1
_chemical_formula_structural   K5V3O10
_chemical_formula_sum   'K20 V12 O40'
_cell_volume   1328.00645427
_cell_formula_units_Z   4
loop_
 _symmetry_equiv_pos_site_id
 _symmetry_equiv_pos_as_xyz
  1  'x, y, z'
loop_
 _atom_site_type_symbol
 _atom_site_label
 _atom_site_symmetry_multiplicity
 _atom_site_fract_x
 _atom_site_fract_y
 _atom_site_fract_z
 _atom_site_occupancy
  K  K0  1  0.23595100  0.23595100  0.00000000  1
  K  K1  1  0.26404900  0.73595100  0.25000000  1
  K  K2  1  0.73595100  0.26404900  0.75000000  1
  K  K3  1  0.76404900  0.76404900  0.50000000  1
  K  K4  1  0.00134100  0.97274200  0.10861400  1
  K  K5  1  0.52725800  0.50134100  0.35861400  1
  K  K6  1  0.47274200  0.49865900  0.85861400  1
  K  K7  1  0.50134100  0.52725800  0.64138600  1
  K  K8  1  0.49865900  0.47274200  0.14138600  1
  K  K9  1  0.99865900  0.02725800  0.60861400  1
  K  K10  1  0.97274200  0.00134100  0.89138600  1
  K  K11  1  0.02725800  0.99865900  0.39138600  1
  K  K12  1  0.50897300  0.02406300  0.38289100  1
  K  K13  1  0.49102700  0.97593700  0.88289100  1
  K  K14  1  0.02406300  0.50897300  0.61710900  1
  K  K15  1  0.52406300  0.99102700  0.13289100  1
  K  K16  1  0.47593700  0.00897300  0.63289100  1
  K  K17  1  0.99102700  0.52406300  0.86710900  1
  K  K18  1  0.00897300  0.47593700  0.36710900  1
  K  K19  1  0.97593700  0.49102700  0.11710900  1
  V  V20  1  0.80848900  0.19151100  0.25000000  1
  V  V21  1  0.30848900  0.30848900  0.50000000  1
  V  V22  1  0.69151100  0.69151100  0.00000000  1
  V  V23  1  0.19151100  0.80848900  0.75000000  1
  V  V24  1  0.23376700  0.22861400  0.23227000  1
  V  V25  1  0.27138600  0.73376700  0.48227000  1
  V  V26  1  0.72861400  0.26623300  0.98227000  1
  V  V27  1  0.73376700  0.27138600  0.51773000  1
  V  V28  1  0.26623300  0.72861400  0.01773000  1
  V  V29  1  0.76623300  0.77138600  0.73227000  1
  V  V30  1  0.22861400  0.23376700  0.76773000  1
  V  V31  1  0.77138600  0.76623300  0.26773000  1
  O  O32  1  0.59641900  0.68438100  0.23764900  1
  O  O33  1  0.40358100  0.31561900  0.73764900  1
  O  O34  1  0.68438100  0.59641900  0.76235100  1
  O  O35  1  0.18438100  0.90358100  0.98764900  1
  O  O36  1  0.81561900  0.09641900  0.48764900  1
  O  O37  1  0.90358100  0.18438100  0.01235100  1
  O  O38  1  0.09641900  0.81561900  0.51235100  1
  O  O39  1  0.31561900  0.40358100  0.26235100  1
  O  O40  1  0.93975400  0.66860800  0.23872300  1
  O  O41  1  0.06024600  0.33139200  0.73872300  1
  O  O42  1  0.66860800  0.93975400  0.76127700  1
  O  O43  1  0.16860800  0.56024600  0.98872300  1
  O  O44  1  0.83139200  0.43975400  0.48872300  1
  O  O45  1  0.56024600  0.16860800  0.01127700  1
  O  O46  1  0.43975400  0.83139200  0.51127700  1
  O  O47  1  0.33139200  0.06024600  0.26127700  1
  O  O48  1  0.76872200  0.76210600  0.35768500  1
  O  O49  1  0.71599400  0.25711100  0.32282000  1
  O  O50  1  0.23127800  0.23789400  0.85768500  1
  O  O51  1  0.26210600  0.73127800  0.10768500  1
  O  O52  1  0.73789400  0.26872200  0.60768500  1
  O  O53  1  0.73127800  0.26210600  0.89231500  1
  O  O54  1  0.26872200  0.73789400  0.39231500  1
  O  O55  1  0.23789400  0.23127800  0.14231500  1
  O  O56  1  0.77829700  0.97886300  0.23696500  1
  O  O57  1  0.22170300  0.02113700  0.73696500  1
  O  O58  1  0.97886300  0.77829700  0.76303500  1
  O  O59  1  0.47886300  0.72170300  0.98696500  1
  O  O60  1  0.52113700  0.27829700  0.48696500  1
  O  O61  1  0.72170300  0.47886300  0.01303500  1
  O  O62  1  0.27829700  0.52113700  0.51303500  1
  O  O63  1  0.02113700  0.22170300  0.26303500  1
  O  O64  1  0.74288900  0.28400600  0.17718000  1
  O  O65  1  0.21599400  0.24288900  0.42718000  1
  O  O66  1  0.78400600  0.75711100  0.92718000  1
  O  O67  1  0.24288900  0.21599400  0.57282000  1
  O  O68  1  0.75711100  0.78400600  0.07282000  1
  O  O69  1  0.25711100  0.71599400  0.67718000  1
  O  O70  1  0.28400600  0.74288900  0.82282000  1
  O  O71  1  0.76210600  0.76872200  0.64231500  1
