# generated using pymatgen
data_NiP3
_symmetry_space_group_name_H-M   'P 1'
_cell_length_a   6.77587975
_cell_length_b   6.77587975
_cell_length_c   6.77587975
_cell_angle_alpha   109.47122063
_cell_angle_beta   109.47122063
_cell_angle_gamma   109.47122063
_symmetry_Int_Tables_number   1
_chemical_formula_structural   NiP3
_chemical_formula_sum   'Ni4 P12'
_cell_volume   239.48327038
_cell_formula_units_Z   4
loop_
 _symmetry_equiv_pos_site_id
 _symmetry_equiv_pos_as_xyz
  1  'x, y, z'
loop_
 _atom_site_type_symbol
 _atom_site_label
 _atom_site_symmetry_multiplicity
 _atom_site_fract_x
 _atom_site_fract_y
 _atom_site_fract_z
 _atom_site_occupancy
  Ni  Ni0  1  0.00000000  0.00000000  0.50000000  1
  Ni  Ni1  1  0.00000000  0.50000000  0.00000000  1
  Ni  Ni2  1  0.50000000  0.00000000  0.00000000  1
  Ni  Ni3  1  0.50000000  0.50000000  0.50000000  1
  P  P4  1  0.85698100  0.64392500  0.50090600  1
  P  P5  1  0.85698100  0.35607500  0.21305600  1
  P  P6  1  0.14301900  0.64392500  0.78694400  1
  P  P7  1  0.35607500  0.49909400  0.14301900  1
  P  P8  1  0.14301900  0.35607500  0.49909400  1
  P  P9  1  0.64392500  0.78694400  0.14301900  1
  P  P10  1  0.21305600  0.85698100  0.35607500  1
  P  P11  1  0.64392500  0.50090600  0.85698100  1
  P  P12  1  0.78694400  0.14301900  0.64392500  1
  P  P13  1  0.35607500  0.21305600  0.85698100  1
  P  P14  1  0.50090600  0.85698100  0.64392500  1
  P  P15  1  0.49909400  0.14301900  0.35607500  1
