# generated using pymatgen
data_GeRh2
_symmetry_space_group_name_H-M   'P 1'
_cell_length_a   4.06254400
_cell_length_b   5.53218300
_cell_length_c   7.67231000
_cell_angle_alpha   90.00000000
_cell_angle_beta   90.00000000
_cell_angle_gamma   90.00000000
_symmetry_Int_Tables_number   1
_chemical_formula_structural   GeRh2
_chemical_formula_sum   'Ge4 Rh8'
_cell_volume   172.43314831
_cell_formula_units_Z   4
loop_
 _symmetry_equiv_pos_site_id
 _symmetry_equiv_pos_as_xyz
  1  'x, y, z'
loop_
 _atom_site_type_symbol
 _atom_site_label
 _atom_site_symmetry_multiplicity
 _atom_site_fract_x
 _atom_site_fract_y
 _atom_site_fract_z
 _atom_site_occupancy
  Ge  Ge0  1  0.75000000  0.78688300  0.10413700  1
  Ge  Ge1  1  0.25000000  0.21311700  0.89586300  1
  Ge  Ge2  1  0.75000000  0.28688300  0.39586300  1
  Ge  Ge3  1  0.25000000  0.71311700  0.60413700  1
  Rh  Rh4  1  0.75000000  0.47068200  0.70490000  1
  Rh  Rh5  1  0.25000000  0.52931800  0.29510000  1
  Rh  Rh6  1  0.75000000  0.97068200  0.79510000  1
  Rh  Rh7  1  0.25000000  0.02931800  0.20490000  1
  Rh  Rh8  1  0.75000000  0.33720200  0.06956800  1
  Rh  Rh9  1  0.25000000  0.66279800  0.93043200  1
  Rh  Rh10  1  0.75000000  0.83720200  0.43043200  1
  Rh  Rh11  1  0.25000000  0.16279800  0.56956800  1
