# generated using pymatgen
data_Yb(As2Rh3)2
_symmetry_space_group_name_H-M   'P 1'
_cell_length_a   7.29181969
_cell_length_b   7.29181969
_cell_length_c   3.80897400
_cell_angle_alpha   90.00000000
_cell_angle_beta   90.00000000
_cell_angle_gamma   119.99999717
_symmetry_Int_Tables_number   1
_chemical_formula_structural   Yb(As2Rh3)2
_chemical_formula_sum   'Yb1 As4 Rh6'
_cell_volume   175.39228822
_cell_formula_units_Z   1
loop_
 _symmetry_equiv_pos_site_id
 _symmetry_equiv_pos_as_xyz
  1  'x, y, z'
loop_
 _atom_site_type_symbol
 _atom_site_label
 _atom_site_symmetry_multiplicity
 _atom_site_fract_x
 _atom_site_fract_y
 _atom_site_fract_z
 _atom_site_occupancy
  Yb  Yb0  1  0.00000000  0.00000000  0.00000000  1
  As  As1  1  0.81173500  0.62346900  0.50000000  1
  As  As2  1  0.33333300  0.66666700  0.00000000  1
  As  As3  1  0.37653100  0.18826500  0.50000000  1
  As  As4  1  0.81173500  0.18826500  0.50000000  1
  Rh  Rh5  1  0.53495000  0.06990000  0.00000000  1
  Rh  Rh6  1  0.60200800  0.80100400  0.50000000  1
  Rh  Rh7  1  0.19899600  0.39799200  0.50000000  1
  Rh  Rh8  1  0.53495000  0.46505000  0.00000000  1
  Rh  Rh9  1  0.19899600  0.80100400  0.50000000  1
  Rh  Rh10  1  0.93010000  0.46505000  0.00000000  1
