# generated using pymatgen
data_CuW3Cl7
_symmetry_space_group_name_H-M   'P 1'
_cell_length_a   13.13928800
_cell_length_b   13.13928800
_cell_length_c   13.13928800
_cell_angle_alpha   90.00000000
_cell_angle_beta   90.00000000
_cell_angle_gamma   90.00000000
_symmetry_Int_Tables_number   1
_chemical_formula_structural   CuW3Cl7
_chemical_formula_sum   'Cu8 W24 Cl56'
_cell_volume   2268.37836308
_cell_formula_units_Z   8
loop_
 _symmetry_equiv_pos_site_id
 _symmetry_equiv_pos_as_xyz
  1  'x, y, z'
loop_
 _atom_site_type_symbol
 _atom_site_label
 _atom_site_symmetry_multiplicity
 _atom_site_fract_x
 _atom_site_fract_y
 _atom_site_fract_z
 _atom_site_occupancy
  Cu  Cu0  1  0.18824300  0.18824300  0.18824300  1
  Cu  Cu1  1  0.81175700  0.81175700  0.18824300  1
  Cu  Cu2  1  0.18824300  0.81175700  0.81175700  1
  Cu  Cu3  1  0.81175700  0.18824300  0.81175700  1
  Cu  Cu4  1  0.31175700  0.31175700  0.31175700  1
  Cu  Cu5  1  0.68824300  0.68824300  0.31175700  1
  Cu  Cu6  1  0.31175700  0.68824300  0.68824300  1
  Cu  Cu7  1  0.68824300  0.31175700  0.68824300  1
  W  W8  1  0.88598200  0.72504700  0.78111900  1
  W  W9  1  0.78111900  0.88598200  0.72504700  1
  W  W10  1  0.72504700  0.78111900  0.88598200  1
  W  W11  1  0.27495300  0.21888100  0.88598200  1
  W  W12  1  0.78111900  0.11401800  0.27495300  1
  W  W13  1  0.27495300  0.78111900  0.11401800  1
  W  W14  1  0.21888100  0.11401800  0.72504700  1
  W  W15  1  0.21888100  0.88598200  0.27495300  1
  W  W16  1  0.72504700  0.21888100  0.11401800  1
  W  W17  1  0.88598200  0.27495300  0.21888100  1
  W  W18  1  0.11401800  0.72504700  0.21888100  1
  W  W19  1  0.11401800  0.27495300  0.78111900  1
  W  W20  1  0.61401800  0.77495300  0.71888100  1
  W  W21  1  0.71888100  0.61401800  0.77495300  1
  W  W22  1  0.77495300  0.71888100  0.61401800  1
  W  W23  1  0.22504700  0.28111900  0.61401800  1
  W  W24  1  0.71888100  0.38598200  0.22504700  1
  W  W25  1  0.22504700  0.71888100  0.38598200  1
  W  W26  1  0.28111900  0.38598200  0.77495300  1
  W  W27  1  0.28111900  0.61401800  0.22504700  1
  W  W28  1  0.77495300  0.28111900  0.38598200  1
  W  W29  1  0.61401800  0.22504700  0.28111900  1
  W  W30  1  0.38598200  0.77495300  0.28111900  1
  W  W31  1  0.38598200  0.22504700  0.71888100  1
  Cl  Cl32  1  0.88573900  0.88573900  0.88573900  1
  Cl  Cl33  1  0.11426100  0.11426100  0.88573900  1
  Cl  Cl34  1  0.88573900  0.11426100  0.11426100  1
  Cl  Cl35  1  0.11426100  0.88573900  0.11426100  1
  Cl  Cl36  1  0.61426100  0.61426100  0.61426100  1
  Cl  Cl37  1  0.38573900  0.38573900  0.61426100  1
  Cl  Cl38  1  0.61426100  0.38573900  0.38573900  1
  Cl  Cl39  1  0.38573900  0.61426100  0.38573900  1
  Cl  Cl40  1  0.93267000  0.82503000  0.62532300  1
  Cl  Cl41  1  0.62532300  0.93267000  0.82503000  1
  Cl  Cl42  1  0.82503000  0.62532300  0.93267000  1
  Cl  Cl43  1  0.17497000  0.37467700  0.93267000  1
  Cl  Cl44  1  0.62532300  0.06733000  0.17497000  1
  Cl  Cl45  1  0.17497000  0.62532300  0.06733000  1
  Cl  Cl46  1  0.37467700  0.06733000  0.82503000  1
  Cl  Cl47  1  0.37467700  0.93267000  0.17497000  1
  Cl  Cl48  1  0.82503000  0.37467700  0.06733000  1
  Cl  Cl49  1  0.93267000  0.17497000  0.37467700  1
  Cl  Cl50  1  0.06733000  0.82503000  0.37467700  1
  Cl  Cl51  1  0.06733000  0.17497000  0.62532300  1
  Cl  Cl52  1  0.56733000  0.67497000  0.87467700  1
  Cl  Cl53  1  0.87467700  0.56733000  0.67497000  1
  Cl  Cl54  1  0.67497000  0.87467700  0.56733000  1
  Cl  Cl55  1  0.32503000  0.12532300  0.56733000  1
  Cl  Cl56  1  0.87467700  0.43267000  0.32503000  1
  Cl  Cl57  1  0.32503000  0.87467700  0.43267000  1
  Cl  Cl58  1  0.12532300  0.43267000  0.67497000  1
  Cl  Cl59  1  0.12532300  0.56733000  0.32503000  1
  Cl  Cl60  1  0.67497000  0.12532300  0.43267000  1
  Cl  Cl61  1  0.56733000  0.32503000  0.12532300  1
  Cl  Cl62  1  0.43267000  0.67497000  0.12532300  1
  Cl  Cl63  1  0.43267000  0.32503000  0.87467700  1
  Cl  Cl64  1  0.06611300  0.69126500  0.82787500  1
  Cl  Cl65  1  0.82787500  0.06611300  0.69126500  1
  Cl  Cl66  1  0.69126500  0.82787500  0.06611300  1
  Cl  Cl67  1  0.30873500  0.17212500  0.06611300  1
  Cl  Cl68  1  0.82787500  0.93388700  0.30873500  1
  Cl  Cl69  1  0.30873500  0.82787500  0.93388700  1
  Cl  Cl70  1  0.17212500  0.93388700  0.69126500  1
  Cl  Cl71  1  0.17212500  0.06611300  0.30873500  1
  Cl  Cl72  1  0.69126500  0.17212500  0.93388700  1
  Cl  Cl73  1  0.06611300  0.30873500  0.17212500  1
  Cl  Cl74  1  0.93388700  0.69126500  0.17212500  1
  Cl  Cl75  1  0.93388700  0.30873500  0.82787500  1
  Cl  Cl76  1  0.43388700  0.80873500  0.67212500  1
  Cl  Cl77  1  0.67212500  0.43388700  0.80873500  1
  Cl  Cl78  1  0.80873500  0.67212500  0.43388700  1
  Cl  Cl79  1  0.19126500  0.32787500  0.43388700  1
  Cl  Cl80  1  0.67212500  0.56611300  0.19126500  1
  Cl  Cl81  1  0.19126500  0.67212500  0.56611300  1
  Cl  Cl82  1  0.32787500  0.56611300  0.80873500  1
  Cl  Cl83  1  0.32787500  0.43388700  0.19126500  1
  Cl  Cl84  1  0.80873500  0.32787500  0.56611300  1
  Cl  Cl85  1  0.43388700  0.19126500  0.32787500  1
  Cl  Cl86  1  0.56611300  0.80873500  0.32787500  1
  Cl  Cl87  1  0.56611300  0.19126500  0.67212500  1
