# generated using pymatgen
data_K4PbO4
_symmetry_space_group_name_H-M   'P 1'
_cell_length_a   6.69375000
_cell_length_b   6.70194432
_cell_length_c   10.01340765
_cell_angle_alpha   79.74417983
_cell_angle_beta   71.53292803
_cell_angle_gamma   67.54395695
_symmetry_Int_Tables_number   1
_chemical_formula_structural   K4PbO4
_chemical_formula_sum   'K8 Pb2 O8'
_cell_volume   392.93771830
_cell_formula_units_Z   2
loop_
 _symmetry_equiv_pos_site_id
 _symmetry_equiv_pos_as_xyz
  1  'x, y, z'
loop_
 _atom_site_type_symbol
 _atom_site_label
 _atom_site_symmetry_multiplicity
 _atom_site_fract_x
 _atom_site_fract_y
 _atom_site_fract_z
 _atom_site_occupancy
  K  K0  1  0.51376900  0.77198000  0.93762700  1
  K  K1  1  0.04221900  0.27326200  0.88648600  1
  K  K2  1  0.41315200  0.75210000  0.32714600  1
  K  K3  1  0.23818300  0.25311300  0.47679700  1
  K  K4  1  0.76181700  0.74688700  0.52320300  1
  K  K5  1  0.95778100  0.72673800  0.11351400  1
  K  K6  1  0.48623100  0.22802000  0.06237300  1
  K  K7  1  0.58684800  0.24790000  0.67285400  1
  Pb  Pb8  1  0.15304900  0.77984200  0.74498100  1
  Pb  Pb9  1  0.84695100  0.22015800  0.25501900  1
  O  O10  1  0.64266000  0.02619000  0.30692500  1
  O  O11  1  0.70291800  0.47508800  0.11700900  1
  O  O12  1  0.35734000  0.97381000  0.69307500  1
  O  O13  1  0.29708200  0.52491200  0.88299100  1
  O  O14  1  0.82993400  0.97593000  0.85776800  1
  O  O15  1  0.15952700  0.62686100  0.57726400  1
  O  O16  1  0.84047300  0.37313900  0.42273600  1
  O  O17  1  0.17006600  0.02407000  0.14223200  1
