# generated using pymatgen
data_CsGeI3
_symmetry_space_group_name_H-M   'P 1'
_cell_length_a   6.09914297
_cell_length_b   6.09914297
_cell_length_c   6.09914324
_cell_angle_alpha   88.46020556
_cell_angle_beta   88.46020556
_cell_angle_gamma   88.46019643
_symmetry_Int_Tables_number   1
_chemical_formula_structural   CsGeI3
_chemical_formula_sum   'Cs1 Ge1 I3'
_cell_volume   226.64388711
_cell_formula_units_Z   1
loop_
 _symmetry_equiv_pos_site_id
 _symmetry_equiv_pos_as_xyz
  1  'x, y, z'
loop_
 _atom_site_type_symbol
 _atom_site_label
 _atom_site_symmetry_multiplicity
 _atom_site_fract_x
 _atom_site_fract_y
 _atom_site_fract_z
 _atom_site_occupancy
  Cs  Cs0  1  0.00002500  0.00002500  0.00002500  1
  Ge  Ge1  1  0.46842600  0.46842600  0.46842600  1
  I  I2  1  0.01110300  0.50422300  0.50422300  1
  I  I3  1  0.50422300  0.50422300  0.01110300  1
  I  I4  1  0.50422300  0.01110300  0.50422300  1
