# generated using pymatgen
data_BaH4O3
_symmetry_space_group_name_H-M   'P 1'
_cell_length_a   3.93837500
_cell_length_b   6.41867900
_cell_length_c   7.04331800
_cell_angle_alpha   90.00000000
_cell_angle_beta   90.00000000
_cell_angle_gamma   90.00000000
_symmetry_Int_Tables_number   1
_chemical_formula_structural   BaH4O3
_chemical_formula_sum   'Ba2 H8 O6'
_cell_volume   178.04919721
_cell_formula_units_Z   2
loop_
 _symmetry_equiv_pos_site_id
 _symmetry_equiv_pos_as_xyz
  1  'x, y, z'
loop_
 _atom_site_type_symbol
 _atom_site_label
 _atom_site_symmetry_multiplicity
 _atom_site_fract_x
 _atom_site_fract_y
 _atom_site_fract_z
 _atom_site_occupancy
  Ba  Ba0  1  0.00000000  0.64274900  0.74745000  1
  Ba  Ba1  1  0.00000000  0.35725100  0.24745000  1
  H  H2  1  0.50000000  0.30517700  0.60199000  1
  H  H3  1  0.50000000  0.69482300  0.10199000  1
  H  H4  1  0.50000000  0.98380000  0.59256200  1
  H  H5  1  0.50000000  0.01620000  0.09256200  1
  H  H6  1  0.20107100  0.12364400  0.81254900  1
  H  H7  1  0.79892900  0.87635600  0.31254900  1
  H  H8  1  0.20107100  0.87635600  0.31254900  1
  H  H9  1  0.79892900  0.12364400  0.81254900  1
  O  O10  1  0.00000000  0.20597000  0.86304100  1
  O  O11  1  0.50000000  0.56387500  0.03131600  1
  O  O12  1  0.50000000  0.96702800  0.73044300  1
  O  O13  1  0.50000000  0.03297200  0.23044300  1
  O  O14  1  0.00000000  0.79403000  0.36304100  1
  O  O15  1  0.50000000  0.43612500  0.53131600  1
