# generated using pymatgen
data_BaLi4
_symmetry_space_group_name_H-M   'P 1'
_cell_length_a   10.84385397
_cell_length_b   10.84385397
_cell_length_c   8.73791500
_cell_angle_alpha   90.00000000
_cell_angle_beta   90.00000000
_cell_angle_gamma   119.99999979
_symmetry_Int_Tables_number   1
_chemical_formula_structural   BaLi4
_chemical_formula_sum   'Ba6 Li24'
_cell_volume   889.82738835
_cell_formula_units_Z   6
loop_
 _symmetry_equiv_pos_site_id
 _symmetry_equiv_pos_as_xyz
  1  'x, y, z'
loop_
 _atom_site_type_symbol
 _atom_site_label
 _atom_site_symmetry_multiplicity
 _atom_site_fract_x
 _atom_site_fract_y
 _atom_site_fract_z
 _atom_site_occupancy
  Ba  Ba0  1  0.47165800  0.52834200  0.25000000  1
  Ba  Ba1  1  0.47165800  0.94331500  0.25000000  1
  Ba  Ba2  1  0.05668500  0.52834200  0.25000000  1
  Ba  Ba3  1  0.52834200  0.47165800  0.75000000  1
  Ba  Ba4  1  0.52834200  0.05668500  0.75000000  1
  Ba  Ba5  1  0.94331500  0.47165800  0.75000000  1
  Li  Li6  1  0.00000000  0.00000000  0.50000000  1
  Li  Li7  1  0.00000000  0.00000000  0.00000000  1
  Li  Li8  1  0.33333300  0.66666700  0.91518300  1
  Li  Li9  1  0.66666700  0.33333300  0.08481700  1
  Li  Li10  1  0.66666700  0.33333300  0.41518300  1
  Li  Li11  1  0.33333300  0.66666700  0.58481700  1
  Li  Li12  1  0.09942000  0.90058000  0.25000000  1
  Li  Li13  1  0.09942000  0.19884100  0.25000000  1
  Li  Li14  1  0.80115900  0.90058000  0.25000000  1
  Li  Li15  1  0.90058000  0.09942000  0.75000000  1
  Li  Li16  1  0.90058000  0.80115900  0.75000000  1
  Li  Li17  1  0.19884100  0.09942000  0.75000000  1
  Li  Li18  1  0.16333000  0.83667000  0.93335200  1
  Li  Li19  1  0.16333000  0.32666100  0.93335200  1
  Li  Li20  1  0.67333900  0.83667000  0.93335200  1
  Li  Li21  1  0.83667000  0.16333000  0.06664800  1
  Li  Li22  1  0.83667000  0.67333900  0.06664800  1
  Li  Li23  1  0.32666100  0.16333000  0.06664800  1
  Li  Li24  1  0.83667000  0.16333000  0.43335200  1
  Li  Li25  1  0.83667000  0.67333900  0.43335200  1
  Li  Li26  1  0.32666100  0.16333000  0.43335200  1
  Li  Li27  1  0.16333000  0.83667000  0.56664800  1
  Li  Li28  1  0.16333000  0.32666100  0.56664800  1
  Li  Li29  1  0.67333900  0.83667000  0.56664800  1
