# generated using pymatgen
data_KH3F4
_symmetry_space_group_name_H-M   'P 1'
_cell_length_a   5.97839312
_cell_length_b   5.97839312
_cell_length_c   5.97839259
_cell_angle_alpha   77.44763151
_cell_angle_beta   77.44763151
_cell_angle_gamma   77.44762069
_symmetry_Int_Tables_number   1
_chemical_formula_structural   KH3F4
_chemical_formula_sum   'K2 H6 F8'
_cell_volume   200.31158515
_cell_formula_units_Z   2
loop_
 _symmetry_equiv_pos_site_id
 _symmetry_equiv_pos_as_xyz
  1  'x, y, z'
loop_
 _atom_site_type_symbol
 _atom_site_label
 _atom_site_symmetry_multiplicity
 _atom_site_fract_x
 _atom_site_fract_y
 _atom_site_fract_z
 _atom_site_occupancy
  K  K0  1  0.00000000  0.00000000  0.00000000  1
  K  K1  1  0.50000000  0.50000000  0.50000000  1
  H  H2  1  0.25000000  0.43796700  0.06203300  1
  H  H3  1  0.06203300  0.25000000  0.43796700  1
  H  H4  1  0.93796700  0.75000000  0.56203300  1
  H  H5  1  0.56203300  0.93796700  0.75000000  1
  H  H6  1  0.43796700  0.06203300  0.25000000  1
  H  H7  1  0.75000000  0.56203300  0.93796700  1
  F  F8  1  0.07184500  0.75000000  0.42815500  1
  F  F9  1  0.57184500  0.92815500  0.25000000  1
  F  F10  1  0.92815500  0.25000000  0.57184500  1
  F  F11  1  0.25000000  0.57184500  0.92815500  1
  F  F12  1  0.25000000  0.25000000  0.25000000  1
  F  F13  1  0.75000000  0.75000000  0.75000000  1
  F  F14  1  0.75000000  0.42815500  0.07184500  1
  F  F15  1  0.42815500  0.07184500  0.75000000  1
