# generated using pymatgen
data_Na2S5
_symmetry_space_group_name_H-M   'P 1'
_cell_length_a   5.91704300
_cell_length_b   7.80636400
_cell_length_c   14.75681800
_cell_angle_alpha   90.00000000
_cell_angle_beta   90.00000000
_cell_angle_gamma   90.00000000
_symmetry_Int_Tables_number   1
_chemical_formula_structural   Na2S5
_chemical_formula_sum   'Na8 S20'
_cell_volume   681.62615151
_cell_formula_units_Z   4
loop_
 _symmetry_equiv_pos_site_id
 _symmetry_equiv_pos_as_xyz
  1  'x, y, z'
loop_
 _atom_site_type_symbol
 _atom_site_label
 _atom_site_symmetry_multiplicity
 _atom_site_fract_x
 _atom_site_fract_y
 _atom_site_fract_z
 _atom_site_occupancy
  Na  Na0  1  0.19854200  0.94654100  0.75000000  1
  Na  Na1  1  0.69854200  0.55345900  0.25000000  1
  Na  Na2  1  0.30145800  0.44654100  0.75000000  1
  Na  Na3  1  0.80145800  0.05345900  0.25000000  1
  Na  Na4  1  0.00000000  0.00000000  0.50000000  1
  Na  Na5  1  0.50000000  0.50000000  0.50000000  1
  Na  Na6  1  0.50000000  0.50000000  0.00000000  1
  Na  Na7  1  0.00000000  0.00000000  0.00000000  1
  S  S8  1  0.10765200  0.45508700  0.13518500  1
  S  S9  1  0.60765200  0.04491300  0.86481500  1
  S  S10  1  0.39234800  0.95508700  0.36481500  1
  S  S11  1  0.89234800  0.54491300  0.63518500  1
  S  S12  1  0.89234800  0.54491300  0.86481500  1
  S  S13  1  0.39234800  0.95508700  0.13518500  1
  S  S14  1  0.60765200  0.04491300  0.63518500  1
  S  S15  1  0.10765200  0.45508700  0.36481500  1
  S  S16  1  0.26625600  0.35678900  0.25000000  1
  S  S17  1  0.76625600  0.14321100  0.75000000  1
  S  S18  1  0.23374400  0.85678900  0.25000000  1
  S  S19  1  0.73374400  0.64321100  0.75000000  1
  S  S20  1  0.83781700  0.29748300  0.39713800  1
  S  S21  1  0.33781700  0.20251700  0.60286200  1
  S  S22  1  0.66218300  0.79748300  0.10286200  1
  S  S23  1  0.16218300  0.70251700  0.89713800  1
  S  S24  1  0.16218300  0.70251700  0.60286200  1
  S  S25  1  0.66218300  0.79748300  0.39713800  1
  S  S26  1  0.33781700  0.20251700  0.89713800  1
  S  S27  1  0.83781700  0.29748300  0.10286200  1
