# generated using pymatgen
data_Y3IrI3
_symmetry_space_group_name_H-M   'P 1'
_cell_length_a   4.28271300
_cell_length_b   8.91248000
_cell_length_c   12.35048098
_cell_angle_alpha   86.41761753
_cell_angle_beta   90.00000000
_cell_angle_gamma   90.00000000
_symmetry_Int_Tables_number   1
_chemical_formula_structural   Y3IrI3
_chemical_formula_sum   'Y6 Ir2 I6'
_cell_volume   470.49169815
_cell_formula_units_Z   2
loop_
 _symmetry_equiv_pos_site_id
 _symmetry_equiv_pos_as_xyz
  1  'x, y, z'
loop_
 _atom_site_type_symbol
 _atom_site_label
 _atom_site_symmetry_multiplicity
 _atom_site_fract_x
 _atom_site_fract_y
 _atom_site_fract_z
 _atom_site_occupancy
  Y  Y0  1  0.75000000  0.14147600  0.12983900  1
  Y  Y1  1  0.25000000  0.85852400  0.87016100  1
  Y  Y2  1  0.75000000  0.09652100  0.68425000  1
  Y  Y3  1  0.25000000  0.90347900  0.31575000  1
  Y  Y4  1  0.25000000  0.25017000  0.90058200  1
  Y  Y5  1  0.75000000  0.74983000  0.09941800  1
  Ir  Ir6  1  0.75000000  0.04923500  0.90744700  1
  Ir  Ir7  1  0.25000000  0.95076500  0.09255300  1
  I  I8  1  0.25000000  0.42744000  0.13295100  1
  I  I9  1  0.75000000  0.57256000  0.86704900  1
  I  I10  1  0.25000000  0.34876100  0.63876100  1
  I  I11  1  0.75000000  0.65123900  0.36123900  1
  I  I12  1  0.75000000  0.14118700  0.39411500  1
  I  I13  1  0.25000000  0.85881300  0.60588500  1
