# generated using pymatgen
data_SbAsO3
_symmetry_space_group_name_H-M   'P 1'
_cell_length_a   13.65246300
_cell_length_b   4.65862600
_cell_length_c   6.96863735
_cell_angle_alpha   53.92102797
_cell_angle_beta   90.00000000
_cell_angle_gamma   90.00000000
_symmetry_Int_Tables_number   1
_chemical_formula_structural   SbAsO3
_chemical_formula_sum   'Sb4 As4 O12'
_cell_volume   358.21092411
_cell_formula_units_Z   4
loop_
 _symmetry_equiv_pos_site_id
 _symmetry_equiv_pos_as_xyz
  1  'x, y, z'
loop_
 _atom_site_type_symbol
 _atom_site_label
 _atom_site_symmetry_multiplicity
 _atom_site_fract_x
 _atom_site_fract_y
 _atom_site_fract_z
 _atom_site_occupancy
  Sb  Sb0  1  0.35195700  0.66488300  0.33818900  1
  Sb  Sb1  1  0.85195700  0.33511700  0.16181100  1
  Sb  Sb2  1  0.64804300  0.33511700  0.66181100  1
  Sb  Sb3  1  0.14804300  0.66488300  0.83818900  1
  As  As4  1  0.09918000  0.78216800  0.25395100  1
  As  As5  1  0.59918000  0.21783200  0.24604900  1
  As  As6  1  0.90082000  0.21783200  0.74604900  1
  As  As7  1  0.40082000  0.78216800  0.75395100  1
  O  O8  1  0.35855600  0.14833600  0.45891300  1
  O  O9  1  0.85855600  0.85166400  0.04108700  1
  O  O10  1  0.64144400  0.85166400  0.54108700  1
  O  O11  1  0.14144400  0.14833600  0.95891300  1
  O  O12  1  0.09868700  0.48509600  0.16598000  1
  O  O13  1  0.59868700  0.51490400  0.33402000  1
  O  O14  1  0.90131300  0.51490400  0.83402000  1
  O  O15  1  0.40131300  0.48509600  0.66598000  1
  O  O16  1  0.21053800  0.63998400  0.42943700  1
  O  O17  1  0.71053800  0.36001600  0.07056300  1
  O  O18  1  0.78946200  0.36001600  0.57056300  1
  O  O19  1  0.28946200  0.63998400  0.92943700  1
