# generated using pymatgen
data_Cs(FeAs)2
_symmetry_space_group_name_H-M   'P 1'
_cell_length_a   8.17436576
_cell_length_b   8.17436576
_cell_length_c   8.17436576
_cell_angle_alpha   153.13135865
_cell_angle_beta   153.13135865
_cell_angle_gamma   38.36340397
_symmetry_Int_Tables_number   1
_chemical_formula_structural   Cs(FeAs)2
_chemical_formula_sum   'Cs1 Fe2 As2'
_cell_volume   111.38539933
_cell_formula_units_Z   1
loop_
 _symmetry_equiv_pos_site_id
 _symmetry_equiv_pos_as_xyz
  1  'x, y, z'
loop_
 _atom_site_type_symbol
 _atom_site_label
 _atom_site_symmetry_multiplicity
 _atom_site_fract_x
 _atom_site_fract_y
 _atom_site_fract_z
 _atom_site_occupancy
  Cs  Cs0  1  0.00000000  0.00000000  0.00000000  1
  Fe  Fe1  1  0.75000000  0.25000000  0.50000000  1
  Fe  Fe2  1  0.25000000  0.75000000  0.50000000  1
  As  As3  1  0.66125000  0.66125000  0.00000000  1
  As  As4  1  0.33875000  0.33875000  0.00000000  1
