# generated using pymatgen
data_La2O3
_symmetry_space_group_name_H-M   'P 1'
_cell_length_a   9.87429868
_cell_length_b   9.87429868
_cell_length_c   9.87429868
_cell_angle_alpha   109.47122063
_cell_angle_beta   109.47122063
_cell_angle_gamma   109.47122063
_symmetry_Int_Tables_number   1
_chemical_formula_structural   La2O3
_chemical_formula_sum   'La16 O24'
_cell_volume   741.13425756
_cell_formula_units_Z   8
loop_
 _symmetry_equiv_pos_site_id
 _symmetry_equiv_pos_as_xyz
  1  'x, y, z'
loop_
 _atom_site_type_symbol
 _atom_site_label
 _atom_site_symmetry_multiplicity
 _atom_site_fract_x
 _atom_site_fract_y
 _atom_site_fract_z
 _atom_site_occupancy
  La  La0  1  0.72095800  0.47095800  0.25000000  1
  La  La1  1  0.75000000  0.77904200  0.02904200  1
  La  La2  1  0.02904200  0.75000000  0.77904200  1
  La  La3  1  0.25000000  0.72095800  0.47095800  1
  La  La4  1  0.47095800  0.25000000  0.72095800  1
  La  La5  1  0.77904200  0.02904200  0.75000000  1
  La  La6  1  0.27904200  0.52904200  0.75000000  1
  La  La7  1  0.25000000  0.22095800  0.97095800  1
  La  La8  1  0.97095800  0.25000000  0.22095800  1
  La  La9  1  0.75000000  0.27904200  0.52904200  1
  La  La10  1  0.52904200  0.75000000  0.27904200  1
  La  La11  1  0.22095800  0.97095800  0.25000000  1
  La  La12  1  0.50000000  0.00000000  0.00000000  1
  La  La13  1  0.00000000  0.00000000  0.50000000  1
  La  La14  1  0.00000000  0.50000000  0.00000000  1
  La  La15  1  0.50000000  0.50000000  0.50000000  1
  O  O16  1  0.48946200  0.75888800  0.02668400  1
  O  O17  1  0.26779600  0.74111200  0.23057400  1
  O  O18  1  0.01053800  0.03722200  0.26942600  1
  O  O19  1  0.46277800  0.47331600  0.23220400  1
  O  O20  1  0.47331600  0.23220400  0.46277800  1
  O  O21  1  0.02668400  0.48946200  0.75888800  1
  O  O22  1  0.74111200  0.23057400  0.26779600  1
  O  O23  1  0.26942600  0.01053800  0.03722200  1
  O  O24  1  0.75888800  0.02668400  0.48946200  1
  O  O25  1  0.23057400  0.26779600  0.74111200  1
  O  O26  1  0.03722200  0.26942600  0.01053800  1
  O  O27  1  0.23220400  0.46277800  0.47331600  1
  O  O28  1  0.51053800  0.24111200  0.97331600  1
  O  O29  1  0.73220400  0.25888800  0.76942600  1
  O  O30  1  0.98946200  0.96277800  0.73057400  1
  O  O31  1  0.53722200  0.52668400  0.76779600  1
  O  O32  1  0.76779600  0.53722200  0.52668400  1
  O  O33  1  0.96277800  0.73057400  0.98946200  1
  O  O34  1  0.76942600  0.73220400  0.25888800  1
  O  O35  1  0.24111200  0.97331600  0.51053800  1
  O  O36  1  0.73057400  0.98946200  0.96277800  1
  O  O37  1  0.25888800  0.76942600  0.73220400  1
  O  O38  1  0.97331600  0.51053800  0.24111200  1
  O  O39  1  0.52668400  0.76779600  0.53722200  1
