# generated using pymatgen
data_Mn2O2F9
_symmetry_space_group_name_H-M   'P 1'
_cell_length_a   9.88215774
_cell_length_b   9.88215774
_cell_length_c   9.31976569
_cell_angle_alpha   80.81047921
_cell_angle_beta   80.81047921
_cell_angle_gamma   52.43249891
_symmetry_Int_Tables_number   1
_chemical_formula_structural   Mn2O2F9
_chemical_formula_sum   'Mn8 O8 F36'
_cell_volume   709.88779608
_cell_formula_units_Z   4
loop_
 _symmetry_equiv_pos_site_id
 _symmetry_equiv_pos_as_xyz
  1  'x, y, z'
loop_
 _atom_site_type_symbol
 _atom_site_label
 _atom_site_symmetry_multiplicity
 _atom_site_fract_x
 _atom_site_fract_y
 _atom_site_fract_z
 _atom_site_occupancy
  Mn  Mn0  1  0.83072300  0.32234600  0.94355100  1
  Mn  Mn1  1  0.25875000  0.98953600  0.06164800  1
  Mn  Mn2  1  0.01046400  0.74125000  0.43835200  1
  Mn  Mn3  1  0.74125000  0.01046400  0.93835200  1
  Mn  Mn4  1  0.98953600  0.25875000  0.56164800  1
  Mn  Mn5  1  0.32234600  0.83072300  0.44355100  1
  Mn  Mn6  1  0.16927700  0.67765400  0.05644900  1
  Mn  Mn7  1  0.67765400  0.16927700  0.55644900  1
  O  O8  1  0.73202400  0.64570200  0.28279800  1
  O  O9  1  0.35429800  0.26797600  0.21720200  1
  O  O10  1  0.26797600  0.35429800  0.71720200  1
  O  O11  1  0.64570200  0.73202400  0.78279800  1
  O  O12  1  0.81291900  0.56824800  0.18092000  1
  O  O13  1  0.43175200  0.18708100  0.31908000  1
  O  O14  1  0.18708100  0.43175200  0.81908000  1
  O  O15  1  0.56824800  0.81291900  0.68092000  1
  F  F16  1  0.06316100  0.58015700  0.08950700  1
  F  F17  1  0.48048600  0.85430600  0.08362100  1
  F  F18  1  0.14569400  0.51951400  0.41637900  1
  F  F19  1  0.51951400  0.14569400  0.91637900  1
  F  F20  1  0.85430600  0.48048600  0.58362100  1
  F  F21  1  0.49947400  0.64869300  0.34886100  1
  F  F22  1  0.35130700  0.50052600  0.15113900  1
  F  F23  1  0.50052600  0.35130700  0.65113900  1
  F  F24  1  0.78924600  0.27859000  0.52226300  1
  F  F25  1  0.72141000  0.21075400  0.97773700  1
  F  F26  1  0.21075400  0.72141000  0.47773700  1
  F  F27  1  0.27859000  0.78924600  0.02226300  1
  F  F28  1  0.94168300  0.20825100  0.76806200  1
  F  F29  1  0.79174900  0.05831700  0.73193800  1
  F  F30  1  0.05831700  0.79174900  0.23193800  1
  F  F31  1  0.20825100  0.94168300  0.26806200  1
  F  F32  1  0.93683900  0.41984300  0.91049300  1
  F  F33  1  0.58015700  0.06316100  0.58950700  1
  F  F34  1  0.64869300  0.49947400  0.84886100  1
  F  F35  1  0.41984300  0.93683900  0.41049300  1
  F  F36  1  0.17794700  0.22713800  0.60364500  1
  F  F37  1  0.77286200  0.82205300  0.89635500  1
  F  F38  1  0.41709400  0.73071100  0.61526000  1
  F  F39  1  0.22713800  0.17794700  0.10364500  1
  F  F40  1  0.03136500  0.28722400  0.37216700  1
  F  F41  1  0.71277600  0.96863500  0.12783300  1
  F  F42  1  0.96863500  0.71277600  0.62783300  1
  F  F43  1  0.28722400  0.03136500  0.87216700  1
  F  F44  1  0.01262400  0.12297600  0.04825600  1
  F  F45  1  0.87702400  0.98737600  0.45174400  1
  F  F46  1  0.98737600  0.87702400  0.95174400  1
  F  F47  1  0.12297600  0.01262400  0.54825600  1
  F  F48  1  0.73071100  0.41709400  0.11526000  1
  F  F49  1  0.58290600  0.26928900  0.38474000  1
  F  F50  1  0.26928900  0.58290600  0.88474000  1
  F  F51  1  0.82205300  0.77286200  0.39635500  1
