# generated using pymatgen
data_Nb3Se12I
_symmetry_space_group_name_H-M   'P 1'
_cell_length_a   9.80142600
_cell_length_b   9.80142600
_cell_length_c   19.42155200
_cell_angle_alpha   90.00000000
_cell_angle_beta   90.00000000
_cell_angle_gamma   90.00000000
_symmetry_Int_Tables_number   1
_chemical_formula_structural   Nb3Se12I
_chemical_formula_sum   'Nb12 Se48 I4'
_cell_volume   1865.78871818
_cell_formula_units_Z   4
loop_
 _symmetry_equiv_pos_site_id
 _symmetry_equiv_pos_as_xyz
  1  'x, y, z'
loop_
 _atom_site_type_symbol
 _atom_site_label
 _atom_site_symmetry_multiplicity
 _atom_site_fract_x
 _atom_site_fract_y
 _atom_site_fract_z
 _atom_site_occupancy
  Nb  Nb0  1  0.50000000  0.00000000  0.75000000  1
  Nb  Nb1  1  0.00000000  0.50000000  0.75000000  1
  Nb  Nb2  1  0.50000000  0.00000000  0.25000000  1
  Nb  Nb3  1  0.00000000  0.50000000  0.25000000  1
  Nb  Nb4  1  0.00000000  0.50000000  0.58060500  1
  Nb  Nb5  1  0.50000000  0.00000000  0.58060500  1
  Nb  Nb6  1  0.50000000  0.00000000  0.91939500  1
  Nb  Nb7  1  0.00000000  0.50000000  0.91939500  1
  Nb  Nb8  1  0.00000000  0.50000000  0.41939500  1
  Nb  Nb9  1  0.50000000  0.00000000  0.41939500  1
  Nb  Nb10  1  0.50000000  0.00000000  0.08060500  1
  Nb  Nb11  1  0.00000000  0.50000000  0.08060500  1
  Se  Se12  1  0.95290300  0.28990000  0.67160100  1
  Se  Se13  1  0.04709700  0.71010000  0.67160100  1
  Se  Se14  1  0.78990000  0.45290300  0.82839900  1
  Se  Se15  1  0.28990000  0.04709700  0.67160100  1
  Se  Se16  1  0.71010000  0.95290300  0.67160100  1
  Se  Se17  1  0.54709700  0.78990000  0.82839900  1
  Se  Se18  1  0.45290300  0.21010000  0.82839900  1
  Se  Se19  1  0.21010000  0.54709700  0.82839900  1
  Se  Se20  1  0.04709700  0.71010000  0.32839900  1
  Se  Se21  1  0.95290300  0.28990000  0.32839900  1
  Se  Se22  1  0.21010000  0.54709700  0.17160100  1
  Se  Se23  1  0.71010000  0.95290300  0.32839900  1
  Se  Se24  1  0.28990000  0.04709700  0.32839900  1
  Se  Se25  1  0.45290300  0.21010000  0.17160100  1
  Se  Se26  1  0.54709700  0.78990000  0.17160100  1
  Se  Se27  1  0.19501800  0.60524800  0.50000000  1
  Se  Se28  1  0.78990000  0.45290300  0.17160100  1
  Se  Se29  1  0.68207800  0.12374300  0.16055400  1
  Se  Se30  1  0.31792200  0.87625700  0.16055400  1
  Se  Se31  1  0.62374300  0.18207800  0.33944600  1
  Se  Se32  1  0.37625700  0.81792200  0.33944600  1
  Se  Se33  1  0.87625700  0.68207800  0.16055400  1
  Se  Se34  1  0.81792200  0.62374300  0.33944600  1
  Se  Se35  1  0.18207800  0.37625700  0.33944600  1
  Se  Se36  1  0.87625700  0.68207800  0.83944600  1
  Se  Se37  1  0.31792200  0.87625700  0.83944600  1
  Se  Se38  1  0.68207800  0.12374300  0.83944600  1
  Se  Se39  1  0.37625700  0.81792200  0.66055400  1
  Se  Se40  1  0.62374300  0.18207800  0.66055400  1
  Se  Se41  1  0.12374300  0.31792200  0.83944600  1
  Se  Se42  1  0.18207800  0.37625700  0.66055400  1
  Se  Se43  1  0.81792200  0.62374300  0.66055400  1
  Se  Se44  1  0.21873000  0.48211200  0.00000000  1
  Se  Se45  1  0.51788800  0.21873000  0.00000000  1
  Se  Se46  1  0.48211200  0.78127000  0.00000000  1
  Se  Se47  1  0.71873000  0.01788800  0.50000000  1
  Se  Se48  1  0.28127000  0.98211200  0.50000000  1
  Se  Se49  1  0.78127000  0.51788800  0.00000000  1
  Se  Se50  1  0.98211200  0.71873000  0.50000000  1
  Se  Se51  1  0.01788800  0.28127000  0.50000000  1
  Se  Se52  1  0.89475200  0.30498200  0.00000000  1
  Se  Se53  1  0.69501800  0.89475200  0.00000000  1
  Se  Se54  1  0.30498200  0.10524800  0.00000000  1
  Se  Se55  1  0.39475200  0.19501800  0.50000000  1
  Se  Se56  1  0.60524800  0.80498200  0.50000000  1
  Se  Se57  1  0.10524800  0.69501800  0.00000000  1
  Se  Se58  1  0.80498200  0.39475200  0.50000000  1
  Se  Se59  1  0.12374300  0.31792200  0.16055400  1
  I  I60  1  0.50000000  0.50000000  0.63118500  1
  I  I61  1  0.00000000  0.00000000  0.86881500  1
  I  I62  1  0.50000000  0.50000000  0.36881500  1
  I  I63  1  0.00000000  0.00000000  0.13118500  1
