# generated using pymatgen
data_Ba2As2Se5
_symmetry_space_group_name_H-M   'P 1'
_cell_length_a   12.62787200
_cell_length_b   9.59548100
_cell_length_c   10.27203908
_cell_angle_alpha   62.81290424
_cell_angle_beta   90.00000000
_cell_angle_gamma   90.00000000
_symmetry_Int_Tables_number   1
_chemical_formula_structural   Ba2As2Se5
_chemical_formula_sum   'Ba8 As8 Se20'
_cell_volume   1107.15635910
_cell_formula_units_Z   4
loop_
 _symmetry_equiv_pos_site_id
 _symmetry_equiv_pos_as_xyz
  1  'x, y, z'
loop_
 _atom_site_type_symbol
 _atom_site_label
 _atom_site_symmetry_multiplicity
 _atom_site_fract_x
 _atom_site_fract_y
 _atom_site_fract_z
 _atom_site_occupancy
  Ba  Ba0  1  0.06875100  0.82368400  0.34609500  1
  Ba  Ba1  1  0.56875100  0.17631600  0.65390500  1
  Ba  Ba2  1  0.06550400  0.32960100  0.35609500  1
  Ba  Ba3  1  0.56550400  0.67039900  0.64390500  1
  Ba  Ba4  1  0.21929600  0.58362700  0.83994900  1
  Ba  Ba5  1  0.71929600  0.41637300  0.16005100  1
  Ba  Ba6  1  0.22676700  0.07615100  0.85917800  1
  Ba  Ba7  1  0.72676700  0.92384900  0.14082200  1
  As  As8  1  0.37637400  0.23443400  0.24839400  1
  As  As9  1  0.48927400  0.21905300  0.99199800  1
  As  As10  1  0.98927400  0.78094700  0.00800200  1
  As  As11  1  0.87637400  0.76556600  0.75160600  1
  As  As12  1  0.91838900  0.39716300  0.73718300  1
  As  As13  1  0.41838900  0.60283700  0.26281700  1
  As  As14  1  0.30147600  0.96413600  0.51252500  1
  As  As15  1  0.80147600  0.03586400  0.48747500  1
  Se  Se16  1  0.83475700  0.66150100  0.57153700  1
  Se  Se17  1  0.33475700  0.33849900  0.42846300  1
  Se  Se18  1  0.44691800  0.50624400  0.07499600  1
  Se  Se19  1  0.94691800  0.49375600  0.92500400  1
  Se  Se20  1  0.61993000  0.04861400  0.39458400  1
  Se  Se21  1  0.16841000  0.70152200  0.10056400  1
  Se  Se22  1  0.11993000  0.95138600  0.60541600  1
  Se  Se23  1  0.66841000  0.29847800  0.89943600  1
  Se  Se24  1  0.89560100  0.62818300  0.23685500  1
  Se  Se25  1  0.39560100  0.37181700  0.76314500  1
  Se  Se26  1  0.39568800  0.88469600  0.73920100  1
  Se  Se27  1  0.89568800  0.11530400  0.26079900  1
  Se  Se28  1  0.20911800  0.21598300  0.14041400  1
  Se  Se29  1  0.70911800  0.78401700  0.85958600  1
  Se  Se30  1  0.59353500  0.56411100  0.36752700  1
  Se  Se31  1  0.09353500  0.43588900  0.63247300  1
  Se  Se32  1  0.81544100  0.26488300  0.52322100  1
  Se  Se33  1  0.31544100  0.73511700  0.47677900  1
  Se  Se34  1  0.48007200  0.95869500  0.01335200  1
  Se  Se35  1  0.98007200  0.04130500  0.98664800  1
