# generated using pymatgen
data_Lu(NbCl3)6
_symmetry_space_group_name_H-M   'P 1'
_cell_length_a   10.13160692
_cell_length_b   10.13160692
_cell_length_c   10.13160684
_cell_angle_alpha   55.93775922
_cell_angle_beta   55.93775922
_cell_angle_gamma   55.93776233
_symmetry_Int_Tables_number   1
_chemical_formula_structural   Lu(NbCl3)6
_chemical_formula_sum   'Lu1 Nb6 Cl18'
_cell_volume   666.16641060
_cell_formula_units_Z   1
loop_
 _symmetry_equiv_pos_site_id
 _symmetry_equiv_pos_as_xyz
  1  'x, y, z'
loop_
 _atom_site_type_symbol
 _atom_site_label
 _atom_site_symmetry_multiplicity
 _atom_site_fract_x
 _atom_site_fract_y
 _atom_site_fract_z
 _atom_site_occupancy
  Lu  Lu0  1  0.00000000  0.00000000  0.00000000  1
  Nb  Nb1  1  0.40753500  0.29833000  0.65130700  1
  Nb  Nb2  1  0.34869300  0.59246500  0.70167000  1
  Nb  Nb3  1  0.70167000  0.34869300  0.59246500  1
  Nb  Nb4  1  0.29833000  0.65130700  0.40753500  1
  Nb  Nb5  1  0.65130700  0.40753500  0.29833000  1
  Nb  Nb6  1  0.59246500  0.70167000  0.34869300  1
  Cl  Cl7  1  0.56914900  0.16009100  0.44154900  1
  Cl  Cl8  1  0.22342000  0.36923800  0.91069600  1
  Cl  Cl9  1  0.91069600  0.22342000  0.36923800  1
  Cl  Cl10  1  0.36923800  0.91069600  0.22342000  1
  Cl  Cl11  1  0.77658000  0.63076200  0.08930400  1
  Cl  Cl12  1  0.08930400  0.77658000  0.63076200  1
  Cl  Cl13  1  0.70733800  0.95971500  0.15713600  1
  Cl  Cl14  1  0.95971500  0.15713600  0.70733800  1
  Cl  Cl15  1  0.15713600  0.70733800  0.95971500  1
  Cl  Cl16  1  0.29266200  0.04028500  0.84286400  1
  Cl  Cl17  1  0.04028500  0.84286400  0.29266200  1
  Cl  Cl18  1  0.84286400  0.29266200  0.04028500  1
  Cl  Cl19  1  0.55845100  0.43085100  0.83990900  1
  Cl  Cl20  1  0.16009100  0.44154900  0.56914900  1
  Cl  Cl21  1  0.44154900  0.56914900  0.16009100  1
  Cl  Cl22  1  0.43085100  0.83990900  0.55845100  1
  Cl  Cl23  1  0.83990900  0.55845100  0.43085100  1
  Cl  Cl24  1  0.63076200  0.08930400  0.77658000  1
