# generated using pymatgen
data_Hg5(SbI3)2
_symmetry_space_group_name_H-M   'P 1'
_cell_length_a   8.43244000
_cell_length_b   11.28353100
_cell_length_c   21.89602800
_cell_angle_alpha   90.00000000
_cell_angle_beta   90.00000000
_cell_angle_gamma   90.00000000
_symmetry_Int_Tables_number   1
_chemical_formula_structural   Hg5(SbI3)2
_chemical_formula_sum   'Hg20 Sb8 I24'
_cell_volume   2083.35666273
_cell_formula_units_Z   4
loop_
 _symmetry_equiv_pos_site_id
 _symmetry_equiv_pos_as_xyz
  1  'x, y, z'
loop_
 _atom_site_type_symbol
 _atom_site_label
 _atom_site_symmetry_multiplicity
 _atom_site_fract_x
 _atom_site_fract_y
 _atom_site_fract_z
 _atom_site_occupancy
  Hg  Hg0  1  0.90769400  0.77197500  0.17528000  1
  Hg  Hg1  1  0.09230600  0.27197500  0.82472000  1
  Hg  Hg2  1  0.59230600  0.77197500  0.67528000  1
  Hg  Hg3  1  0.40769400  0.27197500  0.32472000  1
  Hg  Hg4  1  0.15676500  0.65905600  0.76971900  1
  Hg  Hg5  1  0.84323500  0.15905600  0.23028100  1
  Hg  Hg6  1  0.34323500  0.65905600  0.26971900  1
  Hg  Hg7  1  0.65676500  0.15905600  0.73028100  1
  Hg  Hg8  1  0.94973300  0.50460600  0.60267100  1
  Hg  Hg9  1  0.05026700  0.00460600  0.39732900  1
  Hg  Hg10  1  0.55026700  0.50460600  0.10267100  1
  Hg  Hg11  1  0.44973300  0.00460600  0.89732900  1
  Hg  Hg12  1  0.23669900  0.64152600  0.47929900  1
  Hg  Hg13  1  0.76330100  0.14152600  0.52070100  1
  Hg  Hg14  1  0.26330100  0.64152600  0.97929900  1
  Hg  Hg15  1  0.73669900  0.14152600  0.02070100  1
  Hg  Hg16  1  0.08204500  0.90031100  0.61103200  1
  Hg  Hg17  1  0.91795500  0.40031100  0.38896800  1
  Hg  Hg18  1  0.41795500  0.90031100  0.11103200  1
  Hg  Hg19  1  0.58204500  0.40031100  0.88896800  1
  Sb  Sb20  1  0.22928600  0.51205100  0.08505900  1
  Sb  Sb21  1  0.77071400  0.01205100  0.91494100  1
  Sb  Sb22  1  0.27071400  0.51205100  0.58505900  1
  Sb  Sb23  1  0.72928600  0.01205100  0.41494100  1
  Sb  Sb24  1  0.22454000  0.72406800  0.15891000  1
  Sb  Sb25  1  0.77546000  0.22406800  0.84109000  1
  Sb  Sb26  1  0.27546000  0.72406800  0.65891000  1
  Sb  Sb27  1  0.72454000  0.22406800  0.34109000  1
  I  I28  1  0.79330000  0.78392200  0.55906600  1
  I  I29  1  0.20670000  0.28392200  0.44093400  1
  I  I30  1  0.70670000  0.78392200  0.05906600  1
  I  I31  1  0.29330000  0.28392200  0.94093400  1
  I  I32  1  0.26095700  0.00832500  0.29591400  1
  I  I33  1  0.73904300  0.50832500  0.70408600  1
  I  I34  1  0.23904300  0.00832500  0.79591400  1
  I  I35  1  0.76095700  0.50832500  0.20408600  1
  I  I36  1  0.00463600  0.61282400  0.87726900  1
  I  I37  1  0.99536400  0.11282400  0.12273100  1
  I  I38  1  0.49536400  0.61282400  0.37726900  1
  I  I39  1  0.50463600  0.11282400  0.62273100  1
  I  I40  1  0.49201500  0.14454200  0.11916900  1
  I  I41  1  0.50798500  0.64454200  0.88083100  1
  I  I42  1  0.00798500  0.14454200  0.61916900  1
  I  I43  1  0.99201500  0.64454200  0.38083100  1
  I  I44  1  0.71490000  0.41101900  0.51155100  1
  I  I45  1  0.28510000  0.91101900  0.48844900  1
  I  I46  1  0.78510000  0.41101900  0.01155100  1
  I  I47  1  0.21490000  0.91101900  0.98844900  1
  I  I48  1  0.30820400  0.38227400  0.74744700  1
  I  I49  1  0.69179600  0.88227400  0.25255300  1
  I  I50  1  0.19179600  0.38227400  0.24744700  1
  I  I51  1  0.80820400  0.88227400  0.75255300  1
