# generated using pymatgen
data_YH5(SeO4)2
_symmetry_space_group_name_H-M   'P 1'
_cell_length_a   6.68413200
_cell_length_b   7.02897100
_cell_length_c   16.31565500
_cell_angle_alpha   90.00000000
_cell_angle_beta   90.00000000
_cell_angle_gamma   90.00000000
_symmetry_Int_Tables_number   1
_chemical_formula_structural   YH5(SeO4)2
_chemical_formula_sum   'Y4 H20 Se8 O32'
_cell_volume   766.55140294
_cell_formula_units_Z   4
loop_
 _symmetry_equiv_pos_site_id
 _symmetry_equiv_pos_as_xyz
  1  'x, y, z'
loop_
 _atom_site_type_symbol
 _atom_site_label
 _atom_site_symmetry_multiplicity
 _atom_site_fract_x
 _atom_site_fract_y
 _atom_site_fract_z
 _atom_site_occupancy
  Y  Y0  1  0.12508300  0.39153900  0.78400600  1
  Y  Y1  1  0.62508300  0.10846100  0.21599400  1
  Y  Y2  1  0.87491700  0.89153900  0.71599400  1
  Y  Y3  1  0.37491700  0.60846100  0.28400600  1
  H  H4  1  0.19085200  0.40432100  0.08139100  1
  H  H5  1  0.69085200  0.09567900  0.91860900  1
  H  H6  1  0.80914800  0.90432100  0.41860900  1
  H  H7  1  0.30914800  0.59567900  0.58139100  1
  H  H8  1  0.05529700  0.22944900  0.10139000  1
  H  H9  1  0.55529700  0.27055100  0.89861000  1
  H  H10  1  0.94470300  0.72944900  0.39861000  1
  H  H11  1  0.44470300  0.77055100  0.60139000  1
  H  H12  1  0.88860300  0.74022700  0.54065500  1
  H  H13  1  0.38860300  0.75977300  0.45934500  1
  H  H14  1  0.02722400  0.08149200  0.89610000  1
  H  H15  1  0.52722400  0.41850800  0.10390000  1
  H  H16  1  0.97277600  0.58149200  0.60390000  1
  H  H17  1  0.47277600  0.91850800  0.39610000  1
  H  H18  1  0.80005400  0.83036000  0.04641600  1
  H  H19  1  0.30005400  0.66964000  0.95358400  1
  H  H20  1  0.19994600  0.33036000  0.45358400  1
  H  H21  1  0.69994600  0.16964000  0.54641600  1
  H  H22  1  0.11139700  0.24022700  0.95934500  1
  H  H23  1  0.61139700  0.25977300  0.04065500  1
  Se  Se24  1  0.86735500  0.68836200  0.92096500  1
  Se  Se25  1  0.36735500  0.81163800  0.07903500  1
  Se  Se26  1  0.13264500  0.18836200  0.57903500  1
  Se  Se27  1  0.63264500  0.31163800  0.42096500  1
  Se  Se28  1  0.65495800  0.38883400  0.72815900  1
  Se  Se29  1  0.15495800  0.11116600  0.27184100  1
  Se  Se30  1  0.84504200  0.61116600  0.22815900  1
  Se  Se31  1  0.34504200  0.88883400  0.77184100  1
  O  O32  1  0.03214000  0.60951600  0.30036700  1
  O  O33  1  0.53214000  0.89048400  0.69963300  1
  O  O34  1  0.96786000  0.10951600  0.19963300  1
  O  O35  1  0.46786000  0.39048400  0.80036700  1
  O  O36  1  0.39995100  0.40255200  0.40132500  1
  O  O37  1  0.81485300  0.56911800  0.76253700  1
  O  O38  1  0.60004900  0.90255200  0.09867500  1
  O  O39  1  0.10004900  0.59744800  0.90132500  1
  O  O40  1  0.63828100  0.10591100  0.36247800  1
  O  O41  1  0.13828100  0.39408900  0.63752200  1
  O  O42  1  0.36171900  0.60591100  0.13752200  1
  O  O43  1  0.86171900  0.89408900  0.86247800  1
  O  O44  1  0.31485300  0.93088200  0.23746300  1
  O  O45  1  0.07035400  0.29465400  0.48218700  1
  O  O46  1  0.42964600  0.70534600  0.98218700  1
  O  O47  1  0.92964600  0.79465400  0.01781300  1
  O  O48  1  0.18514700  0.06911800  0.73746300  1
  O  O49  1  0.68514700  0.43088200  0.26253700  1
  O  O50  1  0.81176800  0.21095400  0.76376900  1
  O  O51  1  0.31176800  0.28904600  0.23623100  1
  O  O52  1  0.38798600  0.80330400  0.40057100  1
  O  O53  1  0.88798600  0.69669600  0.59942900  1
  O  O54  1  0.61201400  0.30330400  0.09942900  1
  O  O55  1  0.11201400  0.19669600  0.90057100  1
  O  O56  1  0.18823200  0.71095400  0.73623100  1
  O  O57  1  0.68823200  0.78904600  0.26376900  1
  O  O58  1  0.39586600  0.69134800  0.55584500  1
  O  O59  1  0.89586600  0.80865200  0.44415500  1
  O  O60  1  0.60413400  0.19134800  0.94415500  1
  O  O61  1  0.10413400  0.30865200  0.05584500  1
  O  O62  1  0.89995100  0.09744800  0.59867500  1
  O  O63  1  0.57035400  0.20534600  0.51781300  1
