# generated using pymatgen
data_K3V5O14
_symmetry_space_group_name_H-M   'P 1'
_cell_length_a   8.79881225
_cell_length_b   8.79881225
_cell_length_c   5.30495800
_cell_angle_alpha   90.00000000
_cell_angle_beta   90.00000000
_cell_angle_gamma   120.00000186
_symmetry_Int_Tables_number   1
_chemical_formula_structural   K3V5O14
_chemical_formula_sum   'K3 V5 O14'
_cell_volume   355.68100681
_cell_formula_units_Z   1
loop_
 _symmetry_equiv_pos_site_id
 _symmetry_equiv_pos_as_xyz
  1  'x, y, z'
loop_
 _atom_site_type_symbol
 _atom_site_label
 _atom_site_symmetry_multiplicity
 _atom_site_fract_x
 _atom_site_fract_y
 _atom_site_fract_z
 _atom_site_occupancy
  K  K0  1  0.60744900  0.00000000  0.00431800  1
  K  K1  1  0.00000000  0.60744900  0.00431800  1
  K  K2  1  0.39255100  0.39255100  0.00431800  1
  V  V3  1  0.33333300  0.66666700  0.47209500  1
  V  V4  1  0.66666700  0.33333300  0.47209500  1
  V  V5  1  0.22665600  0.00000000  0.47104200  1
  V  V6  1  0.00000000  0.22665600  0.47104200  1
  V  V7  1  0.77334400  0.77334400  0.47104200  1
  O  O8  1  0.33333300  0.66666700  0.78605900  1
  O  O9  1  0.66666700  0.33333300  0.78605900  1
  O  O10  1  0.23883400  0.00000000  0.77876400  1
  O  O11  1  0.00000000  0.23883400  0.77876400  1
  O  O12  1  0.76116600  0.76116600  0.77876400  1
  O  O13  1  0.83095700  0.00000000  0.39335800  1
  O  O14  1  0.00000000  0.83095700  0.39335800  1
  O  O15  1  0.16904300  0.16904300  0.39335800  1
  O  O16  1  0.46154900  0.16835600  0.35570900  1
  O  O17  1  0.83164400  0.29319300  0.35570900  1
  O  O18  1  0.70680700  0.53845100  0.35570900  1
  O  O19  1  0.16835600  0.46154900  0.35570900  1
  O  O20  1  0.29319300  0.83164400  0.35570900  1
  O  O21  1  0.53845100  0.70680700  0.35570900  1
