# generated using pymatgen
data_MgCl2
_symmetry_space_group_name_H-M   'P 1'
_cell_length_a   6.90807993
_cell_length_b   6.90807993
_cell_length_c   6.90807936
_cell_angle_alpha   30.85992465
_cell_angle_beta   30.85992465
_cell_angle_gamma   30.85991693
_symmetry_Int_Tables_number   1
_chemical_formula_structural   MgCl2
_chemical_formula_sum   'Mg1 Cl2'
_cell_volume   76.92979685
_cell_formula_units_Z   1
loop_
 _symmetry_equiv_pos_site_id
 _symmetry_equiv_pos_as_xyz
  1  'x, y, z'
loop_
 _atom_site_type_symbol
 _atom_site_label
 _atom_site_symmetry_multiplicity
 _atom_site_fract_x
 _atom_site_fract_y
 _atom_site_fract_z
 _atom_site_occupancy
  Mg  Mg0  1  0.00000000  0.00000000  0.00000000  1
  Cl  Cl1  1  0.26370400  0.26370400  0.26370400  1
  Cl  Cl2  1  0.73629600  0.73629600  0.73629600  1
