# generated using pymatgen
data_HgHOF
_symmetry_space_group_name_H-M   'P 1'
_cell_length_a   5.01319700
_cell_length_b   6.21755900
_cell_length_c   7.02210000
_cell_angle_alpha   90.00000000
_cell_angle_beta   90.00000000
_cell_angle_gamma   90.00000000
_symmetry_Int_Tables_number   1
_chemical_formula_structural   HgHOF
_chemical_formula_sum   'Hg4 H4 O4 F4'
_cell_volume   218.87779053
_cell_formula_units_Z   4
loop_
 _symmetry_equiv_pos_site_id
 _symmetry_equiv_pos_as_xyz
  1  'x, y, z'
loop_
 _atom_site_type_symbol
 _atom_site_label
 _atom_site_symmetry_multiplicity
 _atom_site_fract_x
 _atom_site_fract_y
 _atom_site_fract_z
 _atom_site_occupancy
  Hg  Hg0  1  0.25103100  0.50020500  0.12422400  1
  Hg  Hg1  1  0.75103100  0.99979500  0.87577600  1
  Hg  Hg2  1  0.74896900  0.00020500  0.37577600  1
  Hg  Hg3  1  0.24896900  0.49979500  0.62422400  1
  H  H4  1  0.64288800  0.50422400  0.37568500  1
  H  H5  1  0.14288800  0.99577600  0.62431500  1
  H  H6  1  0.35711200  0.00422400  0.12431500  1
  H  H7  1  0.85711200  0.49577600  0.87568500  1
  O  O8  1  0.46720500  0.59074900  0.37497300  1
  O  O9  1  0.03279500  0.40925100  0.87497300  1
  O  O10  1  0.53279500  0.09074900  0.12502700  1
  O  O11  1  0.96720500  0.90925100  0.62502700  1
  F  F12  1  0.40213800  0.10833000  0.62481800  1
  F  F13  1  0.59786200  0.60833000  0.87518200  1
  F  F14  1  0.90213800  0.39167000  0.37518200  1
  F  F15  1  0.09786200  0.89167000  0.12481800  1
