# generated using pymatgen
data_KSn2Cl5
_symmetry_space_group_name_H-M   'P 1'
_cell_length_a   9.20058967
_cell_length_b   9.20058967
_cell_length_c   9.20058967
_cell_angle_alpha   127.81453128
_cell_angle_beta   127.81453128
_cell_angle_gamma   76.92567318
_symmetry_Int_Tables_number   1
_chemical_formula_structural   KSn2Cl5
_chemical_formula_sum   'K2 Sn4 Cl10'
_cell_volume   471.88444293
_cell_formula_units_Z   2
loop_
 _symmetry_equiv_pos_site_id
 _symmetry_equiv_pos_as_xyz
  1  'x, y, z'
loop_
 _atom_site_type_symbol
 _atom_site_label
 _atom_site_symmetry_multiplicity
 _atom_site_fract_x
 _atom_site_fract_y
 _atom_site_fract_z
 _atom_site_occupancy
  K  K0  1  0.75000000  0.75000000  0.00000000  1
  K  K1  1  0.25000000  0.25000000  0.00000000  1
  Sn  Sn2  1  0.67447600  0.82552400  0.50000000  1
  Sn  Sn3  1  0.17447600  0.67447600  0.84895100  1
  Sn  Sn4  1  0.32552400  0.17447600  0.50000000  1
  Sn  Sn5  1  0.82552400  0.32552400  0.15104900  1
  Cl  Cl6  1  0.19860300  0.69860300  0.16171300  1
  Cl  Cl7  1  0.46311000  0.96311000  0.16171300  1
  Cl  Cl8  1  0.80139700  0.30139700  0.83828700  1
  Cl  Cl9  1  0.30139700  0.46311000  0.50000000  1
  Cl  Cl10  1  0.96311000  0.80139700  0.50000000  1
  Cl  Cl11  1  0.69860300  0.53689000  0.50000000  1
  Cl  Cl12  1  0.50000000  0.50000000  0.00000000  1
  Cl  Cl13  1  0.00000000  0.00000000  0.00000000  1
  Cl  Cl14  1  0.53689000  0.03689000  0.83828700  1
  Cl  Cl15  1  0.03689000  0.19860300  0.50000000  1
