# generated using pymatgen
data_Hf2Ag3F14
_symmetry_space_group_name_H-M   'P 1'
_cell_length_a   5.83697558
_cell_length_b   5.83697558
_cell_length_c   9.25560782
_cell_angle_alpha   89.01329232
_cell_angle_beta   89.01329232
_cell_angle_gamma   71.30920563
_symmetry_Int_Tables_number   1
_chemical_formula_structural   Hf2Ag3F14
_chemical_formula_sum   'Hf2 Ag3 F14'
_cell_volume   298.64356250
_cell_formula_units_Z   1
loop_
 _symmetry_equiv_pos_site_id
 _symmetry_equiv_pos_as_xyz
  1  'x, y, z'
loop_
 _atom_site_type_symbol
 _atom_site_label
 _atom_site_symmetry_multiplicity
 _atom_site_fract_x
 _atom_site_fract_y
 _atom_site_fract_z
 _atom_site_occupancy
  Hf  Hf0  1  0.59063500  0.59063500  0.78562200  1
  Hf  Hf1  1  0.40936500  0.40936500  0.21437800  1
  Ag  Ag2  1  0.00000000  0.00000000  0.00000000  1
  Ag  Ag3  1  0.81184500  0.81184500  0.39603700  1
  Ag  Ag4  1  0.18815500  0.18815500  0.60396300  1
  F  F5  1  0.14390500  0.73121900  0.16177800  1
  F  F6  1  0.26878100  0.85609500  0.83822200  1
  F  F7  1  0.85609500  0.26878100  0.83822200  1
  F  F8  1  0.73121900  0.14390500  0.16177800  1
  F  F9  1  0.15247200  0.50542300  0.38374800  1
  F  F10  1  0.50000000  0.50000000  0.00000000  1
  F  F11  1  0.00000000  0.00000000  0.50000000  1
  F  F12  1  0.60793800  0.60793800  0.29382400  1
  F  F13  1  0.39206200  0.39206200  0.70617600  1
  F  F14  1  0.22763500  0.22763500  0.12066300  1
  F  F15  1  0.77236500  0.77236500  0.87933700  1
  F  F16  1  0.50542300  0.15247200  0.38374800  1
  F  F17  1  0.84752800  0.49457700  0.61625200  1
  F  F18  1  0.49457700  0.84752800  0.61625200  1
