# generated using pymatgen
data_NaB15
_symmetry_space_group_name_H-M   'P 1'
_cell_length_a   7.26529083
_cell_length_b   7.26529083
_cell_length_c   7.26529083
_cell_angle_alpha   132.54107452
_cell_angle_beta   109.20741446
_cell_angle_gamma   89.70736454
_symmetry_Int_Tables_number   1
_chemical_formula_structural   NaB15
_chemical_formula_sum   'Na2 B30'
_cell_volume   253.47675471
_cell_formula_units_Z   2
loop_
 _symmetry_equiv_pos_site_id
 _symmetry_equiv_pos_as_xyz
  1  'x, y, z'
loop_
 _atom_site_type_symbol
 _atom_site_label
 _atom_site_symmetry_multiplicity
 _atom_site_fract_x
 _atom_site_fract_y
 _atom_site_fract_z
 _atom_site_occupancy
  Na  Na0  1  0.91121800  0.25000000  0.66121800  1
  Na  Na1  1  0.08878200  0.75000000  0.33878200  1
  B  B2  1  0.50300400  0.25000000  0.25300400  1
  B  B3  1  0.49699600  0.75000000  0.74699600  1
  B  B4  1  0.55177600  0.39877700  0.15300000  1
  B  B5  1  0.44822400  0.60122300  0.84700000  1
  B  B6  1  0.25422300  0.10122300  0.15300000  1
  B  B7  1  0.74577700  0.89877700  0.84700000  1
  B  B8  1  0.28890300  0.33519600  0.95370600  1
  B  B9  1  0.71109700  0.66480400  0.04629400  1
  B  B10  1  0.11851000  0.16480400  0.95370600  1
  B  B11  1  0.88149000  0.83519600  0.04629400  1
  B  B12  1  0.74853100  0.35471000  0.39382000  1
  B  B13  1  0.25146900  0.64528900  0.60618000  1
  B  B14  1  0.53911000  0.14528900  0.39382000  1
  B  B15  1  0.46089000  0.85471000  0.60618000  1
  B  B16  1  0.28673100  0.61279100  0.99528100  1
  B  B17  1  0.71326900  0.70855000  0.32606000  1
  B  B18  1  0.88249000  0.88720900  0.67394000  1
  B  B19  1  0.11751000  0.79145000  0.00471900  1
  B  B20  1  0.71326900  0.38720900  0.00471900  1
  B  B21  1  0.28673100  0.29145000  0.67394000  1
  B  B22  1  0.11751000  0.11279100  0.32606000  1
  B  B23  1  0.88249000  0.20855000  0.99528100  1
  B  B24  1  0.45564700  0.66659300  0.28435100  1
  B  B25  1  0.54435300  0.82870400  0.21094600  1
  B  B26  1  0.11775700  0.83340700  0.78905400  1
  B  B27  1  0.88224300  0.67129600  0.71564900  1
  B  B28  1  0.54435300  0.33340700  0.71564900  1
  B  B29  1  0.45564700  0.17129600  0.78905400  1
  B  B30  1  0.88224300  0.16659300  0.21094600  1
  B  B31  1  0.11775700  0.32870400  0.28435100  1
