# generated using pymatgen
data_S(ClO)2
_symmetry_space_group_name_H-M   'P 1'
_cell_length_a   9.87093945
_cell_length_b   8.70895147
_cell_length_c   6.18914739
_cell_angle_alpha   81.07963665
_cell_angle_beta   60.64634043
_cell_angle_gamma   38.27402292
_symmetry_Int_Tables_number   1
_chemical_formula_structural   S(ClO)2
_chemical_formula_sum   'S2 Cl4 O4'
_cell_volume   259.94055684
_cell_formula_units_Z   2
loop_
 _symmetry_equiv_pos_site_id
 _symmetry_equiv_pos_as_xyz
  1  'x, y, z'
loop_
 _atom_site_type_symbol
 _atom_site_label
 _atom_site_symmetry_multiplicity
 _atom_site_fract_x
 _atom_site_fract_y
 _atom_site_fract_z
 _atom_site_occupancy
  S  S0  1  0.74989300  0.25010700  0.25010700  1
  S  S1  1  0.99989300  0.50010700  0.50010700  1
  Cl  Cl2  1  0.80253600  0.10874800  0.94365500  1
  Cl  Cl3  1  0.14125200  0.44746400  0.10493900  1
  Cl  Cl4  1  0.30634500  0.10493900  0.44746400  1
  Cl  Cl5  1  0.14506100  0.94365500  0.10874800  1
  O  O6  1  0.64496400  0.49026000  0.24871000  1
  O  O7  1  0.75974000  0.60503600  0.63393300  1
  O  O8  1  0.61606700  0.24871000  0.49026000  1
  O  O9  1  0.00129000  0.63393300  0.60503600  1
