# generated using pymatgen
data_NaH3O2
_symmetry_space_group_name_H-M   'P 1'
_cell_length_a   6.16382500
_cell_length_b   6.21134000
_cell_length_c   11.50806700
_cell_angle_alpha   90.00000000
_cell_angle_beta   90.00000000
_cell_angle_gamma   90.00000000
_symmetry_Int_Tables_number   1
_chemical_formula_structural   NaH3O2
_chemical_formula_sum   'Na8 H24 O16'
_cell_volume   440.59339696
_cell_formula_units_Z   8
loop_
 _symmetry_equiv_pos_site_id
 _symmetry_equiv_pos_as_xyz
  1  'x, y, z'
loop_
 _atom_site_type_symbol
 _atom_site_label
 _atom_site_symmetry_multiplicity
 _atom_site_fract_x
 _atom_site_fract_y
 _atom_site_fract_z
 _atom_site_occupancy
  Na  Na0  1  0.13981200  0.30189000  0.56159800  1
  Na  Na1  1  0.86018800  0.80189000  0.93840200  1
  Na  Na2  1  0.63981200  0.19811000  0.43840200  1
  Na  Na3  1  0.36018800  0.69811000  0.06159800  1
  Na  Na4  1  0.86018800  0.69811000  0.43840200  1
  Na  Na5  1  0.13981200  0.19811000  0.06159800  1
  Na  Na6  1  0.36018800  0.80189000  0.56159800  1
  Na  Na7  1  0.63981200  0.30189000  0.93840200  1
  H  H8  1  0.43803700  0.12458900  0.70891600  1
  H  H9  1  0.56196300  0.62458900  0.79108400  1
  H  H10  1  0.93803700  0.37541100  0.29108400  1
  H  H11  1  0.06196300  0.87541100  0.20891600  1
  H  H12  1  0.56196300  0.87541100  0.29108400  1
  H  H13  1  0.43803700  0.37541100  0.20891600  1
  H  H14  1  0.06196300  0.62458900  0.70891600  1
  H  H15  1  0.93803700  0.12458900  0.79108400  1
  H  H16  1  0.27848900  0.57067000  0.86478100  1
  H  H17  1  0.72151100  0.07067000  0.63521900  1
  H  H18  1  0.77848900  0.92933000  0.13521900  1
  H  H19  1  0.22151100  0.42933000  0.36478100  1
  H  H20  1  0.72151100  0.42933000  0.13521900  1
  H  H21  1  0.27848900  0.92933000  0.36478100  1
  H  H22  1  0.22151100  0.07067000  0.86478100  1
  H  H23  1  0.77848900  0.57067000  0.63521900  1
  H  H24  1  0.57003200  0.39718700  0.63320300  1
  H  H25  1  0.42996800  0.89718700  0.86679700  1
  H  H26  1  0.07003200  0.10281300  0.36679700  1
  H  H27  1  0.07003200  0.39718700  0.86679700  1
  H  H28  1  0.42996800  0.60281300  0.36679700  1
  H  H29  1  0.57003200  0.10281300  0.13320300  1
  H  H30  1  0.92996800  0.89718700  0.63320300  1
  H  H31  1  0.92996800  0.60281300  0.13320300  1
  O  O32  1  0.88618000  0.44527800  0.12937300  1
  O  O33  1  0.97051600  0.14709500  0.87410100  1
  O  O34  1  0.52948400  0.85290500  0.37410100  1
  O  O35  1  0.47051600  0.35290500  0.12589900  1
  O  O36  1  0.97051600  0.35290500  0.37410100  1
  O  O37  1  0.02948400  0.85290500  0.12589900  1
  O  O38  1  0.47051600  0.14709500  0.62589900  1
  O  O39  1  0.52948400  0.64709500  0.87410100  1
  O  O40  1  0.11382000  0.55472200  0.87062700  1
  O  O41  1  0.88618000  0.05472200  0.62937300  1
  O  O42  1  0.61382000  0.94527800  0.12937300  1
  O  O43  1  0.38618000  0.44527800  0.37062700  1
  O  O44  1  0.61382000  0.55472200  0.62937300  1
  O  O45  1  0.11382000  0.94527800  0.37062700  1
  O  O46  1  0.38618000  0.05472200  0.87062700  1
  O  O47  1  0.02948400  0.64709500  0.62589900  1
