# generated using pymatgen
data_CeSnPt
_symmetry_space_group_name_H-M   'P 1'
_cell_length_a   4.65012700
_cell_length_b   7.40549200
_cell_length_c   8.08439500
_cell_angle_alpha   90.00000000
_cell_angle_beta   90.00000000
_cell_angle_gamma   90.00000000
_symmetry_Int_Tables_number   1
_chemical_formula_structural   CeSnPt
_chemical_formula_sum   'Ce4 Sn4 Pt4'
_cell_volume   278.39809297
_cell_formula_units_Z   4
loop_
 _symmetry_equiv_pos_site_id
 _symmetry_equiv_pos_as_xyz
  1  'x, y, z'
loop_
 _atom_site_type_symbol
 _atom_site_label
 _atom_site_symmetry_multiplicity
 _atom_site_fract_x
 _atom_site_fract_y
 _atom_site_fract_z
 _atom_site_occupancy
  Ce  Ce0  1  0.75000000  0.48785900  0.80219200  1
  Ce  Ce1  1  0.25000000  0.01214100  0.30219200  1
  Ce  Ce2  1  0.75000000  0.98785900  0.69780800  1
  Ce  Ce3  1  0.25000000  0.51214100  0.19780800  1
  Sn  Sn4  1  0.25000000  0.67693900  0.58476000  1
  Sn  Sn5  1  0.25000000  0.17693900  0.91524000  1
  Sn  Sn6  1  0.75000000  0.32306100  0.41524000  1
  Sn  Sn7  1  0.75000000  0.82306100  0.08476000  1
  Pt  Pt8  1  0.25000000  0.78137600  0.91172900  1
  Pt  Pt9  1  0.25000000  0.28137600  0.58827100  1
  Pt  Pt10  1  0.75000000  0.71862400  0.41172900  1
  Pt  Pt11  1  0.75000000  0.21862400  0.08827100  1
