# generated using pymatgen
data_Cs6InAs3
_symmetry_space_group_name_H-M   'P 1'
_cell_length_a   6.46633200
_cell_length_b   10.78845600
_cell_length_c   12.44351482
_cell_angle_alpha   78.28433060
_cell_angle_beta   90.00000000
_cell_angle_gamma   90.00000000
_symmetry_Int_Tables_number   1
_chemical_formula_structural   Cs6InAs3
_chemical_formula_sum   'Cs12 In2 As6'
_cell_volume   849.99676157
_cell_formula_units_Z   2
loop_
 _symmetry_equiv_pos_site_id
 _symmetry_equiv_pos_as_xyz
  1  'x, y, z'
loop_
 _atom_site_type_symbol
 _atom_site_label
 _atom_site_symmetry_multiplicity
 _atom_site_fract_x
 _atom_site_fract_y
 _atom_site_fract_z
 _atom_site_occupancy
  Cs  Cs0  1  0.75000000  0.46533400  0.07314000  1
  Cs  Cs1  1  0.25000000  0.53466600  0.92686000  1
  Cs  Cs2  1  0.75000000  0.74347500  0.22414100  1
  Cs  Cs3  1  0.25000000  0.25652500  0.77585900  1
  Cs  Cs4  1  0.25000000  0.56276200  0.53630400  1
  Cs  Cs5  1  0.75000000  0.43723800  0.46369600  1
  Cs  Cs6  1  0.25000000  0.86525500  0.01699200  1
  Cs  Cs7  1  0.75000000  0.13474500  0.98300800  1
  Cs  Cs8  1  0.25000000  0.88003800  0.67567700  1
  Cs  Cs9  1  0.75000000  0.11996200  0.32432300  1
  Cs  Cs10  1  0.25000000  0.91712500  0.36312900  1
  Cs  Cs11  1  0.75000000  0.08287500  0.63687100  1
  In  In12  1  0.25000000  0.32839100  0.27878300  1
  In  In13  1  0.75000000  0.67160900  0.72121700  1
  As  As14  1  0.25000000  0.18758700  0.12182400  1
  As  As15  1  0.75000000  0.81241300  0.87817600  1
  As  As16  1  0.25000000  0.21071500  0.48939300  1
  As  As17  1  0.75000000  0.78928500  0.51060700  1
  As  As18  1  0.25000000  0.57777200  0.22710300  1
  As  As19  1  0.75000000  0.42222800  0.77289700  1
