# generated using pymatgen
data_LiUF5
_symmetry_space_group_name_H-M   'P 1'
_cell_length_a   11.09752781
_cell_length_b   11.09752781
_cell_length_c   11.09752781
_cell_angle_alpha   95.11101525
_cell_angle_beta   95.11101525
_cell_angle_gamma   145.26824739
_symmetry_Int_Tables_number   1
_chemical_formula_structural   LiUF5
_chemical_formula_sum   'Li8 U8 F40'
_cell_volume   743.17383343
_cell_formula_units_Z   8
loop_
 _symmetry_equiv_pos_site_id
 _symmetry_equiv_pos_as_xyz
  1  'x, y, z'
loop_
 _atom_site_type_symbol
 _atom_site_label
 _atom_site_symmetry_multiplicity
 _atom_site_fract_x
 _atom_site_fract_y
 _atom_site_fract_z
 _atom_site_occupancy
  Li  Li0  1  0.68902300  0.17500800  0.65342600  1
  Li  Li1  1  0.28559700  0.43902300  0.01401500  1
  Li  Li2  1  0.42500800  0.27158200  0.98598500  1
  Li  Li3  1  0.52158200  0.03559700  0.34657400  1
  Li  Li4  1  0.56097700  0.57499200  0.84657400  1
  Li  Li5  1  0.96440300  0.31097700  0.48598500  1
  Li  Li6  1  0.82499200  0.47841800  0.51401500  1
  Li  Li7  1  0.72841800  0.71440300  0.15342600  1
  U  U8  1  0.32318000  0.69151100  0.75644500  1
  U  U9  1  0.81673500  0.07318000  0.13167000  1
  U  U10  1  0.94151100  0.68506600  0.86833000  1
  U  U11  1  0.93506600  0.56673500  0.24355500  1
  U  U12  1  0.92682000  0.05848900  0.74355500  1
  U  U13  1  0.43326500  0.67682000  0.36833000  1
  U  U14  1  0.30848900  0.06493400  0.63167000  1
  U  U15  1  0.31493400  0.18326500  0.25644500  1
  F  F16  1  0.94437500  0.78095100  0.23386200  1
  F  F17  1  0.96051300  0.69437500  0.66342400  1
  F  F18  1  0.03095100  0.29708900  0.33657600  1
  F  F19  1  0.54708900  0.71051300  0.76613800  1
  F  F20  1  0.30562500  0.96904900  0.26613800  1
  F  F21  1  0.28948700  0.05562500  0.83657600  1
  F  F22  1  0.21904900  0.45291100  0.16342400  1
  F  F23  1  0.70291100  0.03948700  0.73386200  1
  F  F24  1  0.69745900  0.83144800  0.28437800  1
  F  F25  1  0.66308100  0.44745900  0.36601100  1
  F  F26  1  0.08144800  0.29707000  0.63398900  1
  F  F27  1  0.54707000  0.41308100  0.71562200  1
  F  F28  1  0.55254100  0.91855200  0.21562200  1
  F  F29  1  0.58691900  0.30254100  0.13398900  1
  F  F30  1  0.16855200  0.45293000  0.86601100  1
  F  F31  1  0.70293000  0.33691900  0.78437800  1
  F  F32  1  0.01565700  0.05658900  0.17629700  1
  F  F33  1  0.08936000  0.76565700  0.45906800  1
  F  F34  1  0.30658900  0.63029200  0.54093200  1
  F  F35  1  0.88029200  0.83936000  0.82370300  1
  F  F36  1  0.23434300  0.69341100  0.32370300  1
  F  F37  1  0.16064000  0.98434300  0.04093200  1
  F  F38  1  0.94341100  0.11970800  0.95906800  1
  F  F39  1  0.36970800  0.91064000  0.67629700  1
  F  F40  1  0.39181000  0.44064000  0.36264700  1
  F  F41  1  0.27916300  0.14181000  0.45117000  1
  F  F42  1  0.69064000  0.82799300  0.54883000  1
  F  F43  1  0.07799300  0.02916300  0.63735300  1
  F  F44  1  0.85819000  0.30936000  0.13735300  1
  F  F45  1  0.97083700  0.60819000  0.04883000  1
  F  F46  1  0.55936000  0.92200700  0.95117000  1
  F  F47  1  0.17200700  0.72083700  0.86264700  1
  F  F48  1  0.43714400  0.40227500  0.13182800  1
  F  F49  1  0.55531600  0.18714400  0.53486900  1
  F  F50  1  0.65227500  0.02044700  0.46513100  1
  F  F51  1  0.27044700  0.30531600  0.86817200  1
  F  F52  1  0.81285600  0.34772500  0.36817200  1
  F  F53  1  0.69468400  0.56285600  0.96513100  1
  F  F54  1  0.59772500  0.72955300  0.03486900  1
  F  F55  1  0.97955300  0.44468400  0.63182800  1
