# generated using pymatgen
data_LaSi2
_symmetry_space_group_name_H-M   'P 1'
_cell_length_a   7.55718014
_cell_length_b   7.55718014
_cell_length_c   7.55718014
_cell_angle_alpha   146.56203882
_cell_angle_beta   146.56203882
_cell_angle_gamma   48.01269584
_symmetry_Int_Tables_number   1
_chemical_formula_structural   LaSi2
_chemical_formula_sum   'La2 Si4'
_cell_volume   130.51510189
_cell_formula_units_Z   2
loop_
 _symmetry_equiv_pos_site_id
 _symmetry_equiv_pos_as_xyz
  1  'x, y, z'
loop_
 _atom_site_type_symbol
 _atom_site_label
 _atom_site_symmetry_multiplicity
 _atom_site_fract_x
 _atom_site_fract_y
 _atom_site_fract_z
 _atom_site_occupancy
  La  La0  1  0.75000000  0.25000000  0.50000000  1
  La  La1  1  0.00000000  0.00000000  0.00000000  1
  Si  Si2  1  0.16671000  0.66671000  0.50000000  1
  Si  Si3  1  0.58329000  0.58329000  0.00000000  1
  Si  Si4  1  0.33329000  0.83329000  0.50000000  1
  Si  Si5  1  0.41671000  0.41671000  0.00000000  1
