# generated using pymatgen
data_K2(NbCl3)3
_symmetry_space_group_name_H-M   'P 1'
_cell_length_a   9.89803441
_cell_length_b   9.89803441
_cell_length_c   9.78132327
_cell_angle_alpha   77.22091663
_cell_angle_beta   77.22091663
_cell_angle_gamma   117.38672195
_symmetry_Int_Tables_number   1
_chemical_formula_structural   K2(NbCl3)3
_chemical_formula_sum   'K4 Nb6 Cl18'
_cell_volume   769.94148558
_cell_formula_units_Z   2
loop_
 _symmetry_equiv_pos_site_id
 _symmetry_equiv_pos_as_xyz
  1  'x, y, z'
loop_
 _atom_site_type_symbol
 _atom_site_label
 _atom_site_symmetry_multiplicity
 _atom_site_fract_x
 _atom_site_fract_y
 _atom_site_fract_z
 _atom_site_occupancy
  K  K0  1  0.44886200  0.77036200  0.67265200  1
  K  K1  1  0.22963800  0.55113800  0.32734800  1
  K  K2  1  0.55113800  0.22963800  0.32734800  1
  K  K3  1  0.77036200  0.44886200  0.67265200  1
  Nb  Nb4  1  0.22052500  0.04657600  0.85970300  1
  Nb  Nb5  1  0.95342400  0.77947500  0.14029700  1
  Nb  Nb6  1  0.04657600  0.22052500  0.85970300  1
  Nb  Nb7  1  0.77947500  0.95342400  0.14029700  1
  Nb  Nb8  1  0.11953100  0.11953100  0.12763000  1
  Nb  Nb9  1  0.88046900  0.88046900  0.87237000  1
  Cl  Cl10  1  0.87979800  0.08501300  0.31405700  1
  Cl  Cl11  1  0.49901400  0.89204500  0.32241200  1
  Cl  Cl12  1  0.26937900  0.26937900  0.28519100  1
  Cl  Cl13  1  0.73062100  0.73062100  0.71480900  1
  Cl  Cl14  1  0.89204500  0.49901400  0.32241200  1
  Cl  Cl15  1  0.50098600  0.10795500  0.67758800  1
  Cl  Cl16  1  0.68298300  0.68298300  0.32943000  1
  Cl  Cl17  1  0.31701700  0.31701700  0.67057000  1
  Cl  Cl18  1  0.79424300  0.20575700  0.00000000  1
  Cl  Cl19  1  0.20575700  0.79424300  0.00000000  1
  Cl  Cl20  1  0.08501300  0.87979800  0.31405700  1
  Cl  Cl21  1  0.19468300  0.40126500  0.98435400  1
  Cl  Cl22  1  0.40126500  0.19468300  0.98435400  1
  Cl  Cl23  1  0.80531700  0.59873500  0.01564600  1
  Cl  Cl24  1  0.59873500  0.80531700  0.01564600  1
  Cl  Cl25  1  0.91498700  0.12020200  0.68594300  1
  Cl  Cl26  1  0.12020200  0.91498700  0.68594300  1
  Cl  Cl27  1  0.10795500  0.50098600  0.67758800  1
