# generated using pymatgen
data_Cs3BiO3
_symmetry_space_group_name_H-M   'P 1'
_cell_length_a   9.44577900
_cell_length_b   9.44577900
_cell_length_c   9.44577900
_cell_angle_alpha   90.00000000
_cell_angle_beta   90.00000000
_cell_angle_gamma   90.00000000
_symmetry_Int_Tables_number   1
_chemical_formula_structural   Cs3BiO3
_chemical_formula_sum   'Cs12 Bi4 O12'
_cell_volume   842.77829247
_cell_formula_units_Z   4
loop_
 _symmetry_equiv_pos_site_id
 _symmetry_equiv_pos_as_xyz
  1  'x, y, z'
loop_
 _atom_site_type_symbol
 _atom_site_label
 _atom_site_symmetry_multiplicity
 _atom_site_fract_x
 _atom_site_fract_y
 _atom_site_fract_z
 _atom_site_occupancy
  Cs  Cs0  1  0.02770000  0.02770000  0.02770000  1
  Cs  Cs1  1  0.47230000  0.97230000  0.52770000  1
  Cs  Cs2  1  0.52770000  0.47230000  0.97230000  1
  Cs  Cs3  1  0.97230000  0.52770000  0.47230000  1
  Cs  Cs4  1  0.96895500  0.46895500  0.03104500  1
  Cs  Cs5  1  0.53104500  0.53104500  0.53104500  1
  Cs  Cs6  1  0.23548000  0.26452000  0.73548000  1
  Cs  Cs7  1  0.26452000  0.73548000  0.23548000  1
  Cs  Cs8  1  0.73548000  0.23548000  0.26452000  1
  Cs  Cs9  1  0.76452000  0.76452000  0.76452000  1
  Cs  Cs10  1  0.46895500  0.03104500  0.96895500  1
  Cs  Cs11  1  0.03104500  0.96895500  0.46895500  1
  Bi  Bi12  1  0.74462000  0.75538000  0.24462000  1
  Bi  Bi13  1  0.75538000  0.24462000  0.74462000  1
  Bi  Bi14  1  0.24462000  0.74462000  0.75538000  1
  Bi  Bi15  1  0.25538000  0.25538000  0.25538000  1
  O  O16  1  0.53664200  0.24530600  0.70562900  1
  O  O17  1  0.03664200  0.25469400  0.29437100  1
  O  O18  1  0.46335800  0.74530600  0.79437100  1
  O  O19  1  0.25469400  0.29437100  0.03664200  1
  O  O20  1  0.24530600  0.70562900  0.53664200  1
  O  O21  1  0.70562900  0.53664200  0.24530600  1
  O  O22  1  0.74530600  0.79437100  0.46335800  1
  O  O23  1  0.75469400  0.20562900  0.96335800  1
  O  O24  1  0.20562900  0.96335800  0.75469400  1
  O  O25  1  0.96335800  0.75469400  0.20562900  1
  O  O26  1  0.79437100  0.46335800  0.74530600  1
  O  O27  1  0.29437100  0.03664200  0.25469400  1
