# generated using pymatgen
data_Ca5Zn3
_symmetry_space_group_name_H-M   'P 1'
_cell_length_a   9.46775758
_cell_length_b   9.46775758
_cell_length_c   9.46775758
_cell_angle_alpha   130.71514611
_cell_angle_beta   130.71514611
_cell_angle_gamma   72.26604459
_symmetry_Int_Tables_number   1
_chemical_formula_structural   Ca5Zn3
_chemical_formula_sum   'Ca10 Zn6'
_cell_volume   476.65139633
_cell_formula_units_Z   2
loop_
 _symmetry_equiv_pos_site_id
 _symmetry_equiv_pos_as_xyz
  1  'x, y, z'
loop_
 _atom_site_type_symbol
 _atom_site_label
 _atom_site_symmetry_multiplicity
 _atom_site_fract_x
 _atom_site_fract_y
 _atom_site_fract_z
 _atom_site_occupancy
  Ca  Ca0  1  0.00000000  0.00000000  0.00000000  1
  Ca  Ca1  1  0.50000000  0.50000000  0.00000000  1
  Ca  Ca2  1  0.81753700  0.31753700  0.84088800  1
  Ca  Ca3  1  0.31753700  0.47665000  0.50000000  1
  Ca  Ca4  1  0.97665000  0.81753700  0.50000000  1
  Ca  Ca5  1  0.68246300  0.52335000  0.50000000  1
  Ca  Ca6  1  0.02335000  0.18246300  0.50000000  1
  Ca  Ca7  1  0.52335000  0.02335000  0.84088800  1
  Ca  Ca8  1  0.18246300  0.68246300  0.15911200  1
  Ca  Ca9  1  0.47665000  0.97665000  0.15911200  1
  Zn  Zn10  1  0.25000000  0.25000000  0.00000000  1
  Zn  Zn11  1  0.75000000  0.75000000  0.00000000  1
  Zn  Zn12  1  0.88269400  0.38269400  0.26538900  1
  Zn  Zn13  1  0.38269400  0.11730600  0.50000000  1
  Zn  Zn14  1  0.61730600  0.88269400  0.50000000  1
  Zn  Zn15  1  0.11730600  0.61730600  0.73461100  1
