# generated using pymatgen
data_Bi2Te2Se
_symmetry_space_group_name_H-M   'P 1'
_cell_length_a   11.04515190
_cell_length_b   11.04515190
_cell_length_c   11.04515139
_cell_angle_alpha   22.69494136
_cell_angle_beta   22.69494136
_cell_angle_gamma   22.69494229
_symmetry_Int_Tables_number   1
_chemical_formula_structural   Bi2Te2Se
_chemical_formula_sum   'Bi2 Te2 Se1'
_cell_volume   175.98043173
_cell_formula_units_Z   1
loop_
 _symmetry_equiv_pos_site_id
 _symmetry_equiv_pos_as_xyz
  1  'x, y, z'
loop_
 _atom_site_type_symbol
 _atom_site_label
 _atom_site_symmetry_multiplicity
 _atom_site_fract_x
 _atom_site_fract_y
 _atom_site_fract_z
 _atom_site_occupancy
  Bi  Bi0  1  0.60904700  0.60904700  0.60904700  1
  Bi  Bi1  1  0.39095300  0.39095300  0.39095200  1
  Te  Te2  1  0.22085000  0.22085000  0.22085000  1
  Te  Te3  1  0.77915000  0.77915000  0.77915000  1
  Se  Se4  1  0.00000000  0.00000000  0.00000000  1
