# generated using pymatgen
data_K2PtI6
_symmetry_space_group_name_H-M   'P 1'
_cell_length_a   7.75894600
_cell_length_b   7.75894600
_cell_length_c   12.04298100
_cell_angle_alpha   90.00000000
_cell_angle_beta   90.00000000
_cell_angle_gamma   90.00000000
_symmetry_Int_Tables_number   1
_chemical_formula_structural   K2PtI6
_chemical_formula_sum   'K4 Pt2 I12'
_cell_volume   725.00242600
_cell_formula_units_Z   2
loop_
 _symmetry_equiv_pos_site_id
 _symmetry_equiv_pos_as_xyz
  1  'x, y, z'
loop_
 _atom_site_type_symbol
 _atom_site_label
 _atom_site_symmetry_multiplicity
 _atom_site_fract_x
 _atom_site_fract_y
 _atom_site_fract_z
 _atom_site_occupancy
  K  K0  1  0.50000000  0.00000000  0.75000000  1
  K  K1  1  0.00000000  0.50000000  0.75000000  1
  K  K2  1  0.50000000  0.00000000  0.25000000  1
  K  K3  1  0.00000000  0.50000000  0.25000000  1
  Pt  Pt4  1  0.50000000  0.50000000  0.50000000  1
  Pt  Pt5  1  0.00000000  0.00000000  0.00000000  1
  I  I6  1  0.70844100  0.19420600  0.00000000  1
  I  I7  1  0.69420600  0.20844100  0.50000000  1
  I  I8  1  0.30579400  0.79155900  0.50000000  1
  I  I9  1  0.29155900  0.80579400  0.00000000  1
  I  I10  1  0.79155900  0.69420600  0.50000000  1
  I  I11  1  0.20844100  0.30579400  0.50000000  1
  I  I12  1  0.00000000  0.00000000  0.22510700  1
  I  I13  1  0.50000000  0.50000000  0.27489300  1
  I  I14  1  0.00000000  0.00000000  0.77489300  1
  I  I15  1  0.50000000  0.50000000  0.72510700  1
  I  I16  1  0.80579400  0.70844100  0.00000000  1
  I  I17  1  0.19420600  0.29155900  0.00000000  1
