# generated using pymatgen
data_CeSi3N5
_symmetry_space_group_name_H-M   'P 1'
_cell_length_a   4.81583600
_cell_length_b   7.88132300
_cell_length_c   11.31490100
_cell_angle_alpha   90.00000000
_cell_angle_beta   90.00000000
_cell_angle_gamma   90.00000000
_symmetry_Int_Tables_number   1
_chemical_formula_structural   CeSi3N5
_chemical_formula_sum   'Ce4 Si12 N20'
_cell_volume   429.45886688
_cell_formula_units_Z   4
loop_
 _symmetry_equiv_pos_site_id
 _symmetry_equiv_pos_as_xyz
  1  'x, y, z'
loop_
 _atom_site_type_symbol
 _atom_site_label
 _atom_site_symmetry_multiplicity
 _atom_site_fract_x
 _atom_site_fract_y
 _atom_site_fract_z
 _atom_site_occupancy
  Ce  Ce0  1  0.00374300  0.44047200  0.82971100  1
  Ce  Ce1  1  0.49625700  0.55952800  0.32971100  1
  Ce  Ce2  1  0.99625700  0.94047200  0.67028900  1
  Ce  Ce3  1  0.50374300  0.05952800  0.17028900  1
  Si  Si4  1  0.97663700  0.53293200  0.54090600  1
  Si  Si5  1  0.51428400  0.16191000  0.83937600  1
  Si  Si6  1  0.51657200  0.29319900  0.58333700  1
  Si  Si7  1  0.48342800  0.79319900  0.91666300  1
  Si  Si8  1  0.98571600  0.83809000  0.33937600  1
  Si  Si9  1  0.01657200  0.20680100  0.41666300  1
  Si  Si10  1  0.02336300  0.03293200  0.95909400  1
  Si  Si11  1  0.47663700  0.96706800  0.45909400  1
  Si  Si12  1  0.48571600  0.66191000  0.66062400  1
  Si  Si13  1  0.98342800  0.70680100  0.08333700  1
  Si  Si14  1  0.01428400  0.33809000  0.16062400  1
  Si  Si15  1  0.52336300  0.46706800  0.04090600  1
  N  N16  1  0.16566000  0.29380400  0.29482200  1
  N  N17  1  0.17036500  0.10987900  0.83175000  1
  N  N18  1  0.81538600  0.01841600  0.40687500  1
  N  N19  1  0.31538600  0.48158400  0.59312500  1
  N  N20  1  0.32963500  0.89012100  0.33175000  1
  N  N21  1  0.29629200  0.14989700  0.51029600  1
  N  N22  1  0.82963500  0.60987900  0.66825000  1
  N  N23  1  0.95302800  0.65749800  0.42026900  1
  N  N24  1  0.67036500  0.39012100  0.16825000  1
  N  N25  1  0.45302800  0.84250200  0.57973100  1
  N  N26  1  0.70370800  0.64989700  0.98970400  1
  N  N27  1  0.20370800  0.85010300  0.01029600  1
  N  N28  1  0.18461400  0.51841600  0.09312500  1
  N  N29  1  0.66566000  0.20619600  0.70517800  1
  N  N30  1  0.83434000  0.79380400  0.20517800  1
  N  N31  1  0.79629200  0.35010300  0.48970400  1
  N  N32  1  0.04697200  0.15749800  0.07973100  1
  N  N33  1  0.54697200  0.34250200  0.92026900  1
  N  N34  1  0.68461400  0.98158400  0.90687500  1
  N  N35  1  0.33434000  0.70619600  0.79482200  1
