# generated using pymatgen
data_S2O5F2
_symmetry_space_group_name_H-M   'P 1'
_cell_length_a   7.80173700
_cell_length_b   7.80173700
_cell_length_c   9.67423000
_cell_angle_alpha   90.00000000
_cell_angle_beta   90.00000000
_cell_angle_gamma   90.00000000
_symmetry_Int_Tables_number   1
_chemical_formula_structural   S2O5F2
_chemical_formula_sum   'S8 O20 F8'
_cell_volume   588.84232693
_cell_formula_units_Z   4
loop_
 _symmetry_equiv_pos_site_id
 _symmetry_equiv_pos_as_xyz
  1  'x, y, z'
loop_
 _atom_site_type_symbol
 _atom_site_label
 _atom_site_symmetry_multiplicity
 _atom_site_fract_x
 _atom_site_fract_y
 _atom_site_fract_z
 _atom_site_occupancy
  S  S0  1  0.57628100  0.17005000  0.63610200  1
  S  S1  1  0.42371900  0.82995000  0.63610200  1
  S  S2  1  0.32995000  0.92371900  0.13610200  1
  S  S3  1  0.82995000  0.57628100  0.36389800  1
  S  S4  1  0.17005000  0.42371900  0.36389800  1
  S  S5  1  0.92371900  0.67005000  0.86389800  1
  S  S6  1  0.07628100  0.32995000  0.86389800  1
  S  S7  1  0.67005000  0.07628100  0.13610200  1
  O  O8  1  0.52148400  0.79482400  0.51579600  1
  O  O9  1  0.39033700  0.71229700  0.74421100  1
  O  O10  1  0.21229700  0.89033700  0.24421100  1
  O  O11  1  0.71229700  0.60966300  0.25578900  1
  O  O12  1  0.28770300  0.39033700  0.25578900  1
  O  O13  1  0.89033700  0.78770300  0.75578900  1
  O  O14  1  0.10966300  0.21229700  0.75578900  1
  O  O15  1  0.78770300  0.10966300  0.24421100  1
  O  O16  1  0.50000000  0.00000000  0.21623400  1
  O  O17  1  0.00000000  0.50000000  0.78376600  1
  O  O18  1  0.00000000  0.50000000  0.28376600  1
  O  O19  1  0.50000000  0.00000000  0.71623400  1
  O  O20  1  0.70517600  0.97851600  0.01579600  1
  O  O21  1  0.47851600  0.20517600  0.51579600  1
  O  O22  1  0.02148400  0.70517600  0.98420400  1
  O  O23  1  0.20517600  0.52148400  0.48420400  1
  O  O24  1  0.79482400  0.47851600  0.48420400  1
  O  O25  1  0.29482400  0.02148400  0.01579600  1
  O  O26  1  0.97851600  0.29482400  0.98420400  1
  O  O27  1  0.60966300  0.28770300  0.74421100  1
  F  F28  1  0.59178500  0.25230600  0.08828400  1
  F  F29  1  0.25230600  0.40821500  0.91171600  1
  F  F30  1  0.74769400  0.59178500  0.91171600  1
  F  F31  1  0.09178500  0.24769400  0.41171600  1
  F  F32  1  0.90821500  0.75230600  0.41171600  1
  F  F33  1  0.40821500  0.74769400  0.08828400  1
  F  F34  1  0.24769400  0.90821500  0.58828400  1
  F  F35  1  0.75230600  0.09178500  0.58828400  1
