# generated using pymatgen
data_Sr(YS2)2
_symmetry_space_group_name_H-M   'P 1'
_cell_length_a   4.00376400
_cell_length_b   12.06357600
_cell_length_c   14.40180700
_cell_angle_alpha   90.00000000
_cell_angle_beta   90.00000000
_cell_angle_gamma   90.00000000
_symmetry_Int_Tables_number   1
_chemical_formula_structural   Sr(YS2)2
_chemical_formula_sum   'Sr4 Y8 S16'
_cell_volume   695.60312030
_cell_formula_units_Z   4
loop_
 _symmetry_equiv_pos_site_id
 _symmetry_equiv_pos_as_xyz
  1  'x, y, z'
loop_
 _atom_site_type_symbol
 _atom_site_label
 _atom_site_symmetry_multiplicity
 _atom_site_fract_x
 _atom_site_fract_y
 _atom_site_fract_z
 _atom_site_occupancy
  Sr  Sr0  1  0.25000000  0.25792900  0.83809300  1
  Sr  Sr1  1  0.75000000  0.74207100  0.16190700  1
  Sr  Sr2  1  0.25000000  0.75792900  0.66190700  1
  Sr  Sr3  1  0.75000000  0.24207100  0.33809300  1
  Y  Y4  1  0.25000000  0.93223300  0.88985800  1
  Y  Y5  1  0.75000000  0.06776700  0.11014200  1
  Y  Y6  1  0.25000000  0.43223300  0.61014200  1
  Y  Y7  1  0.75000000  0.56776700  0.38985800  1
  Y  Y8  1  0.25000000  0.41938000  0.10081300  1
  Y  Y9  1  0.75000000  0.58062000  0.89918700  1
  Y  Y10  1  0.25000000  0.91938000  0.39918700  1
  Y  Y11  1  0.75000000  0.08062000  0.60081300  1
  S  S12  1  0.25000000  0.13018700  0.47311700  1
  S  S13  1  0.75000000  0.86981300  0.52688300  1
  S  S14  1  0.25000000  0.63018700  0.02688300  1
  S  S15  1  0.75000000  0.36981300  0.97311700  1
  S  S16  1  0.75000000  0.79260900  0.82530400  1
  S  S17  1  0.25000000  0.20739100  0.17469600  1
  S  S18  1  0.75000000  0.29260900  0.67469600  1
  S  S19  1  0.25000000  0.70739100  0.32530400  1
  S  S20  1  0.75000000  0.08586600  0.92150500  1
  S  S21  1  0.25000000  0.91413400  0.07849500  1
  S  S22  1  0.75000000  0.58586600  0.57849500  1
  S  S23  1  0.25000000  0.41413400  0.42150500  1
  S  S24  1  0.75000000  0.47765400  0.21585200  1
  S  S25  1  0.25000000  0.52234600  0.78414800  1
  S  S26  1  0.75000000  0.97765400  0.28414800  1
  S  S27  1  0.25000000  0.02234600  0.71585200  1
