# generated using pymatgen
data_LiGdO2
_symmetry_space_group_name_H-M   'P 1'
_cell_length_a   3.44881500
_cell_length_b   5.36572800
_cell_length_c   11.41556000
_cell_angle_alpha   90.00000000
_cell_angle_beta   90.00000000
_cell_angle_gamma   90.00000000
_symmetry_Int_Tables_number   1
_chemical_formula_structural   LiGdO2
_chemical_formula_sum   'Li4 Gd4 O8'
_cell_volume   211.24954069
_cell_formula_units_Z   4
loop_
 _symmetry_equiv_pos_site_id
 _symmetry_equiv_pos_as_xyz
  1  'x, y, z'
loop_
 _atom_site_type_symbol
 _atom_site_label
 _atom_site_symmetry_multiplicity
 _atom_site_fract_x
 _atom_site_fract_y
 _atom_site_fract_z
 _atom_site_occupancy
  Li  Li0  1  0.75000000  0.40167100  0.06559500  1
  Li  Li1  1  0.25000000  0.90167100  0.43440500  1
  Li  Li2  1  0.75000000  0.09832900  0.56559500  1
  Li  Li3  1  0.25000000  0.59832900  0.93440500  1
  Gd  Gd4  1  0.25000000  0.54750900  0.64046200  1
  Gd  Gd5  1  0.75000000  0.45249100  0.35953800  1
  Gd  Gd6  1  0.75000000  0.04750900  0.85953800  1
  Gd  Gd7  1  0.25000000  0.95249100  0.14046200  1
  O  O8  1  0.25000000  0.24426700  0.97386400  1
  O  O9  1  0.25000000  0.25573300  0.47386400  1
  O  O10  1  0.75000000  0.75573300  0.02613600  1
  O  O11  1  0.75000000  0.74426700  0.52613600  1
  O  O12  1  0.25000000  0.80666600  0.79607300  1
  O  O13  1  0.75000000  0.19333400  0.20392700  1
  O  O14  1  0.75000000  0.30666600  0.70392700  1
  O  O15  1  0.25000000  0.69333400  0.29607300  1
