# generated using pymatgen
data_Tl2CuH12(SO7)2
_symmetry_space_group_name_H-M   'P 1'
_cell_length_a   12.50898300
_cell_length_b   6.29940200
_cell_length_c   9.29256939
_cell_angle_alpha   75.38419175
_cell_angle_beta   90.00000000
_cell_angle_gamma   90.00000000
_symmetry_Int_Tables_number   1
_chemical_formula_structural   Tl2CuH12(SO7)2
_chemical_formula_sum   'Tl4 Cu2 H24 S4 O28'
_cell_volume   708.55043038
_cell_formula_units_Z   2
loop_
 _symmetry_equiv_pos_site_id
 _symmetry_equiv_pos_as_xyz
  1  'x, y, z'
loop_
 _atom_site_type_symbol
 _atom_site_label
 _atom_site_symmetry_multiplicity
 _atom_site_fract_x
 _atom_site_fract_y
 _atom_site_fract_z
 _atom_site_occupancy
  Tl  Tl0  1  0.35415100  0.65593300  0.12535200  1
  Tl  Tl1  1  0.85415100  0.34406700  0.37464800  1
  Tl  Tl2  1  0.64584900  0.34406700  0.87464800  1
  Tl  Tl3  1  0.14584900  0.65593300  0.62535200  1
  Cu  Cu4  1  0.50000000  0.00000000  0.50000000  1
  Cu  Cu5  1  0.00000000  0.00000000  0.00000000  1
  H  H6  1  0.64148700  0.69603100  0.53248200  1
  H  H7  1  0.14148700  0.30396900  0.96751800  1
  H  H8  1  0.35851300  0.30396900  0.46751800  1
  H  H9  1  0.85851300  0.69603100  0.03248200  1
  H  H10  1  0.56349200  0.67831700  0.39940100  1
  H  H11  1  0.06349200  0.32168300  0.10059900  1
  H  H12  1  0.39352100  0.07875600  0.20103900  1
  H  H13  1  0.89352100  0.92124400  0.29896100  1
  H  H14  1  0.60647900  0.92124400  0.79896100  1
  H  H15  1  0.10647900  0.07875600  0.70103900  1
  H  H16  1  0.37914000  0.91621000  0.73196600  1
  H  H17  1  0.87914000  0.08379000  0.76803400  1
  H  H18  1  0.62086000  0.08379000  0.26803400  1
  H  H19  1  0.12086000  0.91621000  0.23196600  1
  H  H20  1  0.41083500  0.68407200  0.69725900  1
  H  H21  1  0.91083500  0.31592800  0.80274100  1
  H  H22  1  0.58916500  0.31592800  0.30274100  1
  H  H23  1  0.08916500  0.68407200  0.19725900  1
  H  H24  1  0.80417700  0.99790000  0.17668500  1
  H  H25  1  0.30417700  0.00210000  0.32331500  1
  H  H26  1  0.93650800  0.67831700  0.89940100  1
  H  H27  1  0.43650800  0.32168300  0.60059900  1
  H  H28  1  0.69582300  0.99790000  0.67668500  1
  H  H29  1  0.19582300  0.00210000  0.82331500  1
  S  S30  1  0.86045000  0.72922000  0.61186800  1
  S  S31  1  0.36045000  0.27078000  0.88813200  1
  S  S32  1  0.13955000  0.27078000  0.38813200  1
  S  S33  1  0.63955000  0.72922000  0.11186800  1
  O  O34  1  0.60795600  0.15923200  0.34876000  1
  O  O35  1  0.89204400  0.15923200  0.84876000  1
  O  O36  1  0.12213200  0.96916300  0.79617500  1
  O  O37  1  0.62213200  0.03083700  0.70382500  1
  O  O38  1  0.87786800  0.03083700  0.20382500  1
  O  O39  1  0.37786800  0.96916300  0.29617500  1
  O  O40  1  0.93450100  0.71680200  0.99768300  1
  O  O41  1  0.10795600  0.84076800  0.15124000  1
  O  O42  1  0.06549900  0.28319800  0.00231700  1
  O  O43  1  0.56549900  0.71680200  0.49768300  1
  O  O44  1  0.33244800  0.05210400  0.86150000  1
  O  O45  1  0.83244800  0.94789600  0.63850000  1
  O  O46  1  0.66755200  0.94789600  0.13850000  1
  O  O47  1  0.16755200  0.05210400  0.36150000  1
  O  O48  1  0.42591800  0.40024700  0.75922400  1
  O  O49  1  0.92591800  0.59975300  0.74077600  1
  O  O50  1  0.57408200  0.59975300  0.24077600  1
  O  O51  1  0.07408200  0.40024700  0.25922400  1
  O  O52  1  0.42531400  0.24168100  0.02564700  1
  O  O53  1  0.92531400  0.75831900  0.47435300  1
  O  O54  1  0.57468600  0.75831900  0.97435300  1
  O  O55  1  0.07468600  0.24168100  0.52564700  1
  O  O56  1  0.43450100  0.28319800  0.50231700  1
  O  O57  1  0.76068000  0.60428400  0.60111400  1
  O  O58  1  0.73932000  0.60428400  0.10111400  1
  O  O59  1  0.23932000  0.39571600  0.39888600  1
  O  O60  1  0.39204400  0.84076800  0.65124000  1
  O  O61  1  0.26068000  0.39571600  0.89888600  1
