# generated using pymatgen
data_K2AgBi
_symmetry_space_group_name_H-M   'P 1'
_cell_length_a   6.87111381
_cell_length_b   6.87111381
_cell_length_c   6.48468400
_cell_angle_alpha   90.00000000
_cell_angle_beta   90.00000000
_cell_angle_gamma   103.51263473
_symmetry_Int_Tables_number   1
_chemical_formula_structural   K2AgBi
_chemical_formula_sum   'K4 Ag2 Bi2'
_cell_volume   297.68134121
_cell_formula_units_Z   2
loop_
 _symmetry_equiv_pos_site_id
 _symmetry_equiv_pos_as_xyz
  1  'x, y, z'
loop_
 _atom_site_type_symbol
 _atom_site_label
 _atom_site_symmetry_multiplicity
 _atom_site_fract_x
 _atom_site_fract_y
 _atom_site_fract_z
 _atom_site_occupancy
  K  K0  1  0.32710500  0.97861600  0.75000000  1
  K  K1  1  0.67289500  0.02138400  0.25000000  1
  K  K2  1  0.97861600  0.32710500  0.75000000  1
  K  K3  1  0.02138400  0.67289500  0.25000000  1
  Ag  Ag4  1  0.50000000  0.50000000  0.00000000  1
  Ag  Ag5  1  0.50000000  0.50000000  0.50000000  1
  Bi  Bi6  1  0.77123300  0.77123300  0.75000000  1
  Bi  Bi7  1  0.22876700  0.22876700  0.25000000  1
