# generated using pymatgen
data_KGdTe2
_symmetry_space_group_name_H-M   'P 1'
_cell_length_a   8.62343389
_cell_length_b   8.62343389
_cell_length_c   8.62343404
_cell_angle_alpha   30.51412541
_cell_angle_beta   30.51412541
_cell_angle_gamma   30.51412774
_symmetry_Int_Tables_number   1
_chemical_formula_structural   KGdTe2
_chemical_formula_sum   'K1 Gd1 Te2'
_cell_volume   146.55559655
_cell_formula_units_Z   1
loop_
 _symmetry_equiv_pos_site_id
 _symmetry_equiv_pos_as_xyz
  1  'x, y, z'
loop_
 _atom_site_type_symbol
 _atom_site_label
 _atom_site_symmetry_multiplicity
 _atom_site_fract_x
 _atom_site_fract_y
 _atom_site_fract_z
 _atom_site_occupancy
  K  K0  1  0.50000000  0.50000000  0.50000000  1
  Gd  Gd1  1  0.00000000  0.00000000  0.00000000  1
  Te  Te2  1  0.26272300  0.26272300  0.26272300  1
  Te  Te3  1  0.73727700  0.73727700  0.73727700  1
