# generated using pymatgen
data_TlInTe2
_symmetry_space_group_name_H-M   'P 1'
_cell_length_a   7.16035788
_cell_length_b   7.16035788
_cell_length_c   7.16035788
_cell_angle_alpha   105.19503172
_cell_angle_beta   105.19503172
_cell_angle_gamma   118.41073440
_symmetry_Int_Tables_number   1
_chemical_formula_structural   TlInTe2
_chemical_formula_sum   'Tl2 In2 Te4'
_cell_volume   277.37449418
_cell_formula_units_Z   2
loop_
 _symmetry_equiv_pos_site_id
 _symmetry_equiv_pos_as_xyz
  1  'x, y, z'
loop_
 _atom_site_type_symbol
 _atom_site_label
 _atom_site_symmetry_multiplicity
 _atom_site_fract_x
 _atom_site_fract_y
 _atom_site_fract_z
 _atom_site_occupancy
  Tl  Tl0  1  0.75000000  0.75000000  0.00000000  1
  Tl  Tl1  1  0.25000000  0.25000000  0.00000000  1
  In  In2  1  0.25000000  0.75000000  0.50000000  1
  In  In3  1  0.75000000  0.25000000  0.50000000  1
  Te  Te4  1  0.67913500  0.17913500  0.85827000  1
  Te  Te5  1  0.32086500  0.82086500  0.14173000  1
  Te  Te6  1  0.82086500  0.67913500  0.50000000  1
  Te  Te7  1  0.17913500  0.32086500  0.50000000  1
