# generated using pymatgen
data_U2Mn3Si5
_symmetry_space_group_name_H-M   'P 1'
_cell_length_a   10.49561900
_cell_length_b   10.49561900
_cell_length_c   5.38977900
_cell_angle_alpha   90.00000000
_cell_angle_beta   90.00000000
_cell_angle_gamma   90.00000000
_symmetry_Int_Tables_number   1
_chemical_formula_structural   U2Mn3Si5
_chemical_formula_sum   'U8 Mn12 Si20'
_cell_volume   593.72737314
_cell_formula_units_Z   4
loop_
 _symmetry_equiv_pos_site_id
 _symmetry_equiv_pos_as_xyz
  1  'x, y, z'
loop_
 _atom_site_type_symbol
 _atom_site_label
 _atom_site_symmetry_multiplicity
 _atom_site_fract_x
 _atom_site_fract_y
 _atom_site_fract_z
 _atom_site_occupancy
  U  U0  1  0.43046500  0.26448800  0.50000000  1
  U  U1  1  0.56953500  0.73551200  0.50000000  1
  U  U2  1  0.73551200  0.43046500  0.50000000  1
  U  U3  1  0.26448800  0.56953500  0.50000000  1
  U  U4  1  0.76448800  0.93046500  0.00000000  1
  U  U5  1  0.93046500  0.23551200  0.00000000  1
  U  U6  1  0.06953500  0.76448800  0.00000000  1
  U  U7  1  0.23551200  0.06953500  0.00000000  1
  Mn  Mn8  1  0.37385500  0.64023200  0.00000000  1
  Mn  Mn9  1  0.50000000  0.00000000  0.75000000  1
  Mn  Mn10  1  0.00000000  0.50000000  0.25000000  1
  Mn  Mn11  1  0.50000000  0.00000000  0.25000000  1
  Mn  Mn12  1  0.12614500  0.14023200  0.50000000  1
  Mn  Mn13  1  0.87385500  0.85976800  0.50000000  1
  Mn  Mn14  1  0.85976800  0.12614500  0.50000000  1
  Mn  Mn15  1  0.14023200  0.87385500  0.50000000  1
  Mn  Mn16  1  0.64023200  0.62614500  0.00000000  1
  Mn  Mn17  1  0.62614500  0.35976800  0.00000000  1
  Mn  Mn18  1  0.35976800  0.37385500  0.00000000  1
  Mn  Mn19  1  0.00000000  0.50000000  0.75000000  1
  Si  Si20  1  0.31624200  0.02063900  0.50000000  1
  Si  Si21  1  0.68375800  0.97936100  0.50000000  1
  Si  Si22  1  0.97936100  0.31624200  0.50000000  1
  Si  Si23  1  0.02063900  0.68375800  0.50000000  1
  Si  Si24  1  0.52063900  0.81624200  0.00000000  1
  Si  Si25  1  0.81624200  0.47936100  0.00000000  1
  Si  Si26  1  0.18375800  0.52063900  0.00000000  1
  Si  Si27  1  0.47936100  0.18375800  0.00000000  1
  Si  Si28  1  0.50000000  0.50000000  0.75553100  1
  Si  Si29  1  0.00000000  0.00000000  0.74446900  1
  Si  Si30  1  0.50000000  0.50000000  0.24446900  1
  Si  Si31  1  0.00000000  0.00000000  0.25553100  1
  Si  Si32  1  0.67880200  0.17880200  0.75000000  1
  Si  Si33  1  0.17880200  0.32119800  0.75000000  1
  Si  Si34  1  0.82119800  0.67880200  0.75000000  1
  Si  Si35  1  0.67880200  0.17880200  0.25000000  1
  Si  Si36  1  0.32119800  0.82119800  0.25000000  1
  Si  Si37  1  0.82119800  0.67880200  0.25000000  1
  Si  Si38  1  0.17880200  0.32119800  0.25000000  1
  Si  Si39  1  0.32119800  0.82119800  0.75000000  1
