# generated using pymatgen
data_TbGe2Pt
_symmetry_space_group_name_H-M   'P 1'
_cell_length_a   9.59131204
_cell_length_b   9.59131204
_cell_length_c   9.59131204
_cell_angle_alpha   153.74840879
_cell_angle_beta   125.52132110
_cell_angle_gamma   61.45385918
_symmetry_Int_Tables_number   1
_chemical_formula_structural   TbGe2Pt
_chemical_formula_sum   'Tb4 Ge8 Pt4'
_cell_volume   315.34300779
_cell_formula_units_Z   4
loop_
 _symmetry_equiv_pos_site_id
 _symmetry_equiv_pos_as_xyz
  1  'x, y, z'
loop_
 _atom_site_type_symbol
 _atom_site_label
 _atom_site_symmetry_multiplicity
 _atom_site_fract_x
 _atom_site_fract_y
 _atom_site_fract_z
 _atom_site_occupancy
  Tb  Tb0  1  0.70177300  0.70177300  0.00000000  1
  Tb  Tb1  1  0.26148300  0.50000000  0.76148300  1
  Tb  Tb2  1  0.29822700  0.29822700  0.00000000  1
  Tb  Tb3  1  0.73851700  0.50000000  0.23851700  1
  Ge  Ge4  1  0.04977500  0.69972900  0.35004600  1
  Ge  Ge5  1  0.95022500  0.30027100  0.64995400  1
  Ge  Ge6  1  0.65031700  0.30027100  0.35004600  1
  Ge  Ge7  1  0.34968300  0.69972900  0.64995400  1
  Ge  Ge8  1  0.57407000  0.07407000  0.50000000  1
  Ge  Ge9  1  0.92636200  0.92636200  0.00000000  1
  Ge  Ge10  1  0.07363800  0.07363800  0.00000000  1
  Ge  Ge11  1  0.42593000  0.92593000  0.50000000  1
  Pt  Pt12  1  0.60243700  0.85179500  0.75064100  1
  Pt  Pt13  1  0.39756300  0.14820500  0.24935900  1
  Pt  Pt14  1  0.89884600  0.14820500  0.75064100  1
  Pt  Pt15  1  0.10115400  0.85179500  0.24935900  1
