# generated using pymatgen
data_Na5NiO4
_symmetry_space_group_name_H-M   'P 1'
_cell_length_a   5.98378900
_cell_length_b   10.34006900
_cell_length_c   18.05111700
_cell_angle_alpha   90.00000000
_cell_angle_beta   90.00000000
_cell_angle_gamma   90.00000000
_symmetry_Int_Tables_number   1
_chemical_formula_structural   Na5NiO4
_chemical_formula_sum   'Na40 Ni8 O32'
_cell_volume   1116.87299201
_cell_formula_units_Z   8
loop_
 _symmetry_equiv_pos_site_id
 _symmetry_equiv_pos_as_xyz
  1  'x, y, z'
loop_
 _atom_site_type_symbol
 _atom_site_label
 _atom_site_symmetry_multiplicity
 _atom_site_fract_x
 _atom_site_fract_y
 _atom_site_fract_z
 _atom_site_occupancy
  Na  Na0  1  0.10438200  0.42006500  0.75138900  1
  Na  Na1  1  0.42808800  0.29670900  0.63859000  1
  Na  Na2  1  0.57191200  0.20329100  0.13859000  1
  Na  Na3  1  0.07191200  0.79670900  0.36141000  1
  Na  Na4  1  0.07191200  0.29670900  0.13859000  1
  Na  Na5  1  0.57191200  0.70329100  0.36141000  1
  Na  Na6  1  0.42808800  0.79670900  0.86141000  1
  Na  Na7  1  0.92808800  0.20329100  0.63859000  1
  Na  Na8  1  0.89980700  0.82916700  0.17119700  1
  Na  Na9  1  0.39980700  0.17083300  0.32880300  1
  Na  Na10  1  0.60019300  0.32916700  0.82880300  1
  Na  Na11  1  0.10019300  0.67083300  0.67119700  1
  Na  Na12  1  0.10019300  0.17083300  0.82880300  1
  Na  Na13  1  0.60019300  0.82916700  0.67119700  1
  Na  Na14  1  0.39980700  0.67083300  0.17119700  1
  Na  Na15  1  0.89980700  0.32916700  0.32880300  1
  Na  Na16  1  0.91522500  0.15699700  0.00143000  1
  Na  Na17  1  0.41522500  0.84300300  0.49857000  1
  Na  Na18  1  0.58477500  0.65699700  0.99857000  1
  Na  Na19  1  0.08477500  0.34300300  0.50143000  1
  Na  Na20  1  0.08477500  0.84300300  0.99857000  1
  Na  Na21  1  0.58477500  0.15699700  0.50143000  1
  Na  Na22  1  0.41522500  0.34300300  0.00143000  1
  Na  Na23  1  0.91522500  0.65699700  0.49857000  1
  Na  Na24  1  0.92269600  0.93929900  0.56580600  1
  Na  Na25  1  0.39561800  0.92006500  0.24861100  1
  Na  Na26  1  0.60438200  0.57993500  0.74861100  1
  Na  Na27  1  0.92808800  0.70329100  0.86141000  1
  Na  Na28  1  0.10438200  0.92006500  0.74861100  1
  Na  Na29  1  0.60438200  0.07993500  0.75138900  1
  Na  Na30  1  0.39561800  0.42006500  0.25138900  1
  Na  Na31  1  0.89561800  0.57993500  0.24861100  1
  Na  Na32  1  0.92269600  0.43929900  0.93419400  1
  Na  Na33  1  0.42269600  0.56070100  0.56580600  1
  Na  Na34  1  0.57730400  0.93929900  0.06580600  1
  Na  Na35  1  0.07730400  0.06070100  0.43419400  1
  Na  Na36  1  0.07730400  0.56070100  0.06580600  1
  Na  Na37  1  0.57730400  0.43929900  0.43419400  1
  Na  Na38  1  0.42269600  0.06070100  0.93419400  1
  Na  Na39  1  0.89561800  0.07993500  0.25138900  1
  Ni  Ni40  1  0.82434700  0.46083400  0.62395000  1
  Ni  Ni41  1  0.32434700  0.53916600  0.87605000  1
  Ni  Ni42  1  0.67565300  0.96083400  0.37605000  1
  Ni  Ni43  1  0.17565300  0.03916600  0.12395000  1
  Ni  Ni44  1  0.17565300  0.53916600  0.37605000  1
  Ni  Ni45  1  0.67565300  0.46083400  0.12395000  1
  Ni  Ni46  1  0.32434700  0.03916600  0.62395000  1
  Ni  Ni47  1  0.82434700  0.96083400  0.87605000  1
  O  O48  1  0.86159500  0.04803800  0.12059700  1
  O  O49  1  0.36159500  0.95196200  0.37940300  1
  O  O50  1  0.63840500  0.54803800  0.87940300  1
  O  O51  1  0.13840500  0.45196200  0.62059700  1
  O  O52  1  0.13840500  0.95196200  0.87940300  1
  O  O53  1  0.63840500  0.04803800  0.62059700  1
  O  O54  1  0.36159500  0.45196200  0.12059700  1
  O  O55  1  0.86159500  0.54803800  0.37940300  1
  O  O56  1  0.80483700  0.36771800  0.04538600  1
  O  O57  1  0.30483700  0.63228200  0.45461400  1
  O  O58  1  0.69516300  0.86771800  0.95461400  1
  O  O59  1  0.19516300  0.13228200  0.54538600  1
  O  O60  1  0.19516300  0.63228200  0.95461400  1
  O  O61  1  0.69516300  0.36771800  0.54538600  1
  O  O62  1  0.30483700  0.13228200  0.04538600  1
  O  O63  1  0.80483700  0.86771800  0.45461400  1
  O  O64  1  0.73531500  0.37232100  0.71206600  1
  O  O65  1  0.23531500  0.62767900  0.78793400  1
  O  O66  1  0.76468500  0.87232100  0.28793400  1
  O  O67  1  0.26468500  0.12767900  0.21206600  1
  O  O68  1  0.26468500  0.62767900  0.28793400  1
  O  O69  1  0.76468500  0.37232100  0.21206600  1
  O  O70  1  0.23531500  0.12767900  0.71206600  1
  O  O71  1  0.73531500  0.87232100  0.78793400  1
  O  O72  1  0.73758700  0.13780300  0.87461900  1
  O  O73  1  0.23758700  0.86219700  0.62538100  1
  O  O74  1  0.76241300  0.63780300  0.12538100  1
  O  O75  1  0.26241300  0.36219700  0.37461900  1
  O  O76  1  0.26241300  0.86219700  0.12538100  1
  O  O77  1  0.76241300  0.13780300  0.37461900  1
  O  O78  1  0.23758700  0.36219700  0.87461900  1
  O  O79  1  0.73758700  0.63780300  0.62538100  1
