# generated using pymatgen
data_YCu2
_symmetry_space_group_name_H-M   'P 1'
_cell_length_a   5.44497956
_cell_length_b   5.44497956
_cell_length_c   5.44497956
_cell_angle_alpha   133.84464814
_cell_angle_beta   101.41147369
_cell_angle_gamma   96.28309040
_symmetry_Int_Tables_number   1
_chemical_formula_structural   YCu2
_chemical_formula_sum   'Y2 Cu4'
_cell_volume   106.96443228
_cell_formula_units_Z   2
loop_
 _symmetry_equiv_pos_site_id
 _symmetry_equiv_pos_as_xyz
  1  'x, y, z'
loop_
 _atom_site_type_symbol
 _atom_site_label
 _atom_site_symmetry_multiplicity
 _atom_site_fract_x
 _atom_site_fract_y
 _atom_site_fract_z
 _atom_site_occupancy
  Y  Y0  1  0.21021700  0.46021700  0.75000000  1
  Y  Y1  1  0.78978300  0.53978300  0.25000000  1
  Cu  Cu2  1  0.38526500  0.83546000  0.54980500  1
  Cu  Cu3  1  0.61473500  0.16454000  0.45019500  1
  Cu  Cu4  1  0.21434400  0.16454000  0.04980500  1
  Cu  Cu5  1  0.78565600  0.83546000  0.95019500  1
