# generated using pymatgen
data_Nd2Re3Si5
_symmetry_space_group_name_H-M   'P 1'
_cell_length_a   11.03602700
_cell_length_b   11.03602700
_cell_length_c   5.74000300
_cell_angle_alpha   90.00000000
_cell_angle_beta   90.00000000
_cell_angle_gamma   90.00000000
_symmetry_Int_Tables_number   1
_chemical_formula_structural   Nd2Re3Si5
_chemical_formula_sum   'Nd8 Re12 Si20'
_cell_volume   699.09730514
_cell_formula_units_Z   4
loop_
 _symmetry_equiv_pos_site_id
 _symmetry_equiv_pos_as_xyz
  1  'x, y, z'
loop_
 _atom_site_type_symbol
 _atom_site_label
 _atom_site_symmetry_multiplicity
 _atom_site_fract_x
 _atom_site_fract_y
 _atom_site_fract_z
 _atom_site_occupancy
  Nd  Nd0  1  0.42288200  0.26352400  0.50000000  1
  Nd  Nd1  1  0.07711800  0.76352400  0.00000000  1
  Nd  Nd2  1  0.92288200  0.23647600  0.00000000  1
  Nd  Nd3  1  0.76352400  0.92288200  0.00000000  1
  Nd  Nd4  1  0.26352400  0.57711800  0.50000000  1
  Nd  Nd5  1  0.73647600  0.42288200  0.50000000  1
  Nd  Nd6  1  0.57711800  0.73647600  0.50000000  1
  Nd  Nd7  1  0.23647600  0.07711800  0.00000000  1
  Re  Re8  1  0.00000000  0.50000000  0.25000000  1
  Re  Re9  1  0.50000000  0.00000000  0.75000000  1
  Re  Re10  1  0.00000000  0.50000000  0.75000000  1
  Re  Re11  1  0.50000000  0.00000000  0.25000000  1
  Re  Re12  1  0.35159000  0.37518900  0.00000000  1
  Re  Re13  1  0.37518900  0.64841000  0.00000000  1
  Re  Re14  1  0.62481100  0.35159000  0.00000000  1
  Re  Re15  1  0.64841000  0.62481100  0.00000000  1
  Re  Re16  1  0.14841000  0.87518900  0.50000000  1
  Re  Re17  1  0.85159000  0.12481100  0.50000000  1
  Re  Re18  1  0.87518900  0.85159000  0.50000000  1
  Re  Re19  1  0.12481100  0.14841000  0.50000000  1
  Si  Si20  1  0.31684100  0.02420600  0.50000000  1
  Si  Si21  1  0.68315900  0.97579400  0.50000000  1
  Si  Si22  1  0.97579400  0.31684100  0.50000000  1
  Si  Si23  1  0.02420600  0.68315900  0.50000000  1
  Si  Si24  1  0.52420600  0.81684100  0.00000000  1
  Si  Si25  1  0.81684100  0.47579400  0.00000000  1
  Si  Si26  1  0.18315900  0.52420600  0.00000000  1
  Si  Si27  1  0.47579400  0.18315900  0.00000000  1
  Si  Si28  1  0.67133900  0.17133900  0.75000000  1
  Si  Si29  1  0.17133900  0.32866100  0.75000000  1
  Si  Si30  1  0.82866100  0.67133900  0.75000000  1
  Si  Si31  1  0.32866100  0.82866100  0.75000000  1
  Si  Si32  1  0.32866100  0.82866100  0.25000000  1
  Si  Si33  1  0.00000000  0.00000000  0.26250500  1
  Si  Si34  1  0.17133900  0.32866100  0.25000000  1
  Si  Si35  1  0.67133900  0.17133900  0.25000000  1
  Si  Si36  1  0.50000000  0.50000000  0.76250500  1
  Si  Si37  1  0.00000000  0.00000000  0.73749500  1
  Si  Si38  1  0.50000000  0.50000000  0.23749500  1
  Si  Si39  1  0.82866100  0.67133900  0.25000000  1
