# generated using pymatgen
data_CsBe2F5
_symmetry_space_group_name_H-M   'P 1'
_cell_length_a   8.06084100
_cell_length_b   8.06084100
_cell_length_c   8.06084100
_cell_angle_alpha   90.00000000
_cell_angle_beta   90.00000000
_cell_angle_gamma   90.00000000
_symmetry_Int_Tables_number   1
_chemical_formula_structural   CsBe2F5
_chemical_formula_sum   'Cs4 Be8 F20'
_cell_volume   523.77053627
_cell_formula_units_Z   4
loop_
 _symmetry_equiv_pos_site_id
 _symmetry_equiv_pos_as_xyz
  1  'x, y, z'
loop_
 _atom_site_type_symbol
 _atom_site_label
 _atom_site_symmetry_multiplicity
 _atom_site_fract_x
 _atom_site_fract_y
 _atom_site_fract_z
 _atom_site_occupancy
  Cs  Cs0  1  0.87500000  0.12500000  0.62500000  1
  Cs  Cs1  1  0.12500000  0.62500000  0.87500000  1
  Cs  Cs2  1  0.62500000  0.87500000  0.12500000  1
  Cs  Cs3  1  0.37500000  0.37500000  0.37500000  1
  Be  Be4  1  0.09972600  0.09972600  0.09972600  1
  Be  Be5  1  0.65027400  0.65027400  0.65027400  1
  Be  Be6  1  0.90027400  0.59972600  0.40027400  1
  Be  Be7  1  0.59972600  0.40027400  0.90027400  1
  Be  Be8  1  0.40027400  0.90027400  0.59972600  1
  Be  Be9  1  0.34972600  0.15027400  0.84972600  1
  Be  Be10  1  0.84972600  0.34972600  0.15027400  1
  Be  Be11  1  0.15027400  0.84972600  0.34972600  1
  F  F12  1  0.62500000  0.46669600  0.71669600  1
  F  F13  1  0.78330400  0.37500000  0.96669600  1
  F  F14  1  0.71669600  0.62500000  0.46669600  1
  F  F15  1  0.53330400  0.21669600  0.87500000  1
  F  F16  1  0.99256100  0.99256100  0.99256100  1
  F  F17  1  0.24256100  0.25743900  0.74256100  1
  F  F18  1  0.74256100  0.24256100  0.25743900  1
  F  F19  1  0.25743900  0.74256100  0.24256100  1
  F  F20  1  0.50743900  0.00743900  0.49256100  1
  F  F21  1  0.49256100  0.50743900  0.00743900  1
  F  F22  1  0.00743900  0.49256100  0.50743900  1
  F  F23  1  0.75743900  0.75743900  0.75743900  1
  F  F24  1  0.12500000  0.03330400  0.28330400  1
  F  F25  1  0.37500000  0.96669600  0.78330400  1
  F  F26  1  0.87500000  0.53330400  0.21669600  1
  F  F27  1  0.03330400  0.28330400  0.12500000  1
  F  F28  1  0.96669600  0.78330400  0.37500000  1
  F  F29  1  0.21669600  0.87500000  0.53330400  1
  F  F30  1  0.28330400  0.12500000  0.03330400  1
  F  F31  1  0.46669600  0.71669600  0.62500000  1
