# generated using pymatgen
data_Sb3(BrF8)2
_symmetry_space_group_name_H-M   'P 1'
_cell_length_a   7.88231435
_cell_length_b   7.88231435
_cell_length_c   14.81219092
_cell_angle_alpha   86.09709015
_cell_angle_beta   86.09709015
_cell_angle_gamma   59.83171340
_symmetry_Int_Tables_number   1
_chemical_formula_structural   Sb3(BrF8)2
_chemical_formula_sum   'Sb6 Br4 F32'
_cell_volume   793.18631119
_cell_formula_units_Z   2
loop_
 _symmetry_equiv_pos_site_id
 _symmetry_equiv_pos_as_xyz
  1  'x, y, z'
loop_
 _atom_site_type_symbol
 _atom_site_label
 _atom_site_symmetry_multiplicity
 _atom_site_fract_x
 _atom_site_fract_y
 _atom_site_fract_z
 _atom_site_occupancy
  Sb  Sb0  1  0.98638700  0.27141700  0.37879500  1
  Sb  Sb1  1  0.72858300  0.01361300  0.12120500  1
  Sb  Sb2  1  0.27141700  0.98638700  0.87879500  1
  Sb  Sb3  1  0.01361300  0.72858300  0.62120500  1
  Sb  Sb4  1  0.00000000  0.50000000  0.00000000  1
  Sb  Sb5  1  0.50000000  0.00000000  0.50000000  1
  Br  Br6  1  0.40316400  0.73369300  0.20341900  1
  Br  Br7  1  0.26630700  0.59683600  0.29658100  1
  Br  Br8  1  0.59683600  0.26630700  0.79658100  1
  Br  Br9  1  0.73369300  0.40316400  0.70341900  1
  F  F10  1  0.18357100  0.65164500  0.51688200  1
  F  F11  1  0.34835500  0.81642900  0.98311800  1
  F  F12  1  0.81642900  0.34835500  0.48311800  1
  F  F13  1  0.65164500  0.18357100  0.01688200  1
  F  F14  1  0.21498500  0.59278900  0.70455900  1
  F  F15  1  0.40721100  0.78501500  0.79544100  1
  F  F16  1  0.78501500  0.40721100  0.29544100  1
  F  F17  1  0.59278900  0.21498500  0.20455900  1
  F  F18  1  0.80297700  0.82775900  0.70938500  1
  F  F19  1  0.17224100  0.19702300  0.79061500  1
  F  F20  1  0.87702900  0.78863300  0.02443800  1
  F  F21  1  0.21136700  0.12297100  0.47556200  1
  F  F22  1  0.12297100  0.21136700  0.97556200  1
  F  F23  1  0.78863300  0.87702900  0.52443800  1
  F  F24  1  0.80576700  0.48521200  0.07696100  1
  F  F25  1  0.51478800  0.19423300  0.42303900  1
  F  F26  1  0.19423300  0.51478800  0.92303900  1
  F  F27  1  0.48521200  0.80576700  0.57696100  1
  F  F28  1  0.16227200  0.43569400  0.09957600  1
  F  F29  1  0.56430600  0.83772800  0.40042400  1
  F  F30  1  0.83772800  0.56430600  0.90042400  1
  F  F31  1  0.43569400  0.16227200  0.59957600  1
  F  F32  1  0.96983300  0.01309300  0.12050900  1
  F  F33  1  0.98690700  0.03016700  0.37949100  1
  F  F34  1  0.03016700  0.98690700  0.87949100  1
  F  F35  1  0.01309300  0.96983300  0.62050900  1
  F  F36  1  0.51402800  0.96813900  0.10900300  1
  F  F37  1  0.03186100  0.48597200  0.39099700  1
  F  F38  1  0.48597200  0.03186100  0.89099700  1
  F  F39  1  0.96813900  0.51402800  0.60900300  1
  F  F40  1  0.82775900  0.80297700  0.20938500  1
  F  F41  1  0.19702300  0.17224100  0.29061500  1
