# generated using pymatgen
data_Bi2PdO4
_symmetry_space_group_name_H-M   'P 1'
_cell_length_a   8.61246600
_cell_length_b   8.61246600
_cell_length_c   6.16996700
_cell_angle_alpha   90.00000000
_cell_angle_beta   90.00000000
_cell_angle_gamma   90.00000000
_symmetry_Int_Tables_number   1
_chemical_formula_structural   Bi2PdO4
_chemical_formula_sum   'Bi8 Pd4 O16'
_cell_volume   457.65465285
_cell_formula_units_Z   4
loop_
 _symmetry_equiv_pos_site_id
 _symmetry_equiv_pos_as_xyz
  1  'x, y, z'
loop_
 _atom_site_type_symbol
 _atom_site_label
 _atom_site_symmetry_multiplicity
 _atom_site_fract_x
 _atom_site_fract_y
 _atom_site_fract_z
 _atom_site_occupancy
  Bi  Bi0  1  0.32655900  0.67344100  0.75000000  1
  Bi  Bi1  1  0.17344100  0.17344100  0.75000000  1
  Bi  Bi2  1  0.82655900  0.82655900  0.75000000  1
  Bi  Bi3  1  0.67344100  0.32655900  0.75000000  1
  Bi  Bi4  1  0.17344100  0.82655900  0.25000000  1
  Bi  Bi5  1  0.32655900  0.32655900  0.25000000  1
  Bi  Bi6  1  0.67344100  0.67344100  0.25000000  1
  Bi  Bi7  1  0.82655900  0.17344100  0.25000000  1
  Pd  Pd8  1  0.00000000  0.50000000  0.58003800  1
  Pd  Pd9  1  0.50000000  0.00000000  0.91996200  1
  Pd  Pd10  1  0.50000000  0.00000000  0.41996200  1
  Pd  Pd11  1  0.00000000  0.50000000  0.08003800  1
  O  O12  1  0.21545800  0.39842400  0.58748900  1
  O  O13  1  0.78454200  0.60157600  0.58748900  1
  O  O14  1  0.10157600  0.71545800  0.58748900  1
  O  O15  1  0.89842400  0.28454200  0.58748900  1
  O  O16  1  0.39842400  0.21545800  0.91251100  1
  O  O17  1  0.71545800  0.10157600  0.91251100  1
  O  O18  1  0.28454200  0.89842400  0.91251100  1
  O  O19  1  0.60157600  0.78454200  0.91251100  1
  O  O20  1  0.28454200  0.10157600  0.41251100  1
  O  O21  1  0.71545800  0.89842400  0.41251100  1
  O  O22  1  0.39842400  0.78454200  0.41251100  1
  O  O23  1  0.60157600  0.21545800  0.41251100  1
  O  O24  1  0.89842400  0.71545800  0.08748900  1
  O  O25  1  0.21545800  0.60157600  0.08748900  1
  O  O26  1  0.78454200  0.39842400  0.08748900  1
  O  O27  1  0.10157600  0.28454200  0.08748900  1
