# generated using pymatgen
data_Na4B2O5
_symmetry_space_group_name_H-M   'P 1'
_cell_length_a   6.71092557
_cell_length_b   6.71092557
_cell_length_c   6.38000926
_cell_angle_alpha   74.07167223
_cell_angle_beta   74.07167223
_cell_angle_gamma   74.00353149
_symmetry_Int_Tables_number   1
_chemical_formula_structural   Na4B2O5
_chemical_formula_sum   'Na8 B4 O10'
_cell_volume   259.38712499
_cell_formula_units_Z   2
loop_
 _symmetry_equiv_pos_site_id
 _symmetry_equiv_pos_as_xyz
  1  'x, y, z'
loop_
 _atom_site_type_symbol
 _atom_site_label
 _atom_site_symmetry_multiplicity
 _atom_site_fract_x
 _atom_site_fract_y
 _atom_site_fract_z
 _atom_site_occupancy
  Na  Na0  1  0.68561200  0.03211200  0.77243300  1
  Na  Na1  1  0.96788800  0.31438800  0.72756700  1
  Na  Na2  1  0.31438800  0.96788800  0.22756700  1
  Na  Na3  1  0.03211200  0.68561200  0.27243300  1
  Na  Na4  1  0.40245100  0.32885500  0.42718400  1
  Na  Na5  1  0.67114500  0.59754900  0.07281600  1
  Na  Na6  1  0.59754900  0.67114500  0.57281600  1
  Na  Na7  1  0.32885500  0.40245100  0.92718400  1
  B  B8  1  0.25529600  0.92779400  0.83248300  1
  B  B9  1  0.07220600  0.74470400  0.66751700  1
  B  B10  1  0.74470400  0.07220600  0.16751700  1
  B  B11  1  0.92779400  0.25529600  0.33248300  1
  O  O12  1  0.92436600  0.07563400  0.25000000  1
  O  O13  1  0.07563400  0.92436600  0.75000000  1
  O  O14  1  0.74370700  0.34851900  0.45984600  1
  O  O15  1  0.65148100  0.25629300  0.04015400  1
  O  O16  1  0.31536600  0.11748800  0.78309400  1
  O  O17  1  0.88251200  0.68463400  0.71690600  1
  O  O18  1  0.68463400  0.88251200  0.21690600  1
  O  O19  1  0.11748800  0.31536600  0.28309400  1
  O  O20  1  0.34851900  0.74370700  0.95984600  1
  O  O21  1  0.25629300  0.65148100  0.54015400  1
