# generated using pymatgen
data_Co(BW)3
_symmetry_space_group_name_H-M   'P 1'
_cell_length_a   4.52957142
_cell_length_b   4.52957142
_cell_length_c   10.80454400
_cell_angle_alpha   90.00000000
_cell_angle_beta   90.00000000
_cell_angle_gamma   138.80096954
_symmetry_Int_Tables_number   1
_chemical_formula_structural   Co(BW)3
_chemical_formula_sum   'Co2 B6 W6'
_cell_volume   146.01349102
_cell_formula_units_Z   2
loop_
 _symmetry_equiv_pos_site_id
 _symmetry_equiv_pos_as_xyz
  1  'x, y, z'
loop_
 _atom_site_type_symbol
 _atom_site_label
 _atom_site_symmetry_multiplicity
 _atom_site_fract_x
 _atom_site_fract_y
 _atom_site_fract_z
 _atom_site_occupancy
  Co  Co0  1  0.50000000  0.50000000  0.00000000  1
  Co  Co1  1  0.50000000  0.50000000  0.50000000  1
  B  B2  1  0.79079300  0.20920700  0.25000000  1
  B  B3  1  0.20920700  0.79079300  0.75000000  1
  B  B4  1  0.08611500  0.91388500  0.60273300  1
  B  B5  1  0.91388500  0.08611500  0.39726700  1
  B  B6  1  0.91388500  0.08611500  0.10273300  1
  B  B7  1  0.08611500  0.91388500  0.89726700  1
  W  W8  1  0.49771500  0.50228500  0.25000000  1
  W  W9  1  0.50228500  0.49771500  0.75000000  1
  W  W10  1  0.78858200  0.21141800  0.60691900  1
  W  W11  1  0.21141800  0.78858200  0.39308100  1
  W  W12  1  0.21141800  0.78858200  0.10691900  1
  W  W13  1  0.78858200  0.21141800  0.89308100  1
