# generated using pymatgen
data_Rb2TeI6
_symmetry_space_group_name_H-M   'P 1'
_cell_length_a   8.25024100
_cell_length_b   8.25024100
_cell_length_c   12.41227600
_cell_angle_alpha   90.00000000
_cell_angle_beta   90.00000000
_cell_angle_gamma   90.00000000
_symmetry_Int_Tables_number   1
_chemical_formula_structural   Rb2TeI6
_chemical_formula_sum   'Rb4 Te2 I12'
_cell_volume   844.85989339
_cell_formula_units_Z   2
loop_
 _symmetry_equiv_pos_site_id
 _symmetry_equiv_pos_as_xyz
  1  'x, y, z'
loop_
 _atom_site_type_symbol
 _atom_site_label
 _atom_site_symmetry_multiplicity
 _atom_site_fract_x
 _atom_site_fract_y
 _atom_site_fract_z
 _atom_site_occupancy
  Rb  Rb0  1  0.00000000  0.50000000  0.25000000  1
  Rb  Rb1  1  0.50000000  0.00000000  0.25000000  1
  Rb  Rb2  1  0.00000000  0.50000000  0.75000000  1
  Rb  Rb3  1  0.50000000  0.00000000  0.75000000  1
  Te  Te4  1  0.00000000  0.00000000  0.00000000  1
  Te  Te5  1  0.50000000  0.50000000  0.50000000  1
  I  I6  1  0.00000000  0.00000000  0.24004500  1
  I  I7  1  0.50000000  0.50000000  0.25995400  1
  I  I8  1  0.00000000  0.00000000  0.75995400  1
  I  I9  1  0.50000000  0.50000000  0.74004600  1
  I  I10  1  0.20183300  0.29904400  0.00000000  1
  I  I11  1  0.70095600  0.20183300  0.00000000  1
  I  I12  1  0.29904400  0.79816700  0.00000000  1
  I  I13  1  0.70183300  0.20095600  0.50000000  1
  I  I14  1  0.29816700  0.79904400  0.50000000  1
  I  I15  1  0.79816700  0.70095600  0.00000000  1
  I  I16  1  0.79904400  0.70183300  0.50000000  1
  I  I17  1  0.20095600  0.29816700  0.50000000  1
