# generated using pymatgen
data_ScHCl
_symmetry_space_group_name_H-M   'P 1'
_cell_length_a   9.46080073
_cell_length_b   9.46080073
_cell_length_c   9.46080081
_cell_angle_alpha   21.38158529
_cell_angle_beta   21.38158529
_cell_angle_gamma   21.38158624
_symmetry_Int_Tables_number   1
_chemical_formula_structural   ScHCl
_chemical_formula_sum   'Sc2 H2 Cl2'
_cell_volume   98.60600662
_cell_formula_units_Z   2
loop_
 _symmetry_equiv_pos_site_id
 _symmetry_equiv_pos_as_xyz
  1  'x, y, z'
loop_
 _atom_site_type_symbol
 _atom_site_label
 _atom_site_symmetry_multiplicity
 _atom_site_fract_x
 _atom_site_fract_y
 _atom_site_fract_z
 _atom_site_occupancy
  Sc  Sc0  1  0.87865900  0.87865900  0.87865900  1
  Sc  Sc1  1  0.12134100  0.12134100  0.12134100  1
  H  H2  1  0.80636900  0.80636900  0.80636900  1
  H  H3  1  0.19363100  0.19363100  0.19363100  1
  Cl  Cl4  1  0.39642200  0.39642200  0.39642200  1
  Cl  Cl5  1  0.60357800  0.60357800  0.60357800  1
