# generated using pymatgen
data_Rb3AsSe16
_symmetry_space_group_name_H-M   'P 1'
_cell_length_a   12.10058541
_cell_length_b   12.10058541
_cell_length_c   12.10058541
_cell_angle_alpha   60.00000000
_cell_angle_beta   60.00000000
_cell_angle_gamma   60.00000000
_symmetry_Int_Tables_number   1
_chemical_formula_structural   Rb3AsSe16
_chemical_formula_sum   'Rb6 As2 Se32'
_cell_volume   1252.86462341
_cell_formula_units_Z   2
loop_
 _symmetry_equiv_pos_site_id
 _symmetry_equiv_pos_as_xyz
  1  'x, y, z'
loop_
 _atom_site_type_symbol
 _atom_site_label
 _atom_site_symmetry_multiplicity
 _atom_site_fract_x
 _atom_site_fract_y
 _atom_site_fract_z
 _atom_site_occupancy
  Rb  Rb0  1  0.50000000  0.50000000  0.50000000  1
  Rb  Rb1  1  0.75000000  0.75000000  0.75000000  1
  Rb  Rb2  1  0.12500000  0.12500000  0.12500000  1
  Rb  Rb3  1  0.12500000  0.12500000  0.62500000  1
  Rb  Rb4  1  0.12500000  0.62500000  0.12500000  1
  Rb  Rb5  1  0.62500000  0.12500000  0.12500000  1
  As  As6  1  0.25000000  0.25000000  0.25000000  1
  As  As7  1  0.00000000  0.00000000  0.00000000  1
  Se  Se8  1  0.79847400  0.17606600  0.58814000  1
  Se  Se9  1  0.43732000  0.79847400  0.58814000  1
  Se  Se10  1  0.58814000  0.79847400  0.17606600  1
  Se  Se11  1  0.58814000  0.17606600  0.43732000  1
  Se  Se12  1  0.58814000  0.43732000  0.79847400  1
  Se  Se13  1  0.43732000  0.58814000  0.17606600  1
  Se  Se14  1  0.32999000  0.32999000  0.01003000  1
  Se  Se15  1  0.01003000  0.32999000  0.32999000  1
  Se  Se16  1  0.32999000  0.01003100  0.32999000  1
  Se  Se17  1  0.32999000  0.32999000  0.32999000  1
  Se  Se18  1  0.92001000  0.92001000  0.23996900  1
  Se  Se19  1  0.23996900  0.92001000  0.92001000  1
  Se  Se20  1  0.92001000  0.23996900  0.92001000  1
  Se  Se21  1  0.92001000  0.92001000  0.92001000  1
  Se  Se22  1  0.07393400  0.45152600  0.81268000  1
  Se  Se23  1  0.81268000  0.07393400  0.45152600  1
  Se  Se24  1  0.45152600  0.81268000  0.07393400  1
  Se  Se25  1  0.07393400  0.66186000  0.45152600  1
  Se  Se26  1  0.07393400  0.81268000  0.66186000  1
  Se  Se27  1  0.45152600  0.66186000  0.81268000  1
  Se  Se28  1  0.66186000  0.07393400  0.81268000  1
  Se  Se29  1  0.66186000  0.45152600  0.07393400  1
  Se  Se30  1  0.81268000  0.45152600  0.66186000  1
  Se  Se31  1  0.45152600  0.07393400  0.66186000  1
  Se  Se32  1  0.81268000  0.66186000  0.07393400  1
  Se  Se33  1  0.66186000  0.81268000  0.45152600  1
  Se  Se34  1  0.17606600  0.79847400  0.43732000  1
  Se  Se35  1  0.43732000  0.17606600  0.79847400  1
  Se  Se36  1  0.79847400  0.43732000  0.17606600  1
  Se  Se37  1  0.17606600  0.58814000  0.79847400  1
  Se  Se38  1  0.17606600  0.43732000  0.58814000  1
  Se  Se39  1  0.79847400  0.58814000  0.43732000  1
