# generated using pymatgen
data_NaSn2Cl5
_symmetry_space_group_name_H-M   'P 1'
_cell_length_a   8.63993200
_cell_length_b   8.82967400
_cell_length_c   12.17429500
_cell_angle_alpha   90.00000000
_cell_angle_beta   90.00000000
_cell_angle_gamma   90.00000000
_symmetry_Int_Tables_number   1
_chemical_formula_structural   NaSn2Cl5
_chemical_formula_sum   'Na4 Sn8 Cl20'
_cell_volume   928.74997443
_cell_formula_units_Z   4
loop_
 _symmetry_equiv_pos_site_id
 _symmetry_equiv_pos_as_xyz
  1  'x, y, z'
loop_
 _atom_site_type_symbol
 _atom_site_label
 _atom_site_symmetry_multiplicity
 _atom_site_fract_x
 _atom_site_fract_y
 _atom_site_fract_z
 _atom_site_occupancy
  Na  Na0  1  0.00000000  0.25152300  0.50000000  1
  Na  Na1  1  0.50000000  0.24847700  0.00000000  1
  Na  Na2  1  0.00000000  0.74847700  0.50000000  1
  Na  Na3  1  0.50000000  0.75152300  0.00000000  1
  Sn  Sn4  1  0.94552600  0.00000000  0.83334500  1
  Sn  Sn5  1  0.05386500  0.50000000  0.17334600  1
  Sn  Sn6  1  0.55386500  0.00000000  0.32665400  1
  Sn  Sn7  1  0.94613500  0.50000000  0.82665400  1
  Sn  Sn8  1  0.44613500  0.00000000  0.67334600  1
  Sn  Sn9  1  0.55447400  0.50000000  0.33334500  1
  Sn  Sn10  1  0.05447400  0.00000000  0.16665500  1
  Sn  Sn11  1  0.44552600  0.50000000  0.66665500  1
  Cl  Cl12  1  0.16119600  0.50000000  0.60344300  1
  Cl  Cl13  1  0.50000000  0.70253000  0.50000000  1
  Cl  Cl14  1  0.00000000  0.79747000  0.00000000  1
  Cl  Cl15  1  0.50000000  0.29747000  0.50000000  1
  Cl  Cl16  1  0.00000000  0.20253000  0.00000000  1
  Cl  Cl17  1  0.83880400  0.50000000  0.39655700  1
  Cl  Cl18  1  0.33880400  0.00000000  0.10344300  1
  Cl  Cl19  1  0.16512000  0.72053500  0.29315600  1
  Cl  Cl20  1  0.83488000  0.27946500  0.70684400  1
  Cl  Cl21  1  0.33488000  0.22053500  0.79315600  1
  Cl  Cl22  1  0.16512000  0.27946500  0.29315600  1
  Cl  Cl23  1  0.66512000  0.22053500  0.20684400  1
  Cl  Cl24  1  0.83488000  0.72053500  0.70684400  1
  Cl  Cl25  1  0.66512000  0.77946500  0.20684400  1
  Cl  Cl26  1  0.68515500  0.50000000  0.93367000  1
  Cl  Cl27  1  0.33488000  0.77946500  0.79315600  1
  Cl  Cl28  1  0.81484500  0.00000000  0.43367000  1
  Cl  Cl29  1  0.31484500  0.50000000  0.06633000  1
  Cl  Cl30  1  0.18515500  0.00000000  0.56633000  1
  Cl  Cl31  1  0.66119600  0.00000000  0.89655700  1
