# generated using pymatgen
data_Na4Ge2Se5
_symmetry_space_group_name_H-M   'P 1'
_cell_length_a   7.16730100
_cell_length_b   8.22953577
_cell_length_c   10.81907724
_cell_angle_alpha   73.50704308
_cell_angle_beta   70.76698763
_cell_angle_gamma   81.72918752
_symmetry_Int_Tables_number   1
_chemical_formula_structural   Na4Ge2Se5
_chemical_formula_sum   'Na8 Ge4 Se10'
_cell_volume   576.84567867
_cell_formula_units_Z   2
loop_
 _symmetry_equiv_pos_site_id
 _symmetry_equiv_pos_as_xyz
  1  'x, y, z'
loop_
 _atom_site_type_symbol
 _atom_site_label
 _atom_site_symmetry_multiplicity
 _atom_site_fract_x
 _atom_site_fract_y
 _atom_site_fract_z
 _atom_site_occupancy
  Na  Na0  1  0.20576100  0.00088800  0.59415700  1
  Na  Na1  1  0.79423900  0.99911200  0.40584300  1
  Na  Na2  1  0.90964100  0.52134200  0.68318900  1
  Na  Na3  1  0.09035900  0.47865800  0.31681100  1
  Na  Na4  1  0.50000000  0.50000000  0.50000000  1
  Na  Na5  1  0.00000000  0.00000000  0.00000000  1
  Na  Na6  1  0.27287100  0.49069500  0.89649300  1
  Na  Na7  1  0.72712900  0.50930500  0.10350700  1
  Ge  Ge8  1  0.42523400  0.84491600  0.22976800  1
  Ge  Ge9  1  0.57476600  0.15508400  0.77023200  1
  Ge  Ge10  1  0.38267600  0.15804700  0.16616600  1
  Ge  Ge11  1  0.61732400  0.84195300  0.83383400  1
  Se  Se12  1  0.05964300  0.24667100  0.15479100  1
  Se  Se13  1  0.94035700  0.75332900  0.84520900  1
  Se  Se14  1  0.64314300  0.25485400  0.94731100  1
  Se  Se15  1  0.35685700  0.74514600  0.05268900  1
  Se  Se16  1  0.83673500  0.24986600  0.57121600  1
  Se  Se17  1  0.16326500  0.75013400  0.42878400  1
  Se  Se18  1  0.53596500  0.74531600  0.67381400  1
  Se  Se19  1  0.46403500  0.25468400  0.32618600  1
  Se  Se20  1  0.25964300  0.24648900  0.74462800  1
  Se  Se21  1  0.74035700  0.75351100  0.25537200  1
