# generated using pymatgen
data_Cs2GaSb2
_symmetry_space_group_name_H-M   'P 1'
_cell_length_a   8.55520100
_cell_length_b   11.40603200
_cell_length_c   18.38254000
_cell_angle_alpha   90.00000000
_cell_angle_beta   90.00000000
_cell_angle_gamma   90.00000000
_symmetry_Int_Tables_number   1
_chemical_formula_structural   Cs2GaSb2
_chemical_formula_sum   'Cs16 Ga8 Sb16'
_cell_volume   1793.78473080
_cell_formula_units_Z   8
loop_
 _symmetry_equiv_pos_site_id
 _symmetry_equiv_pos_as_xyz
  1  'x, y, z'
loop_
 _atom_site_type_symbol
 _atom_site_label
 _atom_site_symmetry_multiplicity
 _atom_site_fract_x
 _atom_site_fract_y
 _atom_site_fract_z
 _atom_site_occupancy
  Cs  Cs0  1  0.86997800  0.44781800  0.36435400  1
  Cs  Cs1  1  0.36997800  0.55218200  0.13564600  1
  Cs  Cs2  1  0.13002200  0.94781800  0.63564600  1
  Cs  Cs3  1  0.63002200  0.05218200  0.86435400  1
  Cs  Cs4  1  0.13002200  0.55218200  0.63564600  1
  Cs  Cs5  1  0.63002200  0.44781800  0.86435400  1
  Cs  Cs6  1  0.86997800  0.05218200  0.36435400  1
  Cs  Cs7  1  0.36997800  0.94781800  0.13564600  1
  Cs  Cs8  1  0.37623100  0.46649800  0.37219800  1
  Cs  Cs9  1  0.87623100  0.53350200  0.12780200  1
  Cs  Cs10  1  0.62376900  0.96649800  0.62780200  1
  Cs  Cs11  1  0.12376900  0.03350200  0.87219800  1
  Cs  Cs12  1  0.62376900  0.53350200  0.62780200  1
  Cs  Cs13  1  0.12376900  0.46649800  0.87219800  1
  Cs  Cs14  1  0.37623100  0.03350200  0.37219800  1
  Cs  Cs15  1  0.87623100  0.96649800  0.12780200  1
  Ga  Ga16  1  0.10753300  0.75000000  0.42170300  1
  Ga  Ga17  1  0.60753300  0.25000000  0.07829700  1
  Ga  Ga18  1  0.39246700  0.75000000  0.92170300  1
  Ga  Ga19  1  0.85970400  0.75000000  0.92122200  1
  Ga  Ga20  1  0.35970400  0.25000000  0.57877800  1
  Ga  Ga21  1  0.14029600  0.25000000  0.07877800  1
  Ga  Ga22  1  0.64029600  0.75000000  0.42122200  1
  Ga  Ga23  1  0.89246700  0.25000000  0.57829700  1
  Sb  Sb24  1  0.70284000  0.75000000  0.28149200  1
  Sb  Sb25  1  0.37335400  0.25000000  0.98748600  1
  Sb  Sb26  1  0.12664600  0.25000000  0.48748600  1
  Sb  Sb27  1  0.87335400  0.75000000  0.51251400  1
  Sb  Sb28  1  0.45600900  0.75000000  0.78185800  1
  Sb  Sb29  1  0.95600900  0.25000000  0.71814200  1
  Sb  Sb30  1  0.54399100  0.25000000  0.21814200  1
  Sb  Sb31  1  0.04399100  0.75000000  0.28185800  1
  Sb  Sb32  1  0.20284000  0.25000000  0.21850800  1
  Sb  Sb33  1  0.29716000  0.25000000  0.71850800  1
  Sb  Sb34  1  0.79716000  0.75000000  0.78149200  1
  Sb  Sb35  1  0.37446600  0.75000000  0.49511900  1
  Sb  Sb36  1  0.12553400  0.75000000  0.99511900  1
  Sb  Sb37  1  0.62553400  0.25000000  0.50488100  1
  Sb  Sb38  1  0.62664600  0.75000000  0.01251400  1
  Sb  Sb39  1  0.87446600  0.25000000  0.00488100  1
