# generated using pymatgen
data_PtCl2
_symmetry_space_group_name_H-M   'P 1'
_cell_length_a   8.62061340
_cell_length_b   8.62061340
_cell_length_c   8.62061335
_cell_angle_alpha   108.12969158
_cell_angle_beta   108.12969158
_cell_angle_gamma   108.12969064
_symmetry_Int_Tables_number   1
_chemical_formula_structural   PtCl2
_chemical_formula_sum   'Pt6 Cl12'
_cell_volume   516.20815199
_cell_formula_units_Z   6
loop_
 _symmetry_equiv_pos_site_id
 _symmetry_equiv_pos_as_xyz
  1  'x, y, z'
loop_
 _atom_site_type_symbol
 _atom_site_label
 _atom_site_symmetry_multiplicity
 _atom_site_fract_x
 _atom_site_fract_y
 _atom_site_fract_z
 _atom_site_occupancy
  Pt  Pt0  1  0.92896900  0.92896900  0.68779000  1
  Pt  Pt1  1  0.68779000  0.92896900  0.92896900  1
  Pt  Pt2  1  0.92896900  0.68779000  0.92896900  1
  Pt  Pt3  1  0.07103100  0.31221000  0.07103100  1
  Pt  Pt4  1  0.07103100  0.07103100  0.31221000  1
  Pt  Pt5  1  0.31221000  0.07103100  0.07103100  1
  Cl  Cl6  1  0.00000000  0.23522900  0.76477100  1
  Cl  Cl7  1  0.76477100  0.00000000  0.23522900  1
  Cl  Cl8  1  0.23522900  0.76477100  0.00000000  1
  Cl  Cl9  1  0.00000000  0.76477100  0.23522900  1
  Cl  Cl10  1  0.23522900  0.00000000  0.76477100  1
  Cl  Cl11  1  0.76477100  0.23522900  0.00000000  1
  Cl  Cl12  1  0.13747900  0.37388200  0.37388200  1
  Cl  Cl13  1  0.37388200  0.37388200  0.13747900  1
  Cl  Cl14  1  0.37388200  0.13747900  0.37388200  1
  Cl  Cl15  1  0.62611800  0.86252100  0.62611800  1
  Cl  Cl16  1  0.86252100  0.62611800  0.62611800  1
  Cl  Cl17  1  0.62611800  0.62611800  0.86252100  1
