# generated using pymatgen
data_K6Sn3As5
_symmetry_space_group_name_H-M   'P 1'
_cell_length_a   10.88137800
_cell_length_b   11.13857500
_cell_length_c   15.03822500
_cell_angle_alpha   90.00000000
_cell_angle_beta   90.00000000
_cell_angle_gamma   90.00000000
_symmetry_Int_Tables_number   1
_chemical_formula_structural   K6Sn3As5
_chemical_formula_sum   'K24 Sn12 As20'
_cell_volume   1822.67866074
_cell_formula_units_Z   4
loop_
 _symmetry_equiv_pos_site_id
 _symmetry_equiv_pos_as_xyz
  1  'x, y, z'
loop_
 _atom_site_type_symbol
 _atom_site_label
 _atom_site_symmetry_multiplicity
 _atom_site_fract_x
 _atom_site_fract_y
 _atom_site_fract_z
 _atom_site_occupancy
  K  K0  1  0.79208000  0.89511500  0.85269600  1
  K  K1  1  0.29208000  0.10488500  0.64730400  1
  K  K2  1  0.20792000  0.89511500  0.14730400  1
  K  K3  1  0.70792000  0.10488500  0.35269600  1
  K  K4  1  0.70792000  0.10488500  0.64730400  1
  K  K5  1  0.20792000  0.89511500  0.85269600  1
  K  K6  1  0.29208000  0.10488500  0.35269600  1
  K  K7  1  0.79208000  0.89511500  0.14730400  1
  K  K8  1  0.00000000  0.58866800  0.78039500  1
  K  K9  1  0.50000000  0.41133200  0.71960500  1
  K  K10  1  0.00000000  0.58866800  0.21960500  1
  K  K11  1  0.50000000  0.41133200  0.28039500  1
  K  K12  1  0.79799600  0.30001800  0.14851700  1
  K  K13  1  0.29799600  0.69998200  0.35148300  1
  K  K14  1  0.20200400  0.30001800  0.85148300  1
  K  K15  1  0.70200400  0.69998200  0.64851700  1
  K  K16  1  0.70200400  0.69998200  0.35148300  1
  K  K17  1  0.20200400  0.30001800  0.14851700  1
  K  K18  1  0.29799600  0.69998200  0.64851700  1
  K  K19  1  0.79799600  0.30001800  0.85148300  1
  K  K20  1  0.00000000  0.09938000  0.00000000  1
  K  K21  1  0.50000000  0.90062000  0.50000000  1
  K  K22  1  0.50000000  0.41771700  0.00000000  1
  K  K23  1  0.00000000  0.58228300  0.50000000  1
  Sn  Sn24  1  0.50000000  0.73263100  0.89769000  1
  Sn  Sn25  1  0.00000000  0.26736900  0.60231000  1
  Sn  Sn26  1  0.50000000  0.73263100  0.10231000  1
  Sn  Sn27  1  0.00000000  0.26736900  0.39769000  1
  Sn  Sn28  1  0.50000000  0.11929900  0.87441500  1
  Sn  Sn29  1  0.00000000  0.88070100  0.62558500  1
  Sn  Sn30  1  0.50000000  0.11929900  0.12558500  1
  Sn  Sn31  1  0.66904900  0.39576800  0.50000000  1
  Sn  Sn32  1  0.16904900  0.60423200  0.00000000  1
  Sn  Sn33  1  0.33095100  0.39576800  0.50000000  1
  Sn  Sn34  1  0.83095100  0.60423200  0.00000000  1
  Sn  Sn35  1  0.00000000  0.88070100  0.37441500  1
  As  As36  1  0.00000000  0.08938200  0.72559100  1
  As  As37  1  0.50000000  0.91061800  0.22559100  1
  As  As38  1  0.00000000  0.08938200  0.27440900  1
  As  As39  1  0.69253400  0.59201300  0.85578300  1
  As  As40  1  0.50000000  0.91061800  0.77440900  1
  As  As41  1  0.19253400  0.40798700  0.64421700  1
  As  As42  1  0.30746600  0.59201300  0.14421700  1
  As  As43  1  0.80746600  0.40798700  0.35578300  1
  As  As44  1  0.80746600  0.40798700  0.64421700  1
  As  As45  1  0.30746600  0.59201300  0.85578300  1
  As  As46  1  0.19253400  0.40798700  0.35578300  1
  As  As47  1  0.69253400  0.59201300  0.14421700  1
  As  As48  1  0.68208200  0.10112900  0.00000000  1
  As  As49  1  0.18208200  0.89887100  0.50000000  1
  As  As50  1  0.31791800  0.10112900  0.00000000  1
  As  As51  1  0.81791800  0.89887100  0.50000000  1
  As  As52  1  0.00000000  0.78248900  0.00000000  1
  As  As53  1  0.50000000  0.21751100  0.50000000  1
  As  As54  1  0.00000000  0.42585100  0.00000000  1
  As  As55  1  0.50000000  0.57414900  0.50000000  1
