# generated using pymatgen
data_GeO2
_symmetry_space_group_name_H-M   'P 1'
_cell_length_a   5.08372302
_cell_length_b   5.08372302
_cell_length_c   5.75978400
_cell_angle_alpha   90.00000000
_cell_angle_beta   90.00000000
_cell_angle_gamma   119.99998727
_symmetry_Int_Tables_number   1
_chemical_formula_structural   GeO2
_chemical_formula_sum   'Ge3 O6'
_cell_volume   128.91416676
_cell_formula_units_Z   3
loop_
 _symmetry_equiv_pos_site_id
 _symmetry_equiv_pos_as_xyz
  1  'x, y, z'
loop_
 _atom_site_type_symbol
 _atom_site_label
 _atom_site_symmetry_multiplicity
 _atom_site_fract_x
 _atom_site_fract_y
 _atom_site_fract_z
 _atom_site_occupancy
  Ge  Ge0  1  0.54495200  0.54495200  0.00000000  1
  Ge  Ge1  1  0.00000000  0.45504800  0.33333300  1
  Ge  Ge2  1  0.45504800  0.00000000  0.66666700  1
  O  O3  1  0.29854800  0.39768200  0.24168700  1
  O  O4  1  0.60231800  0.90086500  0.90835300  1
  O  O5  1  0.09913500  0.70145200  0.57502000  1
  O  O6  1  0.39768200  0.29854800  0.75831300  1
  O  O7  1  0.70145200  0.09913500  0.42498000  1
  O  O8  1  0.90086500  0.60231800  0.09164700  1
