# generated using pymatgen
data_Ti4Cu2O
_symmetry_space_group_name_H-M   'P 1'
_cell_length_a   8.09428102
_cell_length_b   8.09428102
_cell_length_c   8.09428102
_cell_angle_alpha   60.00000000
_cell_angle_beta   60.00000000
_cell_angle_gamma   60.00000000
_symmetry_Int_Tables_number   1
_chemical_formula_structural   Ti4Cu2O
_chemical_formula_sum   'Ti16 Cu8 O4'
_cell_volume   374.99013049
_cell_formula_units_Z   4
loop_
 _symmetry_equiv_pos_site_id
 _symmetry_equiv_pos_as_xyz
  1  'x, y, z'
loop_
 _atom_site_type_symbol
 _atom_site_label
 _atom_site_symmetry_multiplicity
 _atom_site_fract_x
 _atom_site_fract_y
 _atom_site_fract_z
 _atom_site_occupancy
  Ti  Ti0  1  0.81929200  0.18070800  0.81929200  1
  Ti  Ti1  1  0.18070800  0.81929200  0.18070800  1
  Ti  Ti2  1  0.43070800  0.06929200  0.43070800  1
  Ti  Ti3  1  0.43070800  0.06929200  0.06929200  1
  Ti  Ti4  1  0.06929200  0.43070800  0.43070800  1
  Ti  Ti5  1  0.06929200  0.43070800  0.06929200  1
  Ti  Ti6  1  0.18070800  0.18070800  0.81929200  1
  Ti  Ti7  1  0.43070800  0.43070800  0.06929200  1
  Ti  Ti8  1  0.12500000  0.62500000  0.62500000  1
  Ti  Ti9  1  0.62500000  0.62500000  0.12500000  1
  Ti  Ti10  1  0.62500000  0.62500000  0.62500000  1
  Ti  Ti11  1  0.62500000  0.12500000  0.62500000  1
  Ti  Ti12  1  0.18070800  0.81929200  0.81929200  1
  Ti  Ti13  1  0.81929200  0.18070800  0.18070800  1
  Ti  Ti14  1  0.06929200  0.06929200  0.43070800  1
  Ti  Ti15  1  0.81929200  0.81929200  0.18070800  1
  Cu  Cu16  1  0.41656500  0.75030500  0.41656500  1
  Cu  Cu17  1  0.83343500  0.83343500  0.49969500  1
  Cu  Cu18  1  0.83343500  0.83343500  0.83343500  1
  Cu  Cu19  1  0.49969500  0.83343500  0.83343500  1
  Cu  Cu20  1  0.41656500  0.41656500  0.41656500  1
  Cu  Cu21  1  0.41656500  0.41656500  0.75030500  1
  Cu  Cu22  1  0.83343500  0.49969500  0.83343500  1
  Cu  Cu23  1  0.75030500  0.41656500  0.41656500  1
  O  O24  1  0.12500000  0.12500000  0.62500000  1
  O  O25  1  0.62500000  0.12500000  0.12500000  1
  O  O26  1  0.12500000  0.12500000  0.12500000  1
  O  O27  1  0.12500000  0.62500000  0.12500000  1
