# generated using pymatgen
data_SrHBr
_symmetry_space_group_name_H-M   'P 1'
_cell_length_a   4.22589600
_cell_length_b   4.22589600
_cell_length_c   7.53346600
_cell_angle_alpha   90.00000000
_cell_angle_beta   90.00000000
_cell_angle_gamma   90.00000000
_symmetry_Int_Tables_number   1
_chemical_formula_structural   SrHBr
_chemical_formula_sum   'Sr2 H2 Br2'
_cell_volume   134.53411994
_cell_formula_units_Z   2
loop_
 _symmetry_equiv_pos_site_id
 _symmetry_equiv_pos_as_xyz
  1  'x, y, z'
loop_
 _atom_site_type_symbol
 _atom_site_label
 _atom_site_symmetry_multiplicity
 _atom_site_fract_x
 _atom_site_fract_y
 _atom_site_fract_z
 _atom_site_occupancy
  Sr  Sr0  1  0.50000000  0.00000000  0.81821800  1
  Sr  Sr1  1  0.00000000  0.50000000  0.18178200  1
  H  H2  1  0.50000000  0.50000000  0.00000000  1
  H  H3  1  0.00000000  0.00000000  0.00000000  1
  Br  Br4  1  0.00000000  0.50000000  0.65847500  1
  Br  Br5  1  0.50000000  0.00000000  0.34152500  1
