# generated using pymatgen
data_Na4SeO5
_symmetry_space_group_name_H-M   'P 1'
_cell_length_a   5.67669600
_cell_length_b   10.00399267
_cell_length_c   10.02774378
_cell_angle_alpha   113.34605127
_cell_angle_beta   96.28951751
_cell_angle_gamma   95.75564326
_symmetry_Int_Tables_number   1
_chemical_formula_structural   Na4SeO5
_chemical_formula_sum   'Na16 Se4 O20'
_cell_volume   513.21786871
_cell_formula_units_Z   4
loop_
 _symmetry_equiv_pos_site_id
 _symmetry_equiv_pos_as_xyz
  1  'x, y, z'
loop_
 _atom_site_type_symbol
 _atom_site_label
 _atom_site_symmetry_multiplicity
 _atom_site_fract_x
 _atom_site_fract_y
 _atom_site_fract_z
 _atom_site_occupancy
  Na  Na0  1  0.25322000  0.94356000  0.54542800  1
  Na  Na1  1  0.75597900  0.44770700  0.06246800  1
  Na  Na2  1  0.24402100  0.55229300  0.93753200  1
  Na  Na3  1  0.74678000  0.05644000  0.45457200  1
  Na  Na4  1  0.00000000  0.00000000  0.00000000  1
  Na  Na5  1  0.50000000  0.50000000  0.50000000  1
  Na  Na6  1  0.49445400  0.90057100  0.09499400  1
  Na  Na7  1  0.50554600  0.09942900  0.90500600  1
  Na  Na8  1  0.99835800  0.60244300  0.40024700  1
  Na  Na9  1  0.00164200  0.39755700  0.59975300  1
  Na  Na10  1  0.72007700  0.83349000  0.63747400  1
  Na  Na11  1  0.27992300  0.16651000  0.36252600  1
  Na  Na12  1  0.00669300  0.80618400  0.20290000  1
  Na  Na13  1  0.99330700  0.19381600  0.79710000  1
  Na  Na14  1  0.73139100  0.64056000  0.84266400  1
  Na  Na15  1  0.26860900  0.35944000  0.15733600  1
  Se  Se16  1  0.48348900  0.29489800  0.73296200  1
  Se  Se17  1  0.51651100  0.70510200  0.26703800  1
  Se  Se18  1  0.21274600  0.77963900  0.75526100  1
  Se  Se19  1  0.78725400  0.22036100  0.24473900  1
  O  O20  1  0.21153800  0.60878500  0.19066500  1
  O  O21  1  0.05170400  0.35096800  0.34211600  1
  O  O22  1  0.94829600  0.64903200  0.65788400  1
  O  O23  1  0.78846200  0.39121500  0.80933500  1
  O  O24  1  0.88339300  0.05401600  0.22786500  1
  O  O25  1  0.11660700  0.94598400  0.77213500  1
  O  O26  1  0.86570200  0.22682400  0.07454900  1
  O  O27  1  0.13429800  0.77317600  0.92545100  1
  O  O28  1  0.58921600  0.54683200  0.29290300  1
  O  O29  1  0.41078400  0.45316800  0.70709700  1
  O  O30  1  0.78777200  0.80969400  0.39704700  1
  O  O31  1  0.21222800  0.19030600  0.60295300  1
  O  O32  1  0.61992400  0.68271300  0.10330500  1
  O  O33  1  0.38007600  0.31728700  0.89669500  1
  O  O34  1  0.32475700  0.72866200  0.58471700  1
  O  O35  1  0.67524300  0.27133800  0.41528300  1
  O  O36  1  0.39881200  0.87685300  0.31662600  1
  O  O37  1  0.60118800  0.12314700  0.68337400  1
  O  O38  1  0.48030100  0.15754400  0.15247900  1
  O  O39  1  0.51969900  0.84245600  0.84752100  1
