# generated using pymatgen
data_Gd(PdO2)2
_symmetry_space_group_name_H-M   'P 1'
_cell_length_a   6.57081368
_cell_length_b   6.57081368
_cell_length_c   6.57081368
_cell_angle_alpha   127.06546061
_cell_angle_beta   127.06546061
_cell_angle_gamma   78.14391430
_symmetry_Int_Tables_number   1
_chemical_formula_structural   Gd(PdO2)2
_chemical_formula_sum   'Gd2 Pd4 O8'
_cell_volume   174.99948562
_cell_formula_units_Z   2
loop_
 _symmetry_equiv_pos_site_id
 _symmetry_equiv_pos_as_xyz
  1  'x, y, z'
loop_
 _atom_site_type_symbol
 _atom_site_label
 _atom_site_symmetry_multiplicity
 _atom_site_fract_x
 _atom_site_fract_y
 _atom_site_fract_z
 _atom_site_occupancy
  Gd  Gd0  1  0.00000000  0.00000000  0.00000000  1
  Gd  Gd1  1  0.75000000  0.25000000  0.50000000  1
  Pd  Pd2  1  0.37500000  0.12500000  0.75000000  1
  Pd  Pd3  1  0.37500000  0.62500000  0.75000000  1
  Pd  Pd4  1  0.87500000  0.62500000  0.25000000  1
  Pd  Pd5  1  0.37500000  0.62500000  0.25000000  1
  O  O6  1  0.35468700  0.39195700  0.34899700  1
  O  O7  1  0.75569000  0.60468700  0.46273000  1
  O  O8  1  0.14195700  0.29296000  0.53727000  1
  O  O9  1  0.04296000  0.00569000  0.65100300  1
  O  O10  1  0.39531300  0.85804300  0.15100300  1
  O  O11  1  0.99431000  0.64531300  0.03727000  1
  O  O12  1  0.70704000  0.24431000  0.84899700  1
  O  O13  1  0.60804300  0.95704000  0.96273000  1
