# generated using pymatgen
data_Na5ScH4(C2O7)2
_symmetry_space_group_name_H-M   'P 1'
_cell_length_a   7.56586200
_cell_length_b   7.56586200
_cell_length_c   11.63055400
_cell_angle_alpha   90.00000000
_cell_angle_beta   90.00000000
_cell_angle_gamma   90.00000000
_symmetry_Int_Tables_number   1
_chemical_formula_structural   Na5ScH4(C2O7)2
_chemical_formula_sum   'Na10 Sc2 H8 C8 O28'
_cell_volume   665.75928677
_cell_formula_units_Z   2
loop_
 _symmetry_equiv_pos_site_id
 _symmetry_equiv_pos_as_xyz
  1  'x, y, z'
loop_
 _atom_site_type_symbol
 _atom_site_label
 _atom_site_symmetry_multiplicity
 _atom_site_fract_x
 _atom_site_fract_y
 _atom_site_fract_z
 _atom_site_occupancy
  Na  Na0  1  0.67994700  0.81921500  0.70903700  1
  Na  Na1  1  0.32005300  0.18078500  0.70903700  1
  Na  Na2  1  0.68078500  0.82005300  0.20903700  1
  Na  Na3  1  0.18078500  0.67994700  0.29096300  1
  Na  Na4  1  0.81921500  0.32005300  0.29096300  1
  Na  Na5  1  0.82005300  0.31921500  0.79096300  1
  Na  Na6  1  0.17994700  0.68078500  0.79096300  1
  Na  Na7  1  0.31921500  0.17994700  0.20903700  1
  Na  Na8  1  0.00000000  0.00000000  0.50000000  1
  Na  Na9  1  0.50000000  0.50000000  0.00000000  1
  Sc  Sc10  1  0.50000000  0.50000000  0.50000000  1
  Sc  Sc11  1  0.00000000  0.00000000  0.00000000  1
  H  H12  1  0.91465600  0.56002100  0.61534300  1
  H  H13  1  0.08534400  0.43997900  0.61534300  1
  H  H14  1  0.93997900  0.58534400  0.11534300  1
  H  H15  1  0.43997900  0.91465600  0.38465700  1
  H  H16  1  0.56002100  0.08534400  0.38465700  1
  H  H17  1  0.58534400  0.06002100  0.88465700  1
  H  H18  1  0.41465600  0.93997900  0.88465700  1
  H  H19  1  0.06002100  0.41465600  0.11534300  1
  C  C20  1  0.82334000  0.71967500  0.92291700  1
  C  C21  1  0.17666000  0.28032500  0.92291700  1
  C  C22  1  0.78032500  0.67666000  0.42291700  1
  C  C23  1  0.28032500  0.82334000  0.07708300  1
  C  C24  1  0.32334000  0.78032500  0.57708300  1
  C  C25  1  0.21967500  0.32334000  0.42291700  1
  C  C26  1  0.71967500  0.17666000  0.07708300  1
  C  C27  1  0.67666000  0.21967500  0.57708300  1
  O  O28  1  0.65790400  0.25285000  0.46617500  1
  O  O29  1  0.84209600  0.75285000  0.03382500  1
  O  O30  1  0.25285000  0.34209600  0.53382500  1
  O  O31  1  0.74715000  0.65790400  0.53382500  1
  O  O32  1  0.33080800  0.40689100  0.35521900  1
  O  O33  1  0.34209600  0.74715000  0.46617500  1
  O  O34  1  0.59310900  0.33080800  0.64478100  1
  O  O35  1  0.83080800  0.09310900  0.14478100  1
  O  O36  1  0.16919200  0.90689100  0.14478100  1
  O  O37  1  0.66919200  0.59310900  0.35521900  1
  O  O38  1  0.09310900  0.16919200  0.85521900  1
  O  O39  1  0.90689100  0.83080800  0.85521900  1
  O  O40  1  0.09298400  0.23128800  0.38394300  1
  O  O41  1  0.23128800  0.90701600  0.61605700  1
  O  O42  1  0.76871200  0.09298400  0.61605700  1
  O  O43  1  0.59298400  0.26871200  0.11605700  1
  O  O44  1  0.40701600  0.73128800  0.11605700  1
  O  O45  1  0.90701600  0.76871200  0.38394300  1
  O  O46  1  0.26871200  0.40701600  0.88394300  1
  O  O47  1  0.73128800  0.59298400  0.88394300  1
  O  O48  1  0.00000000  0.50000000  0.16724800  1
  O  O49  1  0.50000000  0.00000000  0.83275200  1
  O  O50  1  0.50000000  0.00000000  0.33275200  1
  O  O51  1  0.00000000  0.50000000  0.66724800  1
  O  O52  1  0.24715000  0.84209600  0.96617500  1
  O  O53  1  0.15790400  0.24715000  0.03382500  1
  O  O54  1  0.40689100  0.66919200  0.64478100  1
  O  O55  1  0.75285000  0.15790400  0.96617500  1
