# generated using pymatgen
data_NdSnPd
_symmetry_space_group_name_H-M   'P 1'
_cell_length_a   7.68851089
_cell_length_b   7.68851089
_cell_length_c   4.13077800
_cell_angle_alpha   90.00000000
_cell_angle_beta   90.00000000
_cell_angle_gamma   120.00000762
_symmetry_Int_Tables_number   1
_chemical_formula_structural   NdSnPd
_chemical_formula_sum   'Nd3 Sn3 Pd3'
_cell_volume   211.46910191
_cell_formula_units_Z   3
loop_
 _symmetry_equiv_pos_site_id
 _symmetry_equiv_pos_as_xyz
  1  'x, y, z'
loop_
 _atom_site_type_symbol
 _atom_site_label
 _atom_site_symmetry_multiplicity
 _atom_site_fract_x
 _atom_site_fract_y
 _atom_site_fract_z
 _atom_site_occupancy
  Nd  Nd0  1  0.00000000  0.58938900  0.00000000  1
  Nd  Nd1  1  0.41061100  0.41061100  0.00000000  1
  Nd  Nd2  1  0.58938900  0.00000000  0.00000000  1
  Sn  Sn3  1  0.74764700  0.74764700  0.50000000  1
  Sn  Sn4  1  0.00000000  0.25235300  0.50000000  1
  Sn  Sn5  1  0.25235300  0.00000000  0.50000000  1
  Pd  Pd6  1  0.66666700  0.33333300  0.50000000  1
  Pd  Pd7  1  0.00000000  0.00000000  0.00000000  1
  Pd  Pd8  1  0.33333300  0.66666700  0.50000000  1
