# generated using pymatgen
data_Ca2Ge7O16
_symmetry_space_group_name_H-M   'P 1'
_cell_length_a   11.50710000
_cell_length_b   11.50710000
_cell_length_c   4.71214800
_cell_angle_alpha   90.00000000
_cell_angle_beta   90.00000000
_cell_angle_gamma   90.00000000
_symmetry_Int_Tables_number   1
_chemical_formula_structural   Ca2Ge7O16
_chemical_formula_sum   'Ca4 Ge14 O32'
_cell_volume   623.95130431
_cell_formula_units_Z   2
loop_
 _symmetry_equiv_pos_site_id
 _symmetry_equiv_pos_as_xyz
  1  'x, y, z'
loop_
 _atom_site_type_symbol
 _atom_site_label
 _atom_site_symmetry_multiplicity
 _atom_site_fract_x
 _atom_site_fract_y
 _atom_site_fract_z
 _atom_site_occupancy
  Ca  Ca0  1  0.83523900  0.33523900  0.50000000  1
  Ca  Ca1  1  0.16476100  0.66476100  0.50000000  1
  Ca  Ca2  1  0.33523900  0.16476100  0.50000000  1
  Ca  Ca3  1  0.66476100  0.83523900  0.50000000  1
  Ge  Ge4  1  0.56635700  0.31245800  0.99088400  1
  Ge  Ge5  1  0.43364300  0.68754200  0.99088400  1
  Ge  Ge6  1  0.06635700  0.18754200  0.99088400  1
  Ge  Ge7  1  0.93364300  0.81245800  0.99088400  1
  Ge  Ge8  1  0.81245800  0.06635700  0.00911600  1
  Ge  Ge9  1  0.18754200  0.93364300  0.00911600  1
  Ge  Ge10  1  0.31245800  0.43364300  0.00911600  1
  Ge  Ge11  1  0.68754200  0.56635700  0.00911600  1
  Ge  Ge12  1  0.63372700  0.13372700  0.50000000  1
  Ge  Ge13  1  0.36627300  0.86627300  0.50000000  1
  Ge  Ge14  1  0.13372700  0.36627300  0.50000000  1
  Ge  Ge15  1  0.86627300  0.63372700  0.50000000  1
  Ge  Ge16  1  0.50000000  0.00000000  0.00000000  1
  Ge  Ge17  1  0.00000000  0.50000000  0.00000000  1
  O  O18  1  0.64027300  0.43184500  0.16321600  1
  O  O19  1  0.35972700  0.56815500  0.16321600  1
  O  O20  1  0.14027300  0.06815500  0.16321600  1
  O  O21  1  0.85972700  0.93184500  0.16321600  1
  O  O22  1  0.93184500  0.14027300  0.83678400  1
  O  O23  1  0.06815500  0.85972700  0.83678400  1
  O  O24  1  0.43184500  0.35972700  0.83678400  1
  O  O25  1  0.56815500  0.64027300  0.83678400  1
  O  O26  1  0.52746700  0.21967600  0.27705900  1
  O  O27  1  0.47253300  0.78032400  0.27705900  1
  O  O28  1  0.02746700  0.28032400  0.27705900  1
  O  O29  1  0.97253300  0.71967600  0.27705900  1
  O  O30  1  0.50024000  0.11713800  0.75336900  1
  O  O31  1  0.49976000  0.88286200  0.75336900  1
  O  O32  1  0.00024000  0.38286200  0.75336900  1
  O  O33  1  0.99976000  0.61713800  0.75336900  1
  O  O34  1  0.67023300  0.26623500  0.73198000  1
  O  O35  1  0.32976700  0.73376500  0.73198000  1
  O  O36  1  0.88286200  0.50024000  0.24663100  1
  O  O37  1  0.11713800  0.49976000  0.24663100  1
  O  O38  1  0.38286200  0.99976000  0.24663100  1
  O  O39  1  0.61713800  0.00024000  0.24663100  1
  O  O40  1  0.78032400  0.52746700  0.72294100  1
  O  O41  1  0.21967600  0.47253300  0.72294100  1
  O  O42  1  0.28032400  0.97253300  0.72294100  1
  O  O43  1  0.71967600  0.02746700  0.72294100  1
  O  O44  1  0.73376500  0.67023300  0.26802000  1
  O  O45  1  0.26623500  0.32976700  0.26802000  1
  O  O46  1  0.23376500  0.82976700  0.26802000  1
  O  O47  1  0.76623500  0.17023300  0.26802000  1
  O  O48  1  0.82976700  0.76623500  0.73198000  1
  O  O49  1  0.17023300  0.23376500  0.73198000  1
