# generated using pymatgen
data_Mg3B7ClO13
_symmetry_space_group_name_H-M   'P 1'
_cell_length_a   8.62880900
_cell_length_b   8.64309300
_cell_length_c   12.22372000
_cell_angle_alpha   90.00000000
_cell_angle_beta   90.00000000
_cell_angle_gamma   90.00000000
_symmetry_Int_Tables_number   1
_chemical_formula_structural   Mg3B7ClO13
_chemical_formula_sum   'Mg12 B28 Cl4 O52'
_cell_volume   911.64013181
_cell_formula_units_Z   4
loop_
 _symmetry_equiv_pos_site_id
 _symmetry_equiv_pos_as_xyz
  1  'x, y, z'
loop_
 _atom_site_type_symbol
 _atom_site_label
 _atom_site_symmetry_multiplicity
 _atom_site_fract_x
 _atom_site_fract_y
 _atom_site_fract_z
 _atom_site_occupancy
  Mg  Mg0  1  0.46853200  0.98374600  0.25052000  1
  Mg  Mg1  1  0.53146800  0.01625400  0.75052000  1
  Mg  Mg2  1  0.46853200  0.51625400  0.75052000  1
  Mg  Mg3  1  0.53146800  0.48374600  0.25052000  1
  Mg  Mg4  1  0.03192900  0.98418900  0.25343900  1
  Mg  Mg5  1  0.96807100  0.01581100  0.75343900  1
  Mg  Mg6  1  0.03192900  0.51581100  0.75343900  1
  Mg  Mg7  1  0.96807100  0.48418900  0.25343900  1
  Mg  Mg8  1  0.25138100  0.75905800  0.97498000  1
  Mg  Mg9  1  0.25138100  0.74094200  0.47498000  1
  Mg  Mg10  1  0.74861900  0.24094200  0.47498000  1
  Mg  Mg11  1  0.74861900  0.25905800  0.97498000  1
  B  B12  1  0.74990500  0.90584400  0.57229000  1
  B  B13  1  0.25009500  0.09415600  0.07229000  1
  B  B14  1  0.74990500  0.59415600  0.07229000  1
  B  B15  1  0.25009500  0.40584400  0.57229000  1
  B  B16  1  0.75086100  0.95706900  0.10208800  1
  B  B17  1  0.24913900  0.04293100  0.60208800  1
  B  B18  1  0.75086100  0.54293100  0.60208800  1
  B  B19  1  0.24913900  0.45706900  0.10208800  1
  B  B20  1  0.09634300  0.25320200  0.42002600  1
  B  B21  1  0.90365700  0.74679800  0.92002600  1
  B  B22  1  0.09634300  0.24679800  0.92002600  1
  B  B23  1  0.90365700  0.75320200  0.42002600  1
  B  B24  1  0.40333500  0.25279700  0.41925300  1
  B  B25  1  0.59666500  0.74720300  0.91925300  1
  B  B26  1  0.40333500  0.24720300  0.91925300  1
  B  B27  1  0.59666500  0.75279700  0.41925300  1
  B  B28  1  0.49623800  0.50287400  0.99983100  1
  B  B29  1  0.50376200  0.49712600  0.49983100  1
  B  B30  1  0.49623800  0.99712600  0.49983100  1
  B  B31  1  0.50376200  0.00287400  0.99983100  1
  B  B32  1  0.75311300  0.75665600  0.24739300  1
  B  B33  1  0.24688700  0.24334400  0.74739300  1
  B  B34  1  0.75311300  0.74334400  0.74739300  1
  B  B35  1  0.24688700  0.25665600  0.24739300  1
  B  B36  1  0.99737600  0.00202300  0.00065000  1
  B  B37  1  0.00262400  0.99797700  0.50065000  1
  B  B38  1  0.99737600  0.49797700  0.50065000  1
  B  B39  1  0.00262400  0.50202300  0.00065000  1
  Cl  Cl40  1  0.74975700  0.27848300  0.26332200  1
  Cl  Cl41  1  0.25024300  0.72151700  0.76332200  1
  Cl  Cl42  1  0.74975700  0.22151700  0.76332200  1
  Cl  Cl43  1  0.25024300  0.77848300  0.26332200  1
  O  O44  1  0.32986400  0.54417300  0.02638700  1
  O  O45  1  0.67138000  0.61513800  0.68598000  1
  O  O46  1  0.32862000  0.11513800  0.68598000  1
  O  O47  1  0.67138000  0.88486200  0.18598000  1
  O  O48  1  0.08938700  0.46493600  0.10501200  1
  O  O49  1  0.91061300  0.53506400  0.60501200  1
  O  O50  1  0.08938700  0.03506400  0.60501200  1
  O  O51  1  0.91061300  0.96493600  0.10501200  1
  O  O52  1  0.83808900  0.46674400  0.02222100  1
  O  O53  1  0.16191100  0.53325600  0.52222100  1
  O  O54  1  0.83808900  0.03325600  0.52222100  1
  O  O55  1  0.16191100  0.96674400  0.02222100  1
  O  O56  1  0.82371200  0.64060600  0.17463200  1
  O  O57  1  0.17628800  0.35939400  0.67463200  1
  O  O58  1  0.82371200  0.85939400  0.67463200  1
  O  O59  1  0.17628800  0.14060600  0.17463200  1
  O  O60  1  0.59101900  0.54803600  0.09414900  1
  O  O61  1  0.48144800  0.66285200  0.47884300  1
  O  O62  1  0.59101900  0.95196400  0.59414900  1
  O  O63  1  0.40898100  0.04803600  0.09414900  1
  O  O64  1  0.32862000  0.38486200  0.18598000  1
  O  O65  1  0.67013600  0.45582700  0.52638700  1
  O  O66  1  0.32986400  0.95582700  0.52638700  1
  O  O67  1  0.67013600  0.04417300  0.02638700  1
  O  O68  1  0.25038300  0.23080500  0.98819600  1
  O  O69  1  0.74961700  0.76919500  0.48819600  1
  O  O70  1  0.25038300  0.26919500  0.48819600  1
  O  O71  1  0.74961700  0.73080500  0.98819600  1
  O  O72  1  0.97244200  0.33299300  0.47744300  1
  O  O73  1  0.02755800  0.66700700  0.97744300  1
  O  O74  1  0.97244200  0.16700700  0.97744300  1
  O  O75  1  0.02755800  0.83299300  0.47744300  1
  O  O76  1  0.46289000  0.40948600  0.40103200  1
  O  O77  1  0.53711000  0.59051400  0.90103200  1
  O  O78  1  0.46289000  0.09051400  0.90103200  1
  O  O79  1  0.53711000  0.90948600  0.40103200  1
  O  O80  1  0.12389500  0.32632700  0.31389500  1
  O  O81  1  0.87610500  0.67367300  0.81389500  1
  O  O82  1  0.12389500  0.17367300  0.81389500  1
  O  O83  1  0.87610500  0.82632700  0.31389500  1
  O  O84  1  0.36487300  0.17869600  0.31542000  1
  O  O85  1  0.63512700  0.82130400  0.81542000  1
  O  O86  1  0.36487300  0.32130400  0.81542000  1
  O  O87  1  0.63512700  0.67869600  0.31542000  1
  O  O88  1  0.05719900  0.08948800  0.40599800  1
  O  O89  1  0.94280100  0.91051200  0.90599800  1
  O  O90  1  0.05719900  0.41051200  0.90599800  1
  O  O91  1  0.94280100  0.58948800  0.40599800  1
  O  O92  1  0.51855200  0.16285200  0.47884300  1
  O  O93  1  0.48144800  0.83714800  0.97884300  1
  O  O94  1  0.51855200  0.33714800  0.97884300  1
  O  O95  1  0.40898100  0.45196400  0.59414900  1
