# generated using pymatgen
data_HoAg2
_symmetry_space_group_name_H-M   'P 1'
_cell_length_a   5.31736438
_cell_length_b   5.31736438
_cell_length_c   5.31736438
_cell_angle_alpha   138.77527853
_cell_angle_beta   138.77527853
_cell_angle_gamma   59.71767411
_symmetry_Int_Tables_number   1
_chemical_formula_structural   HoAg2
_chemical_formula_sum   'Ho1 Ag2'
_cell_volume   64.63812601
_cell_formula_units_Z   1
loop_
 _symmetry_equiv_pos_site_id
 _symmetry_equiv_pos_as_xyz
  1  'x, y, z'
loop_
 _atom_site_type_symbol
 _atom_site_label
 _atom_site_symmetry_multiplicity
 _atom_site_fract_x
 _atom_site_fract_y
 _atom_site_fract_z
 _atom_site_occupancy
  Ho  Ho0  1  0.00000000  0.00000000  0.00000000  1
  Ag  Ag1  1  0.33114300  0.33114300  0.00000000  1
  Ag  Ag2  1  0.66885700  0.66885700  0.00000000  1
