# generated using pymatgen
data_La3AsI3
_symmetry_space_group_name_H-M   'P 1'
_cell_length_a   10.97376296
_cell_length_b   10.97376296
_cell_length_c   10.97376296
_cell_angle_alpha   109.47122063
_cell_angle_beta   109.47122063
_cell_angle_gamma   109.47122063
_symmetry_Int_Tables_number   1
_chemical_formula_structural   La3AsI3
_chemical_formula_sum   'La12 As4 I12'
_cell_volume   1017.29013791
_cell_formula_units_Z   4
loop_
 _symmetry_equiv_pos_site_id
 _symmetry_equiv_pos_as_xyz
  1  'x, y, z'
loop_
 _atom_site_type_symbol
 _atom_site_label
 _atom_site_symmetry_multiplicity
 _atom_site_fract_x
 _atom_site_fract_y
 _atom_site_fract_z
 _atom_site_occupancy
  La  La0  1  0.76534300  0.53068700  0.51534300  1
  La  La1  1  0.98465700  0.51534300  0.25000000  1
  La  La2  1  0.53068700  0.51534300  0.76534300  1
  La  La3  1  0.25000000  0.76534300  0.73465700  1
  La  La4  1  0.51534300  0.76534300  0.53068700  1
  La  La5  1  0.73465700  0.25000000  0.76534300  1
  La  La6  1  0.51534300  0.25000000  0.98465700  1
  La  La7  1  0.73465700  0.98465700  0.96931300  1
  La  La8  1  0.76534300  0.73465700  0.25000000  1
  La  La9  1  0.96931300  0.73465700  0.98465700  1
  La  La10  1  0.25000000  0.98465700  0.51534300  1
  La  La11  1  0.98465700  0.96931300  0.73465700  1
  As  As12  1  0.75000000  0.75000000  0.75000000  1
  As  As13  1  0.00000000  0.75000000  0.50000000  1
  As  As14  1  0.75000000  0.50000000  0.00000000  1
  As  As15  1  0.50000000  0.00000000  0.75000000  1
  I  I16  1  0.25869000  0.75000000  0.24131000  1
  I  I17  1  0.75000000  0.00869000  0.49131000  1
  I  I18  1  0.00869000  0.49131000  0.75000000  1
  I  I19  1  0.01738100  0.25869000  0.00869000  1
  I  I20  1  0.49131000  0.24131000  0.48261900  1
  I  I21  1  0.00869000  0.01738100  0.25869000  1
  I  I22  1  0.24131000  0.48261900  0.49131000  1
  I  I23  1  0.24131000  0.25869000  0.75000000  1
  I  I24  1  0.49131000  0.75000000  0.00869000  1
  I  I25  1  0.48261900  0.49131000  0.24131000  1
  I  I26  1  0.75000000  0.24131000  0.25869000  1
  I  I27  1  0.25869000  0.00869000  0.01738100  1
