# generated using pymatgen
data_Na8Fe2O7
_symmetry_space_group_name_H-M   'P 1'
_cell_length_a   11.12307500
_cell_length_b   8.79126100
_cell_length_c   10.21127435
_cell_angle_alpha   72.37555085
_cell_angle_beta   90.00000000
_cell_angle_gamma   90.00000000
_symmetry_Int_Tables_number   1
_chemical_formula_structural   Na8Fe2O7
_chemical_formula_sum   'Na32 Fe8 O28'
_cell_volume   951.64930500
_cell_formula_units_Z   4
loop_
 _symmetry_equiv_pos_site_id
 _symmetry_equiv_pos_as_xyz
  1  'x, y, z'
loop_
 _atom_site_type_symbol
 _atom_site_label
 _atom_site_symmetry_multiplicity
 _atom_site_fract_x
 _atom_site_fract_y
 _atom_site_fract_z
 _atom_site_occupancy
  Na  Na0  1  0.74971800  0.28601600  0.43016100  1
  Na  Na1  1  0.02425600  0.88078700  0.42298200  1
  Na  Na2  1  0.47574400  0.88078700  0.92298200  1
  Na  Na3  1  0.97574400  0.11921300  0.57701800  1
  Na  Na4  1  0.75976600  0.89436100  0.03292100  1
  Na  Na5  1  0.25976600  0.10563900  0.46707900  1
  Na  Na6  1  0.24023400  0.10563900  0.96707900  1
  Na  Na7  1  0.74023400  0.89436100  0.53292100  1
  Na  Na8  1  0.55283500  0.74315900  0.21174600  1
  Na  Na9  1  0.05283500  0.25684100  0.28825400  1
  Na  Na10  1  0.44716500  0.25684100  0.78825400  1
  Na  Na11  1  0.94716500  0.74315900  0.71174600  1
  Na  Na12  1  0.50475500  0.66097600  0.51647000  1
  Na  Na13  1  0.00475500  0.33902400  0.98353000  1
  Na  Na14  1  0.49524500  0.33902400  0.48353000  1
  Na  Na15  1  0.99524500  0.66097600  0.01647000  1
  Na  Na16  1  0.73166800  0.50015200  0.62724700  1
  Na  Na17  1  0.23166800  0.49984800  0.87275300  1
  Na  Na18  1  0.26833200  0.49984800  0.37275300  1
  Na  Na19  1  0.76833200  0.50015200  0.12724700  1
  Na  Na20  1  0.03893000  0.91641400  0.14339200  1
  Na  Na21  1  0.75028200  0.28601600  0.93016100  1
  Na  Na22  1  0.52425600  0.11921300  0.07701800  1
  Na  Na23  1  0.24971800  0.71398400  0.06983900  1
  Na  Na24  1  0.97296800  0.43220100  0.64434600  1
  Na  Na25  1  0.47296800  0.56779900  0.85565400  1
  Na  Na26  1  0.02703200  0.56779900  0.35565400  1
  Na  Na27  1  0.52703200  0.43220100  0.14434600  1
  Na  Na28  1  0.46107000  0.91641400  0.64339200  1
  Na  Na29  1  0.96107000  0.08358600  0.85660800  1
  Na  Na30  1  0.53893000  0.08358600  0.35660800  1
  Na  Na31  1  0.25028200  0.71398400  0.56983900  1
  Fe  Fe32  1  0.71674100  0.69141800  0.84692600  1
  Fe  Fe33  1  0.21674100  0.30858200  0.65307400  1
  Fe  Fe34  1  0.28325900  0.30858200  0.15307400  1
  Fe  Fe35  1  0.78325900  0.69141800  0.34692600  1
  Fe  Fe36  1  0.70302500  0.09356700  0.72618600  1
  Fe  Fe37  1  0.20302500  0.90643300  0.77381400  1
  Fe  Fe38  1  0.29697500  0.90643300  0.27381400  1
  Fe  Fe39  1  0.79697500  0.09356700  0.22618600  1
  O  O40  1  0.11079800  0.89604500  0.62056800  1
  O  O41  1  0.61079800  0.10395500  0.87943200  1
  O  O42  1  0.88920200  0.10395500  0.37943200  1
  O  O43  1  0.38920200  0.89604500  0.12056800  1
  O  O44  1  0.11544700  0.32849700  0.49648700  1
  O  O45  1  0.61544700  0.67150300  0.00351300  1
  O  O46  1  0.88455300  0.67150300  0.50351300  1
  O  O47  1  0.38455300  0.32849700  0.99648700  1
  O  O48  1  0.61046100  0.10616200  0.56644500  1
  O  O49  1  0.11046100  0.89383800  0.93355500  1
  O  O50  1  0.38953900  0.89383800  0.43355500  1
  O  O51  1  0.88953900  0.10616200  0.06644500  1
  O  O52  1  0.82462100  0.25215500  0.68306200  1
  O  O53  1  0.32462100  0.74784500  0.81693800  1
  O  O54  1  0.17537900  0.74784500  0.31693800  1
  O  O55  1  0.67537900  0.25215500  0.18306200  1
  O  O56  1  0.61897600  0.67718100  0.69903400  1
  O  O57  1  0.11897600  0.32281900  0.80096600  1
  O  O58  1  0.38102400  0.32281900  0.30096600  1
  O  O59  1  0.88102400  0.67718100  0.19903400  1
  O  O60  1  0.34892600  0.45825700  0.60536200  1
  O  O61  1  0.84892600  0.54174300  0.89463800  1
  O  O62  1  0.65107400  0.54174300  0.39463800  1
  O  O63  1  0.15107400  0.45825700  0.10536200  1
  O  O64  1  0.30156700  0.10302800  0.71597900  1
  O  O65  1  0.80156700  0.89697200  0.78402100  1
  O  O66  1  0.69843300  0.89697200  0.28402100  1
  O  O67  1  0.19843300  0.10302800  0.21597900  1
