# generated using pymatgen
data_ReBiO4
_symmetry_space_group_name_H-M   'P 1'
_cell_length_a   7.91247755
_cell_length_b   7.91247755
_cell_length_c   5.60024400
_cell_angle_alpha   90.00000000
_cell_angle_beta   90.00000000
_cell_angle_gamma   151.73992820
_symmetry_Int_Tables_number   1
_chemical_formula_structural   ReBiO4
_chemical_formula_sum   'Re2 Bi2 O8'
_cell_volume   166.00781483
_cell_formula_units_Z   2
loop_
 _symmetry_equiv_pos_site_id
 _symmetry_equiv_pos_as_xyz
  1  'x, y, z'
loop_
 _atom_site_type_symbol
 _atom_site_label
 _atom_site_symmetry_multiplicity
 _atom_site_fract_x
 _atom_site_fract_y
 _atom_site_fract_z
 _atom_site_occupancy
  Re  Re0  1  0.08230100  0.91769900  0.75000000  1
  Re  Re1  1  0.91769900  0.08230100  0.25000000  1
  Bi  Bi2  1  0.30868900  0.69131100  0.75000000  1
  Bi  Bi3  1  0.69131100  0.30868900  0.25000000  1
  O  O4  1  0.18572000  0.81428000  0.98281800  1
  O  O5  1  0.81428000  0.18572000  0.01718200  1
  O  O6  1  0.81428000  0.18572000  0.48281800  1
  O  O7  1  0.18572000  0.81428000  0.51718200  1
  O  O8  1  0.00000000  0.00000000  0.00000000  1
  O  O9  1  0.00000000  0.00000000  0.50000000  1
  O  O10  1  0.58864000  0.41136000  0.75000000  1
  O  O11  1  0.41136000  0.58864000  0.25000000  1
