# generated using pymatgen
data_Ba(PdS2)2
_symmetry_space_group_name_H-M   'P 1'
_cell_length_a   6.89944200
_cell_length_b   6.79600600
_cell_length_c   7.33332168
_cell_angle_alpha   70.00984184
_cell_angle_beta   90.00000000
_cell_angle_gamma   90.00000000
_symmetry_Int_Tables_number   1
_chemical_formula_structural   Ba(PdS2)2
_chemical_formula_sum   'Ba2 Pd4 S8'
_cell_volume   323.13307927
_cell_formula_units_Z   2
loop_
 _symmetry_equiv_pos_site_id
 _symmetry_equiv_pos_as_xyz
  1  'x, y, z'
loop_
 _atom_site_type_symbol
 _atom_site_label
 _atom_site_symmetry_multiplicity
 _atom_site_fract_x
 _atom_site_fract_y
 _atom_site_fract_z
 _atom_site_occupancy
  Ba  Ba0  1  0.25000000  0.28402300  0.50586600  1
  Ba  Ba1  1  0.75000000  0.71597700  0.49413400  1
  Pd  Pd2  1  0.00000000  0.00000000  0.00000000  1
  Pd  Pd3  1  0.50000000  0.00000000  0.00000000  1
  Pd  Pd4  1  0.25000000  0.51663100  0.99052800  1
  Pd  Pd5  1  0.75000000  0.48336900  0.00947200  1
  S  S6  1  0.25000000  0.79480400  0.48640800  1
  S  S7  1  0.75000000  0.20519600  0.51359200  1
  S  S8  1  0.75000000  0.97417600  0.78917100  1
  S  S9  1  0.25000000  0.02582400  0.21082900  1
  S  S10  1  0.00528200  0.36761400  0.85712100  1
  S  S11  1  0.50528200  0.63238600  0.14287900  1
  S  S12  1  0.49471800  0.36761400  0.85712100  1
  S  S13  1  0.99471800  0.63238600  0.14287900  1
