# generated using pymatgen
data_Bi2MoO6
_symmetry_space_group_name_H-M   'P 1'
_cell_length_a   5.61750600
_cell_length_b   5.62605800
_cell_length_c   16.62480100
_cell_angle_alpha   90.00000000
_cell_angle_beta   90.00000000
_cell_angle_gamma   90.00000000
_symmetry_Int_Tables_number   1
_chemical_formula_structural   Bi2MoO6
_chemical_formula_sum   'Bi8 Mo4 O24'
_cell_volume   525.41710297
_cell_formula_units_Z   4
loop_
 _symmetry_equiv_pos_site_id
 _symmetry_equiv_pos_as_xyz
  1  'x, y, z'
loop_
 _atom_site_type_symbol
 _atom_site_label
 _atom_site_symmetry_multiplicity
 _atom_site_fract_x
 _atom_site_fract_y
 _atom_site_fract_z
 _atom_site_occupancy
  Bi  Bi0  1  0.47351200  0.06517000  0.42421200  1
  Bi  Bi1  1  0.02646800  0.04268700  0.92399300  1
  Bi  Bi2  1  0.52648800  0.56517000  0.57578800  1
  Bi  Bi3  1  0.47353200  0.54268700  0.92399300  1
  Bi  Bi4  1  0.97353200  0.54268700  0.07600700  1
  Bi  Bi5  1  0.52646800  0.04268700  0.07600700  1
  Bi  Bi6  1  0.02648800  0.56517000  0.42421200  1
  Bi  Bi7  1  0.97351200  0.06517000  0.57578800  1
  Mo  Mo8  1  0.49191600  0.02163400  0.74998500  1
  Mo  Mo9  1  0.99191600  0.02163400  0.25001500  1
  Mo  Mo10  1  0.50808400  0.52163400  0.25001500  1
  Mo  Mo11  1  0.00808400  0.52163400  0.74998500  1
  O  O12  1  0.89899000  0.44178100  0.64682400  1
  O  O13  1  0.77361000  0.68102200  0.27859700  1
  O  O14  1  0.68866600  0.25942300  0.77787000  1
  O  O15  1  0.40868700  0.91783100  0.85393000  1
  O  O16  1  0.26008900  0.78580400  0.50248600  1
  O  O17  1  0.76234900  0.26214900  0.99834000  1
  O  O18  1  0.76008900  0.78580400  0.49751400  1
  O  O19  1  0.23991100  0.28580400  0.50248600  1
  O  O20  1  0.18866600  0.25942300  0.22213000  1
  O  O21  1  0.72639000  0.18102200  0.27859700  1
  O  O22  1  0.22639000  0.18102200  0.72140300  1
  O  O23  1  0.09131300  0.41783100  0.85393000  1
  O  O24  1  0.10101000  0.94178100  0.35317600  1
  O  O25  1  0.59131300  0.41783100  0.14607000  1
  O  O26  1  0.26234900  0.26214900  0.00166000  1
  O  O27  1  0.90868700  0.91783100  0.14607000  1
  O  O28  1  0.81133400  0.75942300  0.77787000  1
  O  O29  1  0.27361000  0.68102200  0.72140300  1
  O  O30  1  0.31133400  0.75942300  0.22213000  1
  O  O31  1  0.73765100  0.76214900  0.99834000  1
  O  O32  1  0.73991100  0.28580400  0.49751400  1
  O  O33  1  0.60101000  0.94178100  0.64682400  1
  O  O34  1  0.23765100  0.76214900  0.00166000  1
  O  O35  1  0.39899000  0.44178100  0.35317600  1
