# generated using pymatgen
data_Tb(AlCl4)3
_symmetry_space_group_name_H-M   'P 1'
_cell_length_a   10.84032489
_cell_length_b   10.84032489
_cell_length_c   16.04380700
_cell_angle_alpha   90.00000000
_cell_angle_beta   90.00000000
_cell_angle_gamma   120.00000545
_symmetry_Int_Tables_number   1
_chemical_formula_structural   Tb(AlCl4)3
_chemical_formula_sum   'Tb3 Al9 Cl36'
_cell_volume   1632.76105854
_cell_formula_units_Z   3
loop_
 _symmetry_equiv_pos_site_id
 _symmetry_equiv_pos_as_xyz
  1  'x, y, z'
loop_
 _atom_site_type_symbol
 _atom_site_label
 _atom_site_symmetry_multiplicity
 _atom_site_fract_x
 _atom_site_fract_y
 _atom_site_fract_z
 _atom_site_occupancy
  Tb  Tb0  1  0.32409900  0.16204900  0.00000000  1
  Tb  Tb1  1  0.83795100  0.67590100  0.66666700  1
  Tb  Tb2  1  0.83795100  0.16204900  0.33333300  1
  Al  Al3  1  0.06520500  0.93479500  0.83333300  1
  Al  Al4  1  0.46176200  0.43001800  0.60347200  1
  Al  Al5  1  0.56998200  0.03174400  0.93680600  1
  Al  Al6  1  0.96825600  0.53823800  0.27013900  1
  Al  Al7  1  0.06520500  0.13040900  0.16666700  1
  Al  Al8  1  0.86959100  0.93479500  0.50000000  1
  Al  Al9  1  0.46176200  0.03174400  0.39652800  1
  Al  Al10  1  0.96825600  0.43001800  0.72986100  1
  Al  Al11  1  0.56998200  0.53823800  0.06319400  1
  Cl  Cl12  1  0.34191800  0.50828700  0.54440000  1
  Cl  Cl13  1  0.16636900  0.65808200  0.21106700  1
  Cl  Cl14  1  0.49171300  0.83363100  0.87773300  1
  Cl  Cl15  1  0.12444400  0.25766800  0.27925700  1
  Cl  Cl16  1  0.74233200  0.86677600  0.61259100  1
  Cl  Cl17  1  0.13322400  0.87555600  0.94592400  1
  Cl  Cl18  1  0.74233200  0.87555600  0.38740900  1
  Cl  Cl19  1  0.13322400  0.25766800  0.05407600  1
  Cl  Cl20  1  0.12444400  0.86677600  0.72074300  1
  Cl  Cl21  1  0.55907700  0.01210500  0.27830500  1
  Cl  Cl22  1  0.98789500  0.54697200  0.61163800  1
  Cl  Cl23  1  0.45302800  0.44092300  0.94497200  1
  Cl  Cl24  1  0.98789500  0.44092300  0.38836200  1
  Cl  Cl25  1  0.45302800  0.01210500  0.05502800  1
  Cl  Cl26  1  0.55907700  0.54697200  0.72169500  1
  Cl  Cl27  1  0.83732500  0.32963000  0.20515100  1
  Cl  Cl28  1  0.67037000  0.50769400  0.53848500  1
  Cl  Cl29  1  0.49230600  0.16267500  0.87181800  1
  Cl  Cl30  1  0.67037000  0.16267500  0.46151500  1
  Cl  Cl31  1  0.49230600  0.32963000  0.12818200  1
  Cl  Cl32  1  0.83732500  0.50769400  0.79484900  1
  Cl  Cl33  1  0.99422200  0.16244200  0.48212300  1
  Cl  Cl34  1  0.83755800  0.83178000  0.81545600  1
  Cl  Cl35  1  0.16822000  0.00577800  0.14879000  1
  Cl  Cl36  1  0.83755800  0.00577800  0.18454400  1
  Cl  Cl37  1  0.16822000  0.16244200  0.85121000  1
  Cl  Cl38  1  0.99422200  0.83178000  0.51787700  1
  Cl  Cl39  1  0.36335600  0.15454200  0.37596300  1
  Cl  Cl40  1  0.84545800  0.20881400  0.70929600  1
  Cl  Cl41  1  0.79118600  0.63664400  0.04263000  1
  Cl  Cl42  1  0.84545800  0.63664400  0.29070400  1
  Cl  Cl43  1  0.79118600  0.15454200  0.95737000  1
  Cl  Cl44  1  0.36335600  0.20881400  0.62403700  1
  Cl  Cl45  1  0.34191800  0.83363100  0.45560000  1
  Cl  Cl46  1  0.16636900  0.50828700  0.78893300  1
  Cl  Cl47  1  0.49171300  0.65808200  0.12226700  1
