# generated using pymatgen
data_SbAs2Cl13
_symmetry_space_group_name_H-M   'P 1'
_cell_length_a   9.87918687
_cell_length_b   9.87918687
_cell_length_c   12.18304200
_cell_angle_alpha   90.00000000
_cell_angle_beta   90.00000000
_cell_angle_gamma   113.64517635
_symmetry_Int_Tables_number   1
_chemical_formula_structural   SbAs2Cl13
_chemical_formula_sum   'Sb2 As4 Cl26'
_cell_volume   1089.22046970
_cell_formula_units_Z   2
loop_
 _symmetry_equiv_pos_site_id
 _symmetry_equiv_pos_as_xyz
  1  'x, y, z'
loop_
 _atom_site_type_symbol
 _atom_site_label
 _atom_site_symmetry_multiplicity
 _atom_site_fract_x
 _atom_site_fract_y
 _atom_site_fract_z
 _atom_site_occupancy
  Sb  Sb0  1  0.79031600  0.20968400  0.00084100  1
  Sb  Sb1  1  0.20968400  0.79031600  0.50084100  1
  As  As2  1  0.55216000  0.44784000  0.85039900  1
  As  As3  1  0.85695600  0.14304400  0.53835900  1
  As  As4  1  0.44784000  0.55216000  0.35039900  1
  As  As5  1  0.14304400  0.85695600  0.03835900  1
  Cl  Cl6  1  0.07426100  0.24247500  0.59901100  1
  Cl  Cl7  1  0.31100000  0.37770500  0.86968400  1
  Cl  Cl8  1  0.33223800  0.66776200  0.60788000  1
  Cl  Cl9  1  0.66776200  0.33223800  0.10788000  1
  Cl  Cl10  1  0.08866000  0.91134000  0.39030600  1
  Cl  Cl11  1  0.91134000  0.08866000  0.89030600  1
  Cl  Cl12  1  0.31033500  0.00476600  0.61761200  1
  Cl  Cl13  1  0.68966500  0.99523400  0.11761200  1
  Cl  Cl14  1  0.99523400  0.68966500  0.61761200  1
  Cl  Cl15  1  0.00476600  0.31033500  0.11761200  1
  Cl  Cl16  1  0.42507400  0.89239400  0.38281700  1
  Cl  Cl17  1  0.57492600  0.10760600  0.88281700  1
  Cl  Cl18  1  0.10760600  0.57492600  0.38281700  1
  Cl  Cl19  1  0.89239400  0.42507400  0.88281700  1
  Cl  Cl20  1  0.62229500  0.68900000  0.86968400  1
  Cl  Cl21  1  0.24247500  0.07426100  0.09901100  1
  Cl  Cl22  1  0.75752500  0.92573900  0.59901100  1
  Cl  Cl23  1  0.92573900  0.75752500  0.09901100  1
  Cl  Cl24  1  0.73562700  0.26437300  0.59138300  1
  Cl  Cl25  1  0.26437300  0.73562700  0.09138300  1
  Cl  Cl26  1  0.86020900  0.13979100  0.36525900  1
  Cl  Cl27  1  0.13979100  0.86020900  0.86525900  1
  Cl  Cl28  1  0.55829800  0.44170200  0.66612500  1
  Cl  Cl29  1  0.44170200  0.55829800  0.16612500  1
  Cl  Cl30  1  0.37770500  0.31100000  0.36968400  1
  Cl  Cl31  1  0.68900000  0.62229500  0.36968400  1
