# generated using pymatgen
data_Re2(PCl8)3
_symmetry_space_group_name_H-M   'P 1'
_cell_length_a   15.98324300
_cell_length_b   15.98324300
_cell_length_c   13.60982700
_cell_angle_alpha   90.00000000
_cell_angle_beta   90.00000000
_cell_angle_gamma   90.00000000
_symmetry_Int_Tables_number   1
_chemical_formula_structural   Re2(PCl8)3
_chemical_formula_sum   'Re8 P12 Cl96'
_cell_volume   3476.82161773
_cell_formula_units_Z   4
loop_
 _symmetry_equiv_pos_site_id
 _symmetry_equiv_pos_as_xyz
  1  'x, y, z'
loop_
 _atom_site_type_symbol
 _atom_site_label
 _atom_site_symmetry_multiplicity
 _atom_site_fract_x
 _atom_site_fract_y
 _atom_site_fract_z
 _atom_site_occupancy
  Re  Re0  1  0.37394300  0.24804400  0.00000000  1
  Re  Re1  1  0.24804400  0.62605700  0.50000000  1
  Re  Re2  1  0.75195600  0.37394300  0.50000000  1
  Re  Re3  1  0.62605700  0.75195600  0.00000000  1
  Re  Re4  1  0.12605700  0.74804400  0.00000000  1
  Re  Re5  1  0.87394300  0.25195600  0.00000000  1
  Re  Re6  1  0.74804400  0.87394300  0.50000000  1
  Re  Re7  1  0.25195600  0.12605700  0.50000000  1
  P  P8  1  0.37669600  0.87669600  0.75000000  1
  P  P9  1  0.87669600  0.62330400  0.25000000  1
  P  P10  1  0.12330400  0.37669600  0.25000000  1
  P  P11  1  0.62330400  0.12330400  0.75000000  1
  P  P12  1  0.62330400  0.12330400  0.25000000  1
  P  P13  1  0.12330400  0.37669600  0.75000000  1
  P  P14  1  0.87669600  0.62330400  0.75000000  1
  P  P15  1  0.37669600  0.87669600  0.25000000  1
  P  P16  1  0.50000000  0.50000000  0.25000000  1
  P  P17  1  0.50000000  0.50000000  0.75000000  1
  P  P18  1  0.00000000  0.00000000  0.75000000  1
  P  P19  1  0.00000000  0.00000000  0.25000000  1
  Cl  Cl20  1  0.45247600  0.12183300  0.00000000  1
  Cl  Cl21  1  0.12183300  0.54752400  0.50000000  1
  Cl  Cl22  1  0.87816700  0.45247600  0.50000000  1
  Cl  Cl23  1  0.54752400  0.87816700  0.00000000  1
  Cl  Cl24  1  0.04752400  0.62183300  0.00000000  1
  Cl  Cl25  1  0.95247600  0.37816700  0.00000000  1
  Cl  Cl26  1  0.62183300  0.95247600  0.50000000  1
  Cl  Cl27  1  0.37816700  0.04752400  0.50000000  1
  Cl  Cl28  1  0.49924100  0.32829800  0.00000000  1
  Cl  Cl29  1  0.32829800  0.50075900  0.50000000  1
  Cl  Cl30  1  0.67170200  0.49924100  0.50000000  1
  Cl  Cl31  1  0.50075900  0.67170200  0.00000000  1
  Cl  Cl32  1  0.00075900  0.82829800  0.00000000  1
  Cl  Cl33  1  0.99924100  0.17170200  0.00000000  1
  Cl  Cl34  1  0.82829800  0.99924100  0.50000000  1
  Cl  Cl35  1  0.17170200  0.00075900  0.50000000  1
  Cl  Cl36  1  0.29366700  0.37419800  0.00000000  1
  Cl  Cl37  1  0.37419800  0.70633300  0.50000000  1
  Cl  Cl38  1  0.62580200  0.29366700  0.50000000  1
  Cl  Cl39  1  0.70633300  0.62580200  0.00000000  1
  Cl  Cl40  1  0.20633300  0.87419800  0.00000000  1
  Cl  Cl41  1  0.79366700  0.12580200  0.00000000  1
  Cl  Cl42  1  0.87419800  0.79366700  0.50000000  1
  Cl  Cl43  1  0.12580200  0.20633300  0.50000000  1
  Cl  Cl44  1  0.37664000  0.25057900  0.17127800  1
  Cl  Cl45  1  0.25057900  0.62336000  0.67127800  1
  Cl  Cl46  1  0.74942100  0.37664000  0.67127800  1
  Cl  Cl47  1  0.62336000  0.74942100  0.17127800  1
  Cl  Cl48  1  0.12336000  0.75057900  0.82872200  1
  Cl  Cl49  1  0.87664000  0.24942100  0.82872200  1
  Cl  Cl50  1  0.75057900  0.87664000  0.32872200  1
  Cl  Cl51  1  0.24942100  0.12336000  0.32872200  1
  Cl  Cl52  1  0.62336000  0.74942100  0.82872200  1
  Cl  Cl53  1  0.74942100  0.37664000  0.32872200  1
  Cl  Cl54  1  0.25057900  0.62336000  0.32872200  1
  Cl  Cl55  1  0.37664000  0.25057900  0.82872200  1
  Cl  Cl56  1  0.87664000  0.24942100  0.17127800  1
  Cl  Cl57  1  0.12336000  0.75057900  0.17127800  1
  Cl  Cl58  1  0.24942100  0.12336000  0.67127800  1
  Cl  Cl59  1  0.75057900  0.87664000  0.67127800  1
  Cl  Cl60  1  0.25106100  0.16790900  0.00000000  1
  Cl  Cl61  1  0.16790900  0.74893900  0.50000000  1
  Cl  Cl62  1  0.83209100  0.25106100  0.50000000  1
  Cl  Cl63  1  0.74893900  0.83209100  0.00000000  1
  Cl  Cl64  1  0.24893900  0.66790900  0.00000000  1
  Cl  Cl65  1  0.75106100  0.33209100  0.00000000  1
  Cl  Cl66  1  0.66790900  0.75106100  0.50000000  1
  Cl  Cl67  1  0.33209100  0.24893900  0.50000000  1
  Cl  Cl68  1  0.27883000  0.87598700  0.66397100  1
  Cl  Cl69  1  0.87598700  0.72117000  0.16397100  1
  Cl  Cl70  1  0.12401300  0.27883000  0.16397100  1
  Cl  Cl71  1  0.72117000  0.12401300  0.66397100  1
  Cl  Cl72  1  0.22117000  0.37598700  0.33602900  1
  Cl  Cl73  1  0.77883000  0.62401300  0.33602900  1
  Cl  Cl74  1  0.37598700  0.77883000  0.83602900  1
  Cl  Cl75  1  0.62401300  0.22117000  0.83602900  1
  Cl  Cl76  1  0.72117000  0.12401300  0.33602900  1
  Cl  Cl77  1  0.12401300  0.27883000  0.83602900  1
  Cl  Cl78  1  0.87598700  0.72117000  0.83602900  1
  Cl  Cl79  1  0.27883000  0.87598700  0.33602900  1
  Cl  Cl80  1  0.77883000  0.62401300  0.66397100  1
  Cl  Cl81  1  0.22117000  0.37598700  0.66397100  1
  Cl  Cl82  1  0.62401300  0.22117000  0.16397100  1
  Cl  Cl83  1  0.37598700  0.77883000  0.16397100  1
  Cl  Cl84  1  0.37684100  0.97815700  0.83195000  1
  Cl  Cl85  1  0.97815700  0.62315900  0.33195000  1
  Cl  Cl86  1  0.02184300  0.37684100  0.33195000  1
  Cl  Cl87  1  0.62315900  0.02184300  0.83195000  1
  Cl  Cl88  1  0.12315900  0.47815700  0.16805000  1
  Cl  Cl89  1  0.87684100  0.52184300  0.16805000  1
  Cl  Cl90  1  0.47815700  0.87684100  0.66805000  1
  Cl  Cl91  1  0.52184300  0.12315900  0.66805000  1
  Cl  Cl92  1  0.62315900  0.02184300  0.16805000  1
  Cl  Cl93  1  0.02184300  0.37684100  0.66805000  1
  Cl  Cl94  1  0.97815700  0.62315900  0.66805000  1
  Cl  Cl95  1  0.37684100  0.97815700  0.16805000  1
  Cl  Cl96  1  0.87684100  0.52184300  0.83195000  1
  Cl  Cl97  1  0.12315900  0.47815700  0.83195000  1
  Cl  Cl98  1  0.52184300  0.12315900  0.33195000  1
  Cl  Cl99  1  0.47815700  0.87684100  0.33195000  1
  Cl  Cl100  1  0.59878600  0.51253200  0.16584100  1
  Cl  Cl101  1  0.51253200  0.40121400  0.66584100  1
  Cl  Cl102  1  0.48746800  0.59878600  0.66584100  1
  Cl  Cl103  1  0.40121400  0.48746800  0.16584100  1
  Cl  Cl104  1  0.90121400  0.01253200  0.83415900  1
  Cl  Cl105  1  0.09878600  0.98746800  0.83415900  1
  Cl  Cl106  1  0.01253200  0.09878600  0.33415900  1
  Cl  Cl107  1  0.98746800  0.90121400  0.33415900  1
  Cl  Cl108  1  0.40121400  0.48746800  0.83415900  1
  Cl  Cl109  1  0.48746800  0.59878600  0.33415900  1
  Cl  Cl110  1  0.51253200  0.40121400  0.33415900  1
  Cl  Cl111  1  0.59878600  0.51253200  0.83415900  1
  Cl  Cl112  1  0.09878600  0.98746800  0.16584100  1
  Cl  Cl113  1  0.90121400  0.01253200  0.16584100  1
  Cl  Cl114  1  0.98746800  0.90121400  0.66584100  1
  Cl  Cl115  1  0.01253200  0.09878600  0.66584100  1
