# generated using pymatgen
data_CaP2(HO)4
_symmetry_space_group_name_H-M   'P 1'
_cell_length_a   8.14680304
_cell_length_b   8.14680304
_cell_length_c   6.75532736
_cell_angle_alpha   78.66824162
_cell_angle_beta   78.66824162
_cell_angle_gamma   41.19830783
_symmetry_Int_Tables_number   1
_chemical_formula_structural   CaP2(HO)4
_chemical_formula_sum   'Ca2 P4 H8 O8'
_cell_volume   288.73649464
_cell_formula_units_Z   2
loop_
 _symmetry_equiv_pos_site_id
 _symmetry_equiv_pos_as_xyz
  1  'x, y, z'
loop_
 _atom_site_type_symbol
 _atom_site_label
 _atom_site_symmetry_multiplicity
 _atom_site_fract_x
 _atom_site_fract_y
 _atom_site_fract_z
 _atom_site_occupancy
  Ca  Ca0  1  0.16724300  0.83275700  0.75000000  1
  Ca  Ca1  1  0.83275700  0.16724300  0.25000000  1
  P  P2  1  0.54161600  0.17543500  0.71842500  1
  P  P3  1  0.82456500  0.45838400  0.78157500  1
  P  P4  1  0.45838400  0.82456500  0.28157500  1
  P  P5  1  0.17543500  0.54161600  0.21842500  1
  H  H6  1  0.46663800  0.09307700  0.63746900  1
  H  H7  1  0.90692300  0.53336200  0.86253100  1
  H  H8  1  0.53336200  0.90692300  0.36253100  1
  H  H9  1  0.09307700  0.46663800  0.13746900  1
  H  H10  1  0.60086700  0.05705700  0.91741000  1
  H  H11  1  0.94294300  0.39913300  0.58259000  1
  H  H12  1  0.39913300  0.94294300  0.08259000  1
  H  H13  1  0.05705700  0.60086700  0.41741000  1
  O  O14  1  0.93647200  0.21320700  0.89770800  1
  O  O15  1  0.78679300  0.06352800  0.60229200  1
  O  O16  1  0.45622400  0.32295500  0.22896000  1
  O  O17  1  0.67704500  0.54377600  0.27104000  1
  O  O18  1  0.54377600  0.67704500  0.77104000  1
  O  O19  1  0.32295500  0.45622400  0.72896000  1
  O  O20  1  0.21320700  0.93647200  0.39770800  1
  O  O21  1  0.06352800  0.78679300  0.10229200  1
