# generated using pymatgen
data_ZrVP
_symmetry_space_group_name_H-M   'P 1'
_cell_length_a   3.52007100
_cell_length_b   6.63663900
_cell_length_c   7.92389600
_cell_angle_alpha   90.00000000
_cell_angle_beta   90.00000000
_cell_angle_gamma   90.00000000
_symmetry_Int_Tables_number   1
_chemical_formula_structural   ZrVP
_chemical_formula_sum   'Zr4 V4 P4'
_cell_volume   185.11362478
_cell_formula_units_Z   4
loop_
 _symmetry_equiv_pos_site_id
 _symmetry_equiv_pos_as_xyz
  1  'x, y, z'
loop_
 _atom_site_type_symbol
 _atom_site_label
 _atom_site_symmetry_multiplicity
 _atom_site_fract_x
 _atom_site_fract_y
 _atom_site_fract_z
 _atom_site_occupancy
  Zr  Zr0  1  0.25000000  0.03914500  0.83051000  1
  Zr  Zr1  1  0.75000000  0.96085500  0.16949000  1
  Zr  Zr2  1  0.25000000  0.53914500  0.66949000  1
  Zr  Zr3  1  0.75000000  0.46085500  0.33051000  1
  V  V4  1  0.75000000  0.37072000  0.94233000  1
  V  V5  1  0.25000000  0.62928000  0.05767000  1
  V  V6  1  0.75000000  0.87072000  0.55767000  1
  V  V7  1  0.25000000  0.12928000  0.44233000  1
  P  P8  1  0.25000000  0.76238000  0.36364800  1
  P  P9  1  0.75000000  0.23762000  0.63635200  1
  P  P10  1  0.25000000  0.26238000  0.13635200  1
  P  P11  1  0.75000000  0.73762000  0.86364800  1
