# generated using pymatgen
data_Eu(Ni5P3)2
_symmetry_space_group_name_H-M   'P 1'
_cell_length_a   8.66426115
_cell_length_b   8.66426115
_cell_length_c   8.73656800
_cell_angle_alpha   90.00000000
_cell_angle_beta   90.00000000
_cell_angle_gamma   136.72611127
_symmetry_Int_Tables_number   1
_chemical_formula_structural   Eu(Ni5P3)2
_chemical_formula_sum   'Eu2 Ni20 P12'
_cell_volume   449.57578237
_cell_formula_units_Z   2
loop_
 _symmetry_equiv_pos_site_id
 _symmetry_equiv_pos_as_xyz
  1  'x, y, z'
loop_
 _atom_site_type_symbol
 _atom_site_label
 _atom_site_symmetry_multiplicity
 _atom_site_fract_x
 _atom_site_fract_y
 _atom_site_fract_z
 _atom_site_occupancy
  Eu  Eu0  1  0.00000000  0.00000000  0.50000000  1
  Eu  Eu1  1  0.50000000  0.50000000  0.00000000  1
  Ni  Ni2  1  0.20715700  0.79284300  0.28938100  1
  Ni  Ni3  1  0.29284300  0.70715700  0.78938100  1
  Ni  Ni4  1  0.91221500  0.58778500  0.75000000  1
  Ni  Ni5  1  0.70715700  0.29284300  0.21061900  1
  Ni  Ni6  1  0.08778500  0.41221500  0.25000000  1
  Ni  Ni7  1  0.41221500  0.08778500  0.75000000  1
  Ni  Ni8  1  0.95658000  0.04342000  0.88101400  1
  Ni  Ni9  1  0.04342000  0.95658000  0.11898600  1
  Ni  Ni10  1  0.54342000  0.45658000  0.38101400  1
  Ni  Ni11  1  0.45658000  0.54342000  0.61898600  1
  Ni  Ni12  1  0.47195800  0.12610000  0.47010500  1
  Ni  Ni13  1  0.12610000  0.47195800  0.52989500  1
  Ni  Ni14  1  0.02804200  0.37390000  0.97010500  1
  Ni  Ni15  1  0.37390000  0.02804200  0.02989500  1
  Ni  Ni16  1  0.52804200  0.87390000  0.52989500  1
  Ni  Ni17  1  0.87390000  0.52804200  0.47010500  1
  Ni  Ni18  1  0.97195800  0.62610000  0.02989500  1
  Ni  Ni19  1  0.62610000  0.97195800  0.97010500  1
  Ni  Ni20  1  0.58778500  0.91221500  0.25000000  1
  Ni  Ni21  1  0.79284300  0.20715700  0.71061900  1
  P  P22  1  0.14521400  0.35478600  0.75000000  1
  P  P23  1  0.35478600  0.14521400  0.25000000  1
  P  P24  1  0.40945100  0.59054900  0.37128400  1
  P  P25  1  0.59054900  0.40945100  0.62871600  1
  P  P26  1  0.09054900  0.90945100  0.87128400  1
  P  P27  1  0.90945100  0.09054900  0.12871600  1
  P  P28  1  0.29143600  0.70856400  0.07326200  1
  P  P29  1  0.70856400  0.29143600  0.92673800  1
  P  P30  1  0.20856400  0.79143600  0.57326200  1
  P  P31  1  0.79143600  0.20856400  0.42673800  1
  P  P32  1  0.85478600  0.64521400  0.25000000  1
  P  P33  1  0.64521400  0.85478600  0.75000000  1
