# generated using pymatgen
data_SrBe3O4
_symmetry_space_group_name_H-M   'P 1'
_cell_length_a   4.62219227
_cell_length_b   4.62219227
_cell_length_c   8.98741200
_cell_angle_alpha   90.00000000
_cell_angle_beta   90.00000000
_cell_angle_gamma   120.00000380
_symmetry_Int_Tables_number   1
_chemical_formula_structural   SrBe3O4
_chemical_formula_sum   'Sr2 Be6 O8'
_cell_volume   166.28814136
_cell_formula_units_Z   2
loop_
 _symmetry_equiv_pos_site_id
 _symmetry_equiv_pos_as_xyz
  1  'x, y, z'
loop_
 _atom_site_type_symbol
 _atom_site_label
 _atom_site_symmetry_multiplicity
 _atom_site_fract_x
 _atom_site_fract_y
 _atom_site_fract_z
 _atom_site_occupancy
  Sr  Sr0  1  0.66666700  0.33333300  0.75000000  1
  Sr  Sr1  1  0.33333300  0.66666700  0.25000000  1
  Be  Be2  1  0.00000000  0.00000000  0.00000000  1
  Be  Be3  1  0.00000000  0.00000000  0.50000000  1
  Be  Be4  1  0.33333300  0.66666700  0.57125300  1
  Be  Be5  1  0.33333300  0.66666700  0.92874700  1
  Be  Be6  1  0.66666700  0.33333300  0.42874700  1
  Be  Be7  1  0.66666700  0.33333300  0.07125300  1
  O  O8  1  0.66611700  0.00000000  0.50000000  1
  O  O9  1  0.33388300  0.33388300  0.00000000  1
  O  O10  1  0.66666700  0.33333300  0.25000000  1
  O  O11  1  0.33333300  0.66666700  0.75000000  1
  O  O12  1  0.66611700  0.00000000  0.00000000  1
  O  O13  1  0.33388300  0.33388300  0.50000000  1
  O  O14  1  0.00000000  0.66611700  0.50000000  1
  O  O15  1  0.00000000  0.66611700  0.00000000  1
