# generated using pymatgen
data_Tb10B2Br15
_symmetry_space_group_name_H-M   'P 1'
_cell_length_a   9.09736500
_cell_length_b   9.86602961
_cell_length_c   10.72410649
_cell_angle_alpha   91.21495562
_cell_angle_beta   114.51435926
_cell_angle_gamma   110.75748427
_symmetry_Int_Tables_number   1
_chemical_formula_structural   Tb10B2Br15
_chemical_formula_sum   'Tb10 B2 Br15'
_cell_volume   802.75324942
_cell_formula_units_Z   1
loop_
 _symmetry_equiv_pos_site_id
 _symmetry_equiv_pos_as_xyz
  1  'x, y, z'
loop_
 _atom_site_type_symbol
 _atom_site_label
 _atom_site_symmetry_multiplicity
 _atom_site_fract_x
 _atom_site_fract_y
 _atom_site_fract_z
 _atom_site_occupancy
  Tb  Tb0  1  0.79895600  0.40750600  0.27516300  1
  Tb  Tb1  1  0.20104400  0.59249400  0.72483700  1
  Tb  Tb2  1  0.67415300  0.74675000  0.82205100  1
  Tb  Tb3  1  0.32584700  0.25325000  0.17794900  1
  Tb  Tb4  1  0.52522000  0.70468500  0.09442300  1
  Tb  Tb5  1  0.47478000  0.29531500  0.90557700  1
  Tb  Tb6  1  0.58499700  0.04089400  0.32289400  1
  Tb  Tb7  1  0.41500300  0.95910600  0.67710600  1
  Tb  Tb8  1  0.72115100  0.07421500  0.04806800  1
  Tb  Tb9  1  0.27884900  0.92578500  0.95193200  1
  B  B10  1  0.46743000  0.81952800  0.87710700  1
  B  B11  1  0.53257000  0.18047200  0.12289300  1
  Br  Br12  1  0.00000000  0.00000000  0.00000000  1
  Br  Br13  1  0.63794800  0.88297000  0.58421400  1
  Br  Br14  1  0.36205200  0.11703000  0.41578600  1
  Br  Br15  1  0.88428100  0.29961200  0.52869800  1
  Br  Br16  1  0.11571900  0.70038800  0.47130200  1
  Br  Br17  1  0.29042200  0.76160500  0.18026300  1
  Br  Br18  1  0.70957800  0.23839500  0.81973700  1
  Br  Br19  1  0.05615500  0.34225700  0.22708700  1
  Br  Br20  1  0.16514300  0.05811400  0.70247200  1
  Br  Br21  1  0.83485700  0.94188600  0.29752800  1
  Br  Br22  1  0.23098200  0.41020200  0.94321000  1
  Br  Br23  1  0.76901800  0.58979800  0.05679000  1
  Br  Br24  1  0.40839600  0.46276300  0.65924000  1
  Br  Br25  1  0.59160400  0.53723700  0.34076000  1
  Br  Br26  1  0.94384500  0.65774300  0.77291300  1
