# generated using pymatgen
data_YSiRu
_symmetry_space_group_name_H-M   'P 1'
_cell_length_a   4.31497200
_cell_length_b   7.01027600
_cell_length_c   7.18880600
_cell_angle_alpha   90.00000000
_cell_angle_beta   90.00000000
_cell_angle_gamma   90.00000000
_symmetry_Int_Tables_number   1
_chemical_formula_structural   YSiRu
_chemical_formula_sum   'Y4 Si4 Ru4'
_cell_volume   217.45523257
_cell_formula_units_Z   4
loop_
 _symmetry_equiv_pos_site_id
 _symmetry_equiv_pos_as_xyz
  1  'x, y, z'
loop_
 _atom_site_type_symbol
 _atom_site_label
 _atom_site_symmetry_multiplicity
 _atom_site_fract_x
 _atom_site_fract_y
 _atom_site_fract_z
 _atom_site_occupancy
  Y  Y0  1  0.75000000  0.01020500  0.18672800  1
  Y  Y1  1  0.25000000  0.48979500  0.68672800  1
  Y  Y2  1  0.75000000  0.51020500  0.31327200  1
  Y  Y3  1  0.25000000  0.98979500  0.81327200  1
  Si  Si4  1  0.25000000  0.30375400  0.10574900  1
  Si  Si5  1  0.25000000  0.80375400  0.39425100  1
  Si  Si6  1  0.75000000  0.69624600  0.89425100  1
  Si  Si7  1  0.75000000  0.19624600  0.60574900  1
  Ru  Ru8  1  0.25000000  0.65341100  0.06655100  1
  Ru  Ru9  1  0.25000000  0.15341100  0.43344900  1
  Ru  Ru10  1  0.75000000  0.84658900  0.56655100  1
  Ru  Ru11  1  0.75000000  0.34658900  0.93344900  1
