# generated using pymatgen
data_CdTeO3
_symmetry_space_group_name_H-M   'P 1'
_cell_length_a   11.45142200
_cell_length_b   7.59565100
_cell_length_c   7.98098441
_cell_angle_alpha   66.06991957
_cell_angle_beta   90.00000000
_cell_angle_gamma   90.00000000
_symmetry_Int_Tables_number   1
_chemical_formula_structural   CdTeO3
_chemical_formula_sum   'Cd8 Te8 O24'
_cell_volume   634.52190821
_cell_formula_units_Z   8
loop_
 _symmetry_equiv_pos_site_id
 _symmetry_equiv_pos_as_xyz
  1  'x, y, z'
loop_
 _atom_site_type_symbol
 _atom_site_label
 _atom_site_symmetry_multiplicity
 _atom_site_fract_x
 _atom_site_fract_y
 _atom_site_fract_z
 _atom_site_occupancy
  Cd  Cd0  1  0.99148000  0.69343400  0.26860600  1
  Cd  Cd1  1  0.49148000  0.80656600  0.73139400  1
  Cd  Cd2  1  0.00852000  0.30656600  0.73139400  1
  Cd  Cd3  1  0.50852000  0.19343400  0.26860600  1
  Cd  Cd4  1  0.76605800  0.02355500  0.00380500  1
  Cd  Cd5  1  0.26605800  0.47644500  0.99619500  1
  Cd  Cd6  1  0.23394200  0.97644500  0.99619500  1
  Cd  Cd7  1  0.73394200  0.52355500  0.00380500  1
  Te  Te8  1  0.74250100  0.87634500  0.50191100  1
  Te  Te9  1  0.24250100  0.62365500  0.49808900  1
  Te  Te10  1  0.25749900  0.12365500  0.49808900  1
  Te  Te11  1  0.75749900  0.37634500  0.50191100  1
  Te  Te12  1  0.00021400  0.75916600  0.83589800  1
  Te  Te13  1  0.50021400  0.74083400  0.16410200  1
  Te  Te14  1  0.99978600  0.24083400  0.16410200  1
  Te  Te15  1  0.49978600  0.25916600  0.83589800  1
  O  O16  1  0.92166700  0.00752600  0.19610900  1
  O  O17  1  0.42166700  0.49247400  0.80389100  1
  O  O18  1  0.07833300  0.99247400  0.80389100  1
  O  O19  1  0.57833300  0.50752600  0.19610900  1
  O  O20  1  0.62725400  0.05973200  0.50918600  1
  O  O21  1  0.12725400  0.44026800  0.49081400  1
  O  O22  1  0.37274600  0.94026800  0.49081400  1
  O  O23  1  0.87274600  0.55973200  0.50918600  1
  O  O24  1  0.83260900  0.17029100  0.69901000  1
  O  O25  1  0.33260900  0.32970900  0.30099000  1
  O  O26  1  0.16739100  0.82970900  0.30099000  1
  O  O27  1  0.66739100  0.67029100  0.69901000  1
  O  O28  1  0.62895600  0.26252300  0.99520900  1
  O  O29  1  0.12895600  0.23747700  0.00479100  1
  O  O30  1  0.37104400  0.73747700  0.00479100  1
  O  O31  1  0.87104400  0.76252300  0.99520900  1
  O  O32  1  0.58952100  0.88849100  0.94990700  1
  O  O33  1  0.08952100  0.61150900  0.05009300  1
  O  O34  1  0.41047900  0.11150900  0.05009300  1
  O  O35  1  0.91047900  0.38849100  0.94990700  1
  O  O36  1  0.67635300  0.84349100  0.29854900  1
  O  O37  1  0.17635300  0.65650900  0.70145100  1
  O  O38  1  0.32364700  0.15650900  0.70145100  1
  O  O39  1  0.82364700  0.34349100  0.29854900  1
