# generated using pymatgen
data_IF5
_symmetry_space_group_name_H-M   'P 1'
_cell_length_a   8.56004174
_cell_length_b   8.56004174
_cell_length_c   18.78309395
_cell_angle_alpha   86.93802604
_cell_angle_beta   86.93802604
_cell_angle_gamma   49.13162102
_symmetry_Int_Tables_number   1
_chemical_formula_structural   IF5
_chemical_formula_sum   'I10 F50'
_cell_volume   1038.99550983
_cell_formula_units_Z   10
loop_
 _symmetry_equiv_pos_site_id
 _symmetry_equiv_pos_as_xyz
  1  'x, y, z'
loop_
 _atom_site_type_symbol
 _atom_site_label
 _atom_site_symmetry_multiplicity
 _atom_site_fract_x
 _atom_site_fract_y
 _atom_site_fract_z
 _atom_site_occupancy
  I  I0  1  0.47391900  0.09744600  0.84598400  1
  I  I1  1  0.90255400  0.52608100  0.65401600  1
  I  I2  1  0.52608100  0.90255400  0.15401600  1
  I  I3  1  0.09744600  0.47391900  0.34598400  1
  I  I4  1  0.58732400  0.20022400  0.55339300  1
  I  I5  1  0.79977600  0.41267600  0.94660700  1
  I  I6  1  0.41267600  0.79977600  0.44660700  1
  I  I7  1  0.20022400  0.58732400  0.05339300  1
  I  I8  1  0.25309200  0.74690800  0.75000000  1
  I  I9  1  0.74690800  0.25309200  0.25000000  1
  F  F10  1  0.35903000  0.29206200  0.92176200  1
  F  F11  1  0.70793800  0.64097000  0.57823800  1
  F  F12  1  0.64097000  0.70793800  0.07823800  1
  F  F13  1  0.29206200  0.35903000  0.42176200  1
  F  F14  1  0.53434500  0.89135900  0.91602200  1
  F  F15  1  0.10864100  0.46565500  0.58397800  1
  F  F16  1  0.46565500  0.10864100  0.08397800  1
  F  F17  1  0.89135900  0.53434500  0.41602200  1
  F  F18  1  0.65910000  0.88254000  0.77868400  1
  F  F19  1  0.11746000  0.34090000  0.72131600  1
  F  F20  1  0.00777300  0.99222700  0.25000000  1
  F  F21  1  0.99222700  0.00777300  0.75000000  1
  F  F22  1  0.68273400  0.11142900  0.19874300  1
  F  F23  1  0.88857100  0.31726600  0.30125700  1
  F  F24  1  0.31726600  0.88857100  0.80125700  1
  F  F25  1  0.11142900  0.68273400  0.69874300  1
  F  F26  1  0.71505300  0.14931800  0.33738900  1
  F  F27  1  0.85068200  0.28494700  0.16261100  1
  F  F28  1  0.28494700  0.85068200  0.66261100  1
  F  F29  1  0.14931800  0.71505300  0.83738900  1
  F  F30  1  0.02387200  0.85387200  0.08790300  1
  F  F31  1  0.14612800  0.97612800  0.41209700  1
  F  F32  1  0.97612800  0.14612800  0.91209700  1
  F  F33  1  0.85387200  0.02387200  0.58790300  1
  F  F34  1  0.29410700  0.70067800  0.99224500  1
  F  F35  1  0.29932200  0.70589300  0.50775500  1
  F  F36  1  0.70589300  0.29932200  0.00775500  1
  F  F37  1  0.70067800  0.29410700  0.49224500  1
  F  F38  1  0.97526100  0.70358300  0.99099700  1
  F  F39  1  0.29641700  0.02473900  0.50900300  1
  F  F40  1  0.02473900  0.29641700  0.00900300  1
  F  F41  1  0.70358300  0.97526100  0.49099700  1
  F  F42  1  0.05300800  0.55338400  0.12495100  1
  F  F43  1  0.44661600  0.94699200  0.37504900  1
  F  F44  1  0.94699200  0.44661600  0.87504900  1
  F  F45  1  0.55338400  0.05300800  0.62495100  1
  F  F46  1  0.37398000  0.54300700  0.12759800  1
  F  F47  1  0.45699300  0.62602000  0.37240200  1
  F  F48  1  0.62602000  0.45699300  0.87240200  1
  F  F49  1  0.54300700  0.37398000  0.62759800  1
  F  F50  1  0.01924400  0.71775800  0.37728800  1
  F  F51  1  0.28224200  0.98075600  0.12271200  1
  F  F52  1  0.98075600  0.28224200  0.62271200  1
  F  F53  1  0.71775800  0.01924400  0.87728800  1
  F  F54  1  0.28202900  0.47853700  0.28418000  1
  F  F55  1  0.52146300  0.71797100  0.21582000  1
  F  F56  1  0.71797100  0.52146300  0.71582000  1
  F  F57  1  0.47853700  0.28202900  0.78418000  1
  F  F58  1  0.88254000  0.65910000  0.27868400  1
  F  F59  1  0.34090000  0.11746000  0.22131600  1
