# generated using pymatgen
data_Hg2MoO4
_symmetry_space_group_name_H-M   'P 1'
_cell_length_a   9.43828800
_cell_length_b   5.28948500
_cell_length_c   11.19714502
_cell_angle_alpha   80.71170488
_cell_angle_beta   90.00000000
_cell_angle_gamma   90.00000000
_symmetry_Int_Tables_number   1
_chemical_formula_structural   Hg2MoO4
_chemical_formula_sum   'Hg8 Mo4 O16'
_cell_volume   551.67346932
_cell_formula_units_Z   4
loop_
 _symmetry_equiv_pos_site_id
 _symmetry_equiv_pos_as_xyz
  1  'x, y, z'
loop_
 _atom_site_type_symbol
 _atom_site_label
 _atom_site_symmetry_multiplicity
 _atom_site_fract_x
 _atom_site_fract_y
 _atom_site_fract_z
 _atom_site_occupancy
  Hg  Hg0  1  0.87189900  0.33530300  0.93646200  1
  Hg  Hg1  1  0.37189900  0.66469700  0.56353800  1
  Hg  Hg2  1  0.12810100  0.66469700  0.06353800  1
  Hg  Hg3  1  0.62810100  0.33530300  0.43646200  1
  Hg  Hg4  1  0.79358600  0.55085500  0.57646600  1
  Hg  Hg5  1  0.29358600  0.44914500  0.92353400  1
  Hg  Hg6  1  0.20641400  0.44914500  0.42353400  1
  Hg  Hg7  1  0.70641400  0.55085500  0.07646600  1
  Mo  Mo8  1  0.03736700  0.96855800  0.71659000  1
  Mo  Mo9  1  0.53736700  0.03144200  0.78341000  1
  Mo  Mo10  1  0.96263300  0.03144200  0.28341000  1
  Mo  Mo11  1  0.46263300  0.96855800  0.21659000  1
  O  O12  1  0.90683300  0.71116200  0.71647900  1
  O  O13  1  0.40683300  0.28883800  0.78352100  1
  O  O14  1  0.09316700  0.28883800  0.28352100  1
  O  O15  1  0.59316700  0.71116200  0.21647900  1
  O  O16  1  0.51352200  0.78769800  0.91014800  1
  O  O17  1  0.01352200  0.21230200  0.58985200  1
  O  O18  1  0.48647800  0.21230200  0.08985200  1
  O  O19  1  0.98647800  0.78769800  0.41014800  1
  O  O20  1  0.20968100  0.83596000  0.71057700  1
  O  O21  1  0.70968100  0.16404000  0.78942300  1
  O  O22  1  0.79031900  0.16404000  0.28942300  1
  O  O23  1  0.29031900  0.83596000  0.21057700  1
  O  O24  1  0.97159300  0.89882400  0.14233300  1
  O  O25  1  0.47159300  0.10117600  0.35766700  1
  O  O26  1  0.02840700  0.10117600  0.85766700  1
  O  O27  1  0.52840700  0.89882400  0.64233300  1
