# generated using pymatgen
data_Sb2F7
_symmetry_space_group_name_H-M   'P 1'
_cell_length_a   11.06527000
_cell_length_b   4.91639000
_cell_length_c   11.04127537
_cell_angle_alpha   84.53010227
_cell_angle_beta   90.00000000
_cell_angle_gamma   90.00000000
_symmetry_Int_Tables_number   1
_chemical_formula_structural   Sb2F7
_chemical_formula_sum   'Sb8 F28'
_cell_volume   597.92329108
_cell_formula_units_Z   4
loop_
 _symmetry_equiv_pos_site_id
 _symmetry_equiv_pos_as_xyz
  1  'x, y, z'
loop_
 _atom_site_type_symbol
 _atom_site_label
 _atom_site_symmetry_multiplicity
 _atom_site_fract_x
 _atom_site_fract_y
 _atom_site_fract_z
 _atom_site_occupancy
  Sb  Sb0  1  0.75000000  0.89446100  0.07687500  1
  Sb  Sb1  1  0.25000000  0.10553900  0.92312500  1
  Sb  Sb2  1  0.06109900  0.20430500  0.23169000  1
  Sb  Sb3  1  0.56109900  0.79569500  0.76831000  1
  Sb  Sb4  1  0.93890100  0.79569500  0.76831000  1
  Sb  Sb5  1  0.43890100  0.20430500  0.23169000  1
  Sb  Sb6  1  0.75000000  0.43309300  0.47617800  1
  Sb  Sb7  1  0.25000000  0.56690700  0.52382200  1
  F  F8  1  0.12731800  0.35579300  0.45101900  1
  F  F9  1  0.62731800  0.64420700  0.54898100  1
  F  F10  1  0.87268200  0.64420700  0.54898100  1
  F  F11  1  0.37268200  0.35579300  0.45101900  1
  F  F12  1  0.75000000  0.18196200  0.94516900  1
  F  F13  1  0.25000000  0.81803800  0.05483100  1
  F  F14  1  0.08990300  0.23043500  0.05069200  1
  F  F15  1  0.58990300  0.76956500  0.94930800  1
  F  F16  1  0.25000000  0.31923200  0.22261200  1
  F  F17  1  0.75000000  0.68076800  0.77738800  1
  F  F18  1  0.25000000  0.82027400  0.37999700  1
  F  F19  1  0.75000000  0.17972600  0.62000300  1
  F  F20  1  0.48100800  0.58863300  0.21377500  1
  F  F21  1  0.98100800  0.41136700  0.78622500  1
  F  F22  1  0.51899200  0.41136700  0.78622500  1
  F  F23  1  0.01899200  0.58863300  0.21377500  1
  F  F24  1  0.25000000  0.31390800  0.66708600  1
  F  F25  1  0.75000000  0.68609200  0.33291400  1
  F  F26  1  0.12546200  0.77570700  0.59295200  1
  F  F27  1  0.62546200  0.22429300  0.40704800  1
  F  F28  1  0.87453800  0.22429300  0.40704800  1
  F  F29  1  0.37453800  0.77570700  0.59295200  1
  F  F30  1  0.12504700  0.86515800  0.84388500  1
  F  F31  1  0.62504700  0.13484200  0.15611500  1
  F  F32  1  0.87495300  0.13484200  0.15611500  1
  F  F33  1  0.37495300  0.86515800  0.84388500  1
  F  F34  1  0.41009700  0.23043500  0.05069200  1
  F  F35  1  0.91009700  0.76956500  0.94930800  1
