# generated using pymatgen
data_YSiRh2
_symmetry_space_group_name_H-M   'P 1'
_cell_length_a   5.56161759
_cell_length_b   5.56161759
_cell_length_c   15.16086800
_cell_angle_alpha   90.00000000
_cell_angle_beta   90.00000000
_cell_angle_gamma   119.99999512
_symmetry_Int_Tables_number   1
_chemical_formula_structural   YSiRh2
_chemical_formula_sum   'Y6 Si6 Rh12'
_cell_volume   406.12242197
_cell_formula_units_Z   6
loop_
 _symmetry_equiv_pos_site_id
 _symmetry_equiv_pos_as_xyz
  1  'x, y, z'
loop_
 _atom_site_type_symbol
 _atom_site_label
 _atom_site_symmetry_multiplicity
 _atom_site_fract_x
 _atom_site_fract_y
 _atom_site_fract_z
 _atom_site_occupancy
  Y  Y0  1  0.66666700  0.33333300  0.96305600  1
  Y  Y1  1  0.66666700  0.33333300  0.53694400  1
  Y  Y2  1  0.33333300  0.66666700  0.03694400  1
  Y  Y3  1  0.66666700  0.33333300  0.75000000  1
  Y  Y4  1  0.33333300  0.66666700  0.46305600  1
  Y  Y5  1  0.33333300  0.66666700  0.25000000  1
  Si  Si6  1  0.66666700  0.33333300  0.25000000  1
  Si  Si7  1  0.00000000  0.00000000  0.50000000  1
  Si  Si8  1  0.00000000  0.00000000  0.25000000  1
  Si  Si9  1  0.00000000  0.00000000  0.75000000  1
  Si  Si10  1  0.33333300  0.66666700  0.75000000  1
  Si  Si11  1  0.00000000  0.00000000  0.00000000  1
  Rh  Rh12  1  0.16651200  0.33302400  0.86911600  1
  Rh  Rh13  1  0.16651200  0.33302400  0.63088400  1
  Rh  Rh14  1  0.66697600  0.83348800  0.86911600  1
  Rh  Rh15  1  0.33302400  0.16651200  0.36911600  1
  Rh  Rh16  1  0.83348800  0.66697600  0.36911600  1
  Rh  Rh17  1  0.83348800  0.16651200  0.36911600  1
  Rh  Rh18  1  0.83348800  0.16651200  0.13088400  1
  Rh  Rh19  1  0.33302400  0.16651200  0.13088400  1
  Rh  Rh20  1  0.66697600  0.83348800  0.63088400  1
  Rh  Rh21  1  0.16651200  0.83348800  0.63088400  1
  Rh  Rh22  1  0.83348800  0.66697600  0.13088400  1
  Rh  Rh23  1  0.16651200  0.83348800  0.86911600  1
