# generated using pymatgen
data_TmInRh
_symmetry_space_group_name_H-M   'P 1'
_cell_length_a   7.49205975
_cell_length_b   7.49205975
_cell_length_c   3.89102600
_cell_angle_alpha   90.00000000
_cell_angle_beta   90.00000000
_cell_angle_gamma   119.99999781
_symmetry_Int_Tables_number   1
_chemical_formula_structural   TmInRh
_chemical_formula_sum   'Tm3 In3 Rh3'
_cell_volume   189.14603371
_cell_formula_units_Z   3
loop_
 _symmetry_equiv_pos_site_id
 _symmetry_equiv_pos_as_xyz
  1  'x, y, z'
loop_
 _atom_site_type_symbol
 _atom_site_label
 _atom_site_symmetry_multiplicity
 _atom_site_fract_x
 _atom_site_fract_y
 _atom_site_fract_z
 _atom_site_occupancy
  Tm  Tm0  1  0.00000000  0.40449000  0.50000000  1
  Tm  Tm1  1  0.59551000  0.59551000  0.50000000  1
  Tm  Tm2  1  0.40449000  0.00000000  0.50000000  1
  In  In3  1  0.25966400  0.25966400  0.00000000  1
  In  In4  1  0.00000000  0.74033600  0.00000000  1
  In  In5  1  0.74033600  0.00000000  0.00000000  1
  Rh  Rh6  1  0.33333300  0.66666700  0.00000000  1
  Rh  Rh7  1  0.00000000  0.00000000  0.50000000  1
  Rh  Rh8  1  0.66666700  0.33333300  0.00000000  1
