# generated using pymatgen
data_K2Ta15O32
_symmetry_space_group_name_H-M   'P 1'
_cell_length_a   12.88920427
_cell_length_b   12.88920427
_cell_length_c   12.88920413
_cell_angle_alpha   35.56374979
_cell_angle_beta   35.56374979
_cell_angle_gamma   35.56375154
_symmetry_Int_Tables_number   1
_chemical_formula_structural   K2Ta15O32
_chemical_formula_sum   'K2 Ta15 O32'
_cell_volume   647.37284089
_cell_formula_units_Z   1
loop_
 _symmetry_equiv_pos_site_id
 _symmetry_equiv_pos_as_xyz
  1  'x, y, z'
loop_
 _atom_site_type_symbol
 _atom_site_label
 _atom_site_symmetry_multiplicity
 _atom_site_fract_x
 _atom_site_fract_y
 _atom_site_fract_z
 _atom_site_occupancy
  K  K0  1  0.85946200  0.85946200  0.85946200  1
  K  K1  1  0.14053800  0.14053800  0.14053800  1
  Ta  Ta2  1  0.50000000  0.50000000  0.50000000  1
  Ta  Ta3  1  0.29824900  0.97452100  0.42930400  1
  Ta  Ta4  1  0.42930400  0.29824900  0.97452100  1
  Ta  Ta5  1  0.97452100  0.42930400  0.29824900  1
  Ta  Ta6  1  0.70175100  0.02547900  0.57069600  1
  Ta  Ta7  1  0.57069600  0.70175100  0.02547900  1
  Ta  Ta8  1  0.02547900  0.57069600  0.70175100  1
  Ta  Ta9  1  0.18572400  0.77125400  0.94655400  1
  Ta  Ta10  1  0.94655400  0.18572400  0.77125400  1
  Ta  Ta11  1  0.77125400  0.94655400  0.18572400  1
  Ta  Ta12  1  0.81427600  0.22874600  0.05344600  1
  Ta  Ta13  1  0.05344600  0.81427600  0.22874600  1
  Ta  Ta14  1  0.22874600  0.05344600  0.81427600  1
  Ta  Ta15  1  0.63734600  0.63734600  0.63734600  1
  Ta  Ta16  1  0.36265400  0.36265400  0.36265400  1
  O  O17  1  0.32467400  0.73757300  0.53439400  1
  O  O18  1  0.53439400  0.32467400  0.73757300  1
  O  O19  1  0.73757300  0.53439400  0.32467400  1
  O  O20  1  0.67532600  0.26242700  0.46560600  1
  O  O21  1  0.46560600  0.67532600  0.26242700  1
  O  O22  1  0.26242700  0.46560600  0.67532600  1
  O  O23  1  0.03224700  0.15127700  0.44511400  1
  O  O24  1  0.44511400  0.03224700  0.15127700  1
  O  O25  1  0.15127700  0.44511400  0.03224700  1
  O  O26  1  0.96775300  0.84872300  0.55488600  1
  O  O27  1  0.55488600  0.96775300  0.84872300  1
  O  O28  1  0.84872300  0.55488600  0.96775300  1
  O  O29  1  0.26316300  0.26316300  0.26316300  1
  O  O30  1  0.73683700  0.73683700  0.73683700  1
  O  O31  1  0.14042200  0.96025200  0.70067500  1
  O  O32  1  0.70067500  0.14042200  0.96025200  1
  O  O33  1  0.96025200  0.70067500  0.14042200  1
  O  O34  1  0.16944200  0.25961200  0.57082900  1
  O  O35  1  0.25961200  0.57082900  0.16944200  1
  O  O36  1  0.57082900  0.16944200  0.25961200  1
  O  O37  1  0.83055800  0.74038800  0.42917100  1
  O  O38  1  0.74038800  0.42917100  0.83055800  1
  O  O39  1  0.42917100  0.83055800  0.74038800  1
  O  O40  1  0.45783800  0.15475900  0.57107200  1
  O  O41  1  0.15475900  0.57107200  0.45783800  1
  O  O42  1  0.57107200  0.45783800  0.15475900  1
  O  O43  1  0.54216200  0.84524100  0.42892800  1
  O  O44  1  0.84524100  0.42892800  0.54216200  1
  O  O45  1  0.42892800  0.54216200  0.84524100  1
  O  O46  1  0.03974800  0.29932500  0.85957800  1
  O  O47  1  0.29932500  0.85957800  0.03974800  1
  O  O48  1  0.85957800  0.03974800  0.29932500  1
