# generated using pymatgen
data_LiGaBr4
_symmetry_space_group_name_H-M   'P 1'
_cell_length_a   7.36359200
_cell_length_b   7.51958200
_cell_length_c   14.04820495
_cell_angle_alpha   87.45301930
_cell_angle_beta   90.00000000
_cell_angle_gamma   90.00000000
_symmetry_Int_Tables_number   1
_chemical_formula_structural   LiGaBr4
_chemical_formula_sum   'Li4 Ga4 Br16'
_cell_volume   777.09659893
_cell_formula_units_Z   4
loop_
 _symmetry_equiv_pos_site_id
 _symmetry_equiv_pos_as_xyz
  1  'x, y, z'
loop_
 _atom_site_type_symbol
 _atom_site_label
 _atom_site_symmetry_multiplicity
 _atom_site_fract_x
 _atom_site_fract_y
 _atom_site_fract_z
 _atom_site_occupancy
  Li  Li0  1  0.51131600  0.84742400  0.87833000  1
  Li  Li1  1  0.48868400  0.15257600  0.12167000  1
  Li  Li2  1  0.01131600  0.15257600  0.62167000  1
  Li  Li3  1  0.98868400  0.84742400  0.37833000  1
  Ga  Ga4  1  0.67366500  0.70531300  0.10099700  1
  Ga  Ga5  1  0.82633500  0.70531300  0.60099700  1
  Ga  Ga6  1  0.17366500  0.29468700  0.39900300  1
  Ga  Ga7  1  0.32633500  0.29468700  0.89900300  1
  Br  Br8  1  0.30981300  0.30764500  0.55028500  1
  Br  Br9  1  0.12714100  0.81401100  0.56963700  1
  Br  Br10  1  0.37285900  0.81401100  0.06963700  1
  Br  Br11  1  0.87285900  0.18598900  0.43036300  1
  Br  Br12  1  0.62714100  0.18598900  0.93036300  1
  Br  Br13  1  0.69224600  0.93463900  0.68924600  1
  Br  Br14  1  0.80775400  0.93463900  0.18924600  1
  Br  Br15  1  0.30775400  0.06536100  0.31075400  1
  Br  Br16  1  0.32162700  0.56721400  0.81061700  1
  Br  Br17  1  0.82162700  0.43278600  0.68938300  1
  Br  Br18  1  0.67837300  0.43278600  0.18938300  1
  Br  Br19  1  0.17837300  0.56721400  0.31061700  1
  Br  Br20  1  0.80981300  0.69235500  0.94971500  1
  Br  Br21  1  0.69018700  0.69235500  0.44971500  1
  Br  Br22  1  0.19018700  0.30764500  0.05028500  1
  Br  Br23  1  0.19224600  0.06536100  0.81075400  1
