# generated using pymatgen
data_KEr2F7
_symmetry_space_group_name_H-M   'P 1'
_cell_length_a   7.81234300
_cell_length_b   11.85847600
_cell_length_c   13.34199400
_cell_angle_alpha   90.00000000
_cell_angle_beta   90.00000000
_cell_angle_gamma   90.00000000
_symmetry_Int_Tables_number   1
_chemical_formula_structural   KEr2F7
_chemical_formula_sum   'K8 Er16 F56'
_cell_volume   1236.03543858
_cell_formula_units_Z   8
loop_
 _symmetry_equiv_pos_site_id
 _symmetry_equiv_pos_as_xyz
  1  'x, y, z'
loop_
 _atom_site_type_symbol
 _atom_site_label
 _atom_site_symmetry_multiplicity
 _atom_site_fract_x
 _atom_site_fract_y
 _atom_site_fract_z
 _atom_site_occupancy
  K  K0  1  0.00443500  0.08541000  0.09389800  1
  K  K1  1  0.50443500  0.91459000  0.90610200  1
  K  K2  1  0.50443500  0.41459000  0.59389800  1
  K  K3  1  0.00443500  0.58541000  0.40610200  1
  K  K4  1  0.98170700  0.43490700  0.06841300  1
  K  K5  1  0.48170700  0.56509300  0.93158700  1
  K  K6  1  0.48170700  0.06509300  0.56841300  1
  K  K7  1  0.98170700  0.93490700  0.43158700  1
  Er  Er8  1  0.77948400  0.75605900  0.16264300  1
  Er  Er9  1  0.27948400  0.24394100  0.83735700  1
  Er  Er10  1  0.27948400  0.74394100  0.66264300  1
  Er  Er11  1  0.77948400  0.25605900  0.33735700  1
  Er  Er12  1  0.00611100  0.49293500  0.75845800  1
  Er  Er13  1  0.50611100  0.50706500  0.24154200  1
  Er  Er14  1  0.50611100  0.00706500  0.25845800  1
  Er  Er15  1  0.00611100  0.99293500  0.74154200  1
  Er  Er16  1  0.73210000  0.24368700  0.83701200  1
  Er  Er17  1  0.23210000  0.75631300  0.16298800  1
  Er  Er18  1  0.23210000  0.25631300  0.33701200  1
  Er  Er19  1  0.73210000  0.74368700  0.66298800  1
  Er  Er20  1  0.50481300  0.21018400  0.06271800  1
  Er  Er21  1  0.00481300  0.78981600  0.93728200  1
  Er  Er22  1  0.00481300  0.28981600  0.56271800  1
  Er  Er23  1  0.50481300  0.71018400  0.43728200  1
  F  F24  1  0.33832300  0.58886100  0.12301600  1
  F  F25  1  0.83832300  0.41113900  0.87698400  1
  F  F26  1  0.83832300  0.91113900  0.62301600  1
  F  F27  1  0.33832300  0.08886100  0.37698400  1
  F  F28  1  0.25302900  0.92532600  0.23255300  1
  F  F29  1  0.75302900  0.07467400  0.76744700  1
  F  F30  1  0.75302900  0.57467400  0.73255300  1
  F  F31  1  0.25302900  0.42532600  0.26744700  1
  F  F32  1  0.33573600  0.66948500  0.30157500  1
  F  F33  1  0.83573600  0.33051500  0.69842500  1
  F  F34  1  0.83573600  0.83051500  0.80157500  1
  F  F35  1  0.33573600  0.16948500  0.19842500  1
  F  F36  1  0.50412700  0.52649000  0.41095700  1
  F  F37  1  0.00412700  0.47351000  0.58904300  1
  F  F38  1  0.00412700  0.97351000  0.91095700  1
  F  F39  1  0.50412700  0.02649000  0.08904300  1
  F  F40  1  0.50985400  0.87634400  0.37453800  1
  F  F41  1  0.00985400  0.12365600  0.62546200  1
  F  F42  1  0.00985400  0.62365600  0.87453800  1
  F  F43  1  0.76022700  0.92661500  0.23048700  1
  F  F44  1  0.50985400  0.37634400  0.12546200  1
  F  F45  1  0.18075700  0.41359500  0.87580800  1
  F  F46  1  0.18075700  0.91359500  0.62419200  1
  F  F47  1  0.68075700  0.08640500  0.37580800  1
  F  F48  1  0.00686000  0.16285500  0.41946800  1
  F  F49  1  0.50686000  0.83714500  0.58053200  1
  F  F50  1  0.50686000  0.33714500  0.91946800  1
  F  F51  1  0.00686000  0.66285500  0.08053200  1
  F  F52  1  0.67338900  0.17016500  0.19842900  1
  F  F53  1  0.17338900  0.82983500  0.80157100  1
  F  F54  1  0.17338900  0.32983500  0.69842900  1
  F  F55  1  0.67338900  0.67016500  0.30157100  1
  F  F56  1  0.26977500  0.28115900  0.50232700  1
  F  F57  1  0.76977500  0.71884100  0.49767300  1
  F  F58  1  0.76977500  0.21884100  0.00232700  1
  F  F59  1  0.26977500  0.78115900  0.99767300  1
  F  F60  1  0.24116800  0.21910600  0.00187400  1
  F  F61  1  0.74116800  0.78089400  0.99812600  1
  F  F62  1  0.74116800  0.28089400  0.50187400  1
  F  F63  1  0.24116800  0.71910600  0.49812600  1
  F  F64  1  0.00499700  0.24289800  0.23488900  1
  F  F65  1  0.50499700  0.75710200  0.76511100  1
  F  F66  1  0.50499700  0.25710200  0.73488900  1
  F  F67  1  0.00499700  0.74289800  0.26511100  1
  F  F68  1  0.00608300  0.36646900  0.40461900  1
  F  F69  1  0.50608300  0.63353100  0.59538100  1
  F  F70  1  0.50608300  0.13353100  0.90461900  1
  F  F71  1  0.00608300  0.86646900  0.09538100  1
  F  F72  1  0.50606800  0.30742600  0.33904700  1
  F  F73  1  0.00606800  0.69257400  0.66095300  1
  F  F74  1  0.00606800  0.19257400  0.83904700  1
  F  F75  1  0.50606800  0.80742600  0.16095300  1
  F  F76  1  0.76022700  0.42661500  0.26951300  1
  F  F77  1  0.26022600  0.57338500  0.73048700  1
  F  F78  1  0.26022600  0.07338500  0.76951300  1
  F  F79  1  0.68075700  0.58640500  0.12419200  1
