# generated using pymatgen
data_CsSbF4
_symmetry_space_group_name_H-M   'P 1'
_cell_length_a   6.46961200
_cell_length_b   9.82805300
_cell_length_c   16.12393400
_cell_angle_alpha   90.00000000
_cell_angle_beta   90.00000000
_cell_angle_gamma   90.00000000
_symmetry_Int_Tables_number   1
_chemical_formula_structural   CsSbF4
_chemical_formula_sum   'Cs8 Sb8 F32'
_cell_volume   1025.21921500
_cell_formula_units_Z   8
loop_
 _symmetry_equiv_pos_site_id
 _symmetry_equiv_pos_as_xyz
  1  'x, y, z'
loop_
 _atom_site_type_symbol
 _atom_site_label
 _atom_site_symmetry_multiplicity
 _atom_site_fract_x
 _atom_site_fract_y
 _atom_site_fract_z
 _atom_site_occupancy
  Cs  Cs0  1  0.50000000  0.90904000  0.61551700  1
  Cs  Cs1  1  0.50000000  0.09096000  0.38448300  1
  Cs  Cs2  1  0.50000000  0.40904000  0.88448300  1
  Cs  Cs3  1  0.50000000  0.59096000  0.11551700  1
  Cs  Cs4  1  0.00000000  0.14249200  0.73900500  1
  Cs  Cs5  1  0.00000000  0.85750800  0.26099500  1
  Cs  Cs6  1  0.00000000  0.64249200  0.76099500  1
  Cs  Cs7  1  0.00000000  0.35750800  0.23900500  1
  Sb  Sb8  1  0.00000000  0.28485700  0.49919400  1
  Sb  Sb9  1  0.00000000  0.71514300  0.50080600  1
  Sb  Sb10  1  0.00000000  0.78485700  0.00080600  1
  Sb  Sb11  1  0.00000000  0.21514300  0.99919400  1
  Sb  Sb12  1  0.50000000  0.52657500  0.36954500  1
  Sb  Sb13  1  0.50000000  0.47342500  0.63045500  1
  Sb  Sb14  1  0.50000000  0.02657500  0.13045500  1
  Sb  Sb15  1  0.50000000  0.97342500  0.86954500  1
  F  F16  1  0.21951300  0.83875800  0.45218800  1
  F  F17  1  0.21951300  0.16124200  0.54781200  1
  F  F18  1  0.78048700  0.33875800  0.04781200  1
  F  F19  1  0.78048700  0.66124200  0.95218800  1
  F  F20  1  0.78048700  0.16124200  0.54781200  1
  F  F21  1  0.78048700  0.83875800  0.45218800  1
  F  F22  1  0.21951300  0.66124200  0.95218800  1
  F  F23  1  0.21951300  0.33875800  0.04781200  1
  F  F24  1  0.00000000  0.16164600  0.40265200  1
  F  F25  1  0.00000000  0.83835400  0.59734800  1
  F  F26  1  0.00000000  0.66164600  0.09734800  1
  F  F27  1  0.00000000  0.33835400  0.90265200  1
  F  F28  1  0.25642100  0.62069100  0.58321900  1
  F  F29  1  0.25642100  0.37930900  0.41678100  1
  F  F30  1  0.74357900  0.12069100  0.91678100  1
  F  F31  1  0.74357900  0.87930900  0.08321900  1
  F  F32  1  0.50000000  0.11483600  0.78221700  1
  F  F33  1  0.50000000  0.88516400  0.21778300  1
  F  F34  1  0.50000000  0.61483600  0.71778300  1
  F  F35  1  0.50000000  0.38516400  0.28221700  1
  F  F36  1  0.27685100  0.89140300  0.79493400  1
  F  F37  1  0.27685100  0.10859700  0.20506600  1
  F  F38  1  0.72314900  0.39140300  0.70506600  1
  F  F39  1  0.72314900  0.60859700  0.29493400  1
  F  F40  1  0.72314900  0.10859700  0.20506600  1
  F  F41  1  0.72314900  0.89140300  0.79493400  1
  F  F42  1  0.27685100  0.60859700  0.29493400  1
  F  F43  1  0.27685100  0.39140300  0.70506600  1
  F  F44  1  0.25642100  0.12069100  0.91678100  1
  F  F45  1  0.25642100  0.87930900  0.08321900  1
  F  F46  1  0.74357900  0.62069100  0.58321900  1
  F  F47  1  0.74357900  0.37930900  0.41678100  1
