# generated using pymatgen
data_NaNd2OsO6
_symmetry_space_group_name_H-M   'P 1'
_cell_length_a   5.98701300
_cell_length_b   5.57089900
_cell_length_c   9.70572467
_cell_angle_alpha   56.01204275
_cell_angle_beta   90.00000000
_cell_angle_gamma   90.00000000
_symmetry_Int_Tables_number   1
_chemical_formula_structural   NaNd2OsO6
_chemical_formula_sum   'Na2 Nd4 Os2 O12'
_cell_volume   268.41032851
_cell_formula_units_Z   2
loop_
 _symmetry_equiv_pos_site_id
 _symmetry_equiv_pos_as_xyz
  1  'x, y, z'
loop_
 _atom_site_type_symbol
 _atom_site_label
 _atom_site_symmetry_multiplicity
 _atom_site_fract_x
 _atom_site_fract_y
 _atom_site_fract_z
 _atom_site_occupancy
  Na  Na0  1  0.50000000  0.00000000  0.50000000  1
  Na  Na1  1  0.00000000  0.00000000  0.00000000  1
  Nd  Nd2  1  0.07168900  0.77561100  0.74617700  1
  Nd  Nd3  1  0.57168900  0.22438900  0.75382300  1
  Nd  Nd4  1  0.42831100  0.77561100  0.24617700  1
  Nd  Nd5  1  0.92831100  0.22438900  0.25382300  1
  Os  Os6  1  0.50000000  0.50000000  0.00000000  1
  Os  Os7  1  0.00000000  0.50000000  0.50000000  1
  O  O8  1  0.71839900  0.73407500  0.42866800  1
  O  O9  1  0.21839900  0.26592500  0.07133200  1
  O  O10  1  0.28160100  0.26592500  0.57133200  1
  O  O11  1  0.78160100  0.73407500  0.92866800  1
  O  O12  1  0.05294600  0.60620000  0.27001300  1
  O  O13  1  0.55294600  0.39380000  0.22998700  1
  O  O14  1  0.94705400  0.39380000  0.72998700  1
  O  O15  1  0.44705400  0.60620000  0.77001300  1
  O  O16  1  0.32707200  0.84640500  0.94691000  1
  O  O17  1  0.82707200  0.15359500  0.55309000  1
  O  O18  1  0.67292800  0.15359500  0.05309000  1
  O  O19  1  0.17292800  0.84640500  0.44691000  1
