# generated using pymatgen
data_K3BiSe3
_symmetry_space_group_name_H-M   'P 1'
_cell_length_a   9.96261800
_cell_length_b   9.96261800
_cell_length_c   9.96261800
_cell_angle_alpha   90.00000000
_cell_angle_beta   90.00000000
_cell_angle_gamma   90.00000000
_symmetry_Int_Tables_number   1
_chemical_formula_structural   K3BiSe3
_chemical_formula_sum   'K12 Bi4 Se12'
_cell_volume   988.82727018
_cell_formula_units_Z   4
loop_
 _symmetry_equiv_pos_site_id
 _symmetry_equiv_pos_as_xyz
  1  'x, y, z'
loop_
 _atom_site_type_symbol
 _atom_site_label
 _atom_site_symmetry_multiplicity
 _atom_site_fract_x
 _atom_site_fract_y
 _atom_site_fract_z
 _atom_site_occupancy
  K  K0  1  0.32156800  0.32156800  0.32156800  1
  K  K1  1  0.17843200  0.67843200  0.82156800  1
  K  K2  1  0.82156800  0.17843200  0.67843200  1
  K  K3  1  0.67843200  0.82156800  0.17843200  1
  K  K4  1  0.57259200  0.57259200  0.57259200  1
  K  K5  1  0.92740800  0.42740800  0.07259200  1
  K  K6  1  0.07259200  0.92740800  0.42740800  1
  K  K7  1  0.42740800  0.07259200  0.92740800  1
  K  K8  1  0.81363700  0.81363700  0.81363700  1
  K  K9  1  0.68636300  0.18636300  0.31363700  1
  K  K10  1  0.31363700  0.68636300  0.18636300  1
  K  K11  1  0.18636300  0.31363700  0.68636300  1
  Bi  Bi12  1  0.96590400  0.53409600  0.46590400  1
  Bi  Bi13  1  0.46590400  0.96590400  0.53409600  1
  Bi  Bi14  1  0.03409600  0.03409600  0.03409600  1
  Bi  Bi15  1  0.53409600  0.46590400  0.96590400  1
  Se  Se16  1  0.77620000  0.11120400  0.00150100  1
  Se  Se17  1  0.72380000  0.88879600  0.50150100  1
  Se  Se18  1  0.27620000  0.38879600  0.99849900  1
  Se  Se19  1  0.11120400  0.00150100  0.77620000  1
  Se  Se20  1  0.22380000  0.61120400  0.49849900  1
  Se  Se21  1  0.49849900  0.22380000  0.61120400  1
  Se  Se22  1  0.61120400  0.49849900  0.22380000  1
  Se  Se23  1  0.88879600  0.50150100  0.72380000  1
  Se  Se24  1  0.99849900  0.27620000  0.38879600  1
  Se  Se25  1  0.38879600  0.99849900  0.27620000  1
  Se  Se26  1  0.00150100  0.77620000  0.11120400  1
  Se  Se27  1  0.50150100  0.72380000  0.88879600  1
