# generated using pymatgen
data_TmCl3
_symmetry_space_group_name_H-M   'P 1'
_cell_length_a   7.13790598
_cell_length_b   7.13790598
_cell_length_c   7.13790581
_cell_angle_alpha   55.59854599
_cell_angle_beta   55.59854599
_cell_angle_gamma   55.59854835
_symmetry_Int_Tables_number   1
_chemical_formula_structural   TmCl3
_chemical_formula_sum   'Tm2 Cl6'
_cell_volume   230.88786382
_cell_formula_units_Z   2
loop_
 _symmetry_equiv_pos_site_id
 _symmetry_equiv_pos_as_xyz
  1  'x, y, z'
loop_
 _atom_site_type_symbol
 _atom_site_label
 _atom_site_symmetry_multiplicity
 _atom_site_fract_x
 _atom_site_fract_y
 _atom_site_fract_z
 _atom_site_occupancy
  Tm  Tm0  1  0.50000000  0.50000000  0.50000000  1
  Tm  Tm1  1  0.00000000  0.00000000  0.00000000  1
  Cl  Cl2  1  0.75000000  0.39287700  0.10712300  1
  Cl  Cl3  1  0.10712300  0.75000000  0.39287700  1
  Cl  Cl4  1  0.60712300  0.89287700  0.25000000  1
  Cl  Cl5  1  0.89287700  0.25000000  0.60712300  1
  Cl  Cl6  1  0.25000000  0.60712300  0.89287700  1
  Cl  Cl7  1  0.39287700  0.10712300  0.75000000  1
