# generated using pymatgen
data_Ba(InS2)2
_symmetry_space_group_name_H-M   'P 1'
_cell_length_a   15.69046556
_cell_length_b   13.00249101
_cell_length_c   12.87890951
_cell_angle_alpha   74.63523236
_cell_angle_beta   53.04127854
_cell_angle_gamma   52.32348910
_symmetry_Int_Tables_number   1
_chemical_formula_structural   Ba(InS2)2
_chemical_formula_sum   'Ba8 In16 S32'
_cell_volume   1639.76130066
_cell_formula_units_Z   8
loop_
 _symmetry_equiv_pos_site_id
 _symmetry_equiv_pos_as_xyz
  1  'x, y, z'
loop_
 _atom_site_type_symbol
 _atom_site_label
 _atom_site_symmetry_multiplicity
 _atom_site_fract_x
 _atom_site_fract_y
 _atom_site_fract_z
 _atom_site_occupancy
  Ba  Ba0  1  0.49728500  0.49728500  0.00271500  1
  Ba  Ba1  1  0.00271500  0.00271500  0.49728500  1
  Ba  Ba2  1  0.75271500  0.75271500  0.24728500  1
  Ba  Ba3  1  0.24728500  0.24728500  0.75271500  1
  Ba  Ba4  1  0.25000000  0.25000000  0.25000000  1
  Ba  Ba5  1  0.00000000  0.00000000  0.00000000  1
  Ba  Ba6  1  0.75000000  0.75000000  0.75000000  1
  Ba  Ba7  1  0.50000000  0.50000000  0.50000000  1
  In  In8  1  0.23608200  0.51291200  0.48740900  1
  In  In9  1  0.76359800  0.48740900  0.51291200  1
  In  In10  1  0.48740900  0.76359800  0.23608200  1
  In  In11  1  0.51291200  0.23608200  0.76359800  1
  In  In12  1  0.01391800  0.73708800  0.76259100  1
  In  In13  1  0.48640200  0.76259100  0.73708800  1
  In  In14  1  0.76259100  0.48640200  0.01391800  1
  In  In15  1  0.73708800  0.01391800  0.48640200  1
  In  In16  1  0.58876500  0.16120100  0.26808000  1
  In  In17  1  0.98195300  0.26808000  0.16120100  1
  In  In18  1  0.26808000  0.98195300  0.58876500  1
  In  In19  1  0.16120100  0.58876500  0.98195300  1
  In  In20  1  0.66123500  0.08879900  0.98192000  1
  In  In21  1  0.26804700  0.98192000  0.08879900  1
  In  In22  1  0.98192000  0.26804700  0.66123500  1
  In  In23  1  0.08879900  0.66123500  0.26804700  1
  S  S24  1  0.31011300  0.43708800  0.77716400  1
  S  S25  1  0.47563500  0.77716400  0.43708800  1
  S  S26  1  0.77716400  0.47563500  0.31011300  1
  S  S27  1  0.43708800  0.31011300  0.47563500  1
  S  S28  1  0.93988700  0.81291200  0.47283600  1
  S  S29  1  0.77436500  0.47283600  0.81291200  1
  S  S30  1  0.47283600  0.77436500  0.93988700  1
  S  S31  1  0.81291200  0.93988700  0.77436500  1
  S  S32  1  0.97202600  0.77998700  0.96825800  1
  S  S33  1  0.27972900  0.96825800  0.77998700  1
  S  S34  1  0.96825800  0.27972900  0.97202600  1
  S  S35  1  0.77998700  0.97202600  0.27972900  1
  S  S36  1  0.27797400  0.47001300  0.28174200  1
  S  S37  1  0.97027100  0.28174200  0.47001300  1
  S  S38  1  0.28174200  0.97027100  0.27797400  1
  S  S39  1  0.47001300  0.27797400  0.97027100  1
  S  S40  1  0.20948700  0.20831100  0.04052300  1
  S  S41  1  0.54167900  0.04052300  0.20831100  1
  S  S42  1  0.04052300  0.54167900  0.20948700  1
  S  S43  1  0.20831100  0.20948700  0.54167900  1
  S  S44  1  0.04051300  0.04168900  0.20947700  1
  S  S45  1  0.70832100  0.20947700  0.04168900  1
  S  S46  1  0.20947700  0.70832100  0.04051300  1
  S  S47  1  0.04168900  0.04051300  0.70832100  1
  S  S48  1  0.54247000  0.54036400  0.70738800  1
  S  S49  1  0.20977800  0.70738800  0.54036400  1
  S  S50  1  0.70738800  0.20977800  0.54247000  1
  S  S51  1  0.54036400  0.54247000  0.20977800  1
  S  S52  1  0.70753000  0.70963600  0.54261200  1
  S  S53  1  0.04022200  0.54261200  0.70963600  1
  S  S54  1  0.54261200  0.04022200  0.70753000  1
  S  S55  1  0.70963600  0.70753000  0.04022200  1
