# generated using pymatgen
data_Ti5Sn3
_symmetry_space_group_name_H-M   'P 1'
_cell_length_a   8.08043167
_cell_length_b   8.08043167
_cell_length_c   5.44312000
_cell_angle_alpha   90.00000000
_cell_angle_beta   90.00000000
_cell_angle_gamma   119.99999727
_symmetry_Int_Tables_number   1
_chemical_formula_structural   Ti5Sn3
_chemical_formula_sum   'Ti10 Sn6'
_cell_volume   307.78516010
_cell_formula_units_Z   2
loop_
 _symmetry_equiv_pos_site_id
 _symmetry_equiv_pos_as_xyz
  1  'x, y, z'
loop_
 _atom_site_type_symbol
 _atom_site_label
 _atom_site_symmetry_multiplicity
 _atom_site_fract_x
 _atom_site_fract_y
 _atom_site_fract_z
 _atom_site_occupancy
  Ti  Ti0  1  0.24284900  0.00000000  0.25000000  1
  Ti  Ti1  1  0.24284900  0.24284900  0.75000000  1
  Ti  Ti2  1  0.00000000  0.75715100  0.75000000  1
  Ti  Ti3  1  0.00000000  0.24284900  0.25000000  1
  Ti  Ti4  1  0.75715100  0.75715100  0.25000000  1
  Ti  Ti5  1  0.75715100  0.00000000  0.75000000  1
  Ti  Ti6  1  0.33333300  0.66666700  0.00000000  1
  Ti  Ti7  1  0.66666700  0.33333300  0.50000000  1
  Ti  Ti8  1  0.66666700  0.33333300  0.00000000  1
  Ti  Ti9  1  0.33333300  0.66666700  0.50000000  1
  Sn  Sn10  1  0.60870700  0.00000000  0.25000000  1
  Sn  Sn11  1  0.60870700  0.60870700  0.75000000  1
  Sn  Sn12  1  0.00000000  0.39129300  0.75000000  1
  Sn  Sn13  1  0.00000000  0.60870700  0.25000000  1
  Sn  Sn14  1  0.39129300  0.39129300  0.25000000  1
  Sn  Sn15  1  0.39129300  0.00000000  0.75000000  1
