# generated using pymatgen
data_ReP4
_symmetry_space_group_name_H-M   'P 1'
_cell_length_a   6.26937100
_cell_length_b   9.29359700
_cell_length_c   10.93681000
_cell_angle_alpha   90.00000000
_cell_angle_beta   90.00000000
_cell_angle_gamma   90.00000000
_symmetry_Int_Tables_number   1
_chemical_formula_structural   ReP4
_chemical_formula_sum   'Re8 P32'
_cell_volume   637.23331687
_cell_formula_units_Z   8
loop_
 _symmetry_equiv_pos_site_id
 _symmetry_equiv_pos_as_xyz
  1  'x, y, z'
loop_
 _atom_site_type_symbol
 _atom_site_label
 _atom_site_symmetry_multiplicity
 _atom_site_fract_x
 _atom_site_fract_y
 _atom_site_fract_z
 _atom_site_occupancy
  Re  Re0  1  0.62192400  0.10964000  0.42446000  1
  Re  Re1  1  0.12192400  0.39036000  0.57554000  1
  Re  Re2  1  0.37807600  0.60964000  0.07554000  1
  Re  Re3  1  0.87807600  0.89036000  0.92446000  1
  Re  Re4  1  0.37807600  0.89036000  0.57554000  1
  Re  Re5  1  0.87807600  0.60964000  0.42446000  1
  Re  Re6  1  0.62192400  0.39036000  0.92446000  1
  Re  Re7  1  0.12192400  0.10964000  0.07554000  1
  P  P8  1  0.99853600  0.20925900  0.43079300  1
  P  P9  1  0.49853600  0.29074100  0.56920700  1
  P  P10  1  0.00146400  0.70925900  0.06920700  1
  P  P11  1  0.50146400  0.79074100  0.93079300  1
  P  P12  1  0.00146400  0.79074100  0.56920700  1
  P  P13  1  0.50146400  0.70925900  0.43079300  1
  P  P14  1  0.99853600  0.29074100  0.93079300  1
  P  P15  1  0.49853600  0.20925900  0.06920700  1
  P  P16  1  0.06179600  0.28237200  0.23599600  1
  P  P17  1  0.56179600  0.21762800  0.76400400  1
  P  P18  1  0.93820400  0.78237200  0.26400400  1
  P  P19  1  0.43820400  0.71762800  0.73599600  1
  P  P20  1  0.93820400  0.71762800  0.76400400  1
  P  P21  1  0.43820400  0.78237200  0.23599600  1
  P  P22  1  0.06179600  0.21762800  0.73599600  1
  P  P23  1  0.56179600  0.28237200  0.26400400  1
  P  P24  1  0.18828400  0.94762900  0.23820000  1
  P  P25  1  0.68828400  0.55237100  0.76180000  1
  P  P26  1  0.81171600  0.44762900  0.26180000  1
  P  P27  1  0.31171600  0.05237100  0.73820000  1
  P  P28  1  0.81171600  0.05237100  0.76180000  1
  P  P29  1  0.31171600  0.44762900  0.23820000  1
  P  P30  1  0.18828400  0.55237100  0.73820000  1
  P  P31  1  0.68828400  0.94762900  0.26180000  1
  P  P32  1  0.75494700  0.04376600  0.08153300  1
  P  P33  1  0.25494700  0.45623400  0.91846700  1
  P  P34  1  0.24505300  0.54376600  0.41846700  1
  P  P35  1  0.74505300  0.95623400  0.58153300  1
  P  P36  1  0.24505300  0.95623400  0.91846700  1
  P  P37  1  0.74505300  0.54376600  0.08153300  1
  P  P38  1  0.75494700  0.45623400  0.58153300  1
  P  P39  1  0.25494700  0.04376600  0.41846700  1
