# generated using pymatgen
data_CaGeAu
_symmetry_space_group_name_H-M   'P 1'
_cell_length_a   4.55712100
_cell_length_b   7.84862500
_cell_length_c   21.76446000
_cell_angle_alpha   90.00000000
_cell_angle_beta   90.00000000
_cell_angle_gamma   90.00000000
_symmetry_Int_Tables_number   1
_chemical_formula_structural   CaGeAu
_chemical_formula_sum   'Ca12 Ge12 Au12'
_cell_volume   778.45235309
_cell_formula_units_Z   12
loop_
 _symmetry_equiv_pos_site_id
 _symmetry_equiv_pos_as_xyz
  1  'x, y, z'
loop_
 _atom_site_type_symbol
 _atom_site_label
 _atom_site_symmetry_multiplicity
 _atom_site_fract_x
 _atom_site_fract_y
 _atom_site_fract_z
 _atom_site_occupancy
  Ca  Ca0  1  0.25000000  0.71639400  0.00060700  1
  Ca  Ca1  1  0.75000000  0.28360600  0.99939300  1
  Ca  Ca2  1  0.75000000  0.21639400  0.49939300  1
  Ca  Ca3  1  0.25000000  0.78360600  0.50060700  1
  Ca  Ca4  1  0.25000000  0.79133200  0.16612800  1
  Ca  Ca5  1  0.75000000  0.20866800  0.83387200  1
  Ca  Ca6  1  0.75000000  0.29133200  0.33387200  1
  Ca  Ca7  1  0.25000000  0.70866800  0.66612800  1
  Ca  Ca8  1  0.25000000  0.70754100  0.33295000  1
  Ca  Ca9  1  0.75000000  0.29245900  0.66705000  1
  Ca  Ca10  1  0.75000000  0.20754100  0.16705000  1
  Ca  Ca11  1  0.25000000  0.79245900  0.83295000  1
  Ge  Ge12  1  0.75000000  0.58617300  0.10361800  1
  Ge  Ge13  1  0.75000000  0.91382700  0.60361800  1
  Ge  Ge14  1  0.25000000  0.08617300  0.39638200  1
  Ge  Ge15  1  0.25000000  0.41691700  0.77115400  1
  Ge  Ge16  1  0.75000000  0.58308300  0.22884600  1
  Ge  Ge17  1  0.75000000  0.91691700  0.72884600  1
  Ge  Ge18  1  0.25000000  0.41382700  0.89638200  1
  Ge  Ge19  1  0.25000000  0.08308300  0.27115400  1
  Ge  Ge20  1  0.25000000  0.40999800  0.56907600  1
  Ge  Ge21  1  0.75000000  0.59000200  0.43092400  1
  Ge  Ge22  1  0.75000000  0.90999800  0.93092400  1
  Ge  Ge23  1  0.25000000  0.09000200  0.06907600  1
  Au  Au24  1  0.25000000  0.08408400  0.93244800  1
  Au  Au25  1  0.75000000  0.91591600  0.06755200  1
  Au  Au26  1  0.75000000  0.58408400  0.56755200  1
  Au  Au27  1  0.25000000  0.41591600  0.43244800  1
  Au  Au28  1  0.25000000  0.08754600  0.73831100  1
  Au  Au29  1  0.75000000  0.58754600  0.76168900  1
  Au  Au30  1  0.25000000  0.41245400  0.23831100  1
  Au  Au31  1  0.25000000  0.08364000  0.59421100  1
  Au  Au32  1  0.75000000  0.91636000  0.40578900  1
  Au  Au33  1  0.75000000  0.58364000  0.90578900  1
  Au  Au34  1  0.25000000  0.41636000  0.09421100  1
  Au  Au35  1  0.75000000  0.91245400  0.26168900  1
