# generated using pymatgen
data_Cs2VF6
_symmetry_space_group_name_H-M   'P 1'
_cell_length_a   8.19897480
_cell_length_b   8.19897480
_cell_length_c   7.41198000
_cell_angle_alpha   90.00000000
_cell_angle_beta   90.00000000
_cell_angle_gamma   134.83618952
_symmetry_Int_Tables_number   1
_chemical_formula_structural   Cs2VF6
_chemical_formula_sum   'Cs4 V2 F12'
_cell_volume   353.32670452
_cell_formula_units_Z   2
loop_
 _symmetry_equiv_pos_site_id
 _symmetry_equiv_pos_as_xyz
  1  'x, y, z'
loop_
 _atom_site_type_symbol
 _atom_site_label
 _atom_site_symmetry_multiplicity
 _atom_site_fract_x
 _atom_site_fract_y
 _atom_site_fract_z
 _atom_site_occupancy
  Cs  Cs0  1  0.04893200  0.95106800  0.25000000  1
  Cs  Cs1  1  0.95106800  0.04893200  0.75000000  1
  Cs  Cs2  1  0.73123300  0.26876700  0.25000000  1
  Cs  Cs3  1  0.26876700  0.73123300  0.75000000  1
  V  V4  1  0.38480900  0.61519100  0.25000000  1
  V  V5  1  0.61519100  0.38480900  0.75000000  1
  F  F6  1  0.26086300  0.73913700  0.25000000  1
  F  F7  1  0.73913700  0.26086300  0.75000000  1
  F  F8  1  0.50507800  0.49492200  0.25000000  1
  F  F9  1  0.49492200  0.50507800  0.75000000  1
  F  F10  1  0.59979200  0.83656100  0.42942400  1
  F  F11  1  0.83656100  0.59979200  0.57057600  1
  F  F12  1  0.83656100  0.59979200  0.92942400  1
  F  F13  1  0.59979200  0.83656100  0.07057600  1
  F  F14  1  0.16343900  0.40020800  0.42942400  1
  F  F15  1  0.40020800  0.16343900  0.57057600  1
  F  F16  1  0.16343900  0.40020800  0.07057600  1
  F  F17  1  0.40020800  0.16343900  0.92942400  1
