# generated using pymatgen
data_CsI3
_symmetry_space_group_name_H-M   'P 1'
_cell_length_a   7.22657800
_cell_length_b   10.46590500
_cell_length_c   11.31801100
_cell_angle_alpha   90.00000000
_cell_angle_beta   90.00000000
_cell_angle_gamma   90.00000000
_symmetry_Int_Tables_number   1
_chemical_formula_structural   CsI3
_chemical_formula_sum   'Cs4 I12'
_cell_volume   856.01149088
_cell_formula_units_Z   4
loop_
 _symmetry_equiv_pos_site_id
 _symmetry_equiv_pos_as_xyz
  1  'x, y, z'
loop_
 _atom_site_type_symbol
 _atom_site_label
 _atom_site_symmetry_multiplicity
 _atom_site_fract_x
 _atom_site_fract_y
 _atom_site_fract_z
 _atom_site_occupancy
  Cs  Cs0  1  0.25000000  0.47058000  0.82284900  1
  Cs  Cs1  1  0.75000000  0.52942000  0.17715100  1
  Cs  Cs2  1  0.75000000  0.97058000  0.67715100  1
  Cs  Cs3  1  0.25000000  0.02942000  0.32284900  1
  I  I4  1  0.25000000  0.36752800  0.16822300  1
  I  I5  1  0.75000000  0.63247200  0.83177700  1
  I  I6  1  0.75000000  0.86752800  0.33177700  1
  I  I7  1  0.25000000  0.13247200  0.66822300  1
  I  I8  1  0.25000000  0.55533200  0.37026700  1
  I  I9  1  0.75000000  0.44466800  0.62973300  1
  I  I10  1  0.75000000  0.05533200  0.12973300  1
  I  I11  1  0.25000000  0.94466800  0.87026700  1
  I  I12  1  0.25000000  0.73615200  0.56471900  1
  I  I13  1  0.75000000  0.26384800  0.43528100  1
  I  I14  1  0.75000000  0.23615200  0.93528100  1
  I  I15  1  0.25000000  0.76384800  0.06471900  1
