# generated using pymatgen
data_CuH2SO5
_symmetry_space_group_name_H-M   'P 1'
_cell_length_a   5.05668000
_cell_length_b   5.24511312
_cell_length_c   7.81662305
_cell_angle_alpha   108.98451663
_cell_angle_beta   108.00302617
_cell_angle_gamma   90.42178778
_symmetry_Int_Tables_number   1
_chemical_formula_structural   CuH2SO5
_chemical_formula_sum   'Cu2 H4 S2 O10'
_cell_volume   185.09721909
_cell_formula_units_Z   2
loop_
 _symmetry_equiv_pos_site_id
 _symmetry_equiv_pos_as_xyz
  1  'x, y, z'
loop_
 _atom_site_type_symbol
 _atom_site_label
 _atom_site_symmetry_multiplicity
 _atom_site_fract_x
 _atom_site_fract_y
 _atom_site_fract_z
 _atom_site_occupancy
  Cu  Cu0  1  0.50000000  0.50000000  0.50000000  1
  Cu  Cu1  1  0.00000000  0.00000000  0.00000000  1
  H  H2  1  0.82273900  0.40462000  0.77843200  1
  H  H3  1  0.17726100  0.59538000  0.22156800  1
  H  H4  1  0.02075300  0.50845700  0.68527500  1
  H  H5  1  0.97924700  0.49154300  0.31472500  1
  S  S6  1  0.39164500  0.07025300  0.75513600  1
  S  S7  1  0.60835500  0.92974700  0.24486400  1
  O  O8  1  0.74023200  0.83662700  0.09257600  1
  O  O9  1  0.25976800  0.16337300  0.90742400  1
  O  O10  1  0.29467100  0.84179400  0.15391000  1
  O  O11  1  0.70532900  0.15820600  0.84609000  1
  O  O12  1  0.66187800  0.23353500  0.32684200  1
  O  O13  1  0.33812200  0.76646500  0.67315800  1
  O  O14  1  0.71260400  0.80183400  0.38978600  1
  O  O15  1  0.28739600  0.19816600  0.61021400  1
  O  O16  1  0.14689100  0.45302900  0.27592900  1
  O  O17  1  0.85310900  0.54697100  0.72407100  1
