# generated using pymatgen
data_Rb3BS3
_symmetry_space_group_name_H-M   'P 1'
_cell_length_a   6.46961800
_cell_length_b   10.53230100
_cell_length_c   13.24064854
_cell_angle_alpha   75.47350081
_cell_angle_beta   90.00000000
_cell_angle_gamma   90.00000000
_symmetry_Int_Tables_number   1
_chemical_formula_structural   Rb3BS3
_chemical_formula_sum   'Rb12 B4 S12'
_cell_volume   873.37499577
_cell_formula_units_Z   4
loop_
 _symmetry_equiv_pos_site_id
 _symmetry_equiv_pos_as_xyz
  1  'x, y, z'
loop_
 _atom_site_type_symbol
 _atom_site_label
 _atom_site_symmetry_multiplicity
 _atom_site_fract_x
 _atom_site_fract_y
 _atom_site_fract_z
 _atom_site_occupancy
  Rb  Rb0  1  0.64308700  0.25205600  0.50800800  1
  Rb  Rb1  1  0.14308700  0.74794400  0.99199200  1
  Rb  Rb2  1  0.35691300  0.74794400  0.49199200  1
  Rb  Rb3  1  0.85691300  0.25205600  0.00800800  1
  Rb  Rb4  1  0.28609700  0.02770600  0.14112600  1
  Rb  Rb5  1  0.78609700  0.97229400  0.35887400  1
  Rb  Rb6  1  0.71390300  0.97229400  0.85887400  1
  Rb  Rb7  1  0.21390300  0.02770600  0.64112600  1
  Rb  Rb8  1  0.43762100  0.40512200  0.19575600  1
  Rb  Rb9  1  0.93762100  0.59487800  0.30424400  1
  Rb  Rb10  1  0.56237900  0.59487800  0.80424400  1
  Rb  Rb11  1  0.06237900  0.40512200  0.69575600  1
  B  B12  1  0.11703300  0.23413900  0.37226500  1
  B  B13  1  0.61703300  0.76586100  0.12773500  1
  B  B14  1  0.88296700  0.76586100  0.62773500  1
  B  B15  1  0.38296700  0.23413900  0.87226500  1
  S  S16  1  0.92435200  0.28568500  0.26727500  1
  S  S17  1  0.42435200  0.71431500  0.23272500  1
  S  S18  1  0.07564800  0.71431500  0.73272500  1
  S  S19  1  0.57564800  0.28568500  0.76727500  1
  S  S20  1  0.28452100  0.09109500  0.37782600  1
  S  S21  1  0.78452100  0.90890500  0.12217400  1
  S  S22  1  0.71547900  0.90890500  0.62217400  1
  S  S23  1  0.21547900  0.09109500  0.87782600  1
  S  S24  1  0.35304900  0.33025600  0.96956500  1
  S  S25  1  0.85304900  0.66974400  0.53043500  1
  S  S26  1  0.64695100  0.66974400  0.03043500  1
  S  S27  1  0.14695100  0.33025600  0.46956500  1
