# generated using pymatgen
data_ThZrF8
_symmetry_space_group_name_H-M   'P 1'
_cell_length_a   8.63297900
_cell_length_b   8.35488900
_cell_length_c   16.62989024
_cell_angle_alpha   78.94017107
_cell_angle_beta   90.00000000
_cell_angle_gamma   90.00000000
_symmetry_Int_Tables_number   1
_chemical_formula_structural   ThZrF8
_chemical_formula_sum   'Th8 Zr8 F64'
_cell_volume   1177.19641797
_cell_formula_units_Z   8
loop_
 _symmetry_equiv_pos_site_id
 _symmetry_equiv_pos_as_xyz
  1  'x, y, z'
loop_
 _atom_site_type_symbol
 _atom_site_label
 _atom_site_symmetry_multiplicity
 _atom_site_fract_x
 _atom_site_fract_y
 _atom_site_fract_z
 _atom_site_occupancy
  Th  Th0  1  0.90675900  0.22211600  0.32227900  1
  Th  Th1  1  0.40675900  0.77788400  0.17772100  1
  Th  Th2  1  0.09324100  0.77788400  0.67772100  1
  Th  Th3  1  0.59324100  0.22211600  0.82227900  1
  Th  Th4  1  0.40296400  0.33414100  0.38843000  1
  Th  Th5  1  0.90296400  0.66585900  0.11157000  1
  Th  Th6  1  0.59703600  0.66585900  0.61157000  1
  Th  Th7  1  0.09703600  0.33414100  0.88843000  1
  Zr  Zr8  1  0.77593000  0.70500400  0.36382200  1
  Zr  Zr9  1  0.27593000  0.29499600  0.13617800  1
  Zr  Zr10  1  0.22407000  0.29499600  0.63617800  1
  Zr  Zr11  1  0.72407000  0.70500400  0.86382200  1
  Zr  Zr12  1  0.76470900  0.17446400  0.57887600  1
  Zr  Zr13  1  0.26470900  0.82553600  0.92112400  1
  Zr  Zr14  1  0.23529100  0.82553600  0.42112400  1
  Zr  Zr15  1  0.73529100  0.17446400  0.07887600  1
  F  F16  1  0.72101800  0.41958500  0.57479200  1
  F  F17  1  0.22101800  0.58041500  0.92520800  1
  F  F18  1  0.27898200  0.58041500  0.42520800  1
  F  F19  1  0.77898200  0.41958500  0.07479200  1
  F  F20  1  0.79289000  0.95893300  0.35278100  1
  F  F21  1  0.29289000  0.04106700  0.14721900  1
  F  F22  1  0.20711000  0.04106700  0.64721900  1
  F  F23  1  0.70711000  0.95893300  0.85278100  1
  F  F24  1  0.58965300  0.54334600  0.40328200  1
  F  F25  1  0.08965300  0.45665400  0.09671800  1
  F  F26  1  0.41034700  0.45665400  0.59671800  1
  F  F27  1  0.91034700  0.54334600  0.90328200  1
  F  F28  1  0.63332600  0.95310000  0.59076600  1
  F  F29  1  0.13332600  0.04690000  0.90923400  1
  F  F30  1  0.36667400  0.04690000  0.40923400  1
  F  F31  1  0.86667400  0.95310000  0.09076600  1
  F  F32  1  0.87562600  0.74374200  0.24838600  1
  F  F33  1  0.37562600  0.25625800  0.25161400  1
  F  F34  1  0.12437400  0.25625800  0.75161400  1
  F  F35  1  0.62437400  0.74374200  0.74838600  1
  F  F36  1  0.71274800  0.15426500  0.70084700  1
  F  F37  1  0.21274800  0.84573500  0.79915300  1
  F  F38  1  0.28725200  0.84573500  0.29915300  1
  F  F39  1  0.78725200  0.15426500  0.20084700  1
  F  F40  1  0.86689300  0.16300400  0.46761500  1
  F  F41  1  0.36689300  0.83699600  0.03238500  1
  F  F42  1  0.13310700  0.83699600  0.53238500  1
  F  F43  1  0.63310700  0.16300400  0.96761500  1
  F  F44  1  0.86584900  0.47196500  0.37467700  1
  F  F45  1  0.36584900  0.52803500  0.12532300  1
  F  F46  1  0.13415100  0.52803500  0.62532300  1
  F  F47  1  0.63415100  0.47196500  0.87467700  1
  F  F48  1  0.09002900  0.20690800  0.21249900  1
  F  F49  1  0.59002900  0.79309200  0.28750100  1
  F  F50  1  0.90997100  0.79309200  0.78750100  1
  F  F51  1  0.40997100  0.20690800  0.71249900  1
  F  F52  1  0.74052400  0.73106300  0.48512900  1
  F  F53  1  0.24052400  0.26893700  0.01487100  1
  F  F54  1  0.25947600  0.26893700  0.51487100  1
  F  F55  1  0.75947600  0.73106300  0.98512900  1
  F  F56  1  0.08622800  0.02153500  0.37593500  1
  F  F57  1  0.58622800  0.97846500  0.12406500  1
  F  F58  1  0.91377200  0.97846500  0.62406500  1
  F  F59  1  0.41377200  0.02153500  0.87593500  1
  F  F60  1  0.01280700  0.72566900  0.40167600  1
  F  F61  1  0.51280700  0.27433100  0.09832400  1
  F  F62  1  0.98719300  0.27433100  0.59832400  1
  F  F63  1  0.48719300  0.72566900  0.90167600  1
  F  F64  1  0.38972700  0.54862700  0.27868100  1
  F  F65  1  0.88972700  0.45137300  0.22131900  1
  F  F66  1  0.61027300  0.45137300  0.72131900  1
  F  F67  1  0.11027300  0.54862700  0.77868100  1
  F  F68  1  0.14376600  0.33653500  0.35221300  1
  F  F69  1  0.64376600  0.66346500  0.14778700  1
  F  F70  1  0.85623400  0.66346500  0.64778700  1
  F  F71  1  0.35623400  0.33653500  0.85221300  1
  F  F72  1  0.57067600  0.22753000  0.50199500  1
  F  F73  1  0.07067600  0.77247000  0.99800500  1
  F  F74  1  0.42932400  0.77247000  0.49800500  1
  F  F75  1  0.92932400  0.22753000  0.00199500  1
  F  F76  1  0.64082700  0.26721600  0.33627400  1
  F  F77  1  0.14082700  0.73278400  0.16372600  1
  F  F78  1  0.35917300  0.73278400  0.66372600  1
  F  F79  1  0.85917300  0.26721600  0.83627400  1
