# generated using pymatgen
data_USiRh
_symmetry_space_group_name_H-M   'P 1'
_cell_length_a   3.83744300
_cell_length_b   7.11033800
_cell_length_c   7.45203400
_cell_angle_alpha   90.00000000
_cell_angle_beta   90.00000000
_cell_angle_gamma   90.00000000
_symmetry_Int_Tables_number   1
_chemical_formula_structural   USiRh
_chemical_formula_sum   'U4 Si4 Rh4'
_cell_volume   203.33259879
_cell_formula_units_Z   4
loop_
 _symmetry_equiv_pos_site_id
 _symmetry_equiv_pos_as_xyz
  1  'x, y, z'
loop_
 _atom_site_type_symbol
 _atom_site_label
 _atom_site_symmetry_multiplicity
 _atom_site_fract_x
 _atom_site_fract_y
 _atom_site_fract_z
 _atom_site_occupancy
  U  U0  1  0.75000000  0.63219600  0.49848400  1
  U  U1  1  0.25000000  0.36780400  0.50151600  1
  U  U2  1  0.75000000  0.86780400  0.99848400  1
  U  U3  1  0.25000000  0.13219600  0.00151600  1
  Si  Si4  1  0.75000000  0.12799700  0.69948300  1
  Si  Si5  1  0.25000000  0.87200300  0.30051700  1
  Si  Si6  1  0.75000000  0.37200300  0.19948300  1
  Si  Si7  1  0.25000000  0.62799700  0.80051700  1
  Rh  Rh8  1  0.25000000  0.56860900  0.13066700  1
  Rh  Rh9  1  0.75000000  0.43139100  0.86933300  1
  Rh  Rh10  1  0.25000000  0.93139100  0.63066700  1
  Rh  Rh11  1  0.75000000  0.06860900  0.36933300  1
