# generated using pymatgen
data_Re2PbO8
_symmetry_space_group_name_H-M   'P 1'
_cell_length_a   11.54273994
_cell_length_b   11.54273994
_cell_length_c   4.99404100
_cell_angle_alpha   90.00000000
_cell_angle_beta   90.00000000
_cell_angle_gamma   119.99999966
_symmetry_Int_Tables_number   1
_chemical_formula_structural   Re2PbO8
_chemical_formula_sum   'Re6 Pb3 O24'
_cell_volume   576.23622780
_cell_formula_units_Z   3
loop_
 _symmetry_equiv_pos_site_id
 _symmetry_equiv_pos_as_xyz
  1  'x, y, z'
loop_
 _atom_site_type_symbol
 _atom_site_label
 _atom_site_symmetry_multiplicity
 _atom_site_fract_x
 _atom_site_fract_y
 _atom_site_fract_z
 _atom_site_occupancy
  Re  Re0  1  0.37768900  0.00000000  0.98942500  1
  Re  Re1  1  0.00000000  0.37768900  0.98942500  1
  Re  Re2  1  0.62231100  0.62231100  0.98942500  1
  Re  Re3  1  0.29057900  0.29057900  0.48969300  1
  Re  Re4  1  0.00000000  0.70942100  0.48969300  1
  Re  Re5  1  0.70942100  0.00000000  0.48969300  1
  Pb  Pb6  1  0.00000000  0.00000000  0.96664700  1
  Pb  Pb7  1  0.33333300  0.66666700  0.41948500  1
  Pb  Pb8  1  0.66666700  0.33333300  0.41948500  1
  O  O9  1  0.61517800  0.61517800  0.64241500  1
  O  O10  1  0.00000000  0.38482200  0.64241500  1
  O  O11  1  0.38482200  0.00000000  0.64241500  1
  O  O12  1  0.14740100  0.14740100  0.61435700  1
  O  O13  1  0.00000000  0.85259900  0.61435700  1
  O  O14  1  0.85259900  0.00000000  0.61435700  1
  O  O15  1  0.29343400  0.43739600  0.59427300  1
  O  O16  1  0.56260400  0.85603800  0.59427300  1
  O  O17  1  0.14396200  0.70656600  0.59427300  1
  O  O18  1  0.23145000  0.00000000  0.08417500  1
  O  O19  1  0.00000000  0.23145000  0.08417500  1
  O  O20  1  0.76855000  0.76855000  0.08417500  1
  O  O21  1  0.52035200  0.14610600  0.10682600  1
  O  O22  1  0.85389400  0.37424600  0.10682600  1
  O  O23  1  0.62575400  0.47964800  0.10682600  1
  O  O24  1  0.14610600  0.52035200  0.10682600  1
  O  O25  1  0.37424600  0.85389400  0.10682600  1
  O  O26  1  0.47964800  0.62575400  0.10682600  1
  O  O27  1  0.71577400  0.00000000  0.14256600  1
  O  O28  1  0.00000000  0.71577400  0.14256600  1
  O  O29  1  0.28422600  0.28422600  0.14256600  1
  O  O30  1  0.70656600  0.14396200  0.59427300  1
  O  O31  1  0.85603800  0.56260400  0.59427300  1
  O  O32  1  0.43739600  0.29343400  0.59427300  1
