# generated using pymatgen
data_AsPd3Pb2
_symmetry_space_group_name_H-M   'P 1'
_cell_length_a   6.99474232
_cell_length_b   6.99474232
_cell_length_c   5.90102800
_cell_angle_alpha   90.00000000
_cell_angle_beta   90.00000000
_cell_angle_gamma   120.42259307
_symmetry_Int_Tables_number   1
_chemical_formula_structural   AsPd3Pb2
_chemical_formula_sum   'As2 Pd6 Pb4'
_cell_volume   248.96401772
_cell_formula_units_Z   2
loop_
 _symmetry_equiv_pos_site_id
 _symmetry_equiv_pos_as_xyz
  1  'x, y, z'
loop_
 _atom_site_type_symbol
 _atom_site_label
 _atom_site_symmetry_multiplicity
 _atom_site_fract_x
 _atom_site_fract_y
 _atom_site_fract_z
 _atom_site_occupancy
  As  As0  1  0.70690300  0.70690300  0.29525000  1
  As  As1  1  0.29309700  0.29309700  0.79525000  1
  Pd  Pd2  1  0.66428800  0.42385300  0.00004200  1
  Pd  Pd3  1  0.33571200  0.57614700  0.50004200  1
  Pd  Pd4  1  0.94675400  0.94675400  0.97935400  1
  Pd  Pd5  1  0.05324600  0.05324600  0.47935400  1
  Pd  Pd6  1  0.42385300  0.66428800  0.00004200  1
  Pd  Pd7  1  0.57614700  0.33571200  0.50004200  1
  Pb  Pb8  1  0.01514800  0.65684200  0.69265600  1
  Pb  Pb9  1  0.98485200  0.34315800  0.19265600  1
  Pb  Pb10  1  0.34315800  0.98485200  0.19265600  1
  Pb  Pb11  1  0.65684200  0.01514800  0.69265600  1
