# generated using pymatgen
data_TePbF6
_symmetry_space_group_name_H-M   'P 1'
_cell_length_a   13.06667200
_cell_length_b   4.75923900
_cell_length_c   8.69164546
_cell_angle_alpha   76.69107039
_cell_angle_beta   90.00000000
_cell_angle_gamma   90.00000000
_symmetry_Int_Tables_number   1
_chemical_formula_structural   TePbF6
_chemical_formula_sum   'Te4 Pb4 F24'
_cell_volume   525.99446403
_cell_formula_units_Z   4
loop_
 _symmetry_equiv_pos_site_id
 _symmetry_equiv_pos_as_xyz
  1  'x, y, z'
loop_
 _atom_site_type_symbol
 _atom_site_label
 _atom_site_symmetry_multiplicity
 _atom_site_fract_x
 _atom_site_fract_y
 _atom_site_fract_z
 _atom_site_occupancy
  Te  Te0  1  0.77743300  0.94168400  0.97159500  1
  Te  Te1  1  0.27743300  0.05831600  0.52840500  1
  Te  Te2  1  0.22256700  0.05831600  0.02840500  1
  Te  Te3  1  0.72256700  0.94168400  0.47159500  1
  Pb  Pb4  1  0.50500000  0.36260800  0.80807000  1
  Pb  Pb5  1  0.00500000  0.63739200  0.69193000  1
  Pb  Pb6  1  0.49500000  0.63739200  0.19193000  1
  Pb  Pb7  1  0.99500000  0.36260800  0.30807000  1
  F  F8  1  0.67168700  0.11055800  0.63595500  1
  F  F9  1  0.17168700  0.88944200  0.86404500  1
  F  F10  1  0.32831300  0.88944200  0.36404500  1
  F  F11  1  0.82831300  0.11055800  0.13595500  1
  F  F12  1  0.81299000  0.74825700  0.66240200  1
  F  F13  1  0.31299000  0.25174300  0.83759800  1
  F  F14  1  0.18701000  0.25174300  0.33759800  1
  F  F15  1  0.68701000  0.74825700  0.16240200  1
  F  F16  1  0.46983100  0.22044400  0.08439000  1
  F  F17  1  0.96983100  0.77955600  0.41561000  1
  F  F18  1  0.53016900  0.77955600  0.91561000  1
  F  F19  1  0.03016900  0.22044400  0.58439000  1
  F  F20  1  0.39486300  0.32591100  0.45552700  1
  F  F21  1  0.89486300  0.67408900  0.04447300  1
  F  F22  1  0.60513700  0.67408900  0.54447300  1
  F  F23  1  0.10513700  0.32591100  0.95552700  1
  F  F24  1  0.88245200  0.19301700  0.84365900  1
  F  F25  1  0.38245200  0.80698300  0.65634100  1
  F  F26  1  0.11754800  0.80698300  0.15634100  1
  F  F27  1  0.61754800  0.19301700  0.34365900  1
  F  F28  1  0.68401000  0.29675700  0.93592700  1
  F  F29  1  0.18401000  0.70324300  0.56407300  1
  F  F30  1  0.31599000  0.70324300  0.06407300  1
  F  F31  1  0.81599000  0.29675700  0.43592700  1
