# generated using pymatgen
data_CsH7O4
_symmetry_space_group_name_H-M   'P 1'
_cell_length_a   6.08241000
_cell_length_b   8.77200300
_cell_length_c   12.46111249
_cell_angle_alpha   52.98224078
_cell_angle_beta   90.00000000
_cell_angle_gamma   90.00000000
_symmetry_Int_Tables_number   1
_chemical_formula_structural   CsH7O4
_chemical_formula_sum   'Cs4 H28 O16'
_cell_volume   530.85807228
_cell_formula_units_Z   4
loop_
 _symmetry_equiv_pos_site_id
 _symmetry_equiv_pos_as_xyz
  1  'x, y, z'
loop_
 _atom_site_type_symbol
 _atom_site_label
 _atom_site_symmetry_multiplicity
 _atom_site_fract_x
 _atom_site_fract_y
 _atom_site_fract_z
 _atom_site_occupancy
  Cs  Cs0  1  0.14781400  0.66374900  0.26627600  1
  Cs  Cs1  1  0.64781400  0.33625100  0.23372400  1
  Cs  Cs2  1  0.85218600  0.33625100  0.73372400  1
  Cs  Cs3  1  0.35218600  0.66374900  0.76627600  1
  H  H4  1  0.13112500  0.38382400  0.10685200  1
  H  H5  1  0.63112500  0.61617600  0.39314800  1
  H  H6  1  0.86887500  0.61617600  0.89314800  1
  H  H7  1  0.36887500  0.38382400  0.60685200  1
  H  H8  1  0.12433000  0.61083000  0.01832700  1
  H  H9  1  0.62433000  0.38917000  0.48167300  1
  H  H10  1  0.87567000  0.38917000  0.98167300  1
  H  H11  1  0.37567000  0.61083000  0.51832700  1
  H  H12  1  0.19206600  0.92465500  0.86917900  1
  H  H13  1  0.69206600  0.07534500  0.63082100  1
  H  H14  1  0.80793400  0.07534500  0.13082100  1
  H  H15  1  0.30793400  0.92465500  0.36917900  1
  H  H16  1  0.38798600  0.07230800  0.76385000  1
  H  H17  1  0.88798600  0.92769200  0.73615000  1
  H  H18  1  0.61201400  0.92769200  0.23615000  1
  H  H19  1  0.11201400  0.07230800  0.26385000  1
  H  H20  1  0.66442400  0.86125200  0.08629800  1
  H  H21  1  0.16442400  0.13874800  0.41370200  1
  H  H22  1  0.33557600  0.13874800  0.91370200  1
  H  H23  1  0.83557600  0.86125200  0.58629800  1
  H  H24  1  0.62506100  0.80765900  0.44008600  1
  H  H25  1  0.12506100  0.19234100  0.05991400  1
  H  H26  1  0.37493900  0.19234100  0.55991400  1
  H  H27  1  0.87493900  0.80765900  0.94008600  1
  H  H28  1  0.96977300  0.85321400  0.48112200  1
  H  H29  1  0.46977300  0.14678600  0.01887800  1
  H  H30  1  0.03022700  0.14678600  0.51887800  1
  H  H31  1  0.53022700  0.85321400  0.98112200  1
  O  O32  1  0.19738000  0.49489400  0.09923900  1
  O  O33  1  0.69738000  0.50510600  0.40076100  1
  O  O34  1  0.80262000  0.50510600  0.90076100  1
  O  O35  1  0.30262000  0.49489400  0.59923900  1
  O  O36  1  0.33167900  0.99754200  0.86075800  1
  O  O37  1  0.83167900  0.00245800  0.63924200  1
  O  O38  1  0.66832100  0.00245800  0.13924200  1
  O  O39  1  0.16832100  0.99754200  0.36075800  1
  O  O40  1  0.64801700  0.78537400  0.05089300  1
  O  O41  1  0.14801700  0.21462600  0.44910700  1
  O  O42  1  0.35198300  0.21462600  0.94910700  1
  O  O43  1  0.85198300  0.78537400  0.55089300  1
  O  O44  1  0.98736100  0.80211700  0.88523500  1
  O  O45  1  0.48736100  0.19788300  0.61476500  1
  O  O46  1  0.01263900  0.19788300  0.11476500  1
  O  O47  1  0.51263900  0.80211700  0.38523500  1
