# generated using pymatgen
data_Hf(Se2Cl3)2
_symmetry_space_group_name_H-M   'P 1'
_cell_length_a   11.10161800
_cell_length_b   11.10161800
_cell_length_c   11.12924700
_cell_angle_alpha   90.00000000
_cell_angle_beta   90.00000000
_cell_angle_gamma   90.00000000
_symmetry_Int_Tables_number   1
_chemical_formula_structural   Hf(Se2Cl3)2
_chemical_formula_sum   'Hf4 Se16 Cl24'
_cell_volume   1371.63431011
_cell_formula_units_Z   4
loop_
 _symmetry_equiv_pos_site_id
 _symmetry_equiv_pos_as_xyz
  1  'x, y, z'
loop_
 _atom_site_type_symbol
 _atom_site_label
 _atom_site_symmetry_multiplicity
 _atom_site_fract_x
 _atom_site_fract_y
 _atom_site_fract_z
 _atom_site_occupancy
  Hf  Hf0  1  0.75000000  0.25000000  0.75000000  1
  Hf  Hf1  1  0.25000000  0.25000000  0.25000000  1
  Hf  Hf2  1  0.75000000  0.75000000  0.25000000  1
  Hf  Hf3  1  0.25000000  0.75000000  0.75000000  1
  Se  Se4  1  0.85479200  0.14520800  0.25000000  1
  Se  Se5  1  0.35479200  0.35479200  0.75000000  1
  Se  Se6  1  0.64520800  0.64520800  0.75000000  1
  Se  Se7  1  0.14520800  0.85479200  0.25000000  1
  Se  Se8  1  0.64520800  0.35479200  0.25000000  1
  Se  Se9  1  0.14520800  0.14520800  0.75000000  1
  Se  Se10  1  0.85479200  0.85479200  0.75000000  1
  Se  Se11  1  0.35479200  0.64520800  0.25000000  1
  Se  Se12  1  0.16026500  0.66026500  0.17093800  1
  Se  Se13  1  0.83973500  0.33973500  0.17093800  1
  Se  Se14  1  0.16026500  0.33973500  0.67093800  1
  Se  Se15  1  0.83973500  0.66026500  0.67093800  1
  Se  Se16  1  0.66026500  0.16026500  0.32906200  1
  Se  Se17  1  0.33973500  0.16026500  0.82906200  1
  Se  Se18  1  0.66026500  0.83973500  0.82906200  1
  Se  Se19  1  0.33973500  0.83973500  0.32906200  1
  Cl  Cl20  1  0.41917900  0.69540600  0.88634700  1
  Cl  Cl21  1  0.58082100  0.30459400  0.88634700  1
  Cl  Cl22  1  0.19540600  0.08082100  0.38634700  1
  Cl  Cl23  1  0.80459400  0.91917900  0.38634700  1
  Cl  Cl24  1  0.69540600  0.41917900  0.61365300  1
  Cl  Cl25  1  0.08082100  0.19540600  0.11365300  1
  Cl  Cl26  1  0.91917900  0.80459400  0.11365300  1
  Cl  Cl27  1  0.30459400  0.58082100  0.61365300  1
  Cl  Cl28  1  0.08082100  0.80459400  0.61365300  1
  Cl  Cl29  1  0.91917900  0.19540600  0.61365300  1
  Cl  Cl30  1  0.30459400  0.41917900  0.11365300  1
  Cl  Cl31  1  0.69540600  0.58082100  0.11365300  1
  Cl  Cl32  1  0.80459400  0.08082100  0.88634700  1
  Cl  Cl33  1  0.41917900  0.30459400  0.38634700  1
  Cl  Cl34  1  0.58082100  0.69540600  0.38634700  1
  Cl  Cl35  1  0.19540600  0.91917900  0.88634700  1
  Cl  Cl36  1  0.11826700  0.61826700  0.86321000  1
  Cl  Cl37  1  0.88173300  0.38173300  0.86321000  1
  Cl  Cl38  1  0.11826700  0.38173300  0.36321000  1
  Cl  Cl39  1  0.88173300  0.61826700  0.36321000  1
  Cl  Cl40  1  0.38173300  0.88173300  0.63679000  1
  Cl  Cl41  1  0.61826700  0.88173300  0.13679000  1
  Cl  Cl42  1  0.38173300  0.11826700  0.13679000  1
  Cl  Cl43  1  0.61826700  0.11826700  0.63679000  1
