# generated using pymatgen
data_Cr3C2
_symmetry_space_group_name_H-M   'P 1'
_cell_length_a   2.78836900
_cell_length_b   5.48245000
_cell_length_c   11.51010000
_cell_angle_alpha   90.00000000
_cell_angle_beta   90.00000000
_cell_angle_gamma   90.00000000
_symmetry_Int_Tables_number   1
_chemical_formula_structural   Cr3C2
_chemical_formula_sum   'Cr12 C8'
_cell_volume   175.95597632
_cell_formula_units_Z   4
loop_
 _symmetry_equiv_pos_site_id
 _symmetry_equiv_pos_as_xyz
  1  'x, y, z'
loop_
 _atom_site_type_symbol
 _atom_site_label
 _atom_site_symmetry_multiplicity
 _atom_site_fract_x
 _atom_site_fract_y
 _atom_site_fract_z
 _atom_site_occupancy
  Cr  Cr0  1  0.75000000  0.51669300  0.09683400  1
  Cr  Cr1  1  0.25000000  0.48330700  0.90316600  1
  Cr  Cr2  1  0.75000000  0.01669300  0.40316600  1
  Cr  Cr3  1  0.25000000  0.98330700  0.59683400  1
  Cr  Cr4  1  0.25000000  0.31644100  0.27364300  1
  Cr  Cr5  1  0.75000000  0.68355900  0.72635700  1
  Cr  Cr6  1  0.25000000  0.81644100  0.22635700  1
  Cr  Cr7  1  0.75000000  0.18355900  0.77364300  1
  Cr  Cr8  1  0.25000000  0.63372800  0.43177400  1
  Cr  Cr9  1  0.75000000  0.36627200  0.56822600  1
  Cr  Cr10  1  0.25000000  0.13372800  0.06822600  1
  Cr  Cr11  1  0.75000000  0.86627200  0.93177400  1
  C  C12  1  0.75000000  0.10133300  0.20230600  1
  C  C13  1  0.25000000  0.89866700  0.79769400  1
  C  C14  1  0.75000000  0.60133300  0.29769400  1
  C  C15  1  0.25000000  0.39866700  0.70230600  1
  C  C16  1  0.25000000  0.26290900  0.45096600  1
  C  C17  1  0.75000000  0.73709100  0.54903400  1
  C  C18  1  0.25000000  0.76290900  0.04903400  1
  C  C19  1  0.75000000  0.23709100  0.95096600  1
