# generated using pymatgen
data_V6C5
_symmetry_space_group_name_H-M   'P 1'
_cell_length_a   5.10516921
_cell_length_b   5.10516921
_cell_length_c   14.36743700
_cell_angle_alpha   90.00000000
_cell_angle_beta   90.00000000
_cell_angle_gamma   119.99998978
_symmetry_Int_Tables_number   1
_chemical_formula_structural   V6C5
_chemical_formula_sum   'V18 C15'
_cell_volume   324.28753884
_cell_formula_units_Z   3
loop_
 _symmetry_equiv_pos_site_id
 _symmetry_equiv_pos_as_xyz
  1  'x, y, z'
loop_
 _atom_site_type_symbol
 _atom_site_label
 _atom_site_symmetry_multiplicity
 _atom_site_fract_x
 _atom_site_fract_y
 _atom_site_fract_z
 _atom_site_occupancy
  V  V0  1  0.77854400  0.52902500  0.41477100  1
  V  V1  1  0.75048100  0.22145600  0.08143800  1
  V  V2  1  0.47097500  0.24951900  0.74810400  1
  V  V3  1  0.75048100  0.52902500  0.91856200  1
  V  V4  1  0.77854400  0.24951900  0.58522900  1
  V  V5  1  0.47097500  0.22145600  0.25189600  1
  V  V6  1  0.11051400  0.52794200  0.74876400  1
  V  V7  1  0.47205800  0.58257100  0.08209800  1
  V  V8  1  0.41742900  0.88948600  0.41543100  1
  V  V9  1  0.47205800  0.88948600  0.91790200  1
  V  V10  1  0.41742900  0.52794200  0.58456900  1
  V  V11  1  0.11051400  0.58257100  0.25123600  1
  V  V12  1  0.13574400  0.88892900  0.59021100  1
  V  V13  1  0.11107100  0.24681500  0.92354500  1
  V  V14  1  0.75318500  0.86425600  0.25687800  1
  V  V15  1  0.11107100  0.86425600  0.07645500  1
  V  V16  1  0.75318500  0.88892900  0.74312200  1
  V  V17  1  0.13574400  0.24681500  0.40978900  1
  C  C18  1  0.43880200  0.21940100  0.00000000  1
  C  C19  1  0.78059900  0.56119800  0.66666700  1
  C  C20  1  0.78059900  0.21940100  0.33333300  1
  C  C21  1  0.11136600  0.55568300  0.00000000  1
  C  C22  1  0.44431700  0.88863400  0.66666700  1
  C  C23  1  0.44431700  0.55568300  0.33333300  1
  C  C24  1  0.78461200  0.89230600  0.00000000  1
  C  C25  1  0.10769400  0.21538800  0.66666700  1
  C  C26  1  0.10769400  0.89230600  0.33333300  1
  C  C27  1  0.44172600  0.22086300  0.50000000  1
  C  C28  1  0.77913700  0.55827400  0.16666700  1
  C  C29  1  0.77913700  0.22086300  0.83333300  1
  C  C30  1  0.10912900  0.55456500  0.50000000  1
  C  C31  1  0.44543500  0.89087100  0.16666700  1
  C  C32  1  0.44543500  0.55456500  0.83333300  1
