# generated using pymatgen
data_P2PtO7
_symmetry_space_group_name_H-M   'P 1'
_cell_length_a   8.04002500
_cell_length_b   7.20356000
_cell_length_c   9.51421294
_cell_angle_alpha   67.01234560
_cell_angle_beta   90.00000000
_cell_angle_gamma   90.00000000
_symmetry_Int_Tables_number   1
_chemical_formula_structural   P2PtO7
_chemical_formula_sum   'P8 Pt4 O28'
_cell_volume   507.27473962
_cell_formula_units_Z   4
loop_
 _symmetry_equiv_pos_site_id
 _symmetry_equiv_pos_as_xyz
  1  'x, y, z'
loop_
 _atom_site_type_symbol
 _atom_site_label
 _atom_site_symmetry_multiplicity
 _atom_site_fract_x
 _atom_site_fract_y
 _atom_site_fract_z
 _atom_site_occupancy
  P  P0  1  0.25183500  0.34330900  0.79343400  1
  P  P1  1  0.75183500  0.65669100  0.70656600  1
  P  P2  1  0.74816500  0.65669100  0.20656600  1
  P  P3  1  0.24816500  0.34330900  0.29343400  1
  P  P4  1  0.31966100  0.93212600  0.82000600  1
  P  P5  1  0.81966100  0.06787400  0.67999400  1
  P  P6  1  0.68033900  0.06787400  0.17999400  1
  P  P7  1  0.18033900  0.93212600  0.32000600  1
  Pt  Pt8  1  0.00000000  0.50000000  0.50000000  1
  Pt  Pt9  1  0.50000000  0.50000000  0.00000000  1
  Pt  Pt10  1  0.50000000  0.00000000  0.50000000  1
  Pt  Pt11  1  0.00000000  0.00000000  0.00000000  1
  O  O12  1  0.36677900  0.14957300  0.81905400  1
  O  O13  1  0.86677900  0.85042700  0.68094600  1
  O  O14  1  0.63322100  0.85042700  0.18094600  1
  O  O15  1  0.13322100  0.14957300  0.31905400  1
  O  O16  1  0.14106700  0.87685700  0.88166400  1
  O  O17  1  0.64106700  0.12314300  0.61833600  1
  O  O18  1  0.85893300  0.12314300  0.11833600  1
  O  O19  1  0.35893300  0.87685700  0.38166400  1
  O  O20  1  0.31365600  0.94210700  0.65527400  1
  O  O21  1  0.81365600  0.05789300  0.84472600  1
  O  O22  1  0.68634400  0.05789300  0.34472600  1
  O  O23  1  0.18634400  0.94210700  0.15527400  1
  O  O24  1  0.39920300  0.27775600  0.40031300  1
  O  O25  1  0.89920300  0.72224400  0.09968700  1
  O  O26  1  0.60079700  0.72224400  0.59968700  1
  O  O27  1  0.10079700  0.27775600  0.90031300  1
  O  O28  1  0.28745200  0.44337300  0.12178500  1
  O  O29  1  0.78745200  0.55662700  0.37821500  1
  O  O30  1  0.71254800  0.55662700  0.87821500  1
  O  O31  1  0.21254800  0.44337300  0.62178500  1
  O  O32  1  0.13811500  0.49691000  0.32419000  1
  O  O33  1  0.63811500  0.50309000  0.17581000  1
  O  O34  1  0.86188500  0.50309000  0.67581000  1
  O  O35  1  0.36188500  0.49691000  0.82419000  1
  O  O36  1  0.04001000  0.80147100  0.42121800  1
  O  O37  1  0.54001000  0.19852900  0.07878200  1
  O  O38  1  0.95999000  0.19852900  0.57878200  1
  O  O39  1  0.45999000  0.80147100  0.92121800  1
