# generated using pymatgen
data_V2Ga5
_symmetry_space_group_name_H-M   'P 1'
_cell_length_a   8.99258500
_cell_length_b   8.99258500
_cell_length_c   2.68199500
_cell_angle_alpha   90.00000000
_cell_angle_beta   90.00000000
_cell_angle_gamma   90.00000000
_symmetry_Int_Tables_number   1
_chemical_formula_structural   V2Ga5
_chemical_formula_sum   'V4 Ga10'
_cell_volume   216.88377659
_cell_formula_units_Z   2
loop_
 _symmetry_equiv_pos_site_id
 _symmetry_equiv_pos_as_xyz
  1  'x, y, z'
loop_
 _atom_site_type_symbol
 _atom_site_label
 _atom_site_symmetry_multiplicity
 _atom_site_fract_x
 _atom_site_fract_y
 _atom_site_fract_z
 _atom_site_occupancy
  V  V0  1  0.68002700  0.18002700  0.50000000  1
  V  V1  1  0.31997300  0.81997300  0.50000000  1
  V  V2  1  0.18002700  0.31997300  0.50000000  1
  V  V3  1  0.81997300  0.68002700  0.50000000  1
  Ga  Ga4  1  0.50000000  0.00000000  0.00000000  1
  Ga  Ga5  1  0.00000000  0.50000000  0.00000000  1
  Ga  Ga6  1  0.56062500  0.70624600  0.00000000  1
  Ga  Ga7  1  0.43937500  0.29375400  0.00000000  1
  Ga  Ga8  1  0.06062500  0.79375400  0.00000000  1
  Ga  Ga9  1  0.93937500  0.20624600  0.00000000  1
  Ga  Ga10  1  0.29375400  0.56062500  0.00000000  1
  Ga  Ga11  1  0.70624600  0.43937500  0.00000000  1
  Ga  Ga12  1  0.20624600  0.06062500  0.00000000  1
  Ga  Ga13  1  0.79375400  0.93937500  0.00000000  1
