# generated using pymatgen
data_KCrF6
_symmetry_space_group_name_H-M   'P 1'
_cell_length_a   5.00587981
_cell_length_b   5.00587981
_cell_length_c   5.00587949
_cell_angle_alpha   97.96748482
_cell_angle_beta   97.96748482
_cell_angle_gamma   97.96747002
_symmetry_Int_Tables_number   1
_chemical_formula_structural   KCrF6
_chemical_formula_sum   'K1 Cr1 F6'
_cell_volume   121.42806104
_cell_formula_units_Z   1
loop_
 _symmetry_equiv_pos_site_id
 _symmetry_equiv_pos_as_xyz
  1  'x, y, z'
loop_
 _atom_site_type_symbol
 _atom_site_label
 _atom_site_symmetry_multiplicity
 _atom_site_fract_x
 _atom_site_fract_y
 _atom_site_fract_z
 _atom_site_occupancy
  K  K0  1  0.00000000  0.00000000  0.00000000  1
  Cr  Cr1  1  0.50000000  0.50000000  0.50000000  1
  F  F2  1  0.77459200  0.41795800  0.73180800  1
  F  F3  1  0.41795800  0.73180800  0.77459200  1
  F  F4  1  0.26819200  0.22540800  0.58204200  1
  F  F5  1  0.58204200  0.26819200  0.22540800  1
  F  F6  1  0.22540800  0.58204200  0.26819200  1
  F  F7  1  0.73180800  0.77459200  0.41795800  1
