# generated using pymatgen
data_NdBr3
_symmetry_space_group_name_H-M   'P 1'
_cell_length_a   7.47985556
_cell_length_b   7.47985556
_cell_length_c   9.28026100
_cell_angle_alpha   90.00000000
_cell_angle_beta   90.00000000
_cell_angle_gamma   147.98223909
_symmetry_Int_Tables_number   1
_chemical_formula_structural   NdBr3
_chemical_formula_sum   'Nd2 Br6'
_cell_volume   275.27811937
_cell_formula_units_Z   2
loop_
 _symmetry_equiv_pos_site_id
 _symmetry_equiv_pos_as_xyz
  1  'x, y, z'
loop_
 _atom_site_type_symbol
 _atom_site_label
 _atom_site_symmetry_multiplicity
 _atom_site_fract_x
 _atom_site_fract_y
 _atom_site_fract_z
 _atom_site_occupancy
  Nd  Nd0  1  0.25906100  0.74093900  0.25000000  1
  Nd  Nd1  1  0.74093900  0.25906100  0.75000000  1
  Br  Br2  1  0.65673400  0.34326600  0.43263200  1
  Br  Br3  1  0.34326600  0.65673400  0.56736800  1
  Br  Br4  1  0.09738900  0.90261100  0.75000000  1
  Br  Br5  1  0.90261100  0.09738900  0.25000000  1
  Br  Br6  1  0.65673400  0.34326600  0.06736800  1
  Br  Br7  1  0.34326600  0.65673400  0.93263200  1
