# generated using pymatgen
data_Ge5F12
_symmetry_space_group_name_H-M   'P 1'
_cell_length_a   7.83379500
_cell_length_b   8.25002600
_cell_length_c   8.68002857
_cell_angle_alpha   86.94749997
_cell_angle_beta   90.00000000
_cell_angle_gamma   90.00000000
_symmetry_Int_Tables_number   1
_chemical_formula_structural   Ge5F12
_chemical_formula_sum   'Ge10 F24'
_cell_volume   560.18573121
_cell_formula_units_Z   2
loop_
 _symmetry_equiv_pos_site_id
 _symmetry_equiv_pos_as_xyz
  1  'x, y, z'
loop_
 _atom_site_type_symbol
 _atom_site_label
 _atom_site_symmetry_multiplicity
 _atom_site_fract_x
 _atom_site_fract_y
 _atom_site_fract_z
 _atom_site_occupancy
  Ge  Ge0  1  0.44625500  0.13252100  0.29240700  1
  Ge  Ge1  1  0.94625500  0.36747900  0.70759300  1
  Ge  Ge2  1  0.55374500  0.86747900  0.70759300  1
  Ge  Ge3  1  0.05374500  0.63252100  0.29240700  1
  Ge  Ge4  1  0.00000000  0.00000000  0.50000000  1
  Ge  Ge5  1  0.50000000  0.50000000  0.50000000  1
  Ge  Ge6  1  0.87473400  0.19088200  0.11041500  1
  Ge  Ge7  1  0.37473400  0.30911800  0.88958500  1
  Ge  Ge8  1  0.12526600  0.80911800  0.88958500  1
  Ge  Ge9  1  0.62526600  0.69088200  0.11041500  1
  F  F10  1  0.93833200  0.39150000  0.17495700  1
  F  F11  1  0.43833200  0.10850000  0.82504300  1
  F  F12  1  0.06166800  0.60850000  0.82504300  1
  F  F13  1  0.56166800  0.89150000  0.17495700  1
  F  F14  1  0.15309500  0.15737400  0.45939400  1
  F  F15  1  0.65309500  0.34262600  0.54060600  1
  F  F16  1  0.84690500  0.84262600  0.54060600  1
  F  F17  1  0.34690500  0.65737400  0.45939400  1
  F  F18  1  0.85220700  0.09947500  0.35824700  1
  F  F19  1  0.35220700  0.40052500  0.64175300  1
  F  F20  1  0.19938000  0.66910100  0.12291300  1
  F  F21  1  0.69938000  0.83089900  0.87708700  1
  F  F22  1  0.80062000  0.33089900  0.87708700  1
  F  F23  1  0.30062000  0.16910100  0.12291300  1
  F  F24  1  0.86987400  0.73723600  0.15182500  1
  F  F25  1  0.36987400  0.76276400  0.84817500  1
  F  F26  1  0.13012600  0.26276400  0.84817500  1
  F  F27  1  0.63012600  0.23723600  0.15182500  1
  F  F28  1  0.09611500  0.88251400  0.34199100  1
  F  F29  1  0.59611500  0.61748600  0.65800900  1
  F  F30  1  0.90388500  0.11748600  0.65800900  1
  F  F31  1  0.40388500  0.38251400  0.34199100  1
  F  F32  1  0.64779300  0.59947500  0.35824700  1
  F  F33  1  0.14779300  0.90052500  0.64175300  1
