# generated using pymatgen
data_EuBr2
_symmetry_space_group_name_H-M   'P 1'
_cell_length_a   11.62054200
_cell_length_b   11.62054200
_cell_length_c   7.20128800
_cell_angle_alpha   90.00000000
_cell_angle_beta   90.00000000
_cell_angle_gamma   90.00000000
_symmetry_Int_Tables_number   1
_chemical_formula_structural   EuBr2
_chemical_formula_sum   'Eu10 Br20'
_cell_volume   972.44030154
_cell_formula_units_Z   10
loop_
 _symmetry_equiv_pos_site_id
 _symmetry_equiv_pos_as_xyz
  1  'x, y, z'
loop_
 _atom_site_type_symbol
 _atom_site_label
 _atom_site_symmetry_multiplicity
 _atom_site_fract_x
 _atom_site_fract_y
 _atom_site_fract_z
 _atom_site_occupancy
  Eu  Eu0  1  0.50000000  0.00000000  0.14778900  1
  Eu  Eu1  1  0.00000000  0.50000000  0.85221100  1
  Eu  Eu2  1  0.83663000  0.85221800  0.75155300  1
  Eu  Eu3  1  0.35221800  0.66337000  0.75155300  1
  Eu  Eu4  1  0.64778200  0.33663000  0.75155300  1
  Eu  Eu5  1  0.16337000  0.14778200  0.75155300  1
  Eu  Eu6  1  0.66337000  0.64778200  0.24844700  1
  Eu  Eu7  1  0.14778200  0.83663000  0.24844700  1
  Eu  Eu8  1  0.85221800  0.16337000  0.24844700  1
  Eu  Eu9  1  0.33663000  0.35221800  0.24844700  1
  Br  Br10  1  0.00000000  0.00000000  0.50000000  1
  Br  Br11  1  0.50000000  0.50000000  0.50000000  1
  Br  Br12  1  0.00000000  0.00000000  0.00000000  1
  Br  Br13  1  0.50000000  0.50000000  0.00000000  1
  Br  Br14  1  0.70710400  0.08943900  0.90292200  1
  Br  Br15  1  0.58943900  0.79289600  0.90292200  1
  Br  Br16  1  0.41056100  0.20710400  0.90292200  1
  Br  Br17  1  0.29289600  0.91056100  0.90292200  1
  Br  Br18  1  0.79289600  0.41056100  0.09707800  1
  Br  Br19  1  0.91056100  0.70710400  0.09707800  1
  Br  Br20  1  0.20917400  0.40230900  0.62286600  1
  Br  Br21  1  0.90230900  0.29082600  0.62286600  1
  Br  Br22  1  0.09769100  0.70917400  0.62286600  1
  Br  Br23  1  0.79082600  0.59769100  0.62286600  1
  Br  Br24  1  0.29082600  0.09769100  0.37713400  1
  Br  Br25  1  0.59769100  0.20917400  0.37713400  1
  Br  Br26  1  0.40230900  0.79082600  0.37713400  1
  Br  Br27  1  0.70917400  0.90230900  0.37713400  1
  Br  Br28  1  0.20710400  0.58943900  0.09707800  1
  Br  Br29  1  0.08943900  0.29289600  0.09707800  1
