# generated using pymatgen
data_Mg14Ge5O24
_symmetry_space_group_name_H-M   'P 1'
_cell_length_a   6.01783900
_cell_length_b   10.35443200
_cell_length_c   14.68811500
_cell_angle_alpha   90.00000000
_cell_angle_beta   90.00000000
_cell_angle_gamma   90.00000000
_symmetry_Int_Tables_number   1
_chemical_formula_structural   Mg14Ge5O24
_chemical_formula_sum   'Mg28 Ge10 O48'
_cell_volume   915.23560942
_cell_formula_units_Z   2
loop_
 _symmetry_equiv_pos_site_id
 _symmetry_equiv_pos_as_xyz
  1  'x, y, z'
loop_
 _atom_site_type_symbol
 _atom_site_label
 _atom_site_symmetry_multiplicity
 _atom_site_fract_x
 _atom_site_fract_y
 _atom_site_fract_z
 _atom_site_occupancy
  Mg  Mg0  1  0.50000000  0.50000000  0.00000000  1
  Mg  Mg1  1  0.50000000  0.00000000  0.50000000  1
  Mg  Mg2  1  0.50000000  0.00000000  0.00000000  1
  Mg  Mg3  1  0.50000000  0.50000000  0.50000000  1
  Mg  Mg4  1  0.00000000  0.82146600  0.82422100  1
  Mg  Mg5  1  0.00000000  0.17853400  0.17577900  1
  Mg  Mg6  1  0.00000000  0.32146600  0.67577900  1
  Mg  Mg7  1  0.00000000  0.67853400  0.32422100  1
  Mg  Mg8  1  0.50000000  0.85343000  0.67441300  1
  Mg  Mg9  1  0.50000000  0.14657000  0.32558700  1
  Mg  Mg10  1  0.50000000  0.35343000  0.82558700  1
  Mg  Mg11  1  0.50000000  0.64657000  0.17441300  1
  Mg  Mg12  1  0.75790100  0.74868800  0.00466000  1
  Mg  Mg13  1  0.75790100  0.25131200  0.99534000  1
  Mg  Mg14  1  0.24209900  0.24868800  0.49534000  1
  Mg  Mg15  1  0.24209900  0.75131200  0.50466000  1
  Mg  Mg16  1  0.24209900  0.25131200  0.99534000  1
  Mg  Mg17  1  0.24209900  0.74868800  0.00466000  1
  Mg  Mg18  1  0.75790100  0.75131200  0.50466000  1
  Mg  Mg19  1  0.75790100  0.24868800  0.49534000  1
  Mg  Mg20  1  0.75380900  0.58104900  0.66851200  1
  Mg  Mg21  1  0.75380900  0.41895100  0.33148800  1
  Mg  Mg22  1  0.24619100  0.08104900  0.83148800  1
  Mg  Mg23  1  0.24619100  0.91895100  0.16851200  1
  Mg  Mg24  1  0.24619100  0.41895100  0.33148800  1
  Mg  Mg25  1  0.24619100  0.58104900  0.66851200  1
  Mg  Mg26  1  0.75380900  0.91895100  0.16851200  1
  Mg  Mg27  1  0.75380900  0.08104900  0.83148800  1
  Ge  Ge28  1  0.00000000  0.00000000  0.00000000  1
  Ge  Ge29  1  0.00000000  0.50000000  0.50000000  1
  Ge  Ge30  1  0.00000000  0.49870400  0.87439600  1
  Ge  Ge31  1  0.00000000  0.50129600  0.12560400  1
  Ge  Ge32  1  0.00000000  0.99870400  0.62560400  1
  Ge  Ge33  1  0.00000000  0.00129600  0.37439600  1
  Ge  Ge34  1  0.50000000  0.67450100  0.81389800  1
  Ge  Ge35  1  0.50000000  0.32549900  0.18610200  1
  Ge  Ge36  1  0.50000000  0.17450100  0.68610200  1
  Ge  Ge37  1  0.50000000  0.82549900  0.31389800  1
  O  O38  1  0.00000000  0.66283900  0.91619400  1
  O  O39  1  0.00000000  0.33716100  0.08380600  1
  O  O40  1  0.00000000  0.16283900  0.58380600  1
  O  O41  1  0.00000000  0.83716100  0.41619400  1
  O  O42  1  0.00000000  0.65187700  0.57867900  1
  O  O43  1  0.00000000  0.34812300  0.42132100  1
  O  O44  1  0.00000000  0.15187700  0.92132100  1
  O  O45  1  0.00000000  0.84812300  0.07867900  1
  O  O46  1  0.00000000  0.99644900  0.74825900  1
  O  O47  1  0.00000000  0.00355100  0.25174100  1
  O  O48  1  0.00000000  0.49644900  0.75174100  1
  O  O49  1  0.00000000  0.50355100  0.24825900  1
  O  O50  1  0.50000000  0.67029400  0.93255300  1
  O  O51  1  0.50000000  0.32970600  0.06744700  1
  O  O52  1  0.50000000  0.17029400  0.56744700  1
  O  O53  1  0.50000000  0.82970600  0.43255300  1
  O  O54  1  0.50000000  0.66853200  0.58592300  1
  O  O55  1  0.50000000  0.33146800  0.41407700  1
  O  O56  1  0.50000000  0.16853200  0.91407700  1
  O  O57  1  0.50000000  0.83146800  0.08592300  1
  O  O58  1  0.50000000  0.02210000  0.74405200  1
  O  O59  1  0.50000000  0.97790000  0.25594800  1
  O  O60  1  0.50000000  0.52210000  0.75594800  1
  O  O61  1  0.50000000  0.47790000  0.24405200  1
  O  O62  1  0.77554700  0.92224200  0.92416800  1
  O  O63  1  0.77554700  0.07775800  0.07583200  1
  O  O64  1  0.22445300  0.42224200  0.57583200  1
  O  O65  1  0.22445300  0.57775800  0.42416800  1
  O  O66  1  0.22445300  0.07775800  0.07583200  1
  O  O67  1  0.22445300  0.92224200  0.92416800  1
  O  O68  1  0.77554700  0.57775800  0.42416800  1
  O  O69  1  0.77554700  0.42224200  0.57583200  1
  O  O70  1  0.75171900  0.91867700  0.58588500  1
  O  O71  1  0.75171900  0.08132300  0.41411500  1
  O  O72  1  0.24828100  0.41867700  0.91411500  1
  O  O73  1  0.24828100  0.58132300  0.08588500  1
  O  O74  1  0.24828100  0.08132300  0.41411500  1
  O  O75  1  0.24828100  0.91867700  0.58588500  1
  O  O76  1  0.75171900  0.58132300  0.08588500  1
  O  O77  1  0.75171900  0.41867700  0.91411500  1
  O  O78  1  0.72750300  0.74874100  0.75677100  1
  O  O79  1  0.72750300  0.25125900  0.24322900  1
  O  O80  1  0.27249700  0.24874100  0.74322900  1
  O  O81  1  0.27249700  0.75125900  0.25677100  1
  O  O82  1  0.27249700  0.25125900  0.24322900  1
  O  O83  1  0.27249700  0.74874100  0.75677100  1
  O  O84  1  0.72750300  0.75125900  0.25677100  1
  O  O85  1  0.72750300  0.24874100  0.74322900  1
