# generated using pymatgen
data_Th2AuF11
_symmetry_space_group_name_H-M   'P 1'
_cell_length_a   8.72257085
_cell_length_b   8.72257085
_cell_length_c   8.72257085
_cell_angle_alpha   97.66419412
_cell_angle_beta   97.66419412
_cell_angle_gamma   137.16092072
_symmetry_Int_Tables_number   1
_chemical_formula_structural   Th2AuF11
_chemical_formula_sum   'Th4 Au2 F22'
_cell_volume   420.07106983
_cell_formula_units_Z   2
loop_
 _symmetry_equiv_pos_site_id
 _symmetry_equiv_pos_as_xyz
  1  'x, y, z'
loop_
 _atom_site_type_symbol
 _atom_site_label
 _atom_site_symmetry_multiplicity
 _atom_site_fract_x
 _atom_site_fract_y
 _atom_site_fract_z
 _atom_site_occupancy
  Th  Th0  1  0.35652400  0.14347600  0.50000000  1
  Th  Th1  1  0.85652400  0.35652400  0.21304900  1
  Th  Th2  1  0.14347600  0.64347600  0.78695100  1
  Th  Th3  1  0.64347600  0.85652400  0.50000000  1
  Au  Au4  1  0.50000000  0.50000000  0.00000000  1
  Au  Au5  1  0.00000000  0.00000000  0.00000000  1
  F  F6  1  0.63472800  0.39602700  0.03075500  1
  F  F7  1  0.36527200  0.60397300  0.96924500  1
  F  F8  1  0.60397300  0.63472800  0.23870100  1
  F  F9  1  0.39602700  0.36527200  0.76129900  1
  F  F10  1  0.13472800  0.10397300  0.23870100  1
  F  F11  1  0.89602700  0.13472800  0.03075500  1
  F  F12  1  0.50000000  0.00000000  0.50000000  1
  F  F13  1  0.00000000  0.50000000  0.50000000  1
  F  F14  1  0.00000000  0.00000000  0.50000000  1
  F  F15  1  0.50000000  0.00000000  0.00000000  1
  F  F16  1  0.00000000  0.50000000  0.00000000  1
  F  F17  1  0.50000000  0.50000000  0.50000000  1
  F  F18  1  0.25000000  0.55965600  0.30965600  1
  F  F19  1  0.94034400  0.25000000  0.69034400  1
  F  F20  1  0.55965600  0.25000000  0.30965600  1
  F  F21  1  0.25000000  0.94034400  0.69034400  1
  F  F22  1  0.75000000  0.44034400  0.69034400  1
  F  F23  1  0.05965600  0.75000000  0.30965600  1
  F  F24  1  0.44034400  0.75000000  0.69034400  1
  F  F25  1  0.75000000  0.05965600  0.30965600  1
  F  F26  1  0.86527200  0.89602700  0.76129900  1
  F  F27  1  0.10397300  0.86527200  0.96924500  1
