# generated using pymatgen
data_Na14Mn2O9
_symmetry_space_group_name_H-M   'P 1'
_cell_length_a   6.73875700
_cell_length_b   6.73875696
_cell_length_c   9.43826000
_cell_angle_alpha   90.00000000
_cell_angle_beta   90.00000000
_cell_angle_gamma   119.99999526
_symmetry_Int_Tables_number   1
_chemical_formula_structural   Na14Mn2O9
_chemical_formula_sum   'Na14 Mn2 O9'
_cell_volume   371.17795865
_cell_formula_units_Z   1
loop_
 _symmetry_equiv_pos_site_id
 _symmetry_equiv_pos_as_xyz
  1  'x, y, z'
loop_
 _atom_site_type_symbol
 _atom_site_label
 _atom_site_symmetry_multiplicity
 _atom_site_fract_x
 _atom_site_fract_y
 _atom_site_fract_z
 _atom_site_occupancy
  Na  Na0  1  0.00000000  0.00000000  0.25178300  1
  Na  Na1  1  0.00000000  0.00000000  0.74821700  1
  Na  Na2  1  0.06747000  0.37701000  0.59147800  1
  Na  Na3  1  0.62299000  0.69046000  0.59147800  1
  Na  Na4  1  0.30954000  0.93253000  0.59147800  1
  Na  Na5  1  0.93253000  0.62299000  0.40852200  1
  Na  Na6  1  0.37701000  0.30954000  0.40852200  1
  Na  Na7  1  0.69046000  0.06747000  0.40852200  1
  Na  Na8  1  0.67977300  0.63870900  0.09142300  1
  Na  Na9  1  0.36129100  0.04106300  0.09142300  1
  Na  Na10  1  0.95893700  0.32022700  0.09142300  1
  Na  Na11  1  0.32022700  0.36129100  0.90857700  1
  Na  Na12  1  0.63870900  0.95893700  0.90857700  1
  Na  Na13  1  0.04106300  0.67977300  0.90857700  1
  Mn  Mn14  1  0.33333300  0.66666700  0.26229300  1
  Mn  Mn15  1  0.66666700  0.33333300  0.73770700  1
  O  O16  1  0.33333300  0.66666700  0.03868600  1
  O  O17  1  0.66666700  0.33333300  0.96131400  1
  O  O18  1  0.00000000  0.00000000  0.00000000  1
  O  O19  1  0.94775700  0.64282500  0.66266000  1
  O  O20  1  0.35717500  0.30493200  0.66266000  1
  O  O21  1  0.69506800  0.05224300  0.66266000  1
  O  O22  1  0.05224300  0.35717500  0.33734000  1
  O  O23  1  0.64282500  0.69506800  0.33734000  1
  O  O24  1  0.30493200  0.94775700  0.33734000  1
