# generated using pymatgen
data_IrBr3
_symmetry_space_group_name_H-M   'P 1'
_cell_length_a   6.47685425
_cell_length_b   6.47685425
_cell_length_c   6.97408227
_cell_angle_alpha   81.41625898
_cell_angle_beta   81.41625898
_cell_angle_gamma   119.94898348
_symmetry_Int_Tables_number   1
_chemical_formula_structural   IrBr3
_chemical_formula_sum   'Ir2 Br6'
_cell_volume   241.95530800
_cell_formula_units_Z   2
loop_
 _symmetry_equiv_pos_site_id
 _symmetry_equiv_pos_as_xyz
  1  'x, y, z'
loop_
 _atom_site_type_symbol
 _atom_site_label
 _atom_site_symmetry_multiplicity
 _atom_site_fract_x
 _atom_site_fract_y
 _atom_site_fract_z
 _atom_site_occupancy
  Ir  Ir0  1  0.16671600  0.83328400  0.00000000  1
  Ir  Ir1  1  0.83328400  0.16671600  0.00000000  1
  Br  Br2  1  0.92141200  0.56712900  0.79106700  1
  Br  Br3  1  0.43287100  0.07858800  0.20893300  1
  Br  Br4  1  0.78706200  0.78706200  0.20901000  1
  Br  Br5  1  0.21293800  0.21293800  0.79099000  1
  Br  Br6  1  0.56712900  0.92141200  0.79106700  1
  Br  Br7  1  0.07858800  0.43287100  0.20893300  1
