# generated using pymatgen
data_Na4HgP2
_symmetry_space_group_name_H-M   'P 1'
_cell_length_a   9.07948238
_cell_length_b   9.07948238
_cell_length_c   9.07948288
_cell_angle_alpha   32.11046730
_cell_angle_beta   32.11046730
_cell_angle_gamma   32.11046744
_symmetry_Int_Tables_number   1
_chemical_formula_structural   Na4HgP2
_chemical_formula_sum   'Na4 Hg1 P2'
_cell_volume   187.93473133
_cell_formula_units_Z   1
loop_
 _symmetry_equiv_pos_site_id
 _symmetry_equiv_pos_as_xyz
  1  'x, y, z'
loop_
 _atom_site_type_symbol
 _atom_site_label
 _atom_site_symmetry_multiplicity
 _atom_site_fract_x
 _atom_site_fract_y
 _atom_site_fract_z
 _atom_site_occupancy
  Na  Na0  1  0.79280400  0.79280400  0.79280400  1
  Na  Na1  1  0.59719900  0.59719900  0.59719900  1
  Na  Na2  1  0.20719600  0.20719600  0.20719600  1
  Na  Na3  1  0.40280100  0.40280100  0.40280100  1
  Hg  Hg4  1  0.00000000  0.00000000  0.00000000  1
  P  P5  1  0.09369900  0.09369900  0.09369900  1
  P  P6  1  0.90630100  0.90630100  0.90630100  1
