# generated using pymatgen
data_Ge(SF6)2
_symmetry_space_group_name_H-M   'P 1'
_cell_length_a   6.12883200
_cell_length_b   7.65119000
_cell_length_c   9.66646800
_cell_angle_alpha   90.00000000
_cell_angle_beta   90.00000000
_cell_angle_gamma   90.00000000
_symmetry_Int_Tables_number   1
_chemical_formula_structural   Ge(SF6)2
_chemical_formula_sum   'Ge2 S4 F24'
_cell_volume   453.28831235
_cell_formula_units_Z   2
loop_
 _symmetry_equiv_pos_site_id
 _symmetry_equiv_pos_as_xyz
  1  'x, y, z'
loop_
 _atom_site_type_symbol
 _atom_site_label
 _atom_site_symmetry_multiplicity
 _atom_site_fract_x
 _atom_site_fract_y
 _atom_site_fract_z
 _atom_site_occupancy
  Ge  Ge0  1  0.00000000  0.50000000  0.00000000  1
  Ge  Ge1  1  0.50000000  0.00000000  0.50000000  1
  S  S2  1  0.50000000  0.56844300  0.24282400  1
  S  S3  1  0.50000000  0.43155700  0.75717600  1
  S  S4  1  0.00000000  0.06844300  0.25717600  1
  S  S5  1  0.00000000  0.93155700  0.74282400  1
  F  F6  1  0.21212800  0.36914000  0.91364100  1
  F  F7  1  0.21212800  0.63086000  0.08635900  1
  F  F8  1  0.28787200  0.86914000  0.58635900  1
  F  F9  1  0.28787200  0.13086000  0.41364100  1
  F  F10  1  0.78787200  0.63086000  0.08635900  1
  F  F11  1  0.78787200  0.36914000  0.91364100  1
  F  F12  1  0.81129700  0.97250400  0.84742100  1
  F  F13  1  0.81129700  0.02749600  0.15257900  1
  F  F14  1  0.68870300  0.47250400  0.65257900  1
  F  F15  1  0.68870300  0.52749600  0.34742100  1
  F  F16  1  0.18870300  0.02749600  0.15257900  1
  F  F17  1  0.18870300  0.97250400  0.84742100  1
  F  F18  1  0.31129700  0.52749600  0.34742100  1
  F  F19  1  0.31129700  0.47250400  0.65257900  1
  F  F20  1  0.00000000  0.65217700  0.85349400  1
  F  F21  1  0.00000000  0.34782300  0.14650600  1
  F  F22  1  0.50000000  0.15217700  0.64650600  1
  F  F23  1  0.50000000  0.84782300  0.35349400  1
  F  F24  1  0.50000000  0.61653000  0.82596400  1
  F  F25  1  0.50000000  0.38347000  0.17403600  1
  F  F26  1  0.00000000  0.11653000  0.67403600  1
  F  F27  1  0.00000000  0.88347000  0.32596400  1
  F  F28  1  0.71212800  0.86914000  0.58635900  1
  F  F29  1  0.71212800  0.13086000  0.41364100  1
