# generated using pymatgen
data_MgMnGe
_symmetry_space_group_name_H-M   'P 1'
_cell_length_a   3.90079400
_cell_length_b   3.90079400
_cell_length_c   6.55619600
_cell_angle_alpha   90.00000000
_cell_angle_beta   90.00000000
_cell_angle_gamma   90.00000000
_symmetry_Int_Tables_number   1
_chemical_formula_structural   MgMnGe
_chemical_formula_sum   'Mg2 Mn2 Ge2'
_cell_volume   99.76034913
_cell_formula_units_Z   2
loop_
 _symmetry_equiv_pos_site_id
 _symmetry_equiv_pos_as_xyz
  1  'x, y, z'
loop_
 _atom_site_type_symbol
 _atom_site_label
 _atom_site_symmetry_multiplicity
 _atom_site_fract_x
 _atom_site_fract_y
 _atom_site_fract_z
 _atom_site_occupancy
  Mg  Mg0  1  0.00000000  0.50000000  0.16803700  1
  Mg  Mg1  1  0.50000000  0.00000000  0.83196300  1
  Mn  Mn2  1  0.00000000  0.00000000  0.50000000  1
  Mn  Mn3  1  0.50000000  0.50000000  0.50000000  1
  Ge  Ge4  1  0.50000000  0.00000000  0.26168800  1
  Ge  Ge5  1  0.00000000  0.50000000  0.73831200  1
