# generated using pymatgen
data_Ni(ClO4)2
_symmetry_space_group_name_H-M   'P 1'
_cell_length_a   4.85990539
_cell_length_b   16.83511175
_cell_length_c   8.00476028
_cell_angle_alpha   100.09120790
_cell_angle_beta   72.33985599
_cell_angle_gamma   90.00308215
_symmetry_Int_Tables_number   1
_chemical_formula_structural   Ni(ClO4)2
_chemical_formula_sum   'Ni4 Cl8 O32'
_cell_volume   613.42178706
_cell_formula_units_Z   4
loop_
 _symmetry_equiv_pos_site_id
 _symmetry_equiv_pos_as_xyz
  1  'x, y, z'
loop_
 _atom_site_type_symbol
 _atom_site_label
 _atom_site_symmetry_multiplicity
 _atom_site_fract_x
 _atom_site_fract_y
 _atom_site_fract_z
 _atom_site_occupancy
  Ni  Ni0  1  0.50068400  0.75013000  0.99975600  1
  Ni  Ni1  1  0.99952200  0.49989300  0.00026700  1
  Ni  Ni2  1  0.50014500  0.24994600  0.00011400  1
  Ni  Ni3  1  0.00003100  0.99997400  0.99982400  1
  Cl  Cl4  1  0.11715700  0.81389900  0.76590200  1
  Cl  Cl5  1  0.61688600  0.56382100  0.76613100  1
  Cl  Cl6  1  0.11715000  0.31375000  0.76588000  1
  Cl  Cl7  1  0.61706400  0.06385900  0.76596000  1
  Cl  Cl8  1  0.38289200  0.93625400  0.23407000  1
  Cl  Cl9  1  0.88303800  0.68619600  0.23392900  1
  Cl  Cl10  1  0.38290500  0.43609100  0.23403100  1
  Cl  Cl11  1  0.88288400  0.18614700  0.23410200  1
  O  O12  1  0.21127400  0.79812700  0.57701400  1
  O  O13  1  0.71109600  0.54805600  0.57722600  1
  O  O14  1  0.21129000  0.29801500  0.57694700  1
  O  O15  1  0.71118800  0.04813400  0.57705400  1
  O  O16  1  0.28876000  0.95198700  0.42299700  1
  O  O17  1  0.78880200  0.70193600  0.42283400  1
  O  O18  1  0.28876800  0.45187900  0.42292600  1
  O  O19  1  0.78869700  0.20186500  0.42301500  1
  O  O20  1  0.95743900  0.89347400  0.83507600  1
  O  O21  1  0.45770100  0.64349100  0.83516000  1
  O  O22  1  0.95748200  0.39338300  0.83491500  1
  O  O23  1  0.45769400  0.14349800  0.83509300  1
  O  O24  1  0.92375800  0.75141800  0.83499900  1
  O  O25  1  0.42311100  0.50144500  0.83530900  1
  O  O26  1  0.92360900  0.25132100  0.83508200  1
  O  O27  1  0.42342500  0.00143900  0.83508400  1
  O  O28  1  0.36684800  0.81403100  0.83487600  1
  O  O29  1  0.86665000  0.56382200  0.83505900  1
  O  O30  1  0.36693500  0.31382700  0.83481400  1
  O  O31  1  0.86680400  0.06391900  0.83491000  1
  O  O32  1  0.54256700  0.85662400  0.16506200  1
  O  O33  1  0.04222100  0.60653400  0.16492000  1
  O  O34  1  0.54258700  0.35651400  0.16487300  1
  O  O35  1  0.04223100  0.10650600  0.16495000  1
  O  O36  1  0.57644000  0.99866600  0.16484200  1
  O  O37  1  0.07682000  0.74857200  0.16475600  1
  O  O38  1  0.57627800  0.49857600  0.16492700  1
  O  O39  1  0.07650700  0.24857400  0.16498300  1
  O  O40  1  0.13308300  0.93615200  0.16513700  1
  O  O41  1  0.63327600  0.68620200  0.16497800  1
  O  O42  1  0.13318800  0.43596000  0.16505400  1
  O  O43  1  0.63311400  0.18609400  0.16516100  1
