# generated using pymatgen
data_Na2BeO2
_symmetry_space_group_name_H-M   'P 1'
_cell_length_a   5.34715800
_cell_length_b   7.92981200
_cell_length_c   12.95320140
_cell_angle_alpha   62.15527230
_cell_angle_beta   90.00000000
_cell_angle_gamma   90.00000000
_symmetry_Int_Tables_number   1
_chemical_formula_structural   Na2BeO2
_chemical_formula_sum   'Na16 Be8 O16'
_cell_volume   485.64810850
_cell_formula_units_Z   8
loop_
 _symmetry_equiv_pos_site_id
 _symmetry_equiv_pos_as_xyz
  1  'x, y, z'
loop_
 _atom_site_type_symbol
 _atom_site_label
 _atom_site_symmetry_multiplicity
 _atom_site_fract_x
 _atom_site_fract_y
 _atom_site_fract_z
 _atom_site_occupancy
  Na  Na0  1  0.44265600  0.92383300  0.62476200  1
  Na  Na1  1  0.94265600  0.07616700  0.87523800  1
  Na  Na2  1  0.16658700  0.35501500  0.96649800  1
  Na  Na3  1  0.66658700  0.64498500  0.53350200  1
  Na  Na4  1  0.33341300  0.35501500  0.46649800  1
  Na  Na5  1  0.83341300  0.64498500  0.03350200  1
  Na  Na6  1  0.38456400  0.58123200  0.16640200  1
  Na  Na7  1  0.88456400  0.41876800  0.33359800  1
  Na  Na8  1  0.11543600  0.58123200  0.66640200  1
  Na  Na9  1  0.61543600  0.41876800  0.83359800  1
  Na  Na10  1  0.55734400  0.07616700  0.37523800  1
  Na  Na11  1  0.05734400  0.92383300  0.12476200  1
  Na  Na12  1  0.93916100  0.82721000  0.76393200  1
  Na  Na13  1  0.43916100  0.17279000  0.73606800  1
  Na  Na14  1  0.06083900  0.17279000  0.23606800  1
  Na  Na15  1  0.56083900  0.82721000  0.26393200  1
  Be  Be16  1  0.37808800  0.74004600  0.87749300  1
  Be  Be17  1  0.87808800  0.25995400  0.62250700  1
  Be  Be18  1  0.12191200  0.74004600  0.37749300  1
  Be  Be19  1  0.62191200  0.25995400  0.12250700  1
  Be  Be20  1  0.45575600  0.91115800  0.96095100  1
  Be  Be21  1  0.95575600  0.08884200  0.53904900  1
  Be  Be22  1  0.54424400  0.08884200  0.03904900  1
  Be  Be23  1  0.04424400  0.91115800  0.46095100  1
  O  O24  1  0.77174500  0.24968100  0.02055000  1
  O  O25  1  0.27174500  0.75031900  0.47945000  1
  O  O26  1  0.72825500  0.24968100  0.52055000  1
  O  O27  1  0.22825500  0.75031900  0.97945000  1
  O  O28  1  0.11114000  0.12758900  0.64118400  1
  O  O29  1  0.61114000  0.87241100  0.85881600  1
  O  O30  1  0.38886000  0.12758900  0.14118400  1
  O  O31  1  0.88886000  0.87241100  0.35881600  1
  O  O32  1  0.30260600  0.63836100  0.80708800  1
  O  O33  1  0.80260600  0.36163900  0.69291200  1
  O  O34  1  0.69739400  0.36163900  0.19291200  1
  O  O35  1  0.19739400  0.63836100  0.30708800  1
  O  O36  1  0.13267100  0.12716000  0.42482300  1
  O  O37  1  0.63267100  0.87284000  0.07517700  1
  O  O38  1  0.86732900  0.87284000  0.57517700  1
  O  O39  1  0.36732900  0.12716000  0.92482300  1
