# generated using pymatgen
data_Ti2InNi2
_symmetry_space_group_name_H-M   'P 1'
_cell_length_a   6.94585500
_cell_length_b   6.94585500
_cell_length_c   6.23899600
_cell_angle_alpha   90.00000000
_cell_angle_beta   90.00000000
_cell_angle_gamma   90.00000000
_symmetry_Int_Tables_number   1
_chemical_formula_structural   Ti2InNi2
_chemical_formula_sum   'Ti8 In4 Ni8'
_cell_volume   300.99974861
_cell_formula_units_Z   4
loop_
 _symmetry_equiv_pos_site_id
 _symmetry_equiv_pos_as_xyz
  1  'x, y, z'
loop_
 _atom_site_type_symbol
 _atom_site_label
 _atom_site_symmetry_multiplicity
 _atom_site_fract_x
 _atom_site_fract_y
 _atom_site_fract_z
 _atom_site_occupancy
  Ti  Ti0  1  0.17626200  0.17626200  0.00000000  1
  Ti  Ti1  1  0.67626200  0.32373800  0.50000000  1
  Ti  Ti2  1  0.32373800  0.67626200  0.50000000  1
  Ti  Ti3  1  0.82373800  0.82373800  0.00000000  1
  Ti  Ti4  1  0.65147800  0.34852200  0.00000000  1
  Ti  Ti5  1  0.84852200  0.84852200  0.50000000  1
  Ti  Ti6  1  0.15147800  0.15147800  0.50000000  1
  Ti  Ti7  1  0.34852200  0.65147800  0.00000000  1
  In  In8  1  0.50000000  0.00000000  0.25000000  1
  In  In9  1  0.50000000  0.00000000  0.75000000  1
  In  In10  1  0.00000000  0.50000000  0.25000000  1
  In  In11  1  0.00000000  0.50000000  0.75000000  1
  Ni  Ni12  1  0.37349600  0.37349600  0.27985700  1
  Ni  Ni13  1  0.87349600  0.12650400  0.77985700  1
  Ni  Ni14  1  0.12650400  0.87349600  0.77985700  1
  Ni  Ni15  1  0.62650400  0.62650400  0.27985700  1
  Ni  Ni16  1  0.12650400  0.87349600  0.22014300  1
  Ni  Ni17  1  0.87349600  0.12650400  0.22014300  1
  Ni  Ni18  1  0.37349600  0.37349600  0.72014300  1
  Ni  Ni19  1  0.62650400  0.62650400  0.72014300  1
