# generated using pymatgen
data_U2S3
_symmetry_space_group_name_H-M   'P 1'
_cell_length_a   3.80407400
_cell_length_b   10.44537900
_cell_length_c   10.50978400
_cell_angle_alpha   90.00000000
_cell_angle_beta   90.00000000
_cell_angle_gamma   90.00000000
_symmetry_Int_Tables_number   1
_chemical_formula_structural   U2S3
_chemical_formula_sum   'U8 S12'
_cell_volume   417.60621127
_cell_formula_units_Z   4
loop_
 _symmetry_equiv_pos_site_id
 _symmetry_equiv_pos_as_xyz
  1  'x, y, z'
loop_
 _atom_site_type_symbol
 _atom_site_label
 _atom_site_symmetry_multiplicity
 _atom_site_fract_x
 _atom_site_fract_y
 _atom_site_fract_z
 _atom_site_occupancy
  U  U0  1  0.25000000  0.31722100  0.98970600  1
  U  U1  1  0.75000000  0.68277900  0.01029400  1
  U  U2  1  0.75000000  0.81722100  0.51029400  1
  U  U3  1  0.25000000  0.18277900  0.48970600  1
  U  U4  1  0.25000000  0.50934400  0.31342600  1
  U  U5  1  0.75000000  0.49065600  0.68657400  1
  U  U6  1  0.75000000  0.00934400  0.18657400  1
  U  U7  1  0.25000000  0.99065600  0.81342600  1
  S  S8  1  0.25000000  0.86938100  0.05168400  1
  S  S9  1  0.75000000  0.13061900  0.94831600  1
  S  S10  1  0.75000000  0.36938100  0.44831600  1
  S  S11  1  0.25000000  0.63061900  0.55168400  1
  S  S12  1  0.25000000  0.55442800  0.87327200  1
  S  S13  1  0.75000000  0.44557200  0.12672800  1
  S  S14  1  0.75000000  0.05442800  0.62672800  1
  S  S15  1  0.25000000  0.94557200  0.37327200  1
  S  S16  1  0.25000000  0.20438000  0.22618100  1
  S  S17  1  0.75000000  0.79562000  0.77381900  1
  S  S18  1  0.75000000  0.70438000  0.27381900  1
  S  S19  1  0.25000000  0.29562000  0.72618100  1
