# generated using pymatgen
data_WBr2
_symmetry_space_group_name_H-M   'P 1'
_cell_length_a   10.04693903
_cell_length_b   10.04693903
_cell_length_c   12.12242600
_cell_angle_alpha   90.00000000
_cell_angle_beta   90.00000000
_cell_angle_gamma   105.82210469
_symmetry_Int_Tables_number   1
_chemical_formula_structural   WBr2
_chemical_formula_sum   'W12 Br24'
_cell_volume   1177.28904219
_cell_formula_units_Z   12
loop_
 _symmetry_equiv_pos_site_id
 _symmetry_equiv_pos_as_xyz
  1  'x, y, z'
loop_
 _atom_site_type_symbol
 _atom_site_label
 _atom_site_symmetry_multiplicity
 _atom_site_fract_x
 _atom_site_fract_y
 _atom_site_fract_z
 _atom_site_occupancy
  W  W0  1  0.06975200  0.06975200  0.86191200  1
  W  W1  1  0.43024800  0.43024800  0.36191200  1
  W  W2  1  0.56975200  0.56975200  0.63808800  1
  W  W3  1  0.93024800  0.93024800  0.13808800  1
  W  W4  1  0.86184700  0.86184700  0.93034000  1
  W  W5  1  0.63815300  0.63815300  0.43034000  1
  W  W6  1  0.36184700  0.36184700  0.56966000  1
  W  W7  1  0.13815300  0.13815300  0.06966000  1
  W  W8  1  0.38266500  0.61733500  0.50000000  1
  W  W9  1  0.11733500  0.88266500  0.00000000  1
  W  W10  1  0.61733500  0.38266500  0.50000000  1
  W  W11  1  0.88266500  0.11733500  0.00000000  1
  Br  Br12  1  0.65589000  0.65589000  0.84415700  1
  Br  Br13  1  0.84411000  0.84411000  0.34415700  1
  Br  Br14  1  0.15589000  0.15589000  0.65584300  1
  Br  Br15  1  0.34411000  0.34411000  0.15584300  1
  Br  Br16  1  0.22170000  0.77830000  0.50000000  1
  Br  Br17  1  0.27830000  0.72170000  0.00000000  1
  Br  Br18  1  0.77830000  0.22170000  0.50000000  1
  Br  Br19  1  0.72170000  0.27830000  0.00000000  1
  Br  Br20  1  0.32466800  0.09193400  0.93091100  1
  Br  Br21  1  0.17533200  0.40806600  0.43091100  1
  Br  Br22  1  0.59193400  0.82466800  0.56908900  1
  Br  Br23  1  0.90806600  0.67533200  0.06908900  1
  Br  Br24  1  0.95276000  0.18545700  0.20817800  1
  Br  Br25  1  0.54724000  0.31454300  0.70817800  1
  Br  Br26  1  0.68545700  0.45276000  0.29182200  1
  Br  Br27  1  0.81454300  0.04724000  0.79182200  1
  Br  Br28  1  0.04724000  0.81454300  0.79182200  1
  Br  Br29  1  0.45276000  0.68545700  0.29182200  1
  Br  Br30  1  0.31454300  0.54724000  0.70817800  1
  Br  Br31  1  0.18545700  0.95276000  0.20817800  1
  Br  Br32  1  0.09193400  0.32466800  0.93091100  1
  Br  Br33  1  0.40806600  0.17533200  0.43091100  1
  Br  Br34  1  0.82466800  0.59193400  0.56908900  1
  Br  Br35  1  0.67533200  0.90806600  0.06908900  1
