# generated using pymatgen
data_ScCl3
_symmetry_space_group_name_H-M   'P 1'
_cell_length_a   7.45305550
_cell_length_b   7.45305550
_cell_length_c   7.45305576
_cell_angle_alpha   51.64808660
_cell_angle_beta   51.64808660
_cell_angle_gamma   51.64808562
_symmetry_Int_Tables_number   1
_chemical_formula_structural   ScCl3
_chemical_formula_sum   'Sc2 Cl6'
_cell_volume   235.20440510
_cell_formula_units_Z   2
loop_
 _symmetry_equiv_pos_site_id
 _symmetry_equiv_pos_as_xyz
  1  'x, y, z'
loop_
 _atom_site_type_symbol
 _atom_site_label
 _atom_site_symmetry_multiplicity
 _atom_site_fract_x
 _atom_site_fract_y
 _atom_site_fract_z
 _atom_site_occupancy
  Sc  Sc0  1  0.33393600  0.33393600  0.33393600  1
  Sc  Sc1  1  0.66606400  0.66606400  0.66606400  1
  Cl  Cl2  1  0.44393400  0.70526400  0.07373500  1
  Cl  Cl3  1  0.70526400  0.07373500  0.44393400  1
  Cl  Cl4  1  0.92626500  0.55606600  0.29473600  1
  Cl  Cl5  1  0.29473600  0.92626500  0.55606600  1
  Cl  Cl6  1  0.55606600  0.29473600  0.92626500  1
  Cl  Cl7  1  0.07373500  0.44393400  0.70526400  1
