# generated using pymatgen
data_CaSe2O5
_symmetry_space_group_name_H-M   'P 1'
_cell_length_a   6.62248800
_cell_length_b   10.36621400
_cell_length_c   14.88214600
_cell_angle_alpha   90.00000000
_cell_angle_beta   90.00000000
_cell_angle_gamma   90.00000000
_symmetry_Int_Tables_number   1
_chemical_formula_structural   CaSe2O5
_chemical_formula_sum   'Ca8 Se16 O40'
_cell_volume   1021.66122514
_cell_formula_units_Z   8
loop_
 _symmetry_equiv_pos_site_id
 _symmetry_equiv_pos_as_xyz
  1  'x, y, z'
loop_
 _atom_site_type_symbol
 _atom_site_label
 _atom_site_symmetry_multiplicity
 _atom_site_fract_x
 _atom_site_fract_y
 _atom_site_fract_z
 _atom_site_occupancy
  Ca  Ca0  1  0.55559800  0.35966400  0.59326100  1
  Ca  Ca1  1  0.05559800  0.64033600  0.90673900  1
  Ca  Ca2  1  0.94440200  0.85966400  0.40673900  1
  Ca  Ca3  1  0.44440200  0.14033600  0.09326100  1
  Ca  Ca4  1  0.44440200  0.64033600  0.40673900  1
  Ca  Ca5  1  0.94440200  0.35966400  0.09326100  1
  Ca  Ca6  1  0.05559800  0.14033600  0.59326100  1
  Ca  Ca7  1  0.55559800  0.85966400  0.90673900  1
  Se  Se8  1  0.88940900  0.13594200  0.27075600  1
  Se  Se9  1  0.38940900  0.86405800  0.22924400  1
  Se  Se10  1  0.61059100  0.63594200  0.72924400  1
  Se  Se11  1  0.11059100  0.36405800  0.77075600  1
  Se  Se12  1  0.11059100  0.86405800  0.72924400  1
  Se  Se13  1  0.61059100  0.13594200  0.77075600  1
  Se  Se14  1  0.38940900  0.36405800  0.27075600  1
  Se  Se15  1  0.88940900  0.63594200  0.22924400  1
  Se  Se16  1  0.85330200  0.37522600  0.41732300  1
  Se  Se17  1  0.35330200  0.62477400  0.08267700  1
  Se  Se18  1  0.64669800  0.87522600  0.58267700  1
  Se  Se19  1  0.14669800  0.12477400  0.91732300  1
  Se  Se20  1  0.14669800  0.62477400  0.58267700  1
  Se  Se21  1  0.64669800  0.37522600  0.91732300  1
  Se  Se22  1  0.35330200  0.12477400  0.41732300  1
  Se  Se23  1  0.85330200  0.87522600  0.08267700  1
  O  O24  1  0.75623700  0.19177400  0.18059000  1
  O  O25  1  0.25623700  0.80822600  0.31941000  1
  O  O26  1  0.74376300  0.69177400  0.81941000  1
  O  O27  1  0.24376300  0.30822600  0.68059000  1
  O  O28  1  0.24376300  0.80822600  0.81941000  1
  O  O29  1  0.74376300  0.19177400  0.68059000  1
  O  O30  1  0.25623700  0.30822600  0.18059000  1
  O  O31  1  0.75623700  0.69177400  0.31941000  1
  O  O32  1  0.78889900  0.99037600  0.29355700  1
  O  O33  1  0.28889900  0.00962400  0.20644300  1
  O  O34  1  0.71110100  0.49037600  0.70644300  1
  O  O35  1  0.21110100  0.50962400  0.79355700  1
  O  O36  1  0.21110100  0.00962400  0.70644300  1
  O  O37  1  0.71110100  0.99037600  0.79355700  1
  O  O38  1  0.28889900  0.50962400  0.29355700  1
  O  O39  1  0.89876000  0.31939100  0.52297600  1
  O  O40  1  0.78889900  0.49037600  0.20644300  1
  O  O41  1  0.25289900  0.77311900  0.13510500  1
  O  O42  1  0.74710100  0.72688100  0.63510500  1
  O  O43  1  0.24710100  0.27311900  0.86489500  1
  O  O44  1  0.24710100  0.77311900  0.63510500  1
  O  O45  1  0.74710100  0.22688100  0.86489500  1
  O  O46  1  0.25289900  0.27311900  0.36489500  1
  O  O47  1  0.75289900  0.72688100  0.13510500  1
  O  O48  1  0.62541500  0.94539800  0.06241700  1
  O  O49  1  0.12541500  0.05460200  0.43758300  1
  O  O50  1  0.87458500  0.44539800  0.93758300  1
  O  O51  1  0.37458500  0.55460200  0.56241700  1
  O  O52  1  0.37458500  0.05460200  0.93758300  1
  O  O53  1  0.87458500  0.94539800  0.56241700  1
  O  O54  1  0.12541500  0.55460200  0.06241700  1
  O  O55  1  0.62541500  0.44539800  0.43758300  1
  O  O56  1  0.89876000  0.81939100  0.97702400  1
  O  O57  1  0.39876000  0.18060900  0.52297600  1
  O  O58  1  0.60124000  0.31939100  0.02297600  1
  O  O59  1  0.10124000  0.68060900  0.47702400  1
  O  O60  1  0.10124000  0.18060900  0.02297600  1
  O  O61  1  0.60124000  0.81939100  0.47702400  1
  O  O62  1  0.39876000  0.68060900  0.97702400  1
  O  O63  1  0.75289900  0.22688100  0.36489500  1
