# generated using pymatgen
data_H4NF
_symmetry_space_group_name_H-M   'P 1'
_cell_length_a   4.44823431
_cell_length_b   4.44823431
_cell_length_c   7.20322200
_cell_angle_alpha   90.00000000
_cell_angle_beta   90.00000000
_cell_angle_gamma   120.00000456
_symmetry_Int_Tables_number   1
_chemical_formula_structural   H4NF
_chemical_formula_sum   'H8 N2 F2'
_cell_volume   123.43340854
_cell_formula_units_Z   2
loop_
 _symmetry_equiv_pos_site_id
 _symmetry_equiv_pos_as_xyz
  1  'x, y, z'
loop_
 _atom_site_type_symbol
 _atom_site_label
 _atom_site_symmetry_multiplicity
 _atom_site_fract_x
 _atom_site_fract_y
 _atom_site_fract_z
 _atom_site_occupancy
  H  H0  1  0.07583100  0.53791500  0.42310400  1
  H  H1  1  0.46208500  0.92416900  0.42310400  1
  H  H2  1  0.66666700  0.33333300  0.72863800  1
  H  H3  1  0.33333300  0.66666700  0.22863800  1
  H  H4  1  0.53791500  0.07583100  0.92310400  1
  H  H5  1  0.46208500  0.53791500  0.42310400  1
  H  H6  1  0.92416900  0.46208500  0.92310400  1
  H  H7  1  0.53791500  0.46208500  0.92310400  1
  N  N8  1  0.66666700  0.33333300  0.87465800  1
  N  N9  1  0.33333300  0.66666700  0.37465800  1
  F  F10  1  0.66666700  0.33333300  0.49759100  1
  F  F11  1  0.33333300  0.66666700  0.99759100  1
