# generated using pymatgen
data_Pr2I5
_symmetry_space_group_name_H-M   'P 1'
_cell_length_a   4.36479300
_cell_length_b   9.41697300
_cell_length_c   15.00303294
_cell_angle_alpha   85.32661595
_cell_angle_beta   90.00000000
_cell_angle_gamma   90.00000000
_symmetry_Int_Tables_number   1
_chemical_formula_structural   Pr2I5
_chemical_formula_sum   'Pr4 I10'
_cell_volume   614.62150878
_cell_formula_units_Z   2
loop_
 _symmetry_equiv_pos_site_id
 _symmetry_equiv_pos_as_xyz
  1  'x, y, z'
loop_
 _atom_site_type_symbol
 _atom_site_label
 _atom_site_symmetry_multiplicity
 _atom_site_fract_x
 _atom_site_fract_y
 _atom_site_fract_z
 _atom_site_occupancy
  Pr  Pr0  1  0.75000000  0.10236500  0.84874800  1
  Pr  Pr1  1  0.25000000  0.89763500  0.15125200  1
  Pr  Pr2  1  0.75000000  0.58600000  0.34248100  1
  Pr  Pr3  1  0.25000000  0.41400000  0.65751900  1
  I  I4  1  0.75000000  0.63436700  0.71502200  1
  I  I5  1  0.25000000  0.36563300  0.28497800  1
  I  I6  1  0.75000000  0.13365900  0.07114500  1
  I  I7  1  0.25000000  0.86634100  0.92885500  1
  I  I8  1  0.25000000  0.68084900  0.48532900  1
  I  I9  1  0.75000000  0.31915100  0.51467100  1
  I  I10  1  0.25000000  0.06528600  0.69153500  1
  I  I11  1  0.75000000  0.93471400  0.30846500  1
  I  I12  1  0.25000000  0.34785600  0.87501900  1
  I  I13  1  0.75000000  0.65214400  0.12498100  1
