# generated using pymatgen
data_Te2I
_symmetry_space_group_name_H-M   'P 1'
_cell_length_a   4.16443400
_cell_length_b   14.11919100
_cell_length_c   17.07469100
_cell_angle_alpha   90.00000000
_cell_angle_beta   90.00000000
_cell_angle_gamma   90.00000000
_symmetry_Int_Tables_number   1
_chemical_formula_structural   Te2I
_chemical_formula_sum   'Te16 I8'
_cell_volume   1003.96517811
_cell_formula_units_Z   8
loop_
 _symmetry_equiv_pos_site_id
 _symmetry_equiv_pos_as_xyz
  1  'x, y, z'
loop_
 _atom_site_type_symbol
 _atom_site_label
 _atom_site_symmetry_multiplicity
 _atom_site_fract_x
 _atom_site_fract_y
 _atom_site_fract_z
 _atom_site_occupancy
  Te  Te0  1  0.25000000  0.23026700  0.92005500  1
  Te  Te1  1  0.75000000  0.76973300  0.07994500  1
  Te  Te2  1  0.75000000  0.73026700  0.57994500  1
  Te  Te3  1  0.25000000  0.26973300  0.42005500  1
  Te  Te4  1  0.75000000  0.08721000  0.90324000  1
  Te  Te5  1  0.25000000  0.91279000  0.09676000  1
  Te  Te6  1  0.25000000  0.58721000  0.59676000  1
  Te  Te7  1  0.75000000  0.41279000  0.40324000  1
  Te  Te8  1  0.75000000  0.06265400  0.73081300  1
  Te  Te9  1  0.25000000  0.93734600  0.26918700  1
  Te  Te10  1  0.25000000  0.56265400  0.76918700  1
  Te  Te11  1  0.75000000  0.43734600  0.23081300  1
  Te  Te12  1  0.25000000  0.19832600  0.69355300  1
  Te  Te13  1  0.75000000  0.80167400  0.30644700  1
  Te  Te14  1  0.75000000  0.69832600  0.80644700  1
  Te  Te15  1  0.25000000  0.30167400  0.19355300  1
  I  I16  1  0.75000000  0.38946700  0.94363300  1
  I  I17  1  0.25000000  0.61053300  0.05636700  1
  I  I18  1  0.25000000  0.88946700  0.55636700  1
  I  I19  1  0.75000000  0.11053300  0.44363300  1
  I  I20  1  0.75000000  0.35776900  0.65379300  1
  I  I21  1  0.25000000  0.64223100  0.34620700  1
  I  I22  1  0.25000000  0.85776900  0.84620700  1
  I  I23  1  0.75000000  0.14223100  0.15379300  1
