# generated using pymatgen
data_Sc3P2
_symmetry_space_group_name_H-M   'P 1'
_cell_length_a   3.78360100
_cell_length_b   6.92643600
_cell_length_c   14.43527400
_cell_angle_alpha   90.00000000
_cell_angle_beta   90.00000000
_cell_angle_gamma   90.00000000
_symmetry_Int_Tables_number   1
_chemical_formula_structural   Sc3P2
_chemical_formula_sum   'Sc12 P8'
_cell_volume   378.30335167
_cell_formula_units_Z   4
loop_
 _symmetry_equiv_pos_site_id
 _symmetry_equiv_pos_as_xyz
  1  'x, y, z'
loop_
 _atom_site_type_symbol
 _atom_site_label
 _atom_site_symmetry_multiplicity
 _atom_site_fract_x
 _atom_site_fract_y
 _atom_site_fract_z
 _atom_site_occupancy
  Sc  Sc0  1  0.75000000  0.63419600  0.56779700  1
  Sc  Sc1  1  0.25000000  0.36580400  0.43220300  1
  Sc  Sc2  1  0.75000000  0.13419600  0.93220300  1
  Sc  Sc3  1  0.25000000  0.86580400  0.06779700  1
  Sc  Sc4  1  0.25000000  0.16368100  0.22241500  1
  Sc  Sc5  1  0.75000000  0.83631900  0.77758500  1
  Sc  Sc6  1  0.25000000  0.66368100  0.27758500  1
  Sc  Sc7  1  0.75000000  0.33631900  0.72241500  1
  Sc  Sc8  1  0.25000000  0.00767300  0.60420600  1
  Sc  Sc9  1  0.75000000  0.99232700  0.39579400  1
  Sc  Sc10  1  0.25000000  0.50767300  0.89579400  1
  Sc  Sc11  1  0.75000000  0.49232700  0.10420600  1
  P  P12  1  0.25000000  0.25898400  0.04177800  1
  P  P13  1  0.75000000  0.74101600  0.95822200  1
  P  P14  1  0.25000000  0.75898400  0.45822200  1
  P  P15  1  0.75000000  0.24101600  0.54177800  1
  P  P16  1  0.25000000  0.12811300  0.79534800  1
  P  P17  1  0.75000000  0.87188700  0.20465200  1
  P  P18  1  0.25000000  0.62811300  0.70465200  1
  P  P19  1  0.75000000  0.37188700  0.29534800  1
