# generated using pymatgen
data_Cs4PbBr6
_symmetry_space_group_name_H-M   'P 1'
_cell_length_a   10.03821468
_cell_length_b   10.03821468
_cell_length_c   10.03821445
_cell_angle_alpha   89.35720547
_cell_angle_beta   89.35720547
_cell_angle_gamma   89.35720713
_symmetry_Int_Tables_number   1
_chemical_formula_structural   Cs4PbBr6
_chemical_formula_sum   'Cs8 Pb2 Br12'
_cell_volume   1011.31869918
_cell_formula_units_Z   2
loop_
 _symmetry_equiv_pos_site_id
 _symmetry_equiv_pos_as_xyz
  1  'x, y, z'
loop_
 _atom_site_type_symbol
 _atom_site_label
 _atom_site_symmetry_multiplicity
 _atom_site_fract_x
 _atom_site_fract_y
 _atom_site_fract_z
 _atom_site_occupancy
  Cs  Cs0  1  0.25000000  0.25000000  0.25000000  1
  Cs  Cs1  1  0.75000000  0.75000000  0.75000000  1
  Cs  Cs2  1  0.25000000  0.62549200  0.87450800  1
  Cs  Cs3  1  0.87450800  0.25000000  0.62549200  1
  Cs  Cs4  1  0.62549200  0.87450800  0.25000000  1
  Cs  Cs5  1  0.75000000  0.37450800  0.12549200  1
  Cs  Cs6  1  0.12549200  0.75000000  0.37450800  1
  Cs  Cs7  1  0.37450800  0.12549200  0.75000000  1
  Pb  Pb8  1  0.00000000  0.00000000  0.00000000  1
  Pb  Pb9  1  0.50000000  0.50000000  0.50000000  1
  Br  Br10  1  0.56023500  0.20906500  0.42780700  1
  Br  Br11  1  0.42780700  0.56023500  0.20906500  1
  Br  Br12  1  0.20906500  0.42780700  0.56023500  1
  Br  Br13  1  0.93976500  0.07219300  0.29093500  1
  Br  Br14  1  0.29093500  0.93976500  0.07219300  1
  Br  Br15  1  0.07219300  0.29093500  0.93976500  1
  Br  Br16  1  0.43976500  0.79093500  0.57219300  1
  Br  Br17  1  0.57219300  0.43976500  0.79093500  1
  Br  Br18  1  0.79093500  0.57219300  0.43976500  1
  Br  Br19  1  0.06023500  0.92780700  0.70906500  1
  Br  Br20  1  0.92780700  0.70906500  0.06023500  1
  Br  Br21  1  0.70906500  0.06023500  0.92780700  1
