# generated using pymatgen
data_SbBrF8
_symmetry_space_group_name_H-M   'P 1'
_cell_length_a   5.99039100
_cell_length_b   10.24253200
_cell_length_c   11.23724100
_cell_angle_alpha   90.00000000
_cell_angle_beta   90.00000000
_cell_angle_gamma   90.00000000
_symmetry_Int_Tables_number   1
_chemical_formula_structural   SbBrF8
_chemical_formula_sum   'Sb4 Br4 F32'
_cell_volume   689.48082844
_cell_formula_units_Z   4
loop_
 _symmetry_equiv_pos_site_id
 _symmetry_equiv_pos_as_xyz
  1  'x, y, z'
loop_
 _atom_site_type_symbol
 _atom_site_label
 _atom_site_symmetry_multiplicity
 _atom_site_fract_x
 _atom_site_fract_y
 _atom_site_fract_z
 _atom_site_occupancy
  Sb  Sb0  1  0.88272400  0.00000000  0.25000000  1
  Sb  Sb1  1  0.11727600  0.50000000  0.25000000  1
  Sb  Sb2  1  0.11727600  0.00000000  0.75000000  1
  Sb  Sb3  1  0.88272400  0.50000000  0.75000000  1
  Br  Br4  1  0.50000000  0.75000000  0.05067400  1
  Br  Br5  1  0.50000000  0.25000000  0.44932600  1
  Br  Br6  1  0.50000000  0.25000000  0.94932600  1
  Br  Br7  1  0.50000000  0.75000000  0.55067400  1
  F  F8  1  0.09859700  0.38598400  0.81673700  1
  F  F9  1  0.09859700  0.61401600  0.68326300  1
  F  F10  1  0.90140300  0.88598400  0.68326300  1
  F  F11  1  0.90140300  0.11401600  0.81673700  1
  F  F12  1  0.90140300  0.61401600  0.18326300  1
  F  F13  1  0.90140300  0.38598400  0.31673700  1
  F  F14  1  0.09859700  0.11401600  0.31673700  1
  F  F15  1  0.09859700  0.88598400  0.18326300  1
  F  F16  1  0.63602600  0.88868900  0.18833300  1
  F  F17  1  0.63602600  0.11131100  0.31166700  1
  F  F18  1  0.36397400  0.38868900  0.31166700  1
  F  F19  1  0.36397400  0.61131100  0.18833300  1
  F  F20  1  0.36397400  0.11131100  0.81166700  1
  F  F21  1  0.36397400  0.88868900  0.68833300  1
  F  F22  1  0.63602600  0.61131100  0.68833300  1
  F  F23  1  0.63602600  0.38868900  0.81166700  1
  F  F24  1  0.61757400  0.85494500  0.94294400  1
  F  F25  1  0.61757400  0.14505500  0.55705600  1
  F  F26  1  0.38242600  0.35494500  0.55705600  1
  F  F27  1  0.38242600  0.64505500  0.94294400  1
  F  F28  1  0.38242600  0.14505500  0.05705600  1
  F  F29  1  0.38242600  0.85494500  0.44294400  1
  F  F30  1  0.61757400  0.64505500  0.44294400  1
  F  F31  1  0.61757400  0.35494500  0.05705600  1
  F  F32  1  0.86230900  0.90180700  0.39277700  1
  F  F33  1  0.86230900  0.09819300  0.10722300  1
  F  F34  1  0.13769100  0.40180700  0.10722300  1
  F  F35  1  0.13769100  0.59819300  0.39277700  1
  F  F36  1  0.13769100  0.09819300  0.60722300  1
  F  F37  1  0.13769100  0.90180700  0.89277700  1
  F  F38  1  0.86230900  0.59819300  0.89277700  1
  F  F39  1  0.86230900  0.40180700  0.60722300  1
