# generated using pymatgen
data_LiCaPb
_symmetry_space_group_name_H-M   'P 1'
_cell_length_a   4.98987654
_cell_length_b   4.98987654
_cell_length_c   10.98486100
_cell_angle_alpha   90.00000000
_cell_angle_beta   90.00000000
_cell_angle_gamma   120.00000715
_symmetry_Int_Tables_number   1
_chemical_formula_structural   LiCaPb
_chemical_formula_sum   'Li3 Ca3 Pb3'
_cell_volume   236.86711304
_cell_formula_units_Z   3
loop_
 _symmetry_equiv_pos_site_id
 _symmetry_equiv_pos_as_xyz
  1  'x, y, z'
loop_
 _atom_site_type_symbol
 _atom_site_label
 _atom_site_symmetry_multiplicity
 _atom_site_fract_x
 _atom_site_fract_y
 _atom_site_fract_z
 _atom_site_occupancy
  Li  Li0  1  0.66666700  0.33333300  0.80381300  1
  Li  Li1  1  0.33333300  0.66666700  0.50000000  1
  Li  Li2  1  0.66666700  0.33333300  0.19618700  1
  Ca  Ca3  1  0.00000000  0.00000000  0.33382300  1
  Ca  Ca4  1  0.00000000  0.00000000  0.66617700  1
  Ca  Ca5  1  0.00000000  0.00000000  0.00000000  1
  Pb  Pb6  1  0.33333300  0.66666700  0.15571600  1
  Pb  Pb7  1  0.33333300  0.66666700  0.84428400  1
  Pb  Pb8  1  0.66666700  0.33333300  0.50000000  1
