# generated using pymatgen
data_NdHSO5
_symmetry_space_group_name_H-M   'P 1'
_cell_length_a   12.54062300
_cell_length_b   4.51612200
_cell_length_c   7.14954645
_cell_angle_alpha   69.03373411
_cell_angle_beta   90.00000000
_cell_angle_gamma   90.00000000
_symmetry_Int_Tables_number   1
_chemical_formula_structural   NdHSO5
_chemical_formula_sum   'Nd4 H4 S4 O20'
_cell_volume   378.10557018
_cell_formula_units_Z   4
loop_
 _symmetry_equiv_pos_site_id
 _symmetry_equiv_pos_as_xyz
  1  'x, y, z'
loop_
 _atom_site_type_symbol
 _atom_site_label
 _atom_site_symmetry_multiplicity
 _atom_site_fract_x
 _atom_site_fract_y
 _atom_site_fract_z
 _atom_site_occupancy
  Nd  Nd0  1  0.56294400  0.33862400  0.29971800  1
  Nd  Nd1  1  0.06294400  0.66137600  0.20028200  1
  Nd  Nd2  1  0.43705600  0.66137600  0.70028200  1
  Nd  Nd3  1  0.93705600  0.33862400  0.79971800  1
  H  H4  1  0.34621200  0.28314500  0.47830800  1
  H  H5  1  0.84621200  0.71685500  0.02169200  1
  H  H6  1  0.65378800  0.71685500  0.52169200  1
  H  H7  1  0.15378800  0.28314500  0.97830800  1
  S  S8  1  0.64678400  0.09202800  0.88915500  1
  S  S9  1  0.14678400  0.90797200  0.61084500  1
  S  S10  1  0.35321600  0.90797200  0.11084500  1
  S  S11  1  0.85321600  0.09202800  0.38915500  1
  O  O12  1  0.41652100  0.26088800  0.54230800  1
  O  O13  1  0.91652100  0.73911200  0.95769200  1
  O  O14  1  0.58347900  0.73911200  0.45769200  1
  O  O15  1  0.08347900  0.26088800  0.04230800  1
  O  O16  1  0.83423300  0.80072900  0.56269900  1
  O  O17  1  0.33423300  0.19927100  0.93730100  1
  O  O18  1  0.16576700  0.19927100  0.43730100  1
  O  O19  1  0.66576700  0.80072900  0.06269900  1
  O  O20  1  0.90237300  0.02436600  0.21946500  1
  O  O21  1  0.40237300  0.97563400  0.28053500  1
  O  O22  1  0.09762700  0.97563400  0.78053500  1
  O  O23  1  0.59762700  0.02436600  0.71946500  1
  O  O24  1  0.93001400  0.30287200  0.44916300  1
  O  O25  1  0.43001400  0.69712800  0.05083700  1
  O  O26  1  0.06998600  0.69712800  0.55083700  1
  O  O27  1  0.56998600  0.30287200  0.94916300  1
  O  O28  1  0.75239200  0.26624900  0.32277100  1
  O  O29  1  0.25239200  0.73375100  0.17722900  1
  O  O30  1  0.24760800  0.73375100  0.67722900  1
  O  O31  1  0.74760800  0.26624900  0.82277100  1
