# generated using pymatgen
data_Ca2Si5N8
_symmetry_space_group_name_H-M   'P 1'
_cell_length_a   7.74742288
_cell_length_b   7.74742288
_cell_length_c   9.75314394
_cell_angle_alpha   69.63460186
_cell_angle_beta   69.63460186
_cell_angle_gamma   42.67213228
_symmetry_Int_Tables_number   1
_chemical_formula_structural   Ca2Si5N8
_chemical_formula_sum   'Ca4 Si10 N16'
_cell_volume   368.05757494
_cell_formula_units_Z   2
loop_
 _symmetry_equiv_pos_site_id
 _symmetry_equiv_pos_as_xyz
  1  'x, y, z'
loop_
 _atom_site_type_symbol
 _atom_site_label
 _atom_site_symmetry_multiplicity
 _atom_site_fract_x
 _atom_site_fract_y
 _atom_site_fract_z
 _atom_site_occupancy
  Ca  Ca0  1  0.35628500  0.86199500  0.30337900  1
  Ca  Ca1  1  0.86199500  0.35628500  0.80337900  1
  Ca  Ca2  1  0.76509100  0.23692800  0.49752000  1
  Ca  Ca3  1  0.23692800  0.76509100  0.99752000  1
  Si  Si4  1  0.85780000  0.85342600  0.37359800  1
  Si  Si5  1  0.85342600  0.85780000  0.87359800  1
  Si  Si6  1  0.57043200  0.15451500  0.13189200  1
  Si  Si7  1  0.15451500  0.57043200  0.63189200  1
  Si  Si8  1  0.25095600  0.25752400  0.43689500  1
  Si  Si9  1  0.25752400  0.25095600  0.93689500  1
  Si  Si10  1  0.96522300  0.54600600  0.18186500  1
  Si  Si11  1  0.54600600  0.96522300  0.68186500  1
  Si  Si12  1  0.86295900  0.25239700  0.14688500  1
  Si  Si13  1  0.25239700  0.86295900  0.64688500  1
  N  N14  1  0.27855300  0.31242200  0.08398600  1
  N  N15  1  0.31242200  0.27855300  0.58398600  1
  N  N16  1  0.78617600  0.47574600  0.22720200  1
  N  N17  1  0.47574600  0.78617600  0.72720200  1
  N  N18  1  0.84774100  0.82014600  0.56473500  1
  N  N19  1  0.82014600  0.84774100  0.06473500  1
  N  N20  1  0.97793000  0.98446700  0.28247900  1
  N  N21  1  0.98446700  0.97793000  0.78247900  1
  N  N22  1  0.55087600  0.05576800  0.32401000  1
  N  N23  1  0.05576800  0.55087600  0.82401000  1
  N  N24  1  0.03717000  0.55340800  0.33028100  1
  N  N25  1  0.55340800  0.03717000  0.83028100  1
  N  N26  1  0.13947400  0.11783900  0.50321000  1
  N  N27  1  0.11783900  0.13947400  0.00321000  1
  N  N28  1  0.34833000  0.62521600  0.57016400  1
  N  N29  1  0.62521600  0.34833000  0.07016400  1
