# generated using pymatgen
data_Rb3BiBr6
_symmetry_space_group_name_H-M   'P 1'
_cell_length_a   8.65541900
_cell_length_b   13.66525200
_cell_length_c   27.33746000
_cell_angle_alpha   90.00000000
_cell_angle_beta   90.00000000
_cell_angle_gamma   90.00000000
_symmetry_Int_Tables_number   1
_chemical_formula_structural   Rb3BiBr6
_chemical_formula_sum   'Rb24 Bi8 Br48'
_cell_volume   3233.43326508
_cell_formula_units_Z   8
loop_
 _symmetry_equiv_pos_site_id
 _symmetry_equiv_pos_as_xyz
  1  'x, y, z'
loop_
 _atom_site_type_symbol
 _atom_site_label
 _atom_site_symmetry_multiplicity
 _atom_site_fract_x
 _atom_site_fract_y
 _atom_site_fract_z
 _atom_site_occupancy
  Rb  Rb0  1  0.56606900  0.34442600  0.34107100  1
  Rb  Rb1  1  0.06320400  0.17866000  0.04616300  1
  Rb  Rb2  1  0.56320400  0.32134000  0.95383700  1
  Rb  Rb3  1  0.43679600  0.67866000  0.45383700  1
  Rb  Rb4  1  0.93679600  0.82134000  0.54616300  1
  Rb  Rb5  1  0.93679600  0.82134000  0.95383700  1
  Rb  Rb6  1  0.43679600  0.67866000  0.04616300  1
  Rb  Rb7  1  0.56320400  0.32134000  0.54616300  1
  Rb  Rb8  1  0.06980200  0.49376800  0.15925100  1
  Rb  Rb9  1  0.56980200  0.00623200  0.84074900  1
  Rb  Rb10  1  0.43019800  0.99376800  0.34074900  1
  Rb  Rb11  1  0.93019800  0.50623200  0.65925100  1
  Rb  Rb12  1  0.93019800  0.50623200  0.84074900  1
  Rb  Rb13  1  0.43019800  0.99376800  0.15925100  1
  Rb  Rb14  1  0.56980200  0.00623200  0.65925100  1
  Rb  Rb15  1  0.06980200  0.49376800  0.34074900  1
  Rb  Rb16  1  0.06320400  0.17866000  0.45383700  1
  Rb  Rb17  1  0.06606900  0.15557400  0.84107100  1
  Rb  Rb18  1  0.93393100  0.84442600  0.34107100  1
  Rb  Rb19  1  0.43393100  0.65557400  0.65892900  1
  Rb  Rb20  1  0.43393100  0.65557400  0.84107100  1
  Rb  Rb21  1  0.93393100  0.84442600  0.15892900  1
  Rb  Rb22  1  0.06606900  0.15557400  0.65892900  1
  Rb  Rb23  1  0.56606900  0.34442600  0.15892900  1
  Bi  Bi24  1  0.00000000  0.50000000  0.50000000  1
  Bi  Bi25  1  0.50000000  0.00000000  0.50000000  1
  Bi  Bi26  1  0.50000000  0.00000000  0.00000000  1
  Bi  Bi27  1  0.00000000  0.50000000  0.00000000  1
  Bi  Bi28  1  0.00254500  0.83049900  0.75000000  1
  Bi  Bi29  1  0.50254500  0.66950100  0.25000000  1
  Bi  Bi30  1  0.49745500  0.33049900  0.75000000  1
  Bi  Bi31  1  0.99745500  0.16950100  0.25000000  1
  Br  Br32  1  0.79037600  0.77129800  0.82790300  1
  Br  Br33  1  0.82670000  0.38477400  0.43110500  1
  Br  Br34  1  0.32670000  0.11522600  0.56889500  1
  Br  Br35  1  0.67330000  0.88477400  0.06889500  1
  Br  Br36  1  0.28322700  0.43532200  0.45168600  1
  Br  Br37  1  0.17330000  0.61522600  0.56889500  1
  Br  Br38  1  0.67330000  0.88477400  0.43110500  1
  Br  Br39  1  0.32670000  0.11522600  0.93110500  1
  Br  Br40  1  0.85497100  0.36186200  0.25000000  1
  Br  Br41  1  0.35497100  0.13813800  0.75000000  1
  Br  Br42  1  0.64502900  0.86186200  0.25000000  1
  Br  Br43  1  0.14502900  0.63813800  0.75000000  1
  Br  Br44  1  0.14126700  0.97651700  0.25000000  1
  Br  Br45  1  0.64126700  0.52348300  0.75000000  1
  Br  Br46  1  0.35873300  0.47651700  0.25000000  1
  Br  Br47  1  0.85873300  0.02348300  0.75000000  1
  Br  Br48  1  0.20962400  0.22870200  0.17209700  1
  Br  Br49  1  0.70962400  0.27129800  0.82790300  1
  Br  Br50  1  0.29037600  0.72870200  0.32790300  1
  Br  Br51  1  0.79037600  0.77129800  0.67209700  1
  Br  Br52  1  0.17330000  0.61522600  0.93110500  1
  Br  Br53  1  0.29037600  0.72870200  0.17209700  1
  Br  Br54  1  0.70962400  0.27129800  0.67209700  1
  Br  Br55  1  0.20962400  0.22870200  0.32790300  1
  Br  Br56  1  0.79554100  0.11012500  0.17216600  1
  Br  Br57  1  0.29554100  0.38987500  0.82783400  1
  Br  Br58  1  0.70445900  0.61012500  0.32783400  1
  Br  Br59  1  0.20445900  0.88987500  0.67216600  1
  Br  Br60  1  0.20445900  0.88987500  0.82783400  1
  Br  Br61  1  0.70445900  0.61012500  0.17216600  1
  Br  Br62  1  0.29554100  0.38987500  0.67216600  1
  Br  Br63  1  0.79554100  0.11012500  0.32783400  1
  Br  Br64  1  0.00403900  0.66946700  0.06176600  1
  Br  Br65  1  0.50403900  0.83053300  0.93823400  1
  Br  Br66  1  0.49596100  0.16946700  0.43823400  1
  Br  Br67  1  0.99596100  0.33053300  0.56176600  1
  Br  Br68  1  0.99596100  0.33053300  0.93823400  1
  Br  Br69  1  0.49596100  0.16946700  0.06176600  1
  Br  Br70  1  0.50403900  0.83053300  0.56176600  1
  Br  Br71  1  0.00403900  0.66946700  0.43823400  1
  Br  Br72  1  0.28322700  0.43532200  0.04831400  1
  Br  Br73  1  0.78322700  0.06467800  0.95168600  1
  Br  Br74  1  0.21677300  0.93532200  0.45168600  1
  Br  Br75  1  0.71677300  0.56467800  0.54831400  1
  Br  Br76  1  0.71677300  0.56467800  0.95168600  1
  Br  Br77  1  0.21677300  0.93532200  0.04831400  1
  Br  Br78  1  0.78322700  0.06467800  0.54831400  1
  Br  Br79  1  0.82670000  0.38477400  0.06889500  1
