# generated using pymatgen
data_ZnH2(SeO4)2
_symmetry_space_group_name_H-M   'P 1'
_cell_length_a   8.78213200
_cell_length_b   5.16589700
_cell_length_c   8.54135110
_cell_angle_alpha   60.75750032
_cell_angle_beta   90.00000000
_cell_angle_gamma   90.00000000
_symmetry_Int_Tables_number   1
_chemical_formula_structural   ZnH2(SeO4)2
_chemical_formula_sum   'Zn2 H4 Se4 O16'
_cell_volume   338.11743000
_cell_formula_units_Z   2
loop_
 _symmetry_equiv_pos_site_id
 _symmetry_equiv_pos_as_xyz
  1  'x, y, z'
loop_
 _atom_site_type_symbol
 _atom_site_label
 _atom_site_symmetry_multiplicity
 _atom_site_fract_x
 _atom_site_fract_y
 _atom_site_fract_z
 _atom_site_occupancy
  Zn  Zn0  1  0.00000000  0.00000000  0.00000000  1
  Zn  Zn1  1  0.50000000  0.00000000  0.50000000  1
  H  H2  1  0.99064700  0.42428900  0.35339700  1
  H  H3  1  0.49064700  0.57571100  0.14660300  1
  H  H4  1  0.00935300  0.57571100  0.64660300  1
  H  H5  1  0.50935300  0.42428900  0.85339700  1
  Se  Se6  1  0.81623700  0.66739900  0.78776600  1
  Se  Se7  1  0.31623700  0.33260100  0.71223400  1
  Se  Se8  1  0.68376300  0.66739900  0.28776600  1
  Se  Se9  1  0.18376300  0.33260100  0.21223400  1
  O  O10  1  0.08796500  0.30421000  0.39980100  1
  O  O11  1  0.58796500  0.69579000  0.10019900  1
  O  O12  1  0.35567100  0.65655100  0.53344600  1
  O  O13  1  0.85567100  0.34344900  0.96655400  1
  O  O14  1  0.64432900  0.34344900  0.46655400  1
  O  O15  1  0.14432900  0.65655100  0.03344600  1
  O  O16  1  0.36328900  0.04356000  0.68893000  1
  O  O17  1  0.86328900  0.95644000  0.81107000  1
  O  O18  1  0.63671100  0.95644000  0.31107000  1
  O  O19  1  0.13671100  0.04356000  0.18893000  1
  O  O20  1  0.13356700  0.31662200  0.77106200  1
  O  O21  1  0.63356700  0.68337800  0.72893800  1
  O  O22  1  0.86643300  0.68337800  0.22893800  1
  O  O23  1  0.36643300  0.31662200  0.27106200  1
  O  O24  1  0.41203500  0.30421000  0.89980100  1
  O  O25  1  0.91203500  0.69579000  0.60019900  1
