# generated using pymatgen
data_TmGeRh
_symmetry_space_group_name_H-M   'P 1'
_cell_length_a   4.28738600
_cell_length_b   6.85110600
_cell_length_c   7.54098300
_cell_angle_alpha   90.00000000
_cell_angle_beta   90.00000000
_cell_angle_gamma   90.00000000
_symmetry_Int_Tables_number   1
_chemical_formula_structural   TmGeRh
_chemical_formula_sum   'Tm4 Ge4 Rh4'
_cell_volume   221.50382704
_cell_formula_units_Z   4
loop_
 _symmetry_equiv_pos_site_id
 _symmetry_equiv_pos_as_xyz
  1  'x, y, z'
loop_
 _atom_site_type_symbol
 _atom_site_label
 _atom_site_symmetry_multiplicity
 _atom_site_fract_x
 _atom_site_fract_y
 _atom_site_fract_z
 _atom_site_occupancy
  Tm  Tm0  1  0.25000000  0.00365600  0.80454200  1
  Tm  Tm1  1  0.75000000  0.99634400  0.19545800  1
  Tm  Tm2  1  0.25000000  0.50365600  0.69545800  1
  Tm  Tm3  1  0.75000000  0.49634400  0.30454200  1
  Ge  Ge4  1  0.25000000  0.28613100  0.10689600  1
  Ge  Ge5  1  0.75000000  0.71386900  0.89310400  1
  Ge  Ge6  1  0.25000000  0.78613100  0.39310400  1
  Ge  Ge7  1  0.75000000  0.21386900  0.60689600  1
  Rh  Rh8  1  0.75000000  0.84300700  0.56674500  1
  Rh  Rh9  1  0.25000000  0.15699300  0.43325500  1
  Rh  Rh10  1  0.75000000  0.34300700  0.93325500  1
  Rh  Rh11  1  0.25000000  0.65699300  0.06674500  1
