# generated using pymatgen
data_Hg(IO3)2
_symmetry_space_group_name_H-M   'P 1'
_cell_length_a   5.62413500
_cell_length_b   5.97066300
_cell_length_c   9.16421828
_cell_angle_alpha   77.59548956
_cell_angle_beta   90.00000000
_cell_angle_gamma   90.00000000
_symmetry_Int_Tables_number   1
_chemical_formula_structural   Hg(IO3)2
_chemical_formula_sum   'Hg2 I4 O12'
_cell_volume   300.54884511
_cell_formula_units_Z   2
loop_
 _symmetry_equiv_pos_site_id
 _symmetry_equiv_pos_as_xyz
  1  'x, y, z'
loop_
 _atom_site_type_symbol
 _atom_site_label
 _atom_site_symmetry_multiplicity
 _atom_site_fract_x
 _atom_site_fract_y
 _atom_site_fract_z
 _atom_site_occupancy
  Hg  Hg0  1  0.74513700  0.93267700  0.17322000  1
  Hg  Hg1  1  0.24513700  0.06732300  0.82678000  1
  I  I2  1  0.26940200  0.57835400  0.14966100  1
  I  I3  1  0.76940200  0.42164600  0.85033900  1
  I  I4  1  0.23793300  0.73237000  0.57222800  1
  I  I5  1  0.73793300  0.26763000  0.42777200  1
  O  O6  1  0.93342000  0.51184900  0.34949200  1
  O  O7  1  0.43342000  0.48815100  0.65050800  1
  O  O8  1  0.49876200  0.66398400  0.00614900  1
  O  O9  1  0.99876200  0.33601600  0.99385100  1
  O  O10  1  0.42046800  0.70838900  0.29246500  1
  O  O11  1  0.92046800  0.29161100  0.70753500  1
  O  O12  1  0.93486300  0.02889200  0.41207900  1
  O  O13  1  0.43486300  0.97110800  0.58792100  1
  O  O14  1  0.57575200  0.16966500  0.93354400  1
  O  O15  1  0.07575200  0.83033500  0.06645600  1
  O  O16  1  0.56334300  0.23965500  0.25972400  1
  O  O17  1  0.06334300  0.76034500  0.74027600  1
