# generated using pymatgen
data_Ca(AuO2)2
_symmetry_space_group_name_H-M   'P 1'
_cell_length_a   6.69014664
_cell_length_b   6.69014664
_cell_length_c   6.69014664
_cell_angle_alpha   125.70676334
_cell_angle_beta   125.70676334
_cell_angle_gamma   80.37063082
_symmetry_Int_Tables_number   1
_chemical_formula_structural   Ca(AuO2)2
_chemical_formula_sum   'Ca2 Au4 O8'
_cell_volume   190.49360425
_cell_formula_units_Z   2
loop_
 _symmetry_equiv_pos_site_id
 _symmetry_equiv_pos_as_xyz
  1  'x, y, z'
loop_
 _atom_site_type_symbol
 _atom_site_label
 _atom_site_symmetry_multiplicity
 _atom_site_fract_x
 _atom_site_fract_y
 _atom_site_fract_z
 _atom_site_occupancy
  Ca  Ca0  1  0.75000000  0.25000000  0.50000000  1
  Ca  Ca1  1  0.00000000  0.00000000  0.00000000  1
  Au  Au2  1  0.37500000  0.62500000  0.75000000  1
  Au  Au3  1  0.37500000  0.12500000  0.75000000  1
  Au  Au4  1  0.87500000  0.62500000  0.25000000  1
  Au  Au5  1  0.37500000  0.62500000  0.25000000  1
  O  O6  1  0.04206500  0.40570600  0.04581100  1
  O  O7  1  0.74625500  0.29206500  0.13635900  1
  O  O8  1  0.15570600  0.60989500  0.86364100  1
  O  O9  1  0.35989500  0.99625500  0.95418900  1
  O  O10  1  0.70793500  0.84429400  0.45418900  1
  O  O11  1  0.00374500  0.95793500  0.36364100  1
  O  O12  1  0.39010500  0.25374500  0.54581100  1
  O  O13  1  0.59429400  0.64010500  0.63635900  1
