# generated using pymatgen
data_RbInI4
_symmetry_space_group_name_H-M   'P 1'
_cell_length_a   15.12317452
_cell_length_b   15.12317452
_cell_length_c   15.12317463
_cell_angle_alpha   115.18210018
_cell_angle_beta   115.18210018
_cell_angle_gamma   115.18210562
_symmetry_Int_Tables_number   1
_chemical_formula_structural   RbInI4
_chemical_formula_sum   'Rb6 In6 I24'
_cell_volume   1903.25977035
_cell_formula_units_Z   6
loop_
 _symmetry_equiv_pos_site_id
 _symmetry_equiv_pos_as_xyz
  1  'x, y, z'
loop_
 _atom_site_type_symbol
 _atom_site_label
 _atom_site_symmetry_multiplicity
 _atom_site_fract_x
 _atom_site_fract_y
 _atom_site_fract_z
 _atom_site_occupancy
  Rb  Rb0  1  0.87642200  0.68861600  0.09283400  1
  Rb  Rb1  1  0.09283400  0.87642200  0.68861600  1
  Rb  Rb2  1  0.68861600  0.09283400  0.87642200  1
  Rb  Rb3  1  0.18861600  0.37642200  0.59283400  1
  Rb  Rb4  1  0.59283400  0.18861600  0.37642200  1
  Rb  Rb5  1  0.37642200  0.59283400  0.18861600  1
  In  In6  1  0.86332800  0.07516300  0.68125000  1
  In  In7  1  0.68125000  0.86332800  0.07516300  1
  In  In8  1  0.07516300  0.68125000  0.86332800  1
  In  In9  1  0.57516300  0.36332800  0.18125000  1
  In  In10  1  0.18125000  0.57516300  0.36332800  1
  In  In11  1  0.36332800  0.18125000  0.57516300  1
  I  I12  1  0.96312700  0.11498400  0.90965300  1
  I  I13  1  0.90965300  0.96312700  0.11498400  1
  I  I14  1  0.11498400  0.90965300  0.96312700  1
  I  I15  1  0.61498400  0.46312700  0.40965300  1
  I  I16  1  0.40965300  0.61498400  0.46312700  1
  I  I17  1  0.46312700  0.40965300  0.61498400  1
  I  I18  1  0.07374700  0.32935300  0.78219300  1
  I  I19  1  0.78219300  0.07374700  0.32935300  1
  I  I20  1  0.32935300  0.78219300  0.07374700  1
  I  I21  1  0.82935300  0.57374700  0.28219300  1
  I  I22  1  0.28219300  0.82935300  0.57374700  1
  I  I23  1  0.57374700  0.28219300  0.82935300  1
  I  I24  1  0.61647200  0.00810000  0.55069000  1
  I  I25  1  0.55069000  0.61647200  0.00810000  1
  I  I26  1  0.00810000  0.55069000  0.61647200  1
  I  I27  1  0.50810000  0.11647200  0.05069000  1
  I  I28  1  0.05069000  0.50810000  0.11647200  1
  I  I29  1  0.11647200  0.05069000  0.50810000  1
  I  I30  1  0.79256400  0.84616000  0.47574300  1
  I  I31  1  0.47574300  0.79256400  0.84616000  1
  I  I32  1  0.84616000  0.47574300  0.79256400  1
  I  I33  1  0.34616000  0.29256400  0.97574300  1
  I  I34  1  0.97574300  0.34616000  0.29256400  1
  I  I35  1  0.29256400  0.97574300  0.34616000  1
