# generated using pymatgen
data_Cr2CuTe4
_symmetry_space_group_name_H-M   'P 1'
_cell_length_a   7.91707582
_cell_length_b   7.91707582
_cell_length_c   7.91707582
_cell_angle_alpha   60.00000000
_cell_angle_beta   60.00000000
_cell_angle_gamma   60.00000000
_symmetry_Int_Tables_number   1
_chemical_formula_structural   Cr2CuTe4
_chemical_formula_sum   'Cr4 Cu2 Te8'
_cell_volume   350.89680557
_cell_formula_units_Z   2
loop_
 _symmetry_equiv_pos_site_id
 _symmetry_equiv_pos_as_xyz
  1  'x, y, z'
loop_
 _atom_site_type_symbol
 _atom_site_label
 _atom_site_symmetry_multiplicity
 _atom_site_fract_x
 _atom_site_fract_y
 _atom_site_fract_z
 _atom_site_occupancy
  Cr  Cr0  1  0.12500000  0.62500000  0.12500000  1
  Cr  Cr1  1  0.12500000  0.12500000  0.62500000  1
  Cr  Cr2  1  0.62500000  0.12500000  0.12500000  1
  Cr  Cr3  1  0.12500000  0.12500000  0.12500000  1
  Cu  Cu4  1  0.75000000  0.75000000  0.75000000  1
  Cu  Cu5  1  0.50000000  0.50000000  0.50000000  1
  Te  Te6  1  0.36786400  0.89640800  0.36786400  1
  Te  Te7  1  0.88213600  0.88213600  0.35359200  1
  Te  Te8  1  0.35359200  0.88213600  0.88213600  1
  Te  Te9  1  0.88213600  0.88213600  0.88213600  1
  Te  Te10  1  0.89640800  0.36786400  0.36786400  1
  Te  Te11  1  0.36786400  0.36786400  0.36786400  1
  Te  Te12  1  0.36786400  0.36786400  0.89640800  1
  Te  Te13  1  0.88213600  0.35359200  0.88213600  1
