# generated using pymatgen
data_RbIO4
_symmetry_space_group_name_H-M   'P 1'
_cell_length_a   7.93252208
_cell_length_b   7.93252208
_cell_length_c   7.93252208
_cell_angle_alpha   135.14229458
_cell_angle_beta   135.14229458
_cell_angle_gamma   65.30918610
_symmetry_Int_Tables_number   1
_chemical_formula_structural   RbIO4
_chemical_formula_sum   'Rb2 I2 O8'
_cell_volume   244.70629539
_cell_formula_units_Z   2
loop_
 _symmetry_equiv_pos_site_id
 _symmetry_equiv_pos_as_xyz
  1  'x, y, z'
loop_
 _atom_site_type_symbol
 _atom_site_label
 _atom_site_symmetry_multiplicity
 _atom_site_fract_x
 _atom_site_fract_y
 _atom_site_fract_z
 _atom_site_occupancy
  Rb  Rb0  1  0.75000000  0.25000000  0.50000000  1
  Rb  Rb1  1  0.00000000  0.00000000  0.00000000  1
  I  I2  1  0.25000000  0.75000000  0.50000000  1
  I  I3  1  0.50000000  0.50000000  0.00000000  1
  O  O4  1  0.29457800  0.46025300  0.40661400  1
  O  O5  1  0.63796400  0.54457800  0.33432500  1
  O  O6  1  0.21025300  0.30363900  0.66567500  1
  O  O7  1  0.05363900  0.88796400  0.59338600  1
  O  O8  1  0.69636100  0.36203600  0.90661400  1
  O  O9  1  0.53974700  0.94636100  0.83432500  1
  O  O10  1  0.11203600  0.70542200  0.16567500  1
  O  O11  1  0.45542200  0.78974700  0.09338600  1
