# generated using pymatgen
data_GaSbCl6
_symmetry_space_group_name_H-M   'P 1'
_cell_length_a   7.93172400
_cell_length_b   10.65693200
_cell_length_c   13.65060040
_cell_angle_alpha   77.92348523
_cell_angle_beta   90.00000000
_cell_angle_gamma   90.00000000
_symmetry_Int_Tables_number   1
_chemical_formula_structural   GaSbCl6
_chemical_formula_sum   'Ga4 Sb4 Cl24'
_cell_volume   1128.31991643
_cell_formula_units_Z   4
loop_
 _symmetry_equiv_pos_site_id
 _symmetry_equiv_pos_as_xyz
  1  'x, y, z'
loop_
 _atom_site_type_symbol
 _atom_site_label
 _atom_site_symmetry_multiplicity
 _atom_site_fract_x
 _atom_site_fract_y
 _atom_site_fract_z
 _atom_site_occupancy
  Ga  Ga0  1  0.76358700  0.65895400  0.92148200  1
  Ga  Ga1  1  0.26358700  0.34104600  0.57851800  1
  Ga  Ga2  1  0.23641300  0.34104600  0.07851800  1
  Ga  Ga3  1  0.73641300  0.65895400  0.42148200  1
  Sb  Sb4  1  0.23242600  0.75556600  0.37371400  1
  Sb  Sb5  1  0.73242600  0.24443400  0.12628600  1
  Sb  Sb6  1  0.76757400  0.24443400  0.62628600  1
  Sb  Sb7  1  0.26757400  0.75556600  0.87371400  1
  Cl  Cl8  1  0.66396100  0.04183600  0.09456400  1
  Cl  Cl9  1  0.16396100  0.95816400  0.40543600  1
  Cl  Cl10  1  0.33603900  0.95816400  0.90543600  1
  Cl  Cl11  1  0.83603900  0.04183600  0.59456400  1
  Cl  Cl12  1  0.81358100  0.18023600  0.29519700  1
  Cl  Cl13  1  0.31358100  0.81976400  0.20480300  1
  Cl  Cl14  1  0.18641900  0.81976400  0.70480300  1
  Cl  Cl15  1  0.68641900  0.18023600  0.79519700  1
  Cl  Cl16  1  0.41581300  0.25736000  0.20518600  1
  Cl  Cl17  1  0.91581300  0.74264000  0.29481400  1
  Cl  Cl18  1  0.58418700  0.74264000  0.79481400  1
  Cl  Cl19  1  0.08418700  0.25736000  0.70518600  1
  Cl  Cl20  1  0.38099100  0.38002000  0.94085600  1
  Cl  Cl21  1  0.88099100  0.61998000  0.55914400  1
  Cl  Cl22  1  0.61900900  0.61998000  0.05914400  1
  Cl  Cl23  1  0.11900900  0.38002000  0.44085600  1
  Cl  Cl24  1  0.89670600  0.50358300  0.87583700  1
  Cl  Cl25  1  0.39670600  0.49641700  0.62416300  1
  Cl  Cl26  1  0.10329400  0.49641700  0.12416300  1
  Cl  Cl27  1  0.60329400  0.50358300  0.37583700  1
  Cl  Cl28  1  0.05384200  0.18111200  0.06988700  1
  Cl  Cl29  1  0.55384200  0.81888800  0.43011300  1
  Cl  Cl30  1  0.94615800  0.81888800  0.93011300  1
  Cl  Cl31  1  0.44615800  0.18111200  0.56988700  1
