# generated using pymatgen
data_TeAuCl7
_symmetry_space_group_name_H-M   'P 1'
_cell_length_a   7.97620100
_cell_length_b   8.37405196
_cell_length_c   9.53004030
_cell_angle_alpha   101.29099742
_cell_angle_beta   95.17387772
_cell_angle_gamma   90.30667635
_symmetry_Int_Tables_number   1
_chemical_formula_structural   TeAuCl7
_chemical_formula_sum   'Te2 Au2 Cl14'
_cell_volume   621.50530130
_cell_formula_units_Z   2
loop_
 _symmetry_equiv_pos_site_id
 _symmetry_equiv_pos_as_xyz
  1  'x, y, z'
loop_
 _atom_site_type_symbol
 _atom_site_label
 _atom_site_symmetry_multiplicity
 _atom_site_fract_x
 _atom_site_fract_y
 _atom_site_fract_z
 _atom_site_occupancy
  Te  Te0  1  0.30128400  0.22753900  0.76708700  1
  Te  Te1  1  0.69871600  0.77246100  0.23291300  1
  Au  Au2  1  0.07363300  0.80071300  0.56011100  1
  Au  Au3  1  0.92636700  0.19928700  0.43988900  1
  Cl  Cl4  1  0.55829600  0.14046400  0.86517700  1
  Cl  Cl5  1  0.44170400  0.85953600  0.13482300  1
  Cl  Cl6  1  0.64385200  0.14539800  0.45335200  1
  Cl  Cl7  1  0.35614800  0.85460200  0.54664800  1
  Cl  Cl8  1  0.96009700  0.32661900  0.68060800  1
  Cl  Cl9  1  0.03990300  0.67338100  0.31939200  1
  Cl  Cl10  1  0.21106300  0.24426800  0.42580900  1
  Cl  Cl11  1  0.78893700  0.75573200  0.57419100  1
  Cl  Cl12  1  0.89241800  0.06926800  0.20036300  1
  Cl  Cl13  1  0.10758200  0.93073200  0.79963700  1
  Cl  Cl14  1  0.20302600  0.31879300  0.99336700  1
  Cl  Cl15  1  0.79697400  0.68120700  0.00663300  1
  Cl  Cl16  1  0.58835500  0.51485100  0.24403400  1
  Cl  Cl17  1  0.41164500  0.48514900  0.75596600  1
