# generated using pymatgen
data_AgHgSI
_symmetry_space_group_name_H-M   'P 1'
_cell_length_a   7.26591800
_cell_length_b   7.88277300
_cell_length_c   8.79126200
_cell_angle_alpha   90.00000000
_cell_angle_beta   90.00000000
_cell_angle_gamma   90.00000000
_symmetry_Int_Tables_number   1
_chemical_formula_structural   AgHgSI
_chemical_formula_sum   'Ag4 Hg4 S4 I4'
_cell_volume   503.52464959
_cell_formula_units_Z   4
loop_
 _symmetry_equiv_pos_site_id
 _symmetry_equiv_pos_as_xyz
  1  'x, y, z'
loop_
 _atom_site_type_symbol
 _atom_site_label
 _atom_site_symmetry_multiplicity
 _atom_site_fract_x
 _atom_site_fract_y
 _atom_site_fract_z
 _atom_site_occupancy
  Ag  Ag0  1  0.09414300  0.17208200  0.39341600  1
  Ag  Ag1  1  0.59414300  0.32791800  0.60658400  1
  Ag  Ag2  1  0.40585700  0.82791800  0.89341600  1
  Ag  Ag3  1  0.90585700  0.67208200  0.10658400  1
  Hg  Hg4  1  0.24984900  0.26655400  0.98837200  1
  Hg  Hg5  1  0.25015100  0.73344600  0.48837300  1
  Hg  Hg6  1  0.75015100  0.76655400  0.51162800  1
  Hg  Hg7  1  0.74984900  0.23344600  0.01162800  1
  S  S8  1  0.00178800  0.35615900  0.14991200  1
  S  S9  1  0.49821200  0.64384100  0.64991200  1
  S  S10  1  0.99821200  0.85615900  0.35008800  1
  S  S11  1  0.50178800  0.14384100  0.85008800  1
  I  I12  1  0.00733100  0.87780100  0.86075700  1
  I  I13  1  0.50733100  0.62219900  0.13924300  1
  I  I14  1  0.49266900  0.12219900  0.36075700  1
  I  I15  1  0.99266900  0.37780100  0.63924300  1
