# generated using pymatgen
data_Ce2NiB10
_symmetry_space_group_name_H-M   'P 1'
_cell_length_a   4.16077600
_cell_length_b   5.60199200
_cell_length_c   11.14699300
_cell_angle_alpha   90.00000000
_cell_angle_beta   90.00000000
_cell_angle_gamma   90.00000000
_symmetry_Int_Tables_number   1
_chemical_formula_structural   Ce2NiB10
_chemical_formula_sum   'Ce4 Ni2 B20'
_cell_volume   259.82117854
_cell_formula_units_Z   2
loop_
 _symmetry_equiv_pos_site_id
 _symmetry_equiv_pos_as_xyz
  1  'x, y, z'
loop_
 _atom_site_type_symbol
 _atom_site_label
 _atom_site_symmetry_multiplicity
 _atom_site_fract_x
 _atom_site_fract_y
 _atom_site_fract_z
 _atom_site_occupancy
  Ce  Ce0  1  0.50000000  0.31199100  0.86211400  1
  Ce  Ce1  1  0.50000000  0.68800900  0.13788600  1
  Ce  Ce2  1  0.50000000  0.81199100  0.63788600  1
  Ce  Ce3  1  0.50000000  0.18800900  0.36211400  1
  Ni  Ni4  1  0.00000000  0.50000000  0.50000000  1
  Ni  Ni5  1  0.00000000  0.00000000  0.00000000  1
  B  B6  1  0.00000000  0.12523900  0.54072300  1
  B  B7  1  0.00000000  0.87476100  0.45927700  1
  B  B8  1  0.00000000  0.62523900  0.95927700  1
  B  B9  1  0.00000000  0.37476100  0.04072300  1
  B  B10  1  0.00000000  0.15588300  0.69775400  1
  B  B11  1  0.00000000  0.84411700  0.30224600  1
  B  B12  1  0.30126200  0.20080600  0.11400400  1
  B  B13  1  0.30126200  0.79919400  0.88599600  1
  B  B14  1  0.69873800  0.70080600  0.38599600  1
  B  B15  1  0.69873800  0.29919400  0.61400400  1
  B  B16  1  0.69873800  0.79919400  0.88599600  1
  B  B17  1  0.69873800  0.20080600  0.11400400  1
  B  B18  1  0.30126200  0.29919400  0.61400400  1
  B  B19  1  0.30126200  0.70080600  0.38599600  1
  B  B20  1  0.00000000  0.03229500  0.18759600  1
  B  B21  1  0.00000000  0.96770500  0.81240400  1
  B  B22  1  0.00000000  0.53229500  0.31240400  1
  B  B23  1  0.00000000  0.46770500  0.68759600  1
  B  B24  1  0.00000000  0.34411700  0.19775400  1
  B  B25  1  0.00000000  0.65588300  0.80224600  1
