# generated using pymatgen
data_NdIn2Ir
_symmetry_space_group_name_H-M   'P 1'
_cell_length_a   5.65825764
_cell_length_b   5.65825764
_cell_length_c   8.07291200
_cell_angle_alpha   90.00000000
_cell_angle_beta   90.00000000
_cell_angle_gamma   133.92600893
_symmetry_Int_Tables_number   1
_chemical_formula_structural   NdIn2Ir
_chemical_formula_sum   'Nd2 In4 Ir2'
_cell_volume   186.15325997
_cell_formula_units_Z   2
loop_
 _symmetry_equiv_pos_site_id
 _symmetry_equiv_pos_as_xyz
  1  'x, y, z'
loop_
 _atom_site_type_symbol
 _atom_site_label
 _atom_site_symmetry_multiplicity
 _atom_site_fract_x
 _atom_site_fract_y
 _atom_site_fract_z
 _atom_site_occupancy
  Nd  Nd0  1  0.93003600  0.06996400  0.75000000  1
  Nd  Nd1  1  0.06996400  0.93003600  0.25000000  1
  In  In2  1  0.64494900  0.35505100  0.55149400  1
  In  In3  1  0.35505100  0.64494900  0.44850600  1
  In  In4  1  0.64494900  0.35505100  0.94850600  1
  In  In5  1  0.35505100  0.64494900  0.05149400  1
  Ir  Ir6  1  0.78148500  0.21851500  0.25000000  1
  Ir  Ir7  1  0.21851500  0.78148500  0.75000000  1
