# generated using pymatgen
data_Y6IrI10
_symmetry_space_group_name_H-M   'P 1'
_cell_length_a   7.75711400
_cell_length_b   9.71145606
_cell_length_c   9.81724780
_cell_angle_alpha   107.27483253
_cell_angle_beta   96.92377384
_cell_angle_gamma   104.53352271
_symmetry_Int_Tables_number   1
_chemical_formula_structural   Y6IrI10
_chemical_formula_sum   'Y6 Ir1 I10'
_cell_volume   668.20710485
_cell_formula_units_Z   1
loop_
 _symmetry_equiv_pos_site_id
 _symmetry_equiv_pos_as_xyz
  1  'x, y, z'
loop_
 _atom_site_type_symbol
 _atom_site_label
 _atom_site_symmetry_multiplicity
 _atom_site_fract_x
 _atom_site_fract_y
 _atom_site_fract_z
 _atom_site_occupancy
  Y  Y0  1  0.11511100  0.04241700  0.75762100  1
  Y  Y1  1  0.88488900  0.95758300  0.24237900  1
  Y  Y2  1  0.96962500  0.27937200  0.08251300  1
  Y  Y3  1  0.03037500  0.72062800  0.91748700  1
  Y  Y4  1  0.35096800  0.12583600  0.16729000  1
  Y  Y5  1  0.64903200  0.87416400  0.83271000  1
  Ir  Ir6  1  0.00000000  0.00000000  0.00000000  1
  I  I7  1  0.35065300  0.45158700  0.27243300  1
  I  I8  1  0.64934700  0.54841300  0.72756700  1
  I  I9  1  0.25886600  0.08808300  0.46275200  1
  I  I10  1  0.74113400  0.91191700  0.53724800  1
  I  I11  1  0.08562000  0.37222300  0.82144300  1
  I  I12  1  0.91438000  0.62777700  0.17855700  1
  I  I13  1  0.45305000  0.81548400  0.09080300  1
  I  I14  1  0.54695000  0.18451600  0.90919700  1
  I  I15  1  0.78111200  0.25818400  0.34535400  1
  I  I16  1  0.21888800  0.74181600  0.65464600  1
