# generated using pymatgen
data_Au2Se4O11
_symmetry_space_group_name_H-M   'P 1'
_cell_length_a   10.63831657
_cell_length_b   10.63831657
_cell_length_c   13.85126753
_cell_angle_alpha   66.10400944
_cell_angle_beta   66.10400944
_cell_angle_gamma   23.37242944
_symmetry_Int_Tables_number   1
_chemical_formula_structural   Au2Se4O11
_chemical_formula_sum   'Au4 Se8 O22'
_cell_volume   566.17845536
_cell_formula_units_Z   2
loop_
 _symmetry_equiv_pos_site_id
 _symmetry_equiv_pos_as_xyz
  1  'x, y, z'
loop_
 _atom_site_type_symbol
 _atom_site_label
 _atom_site_symmetry_multiplicity
 _atom_site_fract_x
 _atom_site_fract_y
 _atom_site_fract_z
 _atom_site_occupancy
  Au  Au0  1  0.50000000  0.00000000  0.50000000  1
  Au  Au1  1  0.00000000  0.50000000  0.00000000  1
  Au  Au2  1  0.00000000  0.00000000  0.50000000  1
  Au  Au3  1  0.00000000  0.00000000  0.00000000  1
  Se  Se4  1  0.31605200  0.83481600  0.25540000  1
  Se  Se5  1  0.16518400  0.68394800  0.24460000  1
  Se  Se6  1  0.68394800  0.16518400  0.74460000  1
  Se  Se7  1  0.83481600  0.31605200  0.75540000  1
  Se  Se8  1  0.92812700  0.40435300  0.41552600  1
  Se  Se9  1  0.59564700  0.07187300  0.08447400  1
  Se  Se10  1  0.07187300  0.59564700  0.58447400  1
  Se  Se11  1  0.40435300  0.92812700  0.91552600  1
  O  O12  1  0.01744100  0.98255900  0.25000000  1
  O  O13  1  0.98255900  0.01744100  0.75000000  1
  O  O14  1  0.07045300  0.18346500  0.25038800  1
  O  O15  1  0.81653500  0.92954700  0.24961200  1
  O  O16  1  0.92954700  0.81653500  0.74961200  1
  O  O17  1  0.18346500  0.07045300  0.75038800  1
  O  O18  1  0.38352800  0.68690000  0.39101700  1
  O  O19  1  0.31310000  0.61647200  0.10898300  1
  O  O20  1  0.61647200  0.31310000  0.60898300  1
  O  O21  1  0.68690000  0.38352800  0.89101700  1
  O  O22  1  0.27795900  0.18604500  0.37996800  1
  O  O23  1  0.81395500  0.72204100  0.12003200  1
  O  O24  1  0.11365200  0.07817500  0.00351400  1
  O  O25  1  0.92182500  0.88634800  0.49648600  1
  O  O26  1  0.88634800  0.92182500  0.99648600  1
  O  O27  1  0.07817500  0.11365200  0.50351400  1
  O  O28  1  0.59504100  0.75714700  0.02280200  1
  O  O29  1  0.24285300  0.40495900  0.47719800  1
  O  O30  1  0.40495900  0.24285300  0.97719800  1
  O  O31  1  0.75714700  0.59504100  0.52280200  1
  O  O32  1  0.18604500  0.27795900  0.87996800  1
  O  O33  1  0.72204100  0.81395500  0.62003200  1
