# generated using pymatgen
data_KBrF4
_symmetry_space_group_name_H-M   'P 1'
_cell_length_a   7.19098770
_cell_length_b   7.19098770
_cell_length_c   7.19098770
_cell_angle_alpha   128.02802072
_cell_angle_beta   128.02802072
_cell_angle_gamma   76.57964007
_symmetry_Int_Tables_number   1
_chemical_formula_structural   KBrF4
_chemical_formula_sum   'K2 Br2 F8'
_cell_volume   224.12009218
_cell_formula_units_Z   2
loop_
 _symmetry_equiv_pos_site_id
 _symmetry_equiv_pos_as_xyz
  1  'x, y, z'
loop_
 _atom_site_type_symbol
 _atom_site_label
 _atom_site_symmetry_multiplicity
 _atom_site_fract_x
 _atom_site_fract_y
 _atom_site_fract_z
 _atom_site_occupancy
  K  K0  1  0.25000000  0.25000000  0.00000000  1
  K  K1  1  0.75000000  0.75000000  0.00000000  1
  Br  Br2  1  0.50000000  0.00000000  0.50000000  1
  Br  Br3  1  0.00000000  0.50000000  0.50000000  1
  F  F4  1  0.46766300  0.96766300  0.19234700  1
  F  F5  1  0.22468400  0.72468400  0.19234700  1
  F  F6  1  0.53233700  0.03233700  0.80765300  1
  F  F7  1  0.03233700  0.22468400  0.50000000  1
  F  F8  1  0.77531600  0.27531600  0.80765300  1
  F  F9  1  0.27531600  0.46766300  0.50000000  1
  F  F10  1  0.96766300  0.77531600  0.50000000  1
  F  F11  1  0.72468400  0.53233700  0.50000000  1
