# generated using pymatgen
data_Ba5Pt2O9
_symmetry_space_group_name_H-M   'P 1'
_cell_length_a   10.34119785
_cell_length_b   10.34119785
_cell_length_c   9.03017600
_cell_angle_alpha   90.00000000
_cell_angle_beta   90.00000000
_cell_angle_gamma   119.99999904
_symmetry_Int_Tables_number   1
_chemical_formula_structural   Ba5Pt2O9
_chemical_formula_sum   'Ba15 Pt6 O27'
_cell_volume   836.31241751
_cell_formula_units_Z   3
loop_
 _symmetry_equiv_pos_site_id
 _symmetry_equiv_pos_as_xyz
  1  'x, y, z'
loop_
 _atom_site_type_symbol
 _atom_site_label
 _atom_site_symmetry_multiplicity
 _atom_site_fract_x
 _atom_site_fract_y
 _atom_site_fract_z
 _atom_site_occupancy
  Ba  Ba0  1  0.03229900  0.69674800  0.26391000  1
  Ba  Ba1  1  0.30325200  0.33555100  0.26391000  1
  Ba  Ba2  1  0.66444900  0.96770100  0.26391000  1
  Ba  Ba3  1  0.33555100  0.30325200  0.73609000  1
  Ba  Ba4  1  0.96770100  0.66444900  0.73609000  1
  Ba  Ba5  1  0.69674800  0.03229900  0.73609000  1
  Ba  Ba6  1  0.00000000  0.00000000  0.00000000  1
  Ba  Ba7  1  0.33333300  0.66666700  0.75200300  1
  Ba  Ba8  1  0.66666700  0.33333300  0.24799700  1
  Ba  Ba9  1  0.63383400  0.63383400  0.00000000  1
  Ba  Ba10  1  0.00000000  0.36616600  0.00000000  1
  Ba  Ba11  1  0.36616600  0.00000000  0.00000000  1
  Ba  Ba12  1  0.67095400  0.67095400  0.50000000  1
  Ba  Ba13  1  0.00000000  0.32904600  0.50000000  1
  Ba  Ba14  1  0.32904600  0.00000000  0.50000000  1
  Pt  Pt15  1  0.33333300  0.66666700  0.09825400  1
  Pt  Pt16  1  0.66666700  0.33333300  0.90174600  1
  Pt  Pt17  1  0.33333300  0.66666700  0.40785000  1
  Pt  Pt18  1  0.66666700  0.33333300  0.59215000  1
  Pt  Pt19  1  0.00000000  0.00000000  0.34540700  1
  Pt  Pt20  1  0.00000000  0.00000000  0.65459300  1
  O  O21  1  0.14814200  0.14814200  0.50000000  1
  O  O22  1  0.00000000  0.85185800  0.50000000  1
  O  O23  1  0.85185800  0.00000000  0.50000000  1
  O  O24  1  0.17601000  0.68253600  0.53277300  1
  O  O25  1  0.31746400  0.49347400  0.53277300  1
  O  O26  1  0.50652600  0.82399000  0.53277300  1
  O  O27  1  0.49347400  0.31746400  0.46722700  1
  O  O28  1  0.82399000  0.50652600  0.46722700  1
  O  O29  1  0.68253600  0.17601000  0.46722700  1
  O  O30  1  0.52202100  0.17251100  0.74697000  1
  O  O31  1  0.82748900  0.34950900  0.74697000  1
  O  O32  1  0.65049100  0.47797900  0.74697000  1
  O  O33  1  0.34950900  0.82748900  0.25303000  1
  O  O34  1  0.47797900  0.65049100  0.25303000  1
  O  O35  1  0.17251100  0.52202100  0.25303000  1
  O  O36  1  0.00618500  0.17396900  0.77890300  1
  O  O37  1  0.82603100  0.83221600  0.77890300  1
  O  O38  1  0.16778400  0.99381500  0.77890300  1
  O  O39  1  0.83221600  0.82603100  0.22109700  1
  O  O40  1  0.99381500  0.16778400  0.22109700  1
  O  O41  1  0.17396900  0.00618500  0.22109700  1
  O  O42  1  0.82537700  0.50993500  0.02696900  1
  O  O43  1  0.49006500  0.31544200  0.02696900  1
  O  O44  1  0.68455800  0.17462300  0.02696900  1
  O  O45  1  0.31544200  0.49006500  0.97303100  1
  O  O46  1  0.17462300  0.68455800  0.97303100  1
  O  O47  1  0.50993500  0.82537700  0.97303100  1
