# generated using pymatgen
data_LuNi2
_symmetry_space_group_name_H-M   'P 1'
_cell_length_a   4.98908665
_cell_length_b   4.98908665
_cell_length_c   4.98908665
_cell_angle_alpha   60.00000000
_cell_angle_beta   60.00000000
_cell_angle_gamma   60.00000000
_symmetry_Int_Tables_number   1
_chemical_formula_structural   LuNi2
_chemical_formula_sum   'Lu2 Ni4'
_cell_volume   87.81084204
_cell_formula_units_Z   2
loop_
 _symmetry_equiv_pos_site_id
 _symmetry_equiv_pos_as_xyz
  1  'x, y, z'
loop_
 _atom_site_type_symbol
 _atom_site_label
 _atom_site_symmetry_multiplicity
 _atom_site_fract_x
 _atom_site_fract_y
 _atom_site_fract_z
 _atom_site_occupancy
  Lu  Lu0  1  0.75000000  0.75000000  0.75000000  1
  Lu  Lu1  1  0.50000000  0.50000000  0.50000000  1
  Ni  Ni2  1  0.12500000  0.12500000  0.12500000  1
  Ni  Ni3  1  0.62500000  0.12500000  0.12500000  1
  Ni  Ni4  1  0.12500000  0.62500000  0.12500000  1
  Ni  Ni5  1  0.12500000  0.12500000  0.62500000  1
