# generated using pymatgen
data_Cs(BH)6
_symmetry_space_group_name_H-M   'P 1'
_cell_length_a   8.07446223
_cell_length_b   8.07446223
_cell_length_c   8.07446223
_cell_angle_alpha   60.00000000
_cell_angle_beta   60.00000000
_cell_angle_gamma   60.00000000
_symmetry_Int_Tables_number   1
_chemical_formula_structural   Cs(BH)6
_chemical_formula_sum   'Cs2 B12 H12'
_cell_volume   372.24238740
_cell_formula_units_Z   2
loop_
 _symmetry_equiv_pos_site_id
 _symmetry_equiv_pos_as_xyz
  1  'x, y, z'
loop_
 _atom_site_type_symbol
 _atom_site_label
 _atom_site_symmetry_multiplicity
 _atom_site_fract_x
 _atom_site_fract_y
 _atom_site_fract_z
 _atom_site_occupancy
  Cs  Cs0  1  0.75000000  0.75000000  0.75000000  1
  Cs  Cs1  1  0.25000000  0.25000000  0.25000000  1
  B  B2  1  0.95166500  0.79602900  0.04833500  1
  B  B3  1  0.79602900  0.95166500  0.20397100  1
  B  B4  1  0.79602900  0.20397100  0.04833500  1
  B  B5  1  0.79602900  0.04833500  0.95166500  1
  B  B6  1  0.20397100  0.79602900  0.95166500  1
  B  B7  1  0.04833500  0.95166500  0.79602900  1
  B  B8  1  0.04833500  0.79602900  0.20397100  1
  B  B9  1  0.20397100  0.95166500  0.04833500  1
  B  B10  1  0.95166500  0.04833500  0.20397100  1
  B  B11  1  0.04833500  0.20397100  0.95166500  1
  B  B12  1  0.20397100  0.04833500  0.79602900  1
  B  B13  1  0.95166500  0.20397100  0.79602900  1
  H  H14  1  0.65099800  0.91641500  0.34900200  1
  H  H15  1  0.91641500  0.65099800  0.08358500  1
  H  H16  1  0.65099800  0.34900200  0.08358500  1
  H  H17  1  0.65099800  0.08358500  0.91641500  1
  H  H18  1  0.34900200  0.65099800  0.91641500  1
  H  H19  1  0.08358500  0.91641500  0.65099800  1
  H  H20  1  0.08358500  0.65099800  0.34900200  1
  H  H21  1  0.34900200  0.91641500  0.08358500  1
  H  H22  1  0.91641500  0.08358500  0.34900200  1
  H  H23  1  0.08358500  0.34900200  0.91641500  1
  H  H24  1  0.34900200  0.08358500  0.65099800  1
  H  H25  1  0.91641500  0.34900200  0.65099800  1
