# generated using pymatgen
data_CsSbS6
_symmetry_space_group_name_H-M   'P 1'
_cell_length_a   15.50597700
_cell_length_b   6.14432400
_cell_length_c   11.56395242
_cell_angle_alpha   72.42621178
_cell_angle_beta   90.00000000
_cell_angle_gamma   90.00000000
_symmetry_Int_Tables_number   1
_chemical_formula_structural   CsSbS6
_chemical_formula_sum   'Cs4 Sb4 S24'
_cell_volume   1050.32160123
_cell_formula_units_Z   4
loop_
 _symmetry_equiv_pos_site_id
 _symmetry_equiv_pos_as_xyz
  1  'x, y, z'
loop_
 _atom_site_type_symbol
 _atom_site_label
 _atom_site_symmetry_multiplicity
 _atom_site_fract_x
 _atom_site_fract_y
 _atom_site_fract_z
 _atom_site_occupancy
  Cs  Cs0  1  0.08462600  0.70075300  0.69314200  1
  Cs  Cs1  1  0.58462600  0.29924700  0.80685800  1
  Cs  Cs2  1  0.91537400  0.29924700  0.30685800  1
  Cs  Cs3  1  0.41537400  0.70075300  0.19314200  1
  Sb  Sb4  1  0.41039100  0.90908100  0.61491300  1
  Sb  Sb5  1  0.91039100  0.09091900  0.88508700  1
  Sb  Sb6  1  0.58960900  0.09091900  0.38508700  1
  Sb  Sb7  1  0.08960900  0.90908100  0.11491300  1
  S  S8  1  0.38220500  0.31907300  0.61889700  1
  S  S9  1  0.88220500  0.68092700  0.88110300  1
  S  S10  1  0.61779500  0.68092700  0.38110300  1
  S  S11  1  0.11779500  0.31907300  0.11889700  1
  S  S12  1  0.28038900  0.26438800  0.73840200  1
  S  S13  1  0.78038900  0.73561200  0.76159800  1
  S  S14  1  0.71961100  0.73561200  0.26159800  1
  S  S15  1  0.21961100  0.26438800  0.23840200  1
  S  S16  1  0.06608500  0.10761800  0.87349600  1
  S  S17  1  0.56608500  0.89238200  0.62650400  1
  S  S18  1  0.93391500  0.89238200  0.12650400  1
  S  S19  1  0.43391500  0.10761800  0.37349600  1
  S  S20  1  0.06928000  0.74815300  0.36173000  1
  S  S21  1  0.56928000  0.25184700  0.13827000  1
  S  S22  1  0.93072000  0.25184700  0.63827000  1
  S  S23  1  0.43072000  0.74815300  0.86173000  1
  S  S24  1  0.18519700  0.58824900  0.41860100  1
  S  S25  1  0.68519700  0.41175100  0.08139900  1
  S  S26  1  0.81480300  0.41175100  0.58139900  1
  S  S27  1  0.31480300  0.58824900  0.91860100  1
  S  S28  1  0.17596700  0.25738700  0.40928700  1
  S  S29  1  0.67596700  0.74261300  0.09071300  1
  S  S30  1  0.82403300  0.74261300  0.59071300  1
  S  S31  1  0.32403300  0.25738700  0.90928700  1
