# generated using pymatgen
data_Ge2Pt3
_symmetry_space_group_name_H-M   'P 1'
_cell_length_a   6.99753100
_cell_length_b   7.65188900
_cell_length_c   12.40575800
_cell_angle_alpha   90.00000000
_cell_angle_beta   90.00000000
_cell_angle_gamma   90.00000000
_symmetry_Int_Tables_number   1
_chemical_formula_structural   Ge2Pt3
_chemical_formula_sum   'Ge16 Pt24'
_cell_volume   664.25800628
_cell_formula_units_Z   8
loop_
 _symmetry_equiv_pos_site_id
 _symmetry_equiv_pos_as_xyz
  1  'x, y, z'
loop_
 _atom_site_type_symbol
 _atom_site_label
 _atom_site_symmetry_multiplicity
 _atom_site_fract_x
 _atom_site_fract_y
 _atom_site_fract_z
 _atom_site_occupancy
  Ge  Ge0  1  0.87274700  0.75000000  0.00601300  1
  Ge  Ge1  1  0.37274700  0.25000000  0.49398700  1
  Ge  Ge2  1  0.12725300  0.25000000  0.99398700  1
  Ge  Ge3  1  0.62725300  0.75000000  0.50601300  1
  Ge  Ge4  1  0.37866600  0.75000000  0.00967800  1
  Ge  Ge5  1  0.87866600  0.25000000  0.49032200  1
  Ge  Ge6  1  0.62133400  0.25000000  0.99032200  1
  Ge  Ge7  1  0.12133400  0.75000000  0.50967800  1
  Ge  Ge8  1  0.62549400  0.47291500  0.25439700  1
  Ge  Ge9  1  0.12549400  0.52708500  0.24560300  1
  Ge  Ge10  1  0.37450600  0.97291500  0.74560300  1
  Ge  Ge11  1  0.87450600  0.02708500  0.75439700  1
  Ge  Ge12  1  0.37450600  0.52708500  0.74560300  1
  Ge  Ge13  1  0.87450600  0.47291500  0.75439700  1
  Ge  Ge14  1  0.62549400  0.02708500  0.25439700  1
  Ge  Ge15  1  0.12549400  0.97291500  0.24560300  1
  Pt  Pt16  1  0.84531500  0.75000000  0.21598700  1
  Pt  Pt17  1  0.34531500  0.25000000  0.28401300  1
  Pt  Pt18  1  0.15468500  0.25000000  0.78401300  1
  Pt  Pt19  1  0.65468500  0.75000000  0.71598700  1
  Pt  Pt20  1  0.40905500  0.75000000  0.21794800  1
  Pt  Pt21  1  0.90905500  0.25000000  0.28205200  1
  Pt  Pt22  1  0.59094500  0.25000000  0.78205200  1
  Pt  Pt23  1  0.09094500  0.75000000  0.71794800  1
  Pt  Pt24  1  0.87161400  0.05931700  0.08826600  1
  Pt  Pt25  1  0.37161400  0.94068300  0.41173400  1
  Pt  Pt26  1  0.12838600  0.55931700  0.91173400  1
  Pt  Pt27  1  0.62838600  0.44068300  0.58826600  1
  Pt  Pt28  1  0.12838600  0.94068300  0.91173400  1
  Pt  Pt29  1  0.62838600  0.05931700  0.58826600  1
  Pt  Pt30  1  0.87161400  0.44068300  0.08826600  1
  Pt  Pt31  1  0.37161400  0.55931700  0.41173400  1
  Pt  Pt32  1  0.37713600  0.05861400  0.09102500  1
  Pt  Pt33  1  0.87713600  0.94138600  0.40897500  1
  Pt  Pt34  1  0.62286400  0.55861400  0.90897500  1
  Pt  Pt35  1  0.12286400  0.44138600  0.59102500  1
  Pt  Pt36  1  0.62286400  0.94138600  0.90897500  1
  Pt  Pt37  1  0.12286400  0.05861400  0.59102500  1
  Pt  Pt38  1  0.37713600  0.44138600  0.09102500  1
  Pt  Pt39  1  0.87713600  0.55861400  0.40897500  1
