# generated using pymatgen
data_AlSiH9C3Cl2O
_symmetry_space_group_name_H-M   'P 1'
_cell_length_a   9.42965000
_cell_length_b   7.07420600
_cell_length_c   15.68046600
_cell_angle_alpha   75.33147965
_cell_angle_beta   90.00000000
_cell_angle_gamma   90.00000000
_symmetry_Int_Tables_number   1
_chemical_formula_structural   AlSiH9C3Cl2O
_chemical_formula_sum   'Al4 Si4 H36 C12 Cl8 O4'
_cell_volume   1011.90904652
_cell_formula_units_Z   4
loop_
 _symmetry_equiv_pos_site_id
 _symmetry_equiv_pos_as_xyz
  1  'x, y, z'
loop_
 _atom_site_type_symbol
 _atom_site_label
 _atom_site_symmetry_multiplicity
 _atom_site_fract_x
 _atom_site_fract_y
 _atom_site_fract_z
 _atom_site_occupancy
  Al  Al0  1  0.43049800  0.96650300  0.43014000  1
  Al  Al1  1  0.06950200  0.96650300  0.93014000  1
  Al  Al2  1  0.56950200  0.03349700  0.56986000  1
  Al  Al3  1  0.93049800  0.03349700  0.06986000  1
  Si  Si4  1  0.26633300  0.80976200  0.61829700  1
  Si  Si5  1  0.76633300  0.19023800  0.88170300  1
  Si  Si6  1  0.23366700  0.80976200  0.11829700  1
  Si  Si7  1  0.73366700  0.19023800  0.38170300  1
  H  H8  1  0.08386400  0.57117800  0.60385500  1
  H  H9  1  0.58386400  0.42882200  0.89614500  1
  H  H10  1  0.91613600  0.42882200  0.39614500  1
  H  H11  1  0.41613600  0.57117800  0.10385500  1
  H  H12  1  0.14078800  0.70361500  0.49794300  1
  H  H13  1  0.64078800  0.29638500  0.00205700  1
  H  H14  1  0.85921200  0.29638500  0.50205700  1
  H  H15  1  0.35921200  0.70361500  0.99794300  1
  H  H16  1  0.24828000  0.51152600  0.56141200  1
  H  H17  1  0.74828000  0.48847400  0.93858800  1
  H  H18  1  0.75172000  0.48847400  0.43858800  1
  H  H19  1  0.25172000  0.51152600  0.06141200  1
  H  H20  1  0.26609400  0.61510900  0.77294500  1
  H  H21  1  0.61381100  0.90077400  0.94202300  1
  H  H22  1  0.88618900  0.90077400  0.44202300  1
  H  H23  1  0.38618900  0.09922600  0.05797700  1
  H  H24  1  0.05068400  0.95898400  0.66171900  1
  H  H25  1  0.11381100  0.09922600  0.55797700  1
  H  H26  1  0.94931600  0.04101600  0.33828100  1
  H  H27  1  0.44931600  0.95898400  0.16171900  1
  H  H28  1  0.19856900  0.11729300  0.65732500  1
  H  H29  1  0.69856900  0.88270700  0.84267500  1
  H  H30  1  0.80143100  0.88270700  0.34267500  1
  H  H31  1  0.30143100  0.11729300  0.15732500  1
  H  H32  1  0.10091900  0.79730200  0.25697600  1
  H  H33  1  0.60091900  0.20269800  0.24302400  1
  H  H34  1  0.89908100  0.20269800  0.74302400  1
  H  H35  1  0.39908100  0.79730200  0.75697600  1
  H  H36  1  0.07219900  0.58108300  0.22021400  1
  H  H37  1  0.57219900  0.41891700  0.27978600  1
  H  H38  1  0.92780100  0.41891700  0.77978600  1
  H  H39  1  0.42780100  0.58108300  0.72021400  1
  H  H40  1  0.23390600  0.61510900  0.27294500  1
  H  H41  1  0.73390600  0.38489100  0.22705500  1
  H  H42  1  0.76609400  0.38489100  0.72705500  1
  H  H43  1  0.55068400  0.04101600  0.83828100  1
  C  C44  1  0.35328200  0.01631400  0.12415900  1
  C  C45  1  0.85328200  0.98368600  0.37584100  1
  C  C46  1  0.64671800  0.98368600  0.87584100  1
  C  C47  1  0.14671800  0.01631400  0.62415900  1
  C  C48  1  0.34829400  0.68998900  0.72684500  1
  C  C49  1  0.84829400  0.31001100  0.77315500  1
  C  C50  1  0.65170600  0.31001100  0.27315500  1
  C  C51  1  0.15170600  0.68998900  0.22684500  1
  C  C52  1  0.17780000  0.63293300  0.56501300  1
  C  C53  1  0.67780000  0.36706700  0.93498700  1
  C  C54  1  0.82220000  0.36706700  0.43498700  1
  C  C55  1  0.32220000  0.63293300  0.06501300  1
  Cl  Cl56  1  0.26897900  0.15268700  0.36222500  1
  Cl  Cl57  1  0.76897900  0.84731300  0.13777500  1
  Cl  Cl58  1  0.73102100  0.84731300  0.63777500  1
  Cl  Cl59  1  0.23102100  0.15268700  0.86222500  1
  Cl  Cl60  1  0.47463400  0.72235100  0.37964300  1
  Cl  Cl61  1  0.97463400  0.27764900  0.12035700  1
  Cl  Cl62  1  0.52536600  0.27764900  0.62035700  1
  Cl  Cl63  1  0.02536600  0.72235100  0.87964300  1
  O  O64  1  0.59282200  0.09039400  0.45026000  1
  O  O65  1  0.40717800  0.90960600  0.54974000  1
  O  O66  1  0.90717800  0.09039400  0.95026000  1
  O  O67  1  0.09282200  0.90960600  0.04974000  1
