# generated using pymatgen
data_CrHgH18N6Cl5
_symmetry_space_group_name_H-M   'P 1'
_cell_length_a   16.30488292
_cell_length_b   16.30488295
_cell_length_c   16.30488279
_cell_angle_alpha   60.00000034
_cell_angle_beta   60.00000028
_cell_angle_gamma   60.00000149
_symmetry_Int_Tables_number   1
_chemical_formula_structural   CrHgH18N6Cl5
_chemical_formula_sum   'Cr8 Hg8 H144 N48 Cl40'
_cell_volume   3065.05350452
_cell_formula_units_Z   8
loop_
 _symmetry_equiv_pos_site_id
 _symmetry_equiv_pos_as_xyz
  1  'x, y, z'
loop_
 _atom_site_type_symbol
 _atom_site_label
 _atom_site_symmetry_multiplicity
 _atom_site_fract_x
 _atom_site_fract_y
 _atom_site_fract_z
 _atom_site_occupancy
  H  H0  1  0.99743314  0.92735933  0.18708982  1
  H  H1  1  0.57264067  0.31291018  0.11188229  1
  H  H2  1  0.11188229  0.50256686  0.57264067  1
  H  H3  1  0.57264067  0.11188229  0.50256686  1
  H  H4  1  0.31291018  0.50256686  0.11188229  1
  H  H5  1  0.31291018  0.11188229  0.57264067  1
  H  H6  1  0.11188229  0.31291018  0.50256686  1
  H  H7  1  0.18708982  0.99743314  0.92735933  1
  H  H8  1  0.92735933  0.18708982  0.99743314  1
  H  H9  1  0.38811771  0.99743314  0.18708982  1
  H  H10  1  0.92735933  0.38811771  0.18708982  1
  H  H11  1  0.38811771  0.92735933  0.99743314  1
  H  H12  1  0.18708982  0.92735933  0.38811771  1
  H  H13  1  0.99743314  0.18708982  0.38811771  1
  H  H14  1  0.99743314  0.38811771  0.92735933  1
  H  H15  1  0.11188229  0.57264067  0.31291018  1
  H  H16  1  0.50256686  0.11188229  0.31291018  1
  H  H17  1  0.50256686  0.57264067  0.11188229  1
  H  H18  1  0.57264067  0.50256686  0.31291018  1
  H  H19  1  0.31291018  0.57264067  0.50256686  1
  H  H20  1  0.50256686  0.31291018  0.57264067  1
  H  H21  1  0.18708982  0.38811771  0.99743314  1
  H  H22  1  0.38811771  0.18708982  0.92735933  1
  H  H23  1  0.92735933  0.99743314  0.38811771  1
  H  H24  1  0.00256686  0.07264067  0.81291018  1
  H  H25  1  0.42735933  0.68708982  0.88811771  1
  H  H26  1  0.88811771  0.49743314  0.42735933  1
  H  H27  1  0.42735933  0.88811771  0.49743314  1
  H  H28  1  0.68708982  0.49743314  0.88811771  1
  H  H29  1  0.68708982  0.88811771  0.42735933  1
  H  H30  1  0.88811771  0.68708982  0.49743314  1
  H  H31  1  0.81291018  0.00256686  0.07264067  1
  H  H32  1  0.07264067  0.81291018  0.00256686  1
  H  H33  1  0.61188229  0.00256686  0.81291018  1
  H  H34  1  0.07264067  0.61188229  0.81291018  1
  H  H35  1  0.61188229  0.07264067  0.00256686  1
  H  H36  1  0.81291018  0.07264067  0.61188229  1
  H  H37  1  0.00256686  0.81291018  0.61188229  1
  H  H38  1  0.00256686  0.61188229  0.07264067  1
  H  H39  1  0.88811771  0.42735933  0.68708982  1
  H  H40  1  0.49743314  0.88811771  0.68708982  1
  H  H41  1  0.49743314  0.42735933  0.88811771  1
  H  H42  1  0.42735933  0.49743314  0.68708982  1
  H  H43  1  0.68708982  0.42735933  0.49743314  1
  H  H44  1  0.49743314  0.68708982  0.42735933  1
  H  H45  1  0.81291018  0.61188229  0.00256686  1
  H  H46  1  0.61188229  0.81291018  0.07264067  1
  H  H47  1  0.07264067  0.00256686  0.61188229  1
  H  H48  1  0.88071785  0.97921437  0.18889727  1
  H  H49  1  0.52078563  0.31110273  0.04882949  1
  H  H50  1  0.04882949  0.61928215  0.52078563  1
  H  H51  1  0.52078563  0.04882949  0.61928215  1
  H  H52  1  0.31110273  0.61928215  0.04882949  1
  H  H53  1  0.31110273  0.04882949  0.52078563  1
  H  H54  1  0.04882949  0.31110273  0.61928215  1
  H  H55  1  0.18889727  0.88071785  0.97921437  1
  H  H56  1  0.97921437  0.18889727  0.88071785  1
  H  H57  1  0.45117051  0.88071785  0.18889727  1
  H  H58  1  0.97921437  0.45117051  0.18889727  1
  H  H59  1  0.45117051  0.97921437  0.88071785  1
  H  H60  1  0.18889727  0.97921437  0.45117051  1
  H  H61  1  0.88071785  0.18889727  0.45117051  1
  H  H62  1  0.88071785  0.45117051  0.97921437  1
  H  H63  1  0.04882949  0.52078563  0.31110273  1
  H  H64  1  0.61928215  0.04882949  0.31110273  1
  H  H65  1  0.61928215  0.52078563  0.04882949  1
  H  H66  1  0.52078563  0.61928215  0.31110273  1
  H  H67  1  0.31110273  0.52078563  0.61928215  1
  H  H68  1  0.61928215  0.31110273  0.52078563  1
  H  H69  1  0.18889727  0.45117051  0.88071785  1
  H  H70  1  0.45117051  0.18889727  0.97921437  1
  H  H71  1  0.97921437  0.88071785  0.45117051  1
  H  H72  1  0.11928215  0.02078563  0.81110273  1
  H  H73  1  0.47921437  0.68889727  0.95117051  1
  H  H74  1  0.95117051  0.38071785  0.47921437  1
  H  H75  1  0.47921437  0.95117051  0.38071785  1
  H  H76  1  0.68889727  0.38071785  0.95117051  1
  H  H77  1  0.68889727  0.95117051  0.47921437  1
  H  H78  1  0.95117051  0.68889727  0.38071785  1
  H  H79  1  0.81110273  0.11928215  0.02078563  1
  H  H80  1  0.02078563  0.81110273  0.11928215  1
  H  H81  1  0.54882949  0.11928215  0.81110273  1
  H  H82  1  0.02078563  0.54882949  0.81110273  1
  H  H83  1  0.54882949  0.02078563  0.11928215  1
  H  H84  1  0.81110273  0.02078563  0.54882949  1
  H  H85  1  0.11928215  0.81110273  0.54882949  1
  H  H86  1  0.11928215  0.54882949  0.02078563  1
  H  H87  1  0.95117051  0.47921437  0.68889727  1
  H  H88  1  0.38071785  0.95117051  0.68889727  1
  H  H89  1  0.38071785  0.47921437  0.95117051  1
  H  H90  1  0.47921437  0.38071785  0.68889727  1
  H  H91  1  0.68889727  0.47921437  0.38071785  1
  H  H92  1  0.38071785  0.68889727  0.47921437  1
  H  H93  1  0.81110273  0.54882949  0.11928215  1
  H  H94  1  0.54882949  0.81110273  0.02078563  1
  H  H95  1  0.02078563  0.11928215  0.54882949  1
  H  H96  1  0.94311571  0.05116442  0.15946544  1
  H  H97  1  0.44883558  0.34053456  0.15374557  1
  H  H98  1  0.15374557  0.55688429  0.44883558  1
  H  H99  1  0.44883558  0.15374557  0.55688429  1
  H  H100  1  0.34053456  0.55688429  0.15374557  1
  H  H101  1  0.34053456  0.15374557  0.44883558  1
  H  H102  1  0.15374557  0.34053456  0.55688429  1
  H  H103  1  0.15946544  0.94311571  0.05116442  1
  H  H104  1  0.05116442  0.15946544  0.94311571  1
  H  H105  1  0.34625443  0.94311571  0.15946544  1
  H  H106  1  0.05116442  0.34625443  0.15946544  1
  H  H107  1  0.34625443  0.05116442  0.94311571  1
  H  H108  1  0.15946544  0.05116442  0.34625443  1
  H  H109  1  0.94311571  0.15946544  0.34625443  1
  H  H110  1  0.94311571  0.34625443  0.05116442  1
  H  H111  1  0.15374557  0.44883558  0.34053456  1
  H  H112  1  0.55688429  0.15374557  0.34053456  1
  H  H113  1  0.55688429  0.44883558  0.15374557  1
  H  H114  1  0.44883558  0.55688429  0.34053456  1
  H  H115  1  0.34053456  0.44883558  0.55688429  1
  H  H116  1  0.55688429  0.34053456  0.44883558  1
  H  H117  1  0.15946544  0.34625443  0.94311571  1
  H  H118  1  0.34625443  0.15946544  0.05116442  1
  H  H119  1  0.05116442  0.94311571  0.34625443  1
  H  H120  1  0.05688429  0.94883558  0.84053456  1
  H  H121  1  0.55116442  0.65946544  0.84625443  1
  H  H122  1  0.84625443  0.44311571  0.55116442  1
  H  H123  1  0.55116442  0.84625443  0.44311571  1
  H  H124  1  0.65946544  0.44311571  0.84625443  1
  H  H125  1  0.65946544  0.84625443  0.55116442  1
  H  H126  1  0.84625443  0.65946544  0.44311571  1
  H  H127  1  0.84053456  0.05688429  0.94883558  1
  H  H128  1  0.94883558  0.84053456  0.05688429  1
  H  H129  1  0.65374557  0.05688429  0.84053456  1
  H  H130  1  0.94883558  0.65374557  0.84053456  1
  H  H131  1  0.65374557  0.94883558  0.05688429  1
  H  H132  1  0.84053456  0.94883558  0.65374557  1
  H  H133  1  0.05688429  0.84053456  0.65374557  1
  H  H134  1  0.05688429  0.65374557  0.94883558  1
  H  H135  1  0.84625443  0.55116442  0.65946544  1
  H  H136  1  0.44311571  0.84625443  0.65946544  1
  H  H137  1  0.44311571  0.55116442  0.84625443  1
  H  H138  1  0.55116442  0.44311571  0.65946544  1
  H  H139  1  0.65946544  0.55116442  0.44311571  1
  H  H140  1  0.44311571  0.65946544  0.55116442  1
  H  H141  1  0.84053456  0.65374557  0.05688429  1
  H  H142  1  0.65374557  0.84053456  0.94883558  1
  H  H143  1  0.94883558  0.05688429  0.65374557  1
  N  N144  1  0.94971345  0.98975667  0.15025902  1
  N  N145  1  0.51024333  0.34974098  0.08972914  1
  N  N146  1  0.08972914  0.55028655  0.51024333  1
  N  N147  1  0.51024333  0.08972914  0.55028655  1
  N  N148  1  0.34974098  0.55028655  0.08972914  1
  N  N149  1  0.34974098  0.08972914  0.51024333  1
  N  N150  1  0.08972914  0.34974098  0.55028655  1
  N  N151  1  0.15025902  0.94971345  0.98975667  1
  N  N152  1  0.98975667  0.15025902  0.94971345  1
  N  N153  1  0.41027086  0.94971345  0.15025902  1
  N  N154  1  0.98975667  0.41027086  0.15025902  1
  N  N155  1  0.41027086  0.98975667  0.94971345  1
  N  N156  1  0.15025902  0.98975667  0.41027086  1
  N  N157  1  0.94971345  0.15025902  0.41027086  1
  N  N158  1  0.94971345  0.41027086  0.98975667  1
  N  N159  1  0.08972914  0.51024333  0.34974098  1
  N  N160  1  0.55028655  0.08972914  0.34974098  1
  N  N161  1  0.55028655  0.51024333  0.08972914  1
  N  N162  1  0.51024333  0.55028655  0.34974098  1
  N  N163  1  0.34974098  0.51024333  0.55028655  1
  N  N164  1  0.55028655  0.34974098  0.51024333  1
  N  N165  1  0.15025902  0.41027086  0.94971345  1
  N  N166  1  0.41027086  0.15025902  0.98975667  1
  N  N167  1  0.98975667  0.94971345  0.41027086  1
  N  N168  1  0.05028655  0.01024333  0.84974098  1
  N  N169  1  0.48975667  0.65025902  0.91027086  1
  N  N170  1  0.91027086  0.44971345  0.48975667  1
  N  N171  1  0.48975667  0.91027086  0.44971345  1
  N  N172  1  0.65025902  0.44971345  0.91027086  1
  N  N173  1  0.65025902  0.91027086  0.48975667  1
  N  N174  1  0.91027086  0.65025902  0.44971345  1
  N  N175  1  0.84974098  0.05028655  0.01024333  1
  N  N176  1  0.01024333  0.84974098  0.05028655  1
  N  N177  1  0.58972914  0.05028655  0.84974098  1
  N  N178  1  0.01024333  0.58972914  0.84974098  1
  N  N179  1  0.58972914  0.01024333  0.05028655  1
  N  N180  1  0.84974098  0.01024333  0.58972914  1
  N  N181  1  0.05028655  0.84974098  0.58972914  1
  N  N182  1  0.05028655  0.58972914  0.01024333  1
  N  N183  1  0.91027086  0.48975667  0.65025902  1
  N  N184  1  0.44971345  0.91027086  0.65025902  1
  N  N185  1  0.44971345  0.48975667  0.91027086  1
  N  N186  1  0.48975667  0.44971345  0.65025902  1
  N  N187  1  0.65025902  0.48975667  0.44971345  1
  N  N188  1  0.44971345  0.65025902  0.48975667  1
  N  N189  1  0.84974098  0.58972914  0.05028655  1
  N  N190  1  0.58972914  0.84974098  0.01024333  1
  N  N191  1  0.01024333  0.05028655  0.58972914  1
  Cl  Cl192  1  0.18698184  0.18698184  0.18698184  1
  Cl  Cl193  1  0.31301816  0.31301816  0.56094551  1
  Cl  Cl194  1  0.56094551  0.31301816  0.31301816  1
  Cl  Cl195  1  0.31301816  0.56094551  0.31301816  1
  Cl  Cl196  1  0.93905449  0.18698184  0.18698184  1
  Cl  Cl197  1  0.18698184  0.93905449  0.18698184  1
  Cl  Cl198  1  0.18698184  0.18698184  0.93905449  1
  Cl  Cl199  1  0.31301816  0.31301816  0.31301816  1
  Cl  Cl200  1  0.81301816  0.81301816  0.81301816  1
  Cl  Cl201  1  0.68698184  0.68698184  0.43905449  1
  Cl  Cl202  1  0.43905449  0.68698184  0.68698184  1
  Cl  Cl203  1  0.68698184  0.43905449  0.68698184  1
  Cl  Cl204  1  0.06094551  0.81301816  0.81301816  1
  Cl  Cl205  1  0.81301816  0.06094551  0.81301816  1
  Cl  Cl206  1  0.81301816  0.81301816  0.06094551  1
  Cl  Cl207  1  0.68698184  0.68698184  0.68698184  1
  Cl  Cl208  1  0.25000000  0.41938322  0.08061678  1
  Cl  Cl209  1  0.08061678  0.41938322  0.75000000  1
  Cl  Cl210  1  0.75000000  0.25000000  0.08061678  1
  Cl  Cl211  1  0.08061678  0.75000000  0.25000000  1
  Cl  Cl212  1  0.41938322  0.25000000  0.75000000  1
  Cl  Cl213  1  0.41938322  0.75000000  0.08061678  1
  Cl  Cl214  1  0.75000000  0.41938322  0.25000000  1
  Cl  Cl215  1  0.08061678  0.25000000  0.41938322  1
  Cl  Cl216  1  0.41938322  0.08061678  0.25000000  1
  Cl  Cl217  1  0.25000000  0.08061678  0.75000000  1
  Cl  Cl218  1  0.25000000  0.75000000  0.41938322  1
  Cl  Cl219  1  0.75000000  0.08061678  0.41938322  1
  Cl  Cl220  1  0.75000000  0.58061678  0.91938322  1
  Cl  Cl221  1  0.91938322  0.58061678  0.25000000  1
  Cl  Cl222  1  0.25000000  0.75000000  0.91938322  1
  Cl  Cl223  1  0.91938322  0.25000000  0.75000000  1
  Cl  Cl224  1  0.58061678  0.75000000  0.25000000  1
  Cl  Cl225  1  0.58061678  0.25000000  0.91938322  1
  Cl  Cl226  1  0.25000000  0.58061678  0.75000000  1
  Cl  Cl227  1  0.91938322  0.75000000  0.58061678  1
  Cl  Cl228  1  0.58061678  0.91938322  0.75000000  1
  Cl  Cl229  1  0.75000000  0.91938322  0.25000000  1
  Cl  Cl230  1  0.75000000  0.25000000  0.58061678  1
  Cl  Cl231  1  0.25000000  0.91938322  0.58061678  1
  Cr  Cr232  1  0.00000000  0.00000000  0.00000000  1
  Cr  Cr233  1  0.50000000  0.50000000  0.00000000  1
  Cr  Cr234  1  0.00000000  0.50000000  0.50000000  1
  Cr  Cr235  1  0.50000000  0.00000000  0.50000000  1
  Cr  Cr236  1  0.50000000  0.00000000  0.00000000  1
  Cr  Cr237  1  0.00000000  0.50000000  0.00000000  1
  Cr  Cr238  1  0.00000000  0.00000000  0.50000000  1
  Cr  Cr239  1  0.50000000  0.50000000  0.50000000  1
  Hg  Hg240  1  0.25000000  0.25000000  0.25000000  1
  Hg  Hg241  1  0.25000000  0.25000000  0.75000000  1
  Hg  Hg242  1  0.75000000  0.25000000  0.25000000  1
  Hg  Hg243  1  0.25000000  0.75000000  0.25000000  1
  Hg  Hg244  1  0.75000000  0.75000000  0.75000000  1
  Hg  Hg245  1  0.75000000  0.75000000  0.25000000  1
  Hg  Hg246  1  0.25000000  0.75000000  0.75000000  1
  Hg  Hg247  1  0.75000000  0.25000000  0.75000000  1
