# generated using pymatgen
data_YbGeRh
_symmetry_space_group_name_H-M   'P 1'
_cell_length_a   4.39886700
_cell_length_b   7.10170000
_cell_length_c   7.20237800
_cell_angle_alpha   90.00000000
_cell_angle_beta   90.00000000
_cell_angle_gamma   90.00000000
_symmetry_Int_Tables_number   1
_chemical_formula_structural   YbGeRh
_chemical_formula_sum   'Yb4 Ge4 Rh4'
_cell_volume   224.99821055
_cell_formula_units_Z   4
loop_
 _symmetry_equiv_pos_site_id
 _symmetry_equiv_pos_as_xyz
  1  'x, y, z'
loop_
 _atom_site_type_symbol
 _atom_site_label
 _atom_site_symmetry_multiplicity
 _atom_site_fract_x
 _atom_site_fract_y
 _atom_site_fract_z
 _atom_site_occupancy
  Yb  Yb0  1  0.75000000  0.18710600  0.50880700  1
  Yb  Yb1  1  0.25000000  0.81289400  0.49119300  1
  Yb  Yb2  1  0.75000000  0.31289400  0.00880700  1
  Yb  Yb3  1  0.25000000  0.68710600  0.99119300  1
  Ge  Ge4  1  0.75000000  0.89275300  0.20009400  1
  Ge  Ge5  1  0.25000000  0.10724700  0.79990600  1
  Ge  Ge6  1  0.75000000  0.60724700  0.70009400  1
  Ge  Ge7  1  0.25000000  0.39275300  0.29990600  1
  Rh  Rh8  1  0.25000000  0.06952300  0.14666500  1
  Rh  Rh9  1  0.75000000  0.93047700  0.85333500  1
  Rh  Rh10  1  0.25000000  0.43047700  0.64666500  1
  Rh  Rh11  1  0.75000000  0.56952300  0.35333500  1
