# generated using pymatgen
data_Sb2TeF14
_symmetry_space_group_name_H-M   'P 1'
_cell_length_a   14.56543100
_cell_length_b   7.61106400
_cell_length_c   10.00291683
_cell_angle_alpha   88.49473904
_cell_angle_beta   90.00000000
_cell_angle_gamma   90.00000000
_symmetry_Int_Tables_number   1
_chemical_formula_structural   Sb2TeF14
_chemical_formula_sum   'Sb8 Te4 F56'
_cell_volume   1108.52496603
_cell_formula_units_Z   4
loop_
 _symmetry_equiv_pos_site_id
 _symmetry_equiv_pos_as_xyz
  1  'x, y, z'
loop_
 _atom_site_type_symbol
 _atom_site_label
 _atom_site_symmetry_multiplicity
 _atom_site_fract_x
 _atom_site_fract_y
 _atom_site_fract_z
 _atom_site_occupancy
  Sb  Sb0  1  0.10826300  0.66621700  0.26944100  1
  Sb  Sb1  1  0.60826300  0.33378300  0.23055900  1
  Sb  Sb2  1  0.89173700  0.33378300  0.73055900  1
  Sb  Sb3  1  0.39173700  0.66621700  0.76944100  1
  Sb  Sb4  1  0.94428900  0.09732500  0.24141300  1
  Sb  Sb5  1  0.44428900  0.90267500  0.25858700  1
  Sb  Sb6  1  0.05571100  0.90267500  0.75858700  1
  Sb  Sb7  1  0.55571100  0.09732500  0.74141300  1
  Te  Te8  1  0.73033300  0.78305800  0.02616100  1
  Te  Te9  1  0.23033300  0.21694200  0.47383900  1
  Te  Te10  1  0.26966700  0.21694200  0.97383900  1
  Te  Te11  1  0.76966700  0.78305800  0.52616100  1
  F  F12  1  0.02293800  0.52932500  0.17586400  1
  F  F13  1  0.52293800  0.47067500  0.32413600  1
  F  F14  1  0.97706200  0.47067500  0.82413600  1
  F  F15  1  0.47706200  0.52932500  0.67586400  1
  F  F16  1  0.18387100  0.83152200  0.35775100  1
  F  F17  1  0.68387100  0.16847800  0.14224900  1
  F  F18  1  0.81612900  0.16847800  0.64224900  1
  F  F19  1  0.31612900  0.83152200  0.85775100  1
  F  F20  1  0.03862000  0.64336500  0.42807300  1
  F  F21  1  0.53862000  0.35663500  0.07192700  1
  F  F22  1  0.96138000  0.35663500  0.57192700  1
  F  F23  1  0.46138000  0.64336500  0.92807300  1
  F  F24  1  0.82817600  0.63244700  0.40873900  1
  F  F25  1  0.32817600  0.36755300  0.09126100  1
  F  F26  1  0.17182400  0.36755300  0.59126100  1
  F  F27  1  0.67182400  0.63244700  0.90873900  1
  F  F28  1  0.71377000  0.89922700  0.37926700  1
  F  F29  1  0.21377000  0.10077300  0.12073300  1
  F  F30  1  0.28623000  0.10077300  0.62073300  1
  F  F31  1  0.78623000  0.89922700  0.87926700  1
  F  F32  1  0.66809600  0.63509200  0.54016300  1
  F  F33  1  0.16809600  0.36490800  0.95983700  1
  F  F34  1  0.33190400  0.36490800  0.45983700  1
  F  F35  1  0.83190400  0.63509200  0.04016300  1
  F  F36  1  0.64917800  0.96495500  0.64882600  1
  F  F37  1  0.14917800  0.03504500  0.85117400  1
  F  F38  1  0.35082200  0.03504500  0.35117400  1
  F  F39  1  0.85082200  0.96495500  0.14882600  1
  F  F40  1  0.59824600  0.98065900  0.90332600  1
  F  F41  1  0.09824600  0.01934100  0.59667400  1
  F  F42  1  0.40175400  0.01934100  0.09667400  1
  F  F43  1  0.90175400  0.98065900  0.40332600  1
  F  F44  1  0.31611400  0.46179800  0.81696000  1
  F  F45  1  0.81611400  0.53820200  0.68304000  1
  F  F46  1  0.68388600  0.53820200  0.18304000  1
  F  F47  1  0.18388600  0.46179800  0.31696000  1
  F  F48  1  0.50599700  0.17288400  0.57609700  1
  F  F49  1  0.00599700  0.82711600  0.92390300  1
  F  F50  1  0.49400300  0.82711600  0.42390300  1
  F  F51  1  0.99400300  0.17288400  0.07609700  1
  F  F52  1  0.45262900  0.18258200  0.83763900  1
  F  F53  1  0.95262900  0.81741800  0.66236100  1
  F  F54  1  0.54737100  0.81741800  0.16236100  1
  F  F55  1  0.04737100  0.18258200  0.33763900  1
  F  F56  1  0.63206400  0.29267500  0.76560300  1
  F  F57  1  0.13206400  0.70732500  0.73439700  1
  F  F58  1  0.36793600  0.70732500  0.23439700  1
  F  F59  1  0.86793600  0.29267500  0.26560300  1
  F  F60  1  0.47683400  0.87711900  0.71670200  1
  F  F61  1  0.97683400  0.12288100  0.78329800  1
  F  F62  1  0.52316600  0.12288100  0.28329800  1
  F  F63  1  0.02316600  0.87711900  0.21670200  1
  F  F64  1  0.32561800  0.71326000  0.61016000  1
  F  F65  1  0.82561800  0.28674000  0.88984000  1
  F  F66  1  0.67438200  0.28674000  0.38984000  1
  F  F67  1  0.17438200  0.71326000  0.11016000  1
