# generated using pymatgen
data_BSBr
_symmetry_space_group_name_H-M   'P 1'
_cell_length_a   4.82073800
_cell_length_b   14.63952200
_cell_length_c   18.72882407
_cell_angle_alpha   64.82852036
_cell_angle_beta   90.00000000
_cell_angle_gamma   90.00000000
_symmetry_Int_Tables_number   1
_chemical_formula_structural   BSBr
_chemical_formula_sum   'B12 S12 Br12'
_cell_volume   1196.23959514
_cell_formula_units_Z   12
loop_
 _symmetry_equiv_pos_site_id
 _symmetry_equiv_pos_as_xyz
  1  'x, y, z'
loop_
 _atom_site_type_symbol
 _atom_site_label
 _atom_site_symmetry_multiplicity
 _atom_site_fract_x
 _atom_site_fract_y
 _atom_site_fract_z
 _atom_site_occupancy
  B  B0  1  0.75033800  0.37081600  0.16678800  1
  B  B1  1  0.25033800  0.62918400  0.33321200  1
  B  B2  1  0.24966200  0.62918400  0.83321200  1
  B  B3  1  0.74966200  0.37081600  0.66678800  1
  B  B4  1  0.97974000  0.17275500  0.27045000  1
  B  B5  1  0.47974000  0.82724500  0.22955000  1
  B  B6  1  0.02026000  0.82724500  0.72955000  1
  B  B7  1  0.52026000  0.17275500  0.77045000  1
  B  B8  1  0.97200200  0.23839300  0.09898400  1
  B  B9  1  0.47200200  0.76160700  0.40101600  1
  B  B10  1  0.02799800  0.76160700  0.90101600  1
  B  B11  1  0.52799800  0.23839300  0.59898400  1
  S  S12  1  0.68123900  0.28522500  0.76821700  1
  S  S13  1  0.18123900  0.71477500  0.73178300  1
  S  S14  1  0.31876100  0.71477500  0.23178300  1
  S  S15  1  0.81876100  0.28522500  0.26821700  1
  S  S16  1  0.68689200  0.35925700  0.57600000  1
  S  S17  1  0.18689200  0.64074300  0.92400000  1
  S  S18  1  0.31310800  0.64074300  0.42400000  1
  S  S19  1  0.81310800  0.35925700  0.07600000  1
  S  S20  1  0.42926100  0.13744900  0.69213500  1
  S  S21  1  0.92926100  0.86255100  0.80786500  1
  S  S22  1  0.57073900  0.86255100  0.30786500  1
  S  S23  1  0.07073900  0.13744900  0.19213500  1
  Br  Br24  1  0.57709500  0.49592700  0.15321100  1
  Br  Br25  1  0.07709500  0.50407300  0.34678900  1
  Br  Br26  1  0.42290500  0.50407300  0.84678900  1
  Br  Br27  1  0.92290500  0.49592700  0.65321100  1
  Br  Br28  1  0.07017400  0.07227000  0.37482200  1
  Br  Br29  1  0.57017400  0.92773000  0.12517800  1
  Br  Br30  1  0.92982600  0.92773000  0.62517800  1
  Br  Br31  1  0.42982600  0.07227000  0.87482200  1
  Br  Br32  1  0.05086400  0.21241000  0.00833300  1
  Br  Br33  1  0.55086400  0.78759000  0.49166700  1
  Br  Br34  1  0.94913600  0.78759000  0.99166700  1
  Br  Br35  1  0.44913600  0.21241000  0.50833300  1
