# generated using pymatgen
data_MnSO4
_symmetry_space_group_name_H-M   'P 1'
_cell_length_a   4.89033327
_cell_length_b   4.89033288
_cell_length_c   6.94360500
_cell_angle_alpha   89.99986108
_cell_angle_beta   90.00011654
_cell_angle_gamma   114.05291495
_symmetry_Int_Tables_number   1
_chemical_formula_structural   MnSO4
_chemical_formula_sum   'Mn2 S2 O8'
_cell_volume   151.63981675
_cell_formula_units_Z   2
loop_
 _symmetry_equiv_pos_site_id
 _symmetry_equiv_pos_as_xyz
  1  'x, y, z'
loop_
 _atom_site_type_symbol
 _atom_site_label
 _atom_site_symmetry_multiplicity
 _atom_site_fract_x
 _atom_site_fract_y
 _atom_site_fract_z
 _atom_site_occupancy
  Mn  Mn0  1  0.00000000  0.00000000  0.00000000  1
  Mn  Mn1  1  0.99999900  0.99999900  0.50000000  1
  S  S2  1  0.64914400  0.35085600  0.25000000  1
  S  S3  1  0.35085600  0.64914400  0.75000000  1
  O  O4  1  0.22849000  0.31089600  0.75000000  1
  O  O5  1  0.77151000  0.68910400  0.25000000  1
  O  O6  1  0.31089600  0.22849000  0.25000000  1
  O  O7  1  0.68910400  0.77151000  0.75000000  1
  O  O8  1  0.25260800  0.74739200  0.92716900  1
  O  O9  1  0.74739300  0.25260800  0.42716900  1
  O  O10  1  0.74739200  0.25260800  0.07283100  1
  O  O11  1  0.25260700  0.74739300  0.57283100  1
