# generated using pymatgen
data_LiBiO3
_symmetry_space_group_name_H-M   'P 1'
_cell_length_a   5.03731800
_cell_length_b   9.02076000
_cell_length_c   10.94586100
_cell_angle_alpha   90.00000000
_cell_angle_beta   90.00000000
_cell_angle_gamma   90.00000000
_symmetry_Int_Tables_number   1
_chemical_formula_structural   LiBiO3
_chemical_formula_sum   'Li8 Bi8 O24'
_cell_volume   497.38470413
_cell_formula_units_Z   8
loop_
 _symmetry_equiv_pos_site_id
 _symmetry_equiv_pos_as_xyz
  1  'x, y, z'
loop_
 _atom_site_type_symbol
 _atom_site_label
 _atom_site_symmetry_multiplicity
 _atom_site_fract_x
 _atom_site_fract_y
 _atom_site_fract_z
 _atom_site_occupancy
  Li  Li0  1  0.50056500  0.71241800  0.40344900  1
  Li  Li1  1  0.00056500  0.28758200  0.09655100  1
  Li  Li2  1  0.49943500  0.21241800  0.09655100  1
  Li  Li3  1  0.99943500  0.78758200  0.40344900  1
  Li  Li4  1  0.49943500  0.28758200  0.59655100  1
  Li  Li5  1  0.99943500  0.71241800  0.90344900  1
  Li  Li6  1  0.50056500  0.78758200  0.90344900  1
  Li  Li7  1  0.00056500  0.21241800  0.59655100  1
  Bi  Bi8  1  0.49626600  0.08614800  0.36343600  1
  Bi  Bi9  1  0.99626600  0.91385200  0.13656400  1
  Bi  Bi10  1  0.50373400  0.58614800  0.13656400  1
  Bi  Bi11  1  0.00373400  0.41385200  0.36343600  1
  Bi  Bi12  1  0.50373400  0.91385200  0.63656400  1
  Bi  Bi13  1  0.00373400  0.08614800  0.86343600  1
  Bi  Bi14  1  0.49626600  0.41385200  0.86343600  1
  Bi  Bi15  1  0.99626600  0.58614800  0.63656400  1
  O  O16  1  0.75000000  0.75000000  0.72213800  1
  O  O17  1  0.25000000  0.25000000  0.77786200  1
  O  O18  1  0.25000000  0.25000000  0.27786200  1
  O  O19  1  0.75000000  0.75000000  0.22213800  1
  O  O20  1  0.25000000  0.75000000  0.05034900  1
  O  O21  1  0.75000000  0.25000000  0.44965100  1
  O  O22  1  0.75000000  0.25000000  0.94965100  1
  O  O23  1  0.25000000  0.75000000  0.55034900  1
  O  O24  1  0.68996900  0.59537600  0.95737600  1
  O  O25  1  0.18996900  0.40462400  0.54262400  1
  O  O26  1  0.31003100  0.09537600  0.54262400  1
  O  O27  1  0.81003100  0.90462400  0.95737600  1
  O  O28  1  0.31003100  0.40462400  0.04262400  1
  O  O29  1  0.81003100  0.59537600  0.45737600  1
  O  O30  1  0.68996900  0.90462400  0.45737600  1
  O  O31  1  0.18996900  0.09537600  0.04262400  1
  O  O32  1  0.22479000  0.58453500  0.79994000  1
  O  O33  1  0.72479000  0.41546500  0.70006000  1
  O  O34  1  0.77521000  0.08453500  0.70006000  1
  O  O35  1  0.27521000  0.91546500  0.79994000  1
  O  O36  1  0.77521000  0.41546500  0.20006000  1
  O  O37  1  0.27521000  0.58453500  0.29994000  1
  O  O38  1  0.22479000  0.91546500  0.29994000  1
  O  O39  1  0.72479000  0.08453500  0.20006000  1
