# generated using pymatgen
data_NaErCl4
_symmetry_space_group_name_H-M   'P 1'
_cell_length_a   7.72605900
_cell_length_b   6.44508300
_cell_length_c   6.80348363
_cell_angle_alpha   87.25814803
_cell_angle_beta   90.00000000
_cell_angle_gamma   90.00000000
_symmetry_Int_Tables_number   1
_chemical_formula_structural   NaErCl4
_chemical_formula_sum   'Na2 Er2 Cl8'
_cell_volume   338.39225445
_cell_formula_units_Z   2
loop_
 _symmetry_equiv_pos_site_id
 _symmetry_equiv_pos_as_xyz
  1  'x, y, z'
loop_
 _atom_site_type_symbol
 _atom_site_label
 _atom_site_symmetry_multiplicity
 _atom_site_fract_x
 _atom_site_fract_y
 _atom_site_fract_z
 _atom_site_occupancy
  Na  Na0  1  0.35342600  0.50000000  0.25000000  1
  Na  Na1  1  0.64657400  0.50000000  0.75000000  1
  Er  Er2  1  0.84465300  0.00000000  0.25000000  1
  Er  Er3  1  0.15534700  0.00000000  0.75000000  1
  Cl  Cl4  1  0.62543700  0.74736000  0.40466900  1
  Cl  Cl5  1  0.62543700  0.25264000  0.09533100  1
  Cl  Cl6  1  0.10346000  0.22159900  0.06431400  1
  Cl  Cl7  1  0.10346000  0.77840100  0.43568600  1
  Cl  Cl8  1  0.89654000  0.77840100  0.93568600  1
  Cl  Cl9  1  0.89654000  0.22159900  0.56431400  1
  Cl  Cl10  1  0.37456300  0.74736000  0.90466900  1
  Cl  Cl11  1  0.37456300  0.25264000  0.59533100  1
