# generated using pymatgen
data_EuSbPt
_symmetry_space_group_name_H-M   'P 1'
_cell_length_a   4.67997800
_cell_length_b   7.59028500
_cell_length_c   8.00944600
_cell_angle_alpha   90.00000000
_cell_angle_beta   90.00000000
_cell_angle_gamma   90.00000000
_symmetry_Int_Tables_number   1
_chemical_formula_structural   EuSbPt
_chemical_formula_sum   'Eu4 Sb4 Pt4'
_cell_volume   284.51447879
_cell_formula_units_Z   4
loop_
 _symmetry_equiv_pos_site_id
 _symmetry_equiv_pos_as_xyz
  1  'x, y, z'
loop_
 _atom_site_type_symbol
 _atom_site_label
 _atom_site_symmetry_multiplicity
 _atom_site_fract_x
 _atom_site_fract_y
 _atom_site_fract_z
 _atom_site_occupancy
  Eu  Eu0  1  0.75000000  0.49129900  0.80414500  1
  Eu  Eu1  1  0.25000000  0.00870100  0.30414500  1
  Eu  Eu2  1  0.75000000  0.99129900  0.69585500  1
  Eu  Eu3  1  0.25000000  0.50870100  0.19585500  1
  Sb  Sb4  1  0.25000000  0.68391500  0.59033200  1
  Sb  Sb5  1  0.25000000  0.18391500  0.90966800  1
  Sb  Sb6  1  0.75000000  0.31608500  0.40966800  1
  Sb  Sb7  1  0.75000000  0.81608500  0.09033200  1
  Pt  Pt8  1  0.25000000  0.80455700  0.91415900  1
  Pt  Pt9  1  0.25000000  0.30455700  0.58584100  1
  Pt  Pt10  1  0.75000000  0.69544300  0.41415900  1
  Pt  Pt11  1  0.75000000  0.19544300  0.08584100  1
