# generated using pymatgen
data_HoSiRu
_symmetry_space_group_name_H-M   'P 1'
_cell_length_a   4.32094300
_cell_length_b   6.97179800
_cell_length_c   7.10244300
_cell_angle_alpha   90.00000000
_cell_angle_beta   90.00000000
_cell_angle_gamma   90.00000000
_symmetry_Int_Tables_number   1
_chemical_formula_structural   HoSiRu
_chemical_formula_sum   'Ho4 Si4 Ru4'
_cell_volume   213.95926128
_cell_formula_units_Z   4
loop_
 _symmetry_equiv_pos_site_id
 _symmetry_equiv_pos_as_xyz
  1  'x, y, z'
loop_
 _atom_site_type_symbol
 _atom_site_label
 _atom_site_symmetry_multiplicity
 _atom_site_fract_x
 _atom_site_fract_y
 _atom_site_fract_z
 _atom_site_occupancy
  Ho  Ho0  1  0.25000000  0.98647000  0.81298800  1
  Ho  Ho1  1  0.75000000  0.01353000  0.18701200  1
  Ho  Ho2  1  0.25000000  0.48647000  0.68701200  1
  Ho  Ho3  1  0.75000000  0.51353000  0.31298800  1
  Si  Si4  1  0.25000000  0.30344700  0.10613100  1
  Si  Si5  1  0.75000000  0.69655300  0.89386900  1
  Si  Si6  1  0.25000000  0.80344700  0.39386900  1
  Si  Si7  1  0.75000000  0.19655300  0.60613100  1
  Ru  Ru8  1  0.75000000  0.84662400  0.56700200  1
  Ru  Ru9  1  0.25000000  0.15337600  0.43299800  1
  Ru  Ru10  1  0.75000000  0.34662400  0.93299800  1
  Ru  Ru11  1  0.25000000  0.65337600  0.06700200  1
