# generated using pymatgen
data_GdVO4
_symmetry_space_group_name_H-M   'P 1'
_cell_length_a   6.07601767
_cell_length_b   6.07601767
_cell_length_c   6.07601767
_cell_angle_alpha   106.18344087
_cell_angle_beta   106.18344087
_cell_angle_gamma   116.26815675
_symmetry_Int_Tables_number   1
_chemical_formula_structural   GdVO4
_chemical_formula_sum   'Gd2 V2 O8'
_cell_volume   170.83383779
_cell_formula_units_Z   2
loop_
 _symmetry_equiv_pos_site_id
 _symmetry_equiv_pos_as_xyz
  1  'x, y, z'
loop_
 _atom_site_type_symbol
 _atom_site_label
 _atom_site_symmetry_multiplicity
 _atom_site_fract_x
 _atom_site_fract_y
 _atom_site_fract_z
 _atom_site_occupancy
  Gd  Gd0  1  0.25000000  0.75000000  0.50000000  1
  Gd  Gd1  1  0.00000000  0.00000000  0.00000000  1
  V  V2  1  0.50000000  0.50000000  0.00000000  1
  V  V3  1  0.75000000  0.25000000  0.50000000  1
  O  O4  1  0.32622000  0.50950100  0.18328100  1
  O  O5  1  0.32622000  0.14293900  0.81671900  1
  O  O6  1  0.49050000  0.67378000  0.81671900  1
  O  O7  1  0.92378000  0.60706100  0.68328100  1
  O  O8  1  0.92378000  0.24049900  0.31671900  1
  O  O9  1  0.85706100  0.67378000  0.18328100  1
  O  O10  1  0.39293900  0.07622000  0.31671900  1
  O  O11  1  0.75950000  0.07622000  0.68328100  1
