# generated using pymatgen
data_NaNbCl6
_symmetry_space_group_name_H-M   'P 1'
_cell_length_a   7.07772000
_cell_length_b   6.65665000
_cell_length_c   19.92670230
_cell_angle_alpha   89.49490207
_cell_angle_beta   90.00000000
_cell_angle_gamma   90.00000000
_symmetry_Int_Tables_number   1
_chemical_formula_structural   NaNbCl6
_chemical_formula_sum   'Na4 Nb4 Cl24'
_cell_volume   938.78827560
_cell_formula_units_Z   4
loop_
 _symmetry_equiv_pos_site_id
 _symmetry_equiv_pos_as_xyz
  1  'x, y, z'
loop_
 _atom_site_type_symbol
 _atom_site_label
 _atom_site_symmetry_multiplicity
 _atom_site_fract_x
 _atom_site_fract_y
 _atom_site_fract_z
 _atom_site_occupancy
  Na  Na0  1  0.81121200  0.21116200  0.74747900  1
  Na  Na1  1  0.31121200  0.78883800  0.75252100  1
  Na  Na2  1  0.18878800  0.78883800  0.25252100  1
  Na  Na3  1  0.68878800  0.21116200  0.24747900  1
  Nb  Nb4  1  0.71706600  0.74287800  0.61659800  1
  Nb  Nb5  1  0.21706600  0.25712200  0.88340200  1
  Nb  Nb6  1  0.28293400  0.25712200  0.38340200  1
  Nb  Nb7  1  0.78293400  0.74287800  0.11659800  1
  Cl  Cl8  1  0.82040100  0.61385800  0.23454000  1
  Cl  Cl9  1  0.32040100  0.38614200  0.26546000  1
  Cl  Cl10  1  0.17959900  0.38614200  0.76546000  1
  Cl  Cl11  1  0.67959900  0.61385800  0.73454000  1
  Cl  Cl12  1  0.60277500  0.45969100  0.09424100  1
  Cl  Cl13  1  0.10277500  0.54030900  0.40575900  1
  Cl  Cl14  1  0.39722500  0.54030900  0.90575900  1
  Cl  Cl15  1  0.89722500  0.45969100  0.59424100  1
  Cl  Cl16  1  0.50225500  0.91762100  0.15781600  1
  Cl  Cl17  1  0.00225500  0.08237900  0.34218400  1
  Cl  Cl18  1  0.49774500  0.08237900  0.84218400  1
  Cl  Cl19  1  0.99774500  0.91762100  0.65781600  1
  Cl  Cl20  1  0.74666700  0.88644800  0.01201300  1
  Cl  Cl21  1  0.24666700  0.11355200  0.48798800  1
  Cl  Cl22  1  0.25333300  0.11355200  0.98798800  1
  Cl  Cl23  1  0.75333300  0.88644800  0.51201200  1
  Cl  Cl24  1  0.95902800  0.03459600  0.15815500  1
  Cl  Cl25  1  0.45902800  0.96540400  0.34184500  1
  Cl  Cl26  1  0.04097200  0.96540400  0.84184500  1
  Cl  Cl27  1  0.54097200  0.03459600  0.65815500  1
  Cl  Cl28  1  0.07040400  0.59260700  0.09110900  1
  Cl  Cl29  1  0.57040400  0.40739300  0.40889100  1
  Cl  Cl30  1  0.92959600  0.40739300  0.90889100  1
  Cl  Cl31  1  0.42959600  0.59260700  0.59110900  1
