# generated using pymatgen
data_Mo(RhO3)2
_symmetry_space_group_name_H-M   'P 1'
_cell_length_a   4.61790100
_cell_length_b   4.61790100
_cell_length_c   9.45189900
_cell_angle_alpha   90.00000000
_cell_angle_beta   90.00000000
_cell_angle_gamma   90.00000000
_symmetry_Int_Tables_number   1
_chemical_formula_structural   Mo(RhO3)2
_chemical_formula_sum   'Mo2 Rh4 O12'
_cell_volume   201.56183735
_cell_formula_units_Z   2
loop_
 _symmetry_equiv_pos_site_id
 _symmetry_equiv_pos_as_xyz
  1  'x, y, z'
loop_
 _atom_site_type_symbol
 _atom_site_label
 _atom_site_symmetry_multiplicity
 _atom_site_fract_x
 _atom_site_fract_y
 _atom_site_fract_z
 _atom_site_occupancy
  Mo  Mo0  1  0.00000000  0.00000000  0.00000000  1
  Mo  Mo1  1  0.50000000  0.50000000  0.50000000  1
  Rh  Rh2  1  0.50000000  0.50000000  0.83233300  1
  Rh  Rh3  1  0.00000000  0.00000000  0.33233300  1
  Rh  Rh4  1  0.50000000  0.50000000  0.16766700  1
  Rh  Rh5  1  0.00000000  0.00000000  0.66766700  1
  O  O6  1  0.69406700  0.69406700  0.66488500  1
  O  O7  1  0.30593300  0.30593300  0.66488500  1
  O  O8  1  0.69406700  0.69406700  0.33511500  1
  O  O9  1  0.19406700  0.80593300  0.16488500  1
  O  O10  1  0.80593300  0.19406700  0.16488500  1
  O  O11  1  0.80593300  0.19406700  0.83511500  1
  O  O12  1  0.30364500  0.30364500  0.00000000  1
  O  O13  1  0.19635500  0.80364500  0.50000000  1
  O  O14  1  0.80364500  0.19635500  0.50000000  1
  O  O15  1  0.69635500  0.69635500  0.00000000  1
  O  O16  1  0.30593300  0.30593300  0.33511500  1
  O  O17  1  0.19406700  0.80593300  0.83511500  1
