# generated using pymatgen
data_Ce2Sb
_symmetry_space_group_name_H-M   'P 1'
_cell_length_a   9.23946263
_cell_length_b   9.23946263
_cell_length_c   9.23946263
_cell_angle_alpha   152.07915667
_cell_angle_beta   152.07915667
_cell_angle_gamma   39.89771865
_symmetry_Int_Tables_number   1
_chemical_formula_structural   Ce2Sb
_chemical_formula_sum   'Ce4 Sb2'
_cell_volume   172.61049182
_cell_formula_units_Z   2
loop_
 _symmetry_equiv_pos_site_id
 _symmetry_equiv_pos_as_xyz
  1  'x, y, z'
loop_
 _atom_site_type_symbol
 _atom_site_label
 _atom_site_symmetry_multiplicity
 _atom_site_fract_x
 _atom_site_fract_y
 _atom_site_fract_z
 _atom_site_occupancy
  Ce  Ce0  1  0.17472000  0.17472000  0.00000000  1
  Ce  Ce1  1  0.82528000  0.82528000  0.00000000  1
  Ce  Ce2  1  0.50000000  0.00000000  0.50000000  1
  Ce  Ce3  1  0.00000000  0.50000000  0.50000000  1
  Sb  Sb4  1  0.63871400  0.63871400  0.00000000  1
  Sb  Sb5  1  0.36128600  0.36128600  0.00000000  1
