# generated using pymatgen
data_RbEu2I5
_symmetry_space_group_name_H-M   'P 1'
_cell_length_a   9.10135500
_cell_length_b   10.15150900
_cell_length_c   14.41070256
_cell_angle_alpha   89.69396812
_cell_angle_beta   90.00000000
_cell_angle_gamma   90.00000000
_symmetry_Int_Tables_number   1
_chemical_formula_structural   RbEu2I5
_chemical_formula_sum   'Rb4 Eu8 I20'
_cell_volume   1331.42165954
_cell_formula_units_Z   4
loop_
 _symmetry_equiv_pos_site_id
 _symmetry_equiv_pos_as_xyz
  1  'x, y, z'
loop_
 _atom_site_type_symbol
 _atom_site_label
 _atom_site_symmetry_multiplicity
 _atom_site_fract_x
 _atom_site_fract_y
 _atom_site_fract_z
 _atom_site_occupancy
  Rb  Rb0  1  0.94740100  0.50720200  0.16886700  1
  Rb  Rb1  1  0.44740100  0.49279800  0.33113300  1
  Rb  Rb2  1  0.05259900  0.49279800  0.83113300  1
  Rb  Rb3  1  0.55259900  0.50720200  0.66886700  1
  Eu  Eu4  1  0.97376200  0.00298900  0.18069800  1
  Eu  Eu5  1  0.92679700  0.24696500  0.49393000  1
  Eu  Eu6  1  0.42679700  0.75303500  0.00607000  1
  Eu  Eu7  1  0.07320300  0.75303500  0.50607000  1
  Eu  Eu8  1  0.57320300  0.24696500  0.99393000  1
  Eu  Eu9  1  0.52623800  0.00298900  0.68069800  1
  Eu  Eu10  1  0.02623800  0.99701100  0.81930200  1
  Eu  Eu11  1  0.47376200  0.99701100  0.31930200  1
  I  I12  1  0.18756700  0.77417700  0.28426600  1
  I  I13  1  0.83885400  0.78393400  0.68352200  1
  I  I14  1  0.33885400  0.21606600  0.81647800  1
  I  I15  1  0.16114600  0.21606600  0.31647800  1
  I  I16  1  0.66114600  0.78393400  0.18352100  1
  I  I17  1  0.81243300  0.22582300  0.71573400  1
  I  I18  1  0.31243300  0.77417700  0.78426600  1
  I  I19  1  0.95459600  0.21153900  0.99750800  1
  I  I20  1  0.83842800  0.95884100  0.40095800  1
  I  I21  1  0.33842800  0.04115900  0.09904200  1
  I  I22  1  0.16157200  0.04115900  0.59904200  1
  I  I23  1  0.66157200  0.95884100  0.90095800  1
  I  I24  1  0.04540400  0.78846100  0.00249200  1
  I  I25  1  0.45459600  0.78846100  0.50249200  1
  I  I26  1  0.67418700  0.53696400  0.91951200  1
  I  I27  1  0.54540400  0.21153900  0.49750800  1
  I  I28  1  0.82581300  0.53696400  0.41951200  1
  I  I29  1  0.32581300  0.46303600  0.08048800  1
  I  I30  1  0.17418700  0.46303600  0.58048800  1
  I  I31  1  0.68756700  0.22582300  0.21573400  1
