# generated using pymatgen
data_B2H5
_symmetry_space_group_name_H-M   'P 1'
_cell_length_a   10.36017900
_cell_length_b   6.00153400
_cell_length_c   9.34150130
_cell_angle_alpha   67.82751035
_cell_angle_beta   90.00000000
_cell_angle_gamma   90.00000000
_symmetry_Int_Tables_number   1
_chemical_formula_structural   B2H5
_chemical_formula_sum   'B16 H40'
_cell_volume   537.87521688
_cell_formula_units_Z   8
loop_
 _symmetry_equiv_pos_site_id
 _symmetry_equiv_pos_as_xyz
  1  'x, y, z'
loop_
 _atom_site_type_symbol
 _atom_site_label
 _atom_site_symmetry_multiplicity
 _atom_site_fract_x
 _atom_site_fract_y
 _atom_site_fract_z
 _atom_site_occupancy
  B  B0  1  0.92201400  0.39413400  0.25128800  1
  B  B1  1  0.42201400  0.60586600  0.24871200  1
  B  B2  1  0.07798600  0.60586600  0.74871200  1
  B  B3  1  0.57798600  0.39413400  0.75128800  1
  B  B4  1  0.77027200  0.25032900  0.23120000  1
  B  B5  1  0.27027200  0.74967100  0.26880000  1
  B  B6  1  0.22972800  0.74967100  0.76880000  1
  B  B7  1  0.72972800  0.25032900  0.73120000  1
  B  B8  1  0.79699100  0.94875500  0.37781600  1
  B  B9  1  0.29699100  0.05124500  0.12218400  1
  B  B10  1  0.20300900  0.05124500  0.62218400  1
  B  B11  1  0.70300900  0.94875500  0.87781600  1
  B  B12  1  0.91188900  0.10777000  0.22373900  1
  B  B13  1  0.41188900  0.89223000  0.27626100  1
  B  B14  1  0.08811100  0.89223000  0.77626100  1
  B  B15  1  0.58811100  0.10777000  0.72373900  1
  H  H16  1  0.00788800  0.20618500  0.26125900  1
  H  H17  1  0.50788800  0.79381500  0.23874100  1
  H  H18  1  0.99211200  0.79381500  0.73874100  1
  H  H19  1  0.49211200  0.20618500  0.76125900  1
  H  H20  1  0.95180800  0.39615400  0.37541200  1
  H  H21  1  0.45180800  0.60384600  0.12458800  1
  H  H22  1  0.04819200  0.60384600  0.62458800  1
  H  H23  1  0.54819200  0.39615400  0.87541200  1
  H  H24  1  0.95392400  0.56134000  0.13818000  1
  H  H25  1  0.45392400  0.43866000  0.36182000  1
  H  H26  1  0.04607600  0.43866000  0.86182000  1
  H  H27  1  0.54607600  0.56134000  0.63818000  1
  H  H28  1  0.78908200  0.42833200  0.27089300  1
  H  H29  1  0.28908200  0.57166800  0.22910700  1
  H  H30  1  0.21091800  0.57166800  0.72910700  1
  H  H31  1  0.71091800  0.42833200  0.77089300  1
  H  H32  1  0.56764500  0.07523900  0.60768100  1
  H  H33  1  0.06764500  0.92476100  0.89231900  1
  H  H34  1  0.43235500  0.92476100  0.39231900  1
  H  H35  1  0.93235500  0.07523900  0.10768100  1
  H  H36  1  0.57372600  0.91469100  0.84171200  1
  H  H37  1  0.07372600  0.08530900  0.65828800  1
  H  H38  1  0.42627400  0.08530900  0.15828800  1
  H  H39  1  0.92627400  0.91469100  0.34171200  1
  H  H40  1  0.76299800  0.79195500  0.85822300  1
  H  H41  1  0.26299800  0.20804500  0.64177700  1
  H  H42  1  0.23700200  0.20804500  0.14177700  1
  H  H43  1  0.73700200  0.79195500  0.35822300  1
  H  H44  1  0.67931800  0.92513000  0.00884700  1
  H  H45  1  0.17931800  0.07487000  0.49115300  1
  H  H46  1  0.32068200  0.07487000  0.99115300  1
  H  H47  1  0.82068200  0.92513000  0.50884700  1
  H  H48  1  0.79253000  0.13722800  0.85434500  1
  H  H49  1  0.29253000  0.86277200  0.64565500  1
  H  H50  1  0.20747000  0.86277200  0.14565500  1
  H  H51  1  0.70747000  0.13722800  0.35434500  1
  H  H52  1  0.79710800  0.30386800  0.61999000  1
  H  H53  1  0.29710800  0.69613200  0.88001000  1
  H  H54  1  0.20289200  0.69613200  0.38001000  1
  H  H55  1  0.70289200  0.30386800  0.11999000  1
