# generated using pymatgen
data_K4P3
_symmetry_space_group_name_H-M   'P 1'
_cell_length_a   6.24523761
_cell_length_b   6.24523761
_cell_length_c   15.05199000
_cell_angle_alpha   90.00000000
_cell_angle_beta   90.00000000
_cell_angle_gamma   132.59660085
_symmetry_Int_Tables_number   1
_chemical_formula_structural   K4P3
_chemical_formula_sum   'K8 P6'
_cell_volume   432.16604710
_cell_formula_units_Z   2
loop_
 _symmetry_equiv_pos_site_id
 _symmetry_equiv_pos_as_xyz
  1  'x, y, z'
loop_
 _atom_site_type_symbol
 _atom_site_label
 _atom_site_symmetry_multiplicity
 _atom_site_fract_x
 _atom_site_fract_y
 _atom_site_fract_z
 _atom_site_occupancy
  K  K0  1  0.19510600  0.80489400  0.11138400  1
  K  K1  1  0.80489400  0.19510600  0.88861600  1
  K  K2  1  0.19510600  0.80489400  0.38861600  1
  K  K3  1  0.80489400  0.19510600  0.61138400  1
  K  K4  1  0.48195700  0.51804300  0.25000000  1
  K  K5  1  0.51804300  0.48195700  0.75000000  1
  K  K6  1  0.50000000  0.50000000  0.00000000  1
  K  K7  1  0.50000000  0.50000000  0.50000000  1
  P  P8  1  0.11360500  0.88639500  0.62505800  1
  P  P9  1  0.88639500  0.11360500  0.37494200  1
  P  P10  1  0.88639500  0.11360500  0.12505800  1
  P  P11  1  0.11360500  0.88639500  0.87494200  1
  P  P12  1  0.78780300  0.21219700  0.25000000  1
  P  P13  1  0.21219700  0.78780300  0.75000000  1
