# generated using pymatgen
data_Rb4Mg3H10
_symmetry_space_group_name_H-M   'P 1'
_cell_length_a   7.69862570
_cell_length_b   7.69862570
_cell_length_c   13.56827300
_cell_angle_alpha   90.00000000
_cell_angle_beta   90.00000000
_cell_angle_gamma   133.75474458
_symmetry_Int_Tables_number   1
_chemical_formula_structural   Rb4Mg3H10
_chemical_formula_sum   'Rb8 Mg6 H20'
_cell_volume   580.86154309
_cell_formula_units_Z   2
loop_
 _symmetry_equiv_pos_site_id
 _symmetry_equiv_pos_as_xyz
  1  'x, y, z'
loop_
 _atom_site_type_symbol
 _atom_site_label
 _atom_site_symmetry_multiplicity
 _atom_site_fract_x
 _atom_site_fract_y
 _atom_site_fract_z
 _atom_site_occupancy
  Rb  Rb0  1  0.04092700  0.95907300  0.63940800  1
  Rb  Rb1  1  0.95907300  0.04092700  0.36059200  1
  Rb  Rb2  1  0.45907300  0.54092700  0.13940800  1
  Rb  Rb3  1  0.54092700  0.45907300  0.86059200  1
  Rb  Rb4  1  0.24284900  0.75715100  0.89474500  1
  Rb  Rb5  1  0.75715100  0.24284900  0.10525500  1
  Rb  Rb6  1  0.25715100  0.74284900  0.39474500  1
  Rb  Rb7  1  0.74284900  0.25715100  0.60525500  1
  Mg  Mg8  1  0.50000000  0.50000000  0.50000000  1
  Mg  Mg9  1  0.00000000  0.00000000  0.00000000  1
  Mg  Mg10  1  0.37773200  0.62226800  0.65663700  1
  Mg  Mg11  1  0.62226800  0.37773200  0.34336300  1
  Mg  Mg12  1  0.12226800  0.87773200  0.15663700  1
  Mg  Mg13  1  0.87773200  0.12226800  0.84336300  1
  H  H14  1  0.24389700  0.75610300  0.64808400  1
  H  H15  1  0.75610300  0.24389700  0.35191600  1
  H  H16  1  0.25610300  0.74389700  0.14808400  1
  H  H17  1  0.74389700  0.25610300  0.85191600  1
  H  H18  1  0.02737100  0.97262900  0.85625600  1
  H  H19  1  0.97262900  0.02737100  0.14374400  1
  H  H20  1  0.47262900  0.52737100  0.35625600  1
  H  H21  1  0.52737100  0.47262900  0.64374400  1
  H  H22  1  0.13921300  0.36078700  0.75000000  1
  H  H23  1  0.36078700  0.13921300  0.25000000  1
  H  H24  1  0.86078700  0.63921300  0.25000000  1
  H  H25  1  0.63921300  0.86078700  0.75000000  1
  H  H26  1  0.38479100  0.18750200  0.46045200  1
  H  H27  1  0.18750200  0.38479100  0.53954800  1
  H  H28  1  0.68750200  0.88479100  0.96045200  1
  H  H29  1  0.88479100  0.68750200  0.03954800  1
  H  H30  1  0.81249800  0.61520900  0.46045200  1
  H  H31  1  0.61520900  0.81249800  0.53954800  1
  H  H32  1  0.31249800  0.11520900  0.03954800  1
  H  H33  1  0.11520900  0.31249800  0.96045200  1
