# generated using pymatgen
data_U3Fe2Si7
_symmetry_space_group_name_H-M   'P 1'
_cell_length_a   12.27028149
_cell_length_b   12.27028149
_cell_length_c   4.02515500
_cell_angle_alpha   90.00000000
_cell_angle_beta   90.00000000
_cell_angle_gamma   161.26339633
_symmetry_Int_Tables_number   1
_chemical_formula_structural   U3Fe2Si7
_chemical_formula_sum   'U3 Fe2 Si7'
_cell_volume   194.66667378
_cell_formula_units_Z   1
loop_
 _symmetry_equiv_pos_site_id
 _symmetry_equiv_pos_as_xyz
  1  'x, y, z'
loop_
 _atom_site_type_symbol
 _atom_site_label
 _atom_site_symmetry_multiplicity
 _atom_site_fract_x
 _atom_site_fract_y
 _atom_site_fract_z
 _atom_site_occupancy
  U  U0  1  0.00000000  0.00000000  0.50000000  1
  U  U1  1  0.31515400  0.68484600  0.00000000  1
  U  U2  1  0.68484600  0.31515400  0.00000000  1
  Fe  Fe3  1  0.12772900  0.87227100  0.50000000  1
  Fe  Fe4  1  0.87227100  0.12772900  0.50000000  1
  Si  Si5  1  0.22183200  0.77816800  0.50000000  1
  Si  Si6  1  0.77816800  0.22183200  0.50000000  1
  Si  Si7  1  0.08656900  0.91343100  0.00000000  1
  Si  Si8  1  0.91343100  0.08656900  0.00000000  1
  Si  Si9  1  0.41399100  0.58600900  0.50000000  1
  Si  Si10  1  0.50000000  0.50000000  0.00000000  1
  Si  Si11  1  0.58600900  0.41399100  0.50000000  1
