# generated using pymatgen
data_CsNaGe2
_symmetry_space_group_name_H-M   'P 1'
_cell_length_a   9.85665400
_cell_length_b   8.62040200
_cell_length_c   13.47834085
_cell_angle_alpha   68.76557257
_cell_angle_beta   90.00000000
_cell_angle_gamma   90.00000000
_symmetry_Int_Tables_number   1
_chemical_formula_structural   CsNaGe2
_chemical_formula_sum   'Cs8 Na8 Ge16'
_cell_volume   1067.47798951
_cell_formula_units_Z   8
loop_
 _symmetry_equiv_pos_site_id
 _symmetry_equiv_pos_as_xyz
  1  'x, y, z'
loop_
 _atom_site_type_symbol
 _atom_site_label
 _atom_site_symmetry_multiplicity
 _atom_site_fract_x
 _atom_site_fract_y
 _atom_site_fract_z
 _atom_site_occupancy
  Cs  Cs0  1  0.98157500  0.49174000  0.27829100  1
  Cs  Cs1  1  0.48157500  0.50826000  0.22170900  1
  Cs  Cs2  1  0.01842500  0.50826000  0.72170900  1
  Cs  Cs3  1  0.51842500  0.49174000  0.77829100  1
  Cs  Cs4  1  0.20402800  0.65387800  0.96573500  1
  Cs  Cs5  1  0.70402800  0.34612200  0.53426500  1
  Cs  Cs6  1  0.79597200  0.34612200  0.03426500  1
  Cs  Cs7  1  0.29597200  0.65387800  0.46573500  1
  Na  Na8  1  0.09967000  0.05389000  0.39617600  1
  Na  Na9  1  0.53562200  0.95084500  0.68405000  1
  Na  Na10  1  0.03562200  0.04915500  0.81595000  1
  Na  Na11  1  0.40033000  0.05389000  0.89617600  1
  Na  Na12  1  0.90033000  0.94611000  0.60382400  1
  Na  Na13  1  0.59967000  0.94611000  0.10382400  1
  Na  Na14  1  0.46437800  0.04915500  0.31595000  1
  Na  Na15  1  0.96437800  0.95084500  0.18405000  1
  Ge  Ge16  1  0.59778300  0.76335700  0.94118700  1
  Ge  Ge17  1  0.16483000  0.18831000  0.98786100  1
  Ge  Ge18  1  0.33517000  0.18831000  0.48786100  1
  Ge  Ge19  1  0.66483000  0.81169000  0.51213900  1
  Ge  Ge20  1  0.68965600  0.78151900  0.32893500  1
  Ge  Ge21  1  0.18965600  0.21848100  0.17106500  1
  Ge  Ge22  1  0.31034400  0.21848100  0.67106500  1
  Ge  Ge23  1  0.81034400  0.78151900  0.82893500  1
  Ge  Ge24  1  0.77682900  0.05529400  0.35443900  1
  Ge  Ge25  1  0.40221700  0.23664300  0.05881300  1
  Ge  Ge26  1  0.90221700  0.76335700  0.44118700  1
  Ge  Ge27  1  0.72317100  0.05529400  0.85443900  1
  Ge  Ge28  1  0.22317100  0.94470600  0.64556100  1
  Ge  Ge29  1  0.27682900  0.94470600  0.14556100  1
  Ge  Ge30  1  0.83517000  0.81169000  0.01213900  1
  Ge  Ge31  1  0.09778300  0.23664300  0.55881300  1
