# generated using pymatgen
data_ErSiIr
_symmetry_space_group_name_H-M   'P 1'
_cell_length_a   4.20963700
_cell_length_b   6.79118800
_cell_length_c   7.44374200
_cell_angle_alpha   90.00000000
_cell_angle_beta   90.00000000
_cell_angle_gamma   90.00000000
_symmetry_Int_Tables_number   1
_chemical_formula_structural   ErSiIr
_chemical_formula_sum   'Er4 Si4 Ir4'
_cell_volume   212.80494384
_cell_formula_units_Z   4
loop_
 _symmetry_equiv_pos_site_id
 _symmetry_equiv_pos_as_xyz
  1  'x, y, z'
loop_
 _atom_site_type_symbol
 _atom_site_label
 _atom_site_symmetry_multiplicity
 _atom_site_fract_x
 _atom_site_fract_y
 _atom_site_fract_z
 _atom_site_occupancy
  Er  Er0  1  0.75000000  0.50363100  0.81224300  1
  Er  Er1  1  0.25000000  0.99636900  0.31224300  1
  Er  Er2  1  0.75000000  0.00363100  0.68775700  1
  Er  Er3  1  0.25000000  0.49636900  0.18775700  1
  Si  Si4  1  0.25000000  0.70329000  0.61121700  1
  Si  Si5  1  0.25000000  0.20329000  0.88878300  1
  Si  Si6  1  0.75000000  0.29671000  0.38878300  1
  Si  Si7  1  0.75000000  0.79671000  0.11121700  1
  Ir  Ir8  1  0.25000000  0.84231000  0.93384900  1
  Ir  Ir9  1  0.25000000  0.34231000  0.56615100  1
  Ir  Ir10  1  0.75000000  0.65769000  0.43384900  1
  Ir  Ir11  1  0.75000000  0.15769000  0.06615100  1
