# generated using pymatgen
data_Zr2Se
_symmetry_space_group_name_H-M   'P 1'
_cell_length_a   3.64070000
_cell_length_b   12.72777000
_cell_length_c   15.90645700
_cell_angle_alpha   90.00000000
_cell_angle_beta   90.00000000
_cell_angle_gamma   90.00000000
_symmetry_Int_Tables_number   1
_chemical_formula_structural   Zr2Se
_chemical_formula_sum   'Zr24 Se12'
_cell_volume   737.07328102
_cell_formula_units_Z   12
loop_
 _symmetry_equiv_pos_site_id
 _symmetry_equiv_pos_as_xyz
  1  'x, y, z'
loop_
 _atom_site_type_symbol
 _atom_site_label
 _atom_site_symmetry_multiplicity
 _atom_site_fract_x
 _atom_site_fract_y
 _atom_site_fract_z
 _atom_site_occupancy
  Zr  Zr0  1  0.00000000  0.85031700  0.97621600  1
  Zr  Zr1  1  0.00000000  0.14968300  0.02378400  1
  Zr  Zr2  1  0.50000000  0.35031700  0.52378400  1
  Zr  Zr3  1  0.50000000  0.64968300  0.47621600  1
  Zr  Zr4  1  0.00000000  0.92275400  0.74690100  1
  Zr  Zr5  1  0.00000000  0.07724600  0.25309900  1
  Zr  Zr6  1  0.50000000  0.42275400  0.75309900  1
  Zr  Zr7  1  0.50000000  0.57724600  0.24690100  1
  Zr  Zr8  1  0.00000000  0.41686300  0.91980400  1
  Zr  Zr9  1  0.00000000  0.58313700  0.08019600  1
  Zr  Zr10  1  0.50000000  0.91686300  0.58019600  1
  Zr  Zr11  1  0.50000000  0.08313700  0.41980400  1
  Zr  Zr12  1  0.00000000  0.53246700  0.60969400  1
  Zr  Zr13  1  0.00000000  0.46753300  0.39030600  1
  Zr  Zr14  1  0.50000000  0.03246700  0.89030600  1
  Zr  Zr15  1  0.50000000  0.96753300  0.10969400  1
  Zr  Zr16  1  0.00000000  0.19941800  0.79680400  1
  Zr  Zr17  1  0.00000000  0.80058200  0.20319600  1
  Zr  Zr18  1  0.50000000  0.69941800  0.70319600  1
  Zr  Zr19  1  0.50000000  0.30058200  0.29680400  1
  Zr  Zr20  1  0.00000000  0.12274900  0.57603100  1
  Zr  Zr21  1  0.00000000  0.87725100  0.42396900  1
  Zr  Zr22  1  0.50000000  0.62274900  0.92396900  1
  Zr  Zr23  1  0.50000000  0.37725100  0.07603100  1
  Se  Se24  1  0.00000000  0.57911200  0.79324200  1
  Se  Se25  1  0.00000000  0.42088800  0.20675800  1
  Se  Se26  1  0.50000000  0.07911200  0.70675800  1
  Se  Se27  1  0.50000000  0.92088800  0.29324200  1
  Se  Se28  1  0.00000000  0.75454900  0.58025100  1
  Se  Se29  1  0.00000000  0.24545100  0.41974900  1
  Se  Se30  1  0.50000000  0.25454900  0.91974900  1
  Se  Se31  1  0.50000000  0.74545100  0.08025100  1
  Se  Se32  1  0.00000000  0.31717200  0.65188700  1
  Se  Se33  1  0.00000000  0.68282800  0.34811300  1
  Se  Se34  1  0.50000000  0.81717200  0.84811300  1
  Se  Se35  1  0.50000000  0.18282800  0.15188700  1
