# generated using pymatgen
data_Gd3(MnC3)2
_symmetry_space_group_name_H-M   'P 1'
_cell_length_a   8.08703100
_cell_length_b   8.08703100
_cell_length_c   5.07226000
_cell_angle_alpha   90.00000000
_cell_angle_beta   90.00000000
_cell_angle_gamma   119.99999183
_symmetry_Int_Tables_number   1
_chemical_formula_structural   Gd3(MnC3)2
_chemical_formula_sum   'Gd6 Mn4 C12'
_cell_volume   287.28330632
_cell_formula_units_Z   2
loop_
 _symmetry_equiv_pos_site_id
 _symmetry_equiv_pos_as_xyz
  1  'x, y, z'
loop_
 _atom_site_type_symbol
 _atom_site_label
 _atom_site_symmetry_multiplicity
 _atom_site_fract_x
 _atom_site_fract_y
 _atom_site_fract_z
 _atom_site_occupancy
  Gd  Gd0  1  0.62037300  0.68854300  0.75000000  1
  Gd  Gd1  1  0.93183000  0.62037300  0.25000000  1
  Gd  Gd2  1  0.68854300  0.06817000  0.25000000  1
  Gd  Gd3  1  0.31145700  0.93183000  0.75000000  1
  Gd  Gd4  1  0.06817000  0.37962700  0.75000000  1
  Gd  Gd5  1  0.37962700  0.31145700  0.25000000  1
  Mn  Mn6  1  0.00000000  0.00000000  0.50000000  1
  Mn  Mn7  1  0.00000000  0.00000000  0.00000000  1
  Mn  Mn8  1  0.66666700  0.33333300  0.75000000  1
  Mn  Mn9  1  0.33333300  0.66666700  0.25000000  1
  C  C10  1  0.95955200  0.77549700  0.75000000  1
  C  C11  1  0.18405500  0.95955200  0.25000000  1
  C  C12  1  0.77549700  0.81594500  0.25000000  1
  C  C13  1  0.22450300  0.18405500  0.75000000  1
  C  C14  1  0.81594500  0.04044800  0.75000000  1
  C  C15  1  0.04044800  0.22450300  0.25000000  1
  C  C16  1  0.86292200  0.57975000  0.75000000  1
  C  C17  1  0.28317100  0.86292200  0.25000000  1
  C  C18  1  0.57975000  0.71682900  0.25000000  1
  C  C19  1  0.42025000  0.28317100  0.75000000  1
  C  C20  1  0.13707800  0.42025000  0.25000000  1
  C  C21  1  0.71682900  0.13707800  0.75000000  1
