# generated using pymatgen
data_VCoSi
_symmetry_space_group_name_H-M   'P 1'
_cell_length_a   3.55223600
_cell_length_b   5.96122400
_cell_length_c   6.83050400
_cell_angle_alpha   90.00000000
_cell_angle_beta   90.00000000
_cell_angle_gamma   90.00000000
_symmetry_Int_Tables_number   1
_chemical_formula_structural   VCoSi
_chemical_formula_sum   'V4 Co4 Si4'
_cell_volume   144.64052935
_cell_formula_units_Z   4
loop_
 _symmetry_equiv_pos_site_id
 _symmetry_equiv_pos_as_xyz
  1  'x, y, z'
loop_
 _atom_site_type_symbol
 _atom_site_label
 _atom_site_symmetry_multiplicity
 _atom_site_fract_x
 _atom_site_fract_y
 _atom_site_fract_z
 _atom_site_occupancy
  V  V0  1  0.75000000  0.47496600  0.67798900  1
  V  V1  1  0.25000000  0.02503400  0.17798900  1
  V  V2  1  0.75000000  0.97496600  0.82201100  1
  V  V3  1  0.25000000  0.52503400  0.32201100  1
  Co  Co4  1  0.25000000  0.64283600  0.93896600  1
  Co  Co5  1  0.25000000  0.14283600  0.56103400  1
  Co  Co6  1  0.75000000  0.85716400  0.43896600  1
  Co  Co7  1  0.75000000  0.35716400  0.06103400  1
  Si  Si8  1  0.25000000  0.76690300  0.62384100  1
  Si  Si9  1  0.25000000  0.26690300  0.87615900  1
  Si  Si10  1  0.75000000  0.23309700  0.37615900  1
  Si  Si11  1  0.75000000  0.73309700  0.12384100  1
