# generated using pymatgen
data_K2TeS3
_symmetry_space_group_name_H-M   'P 1'
_cell_length_a   9.30436600
_cell_length_b   6.48703300
_cell_length_c   14.82337753
_cell_angle_alpha   65.06279203
_cell_angle_beta   90.00000000
_cell_angle_gamma   90.00000000
_symmetry_Int_Tables_number   1
_chemical_formula_structural   K2TeS3
_chemical_formula_sum   'K8 Te4 S12'
_cell_volume   811.29238243
_cell_formula_units_Z   4
loop_
 _symmetry_equiv_pos_site_id
 _symmetry_equiv_pos_as_xyz
  1  'x, y, z'
loop_
 _atom_site_type_symbol
 _atom_site_label
 _atom_site_symmetry_multiplicity
 _atom_site_fract_x
 _atom_site_fract_y
 _atom_site_fract_z
 _atom_site_occupancy
  K  K0  1  0.11235900  0.00703900  0.74690300  1
  K  K1  1  0.38764100  0.00703900  0.24690300  1
  K  K2  1  0.88764100  0.99296100  0.25309700  1
  K  K3  1  0.61235900  0.99296100  0.75309700  1
  K  K4  1  0.36883600  0.66291800  0.58410700  1
  K  K5  1  0.86883600  0.33708200  0.91589300  1
  K  K6  1  0.63116400  0.33708200  0.41589300  1
  K  K7  1  0.13116400  0.66291800  0.08410700  1
  Te  Te8  1  0.68217600  0.72068500  0.08079900  1
  Te  Te9  1  0.18217600  0.27931500  0.41920100  1
  Te  Te10  1  0.31782400  0.27931500  0.91920100  1
  Te  Te11  1  0.81782400  0.72068500  0.58079900  1
  S  S12  1  0.85744700  0.07262100  0.58920300  1
  S  S13  1  0.64255300  0.07262100  0.08920300  1
  S  S14  1  0.14255300  0.92737900  0.41079700  1
  S  S15  1  0.35744700  0.92737900  0.91079700  1
  S  S16  1  0.66337300  0.81455700  0.44062100  1
  S  S17  1  0.16337300  0.18544300  0.05937900  1
  S  S18  1  0.33662700  0.18544300  0.55937900  1
  S  S19  1  0.83662700  0.81455700  0.94062100  1
  S  S20  1  0.65932500  0.53011900  0.71732800  1
  S  S21  1  0.15932500  0.46988100  0.78267200  1
  S  S22  1  0.34067500  0.46988100  0.28267200  1
  S  S23  1  0.84067500  0.53011900  0.21732800  1
