# generated using pymatgen
data_Ni(SbO2)2
_symmetry_space_group_name_H-M   'P 1'
_cell_length_a   6.05663000
_cell_length_b   8.47757700
_cell_length_c   8.47757700
_cell_angle_alpha   90.00000000
_cell_angle_beta   90.00000000
_cell_angle_gamma   90.00000000
_symmetry_Int_Tables_number   1
_chemical_formula_structural   Ni(SbO2)2
_chemical_formula_sum   'Ni4 Sb8 O16'
_cell_volume   435.28582987
_cell_formula_units_Z   4
loop_
 _symmetry_equiv_pos_site_id
 _symmetry_equiv_pos_as_xyz
  1  'x, y, z'
loop_
 _atom_site_type_symbol
 _atom_site_label
 _atom_site_symmetry_multiplicity
 _atom_site_fract_x
 _atom_site_fract_y
 _atom_site_fract_z
 _atom_site_occupancy
  Ni  Ni0  1  0.75000000  0.50000000  0.00000000  1
  Ni  Ni1  1  0.25000000  0.50000000  0.00000000  1
  Ni  Ni2  1  0.25000000  0.00000000  0.50000000  1
  Ni  Ni3  1  0.75000000  0.00000000  0.50000000  1
  Sb  Sb4  1  0.00000000  0.82786400  0.83514800  1
  Sb  Sb5  1  0.50000000  0.16485200  0.82786400  1
  Sb  Sb6  1  0.50000000  0.83514800  0.17213600  1
  Sb  Sb7  1  0.00000000  0.17213600  0.16485200  1
  Sb  Sb8  1  0.00000000  0.67213600  0.33514800  1
  Sb  Sb9  1  0.00000000  0.32786400  0.66485200  1
  Sb  Sb10  1  0.50000000  0.66485200  0.67213600  1
  Sb  Sb11  1  0.50000000  0.33514800  0.32786400  1
  O  O12  1  0.50000000  0.86275200  0.40255300  1
  O  O13  1  0.50000000  0.13724800  0.59744700  1
  O  O14  1  0.00000000  0.40255300  0.13724800  1
  O  O15  1  0.00000000  0.59744700  0.86275200  1
  O  O16  1  0.00000000  0.90255300  0.36275200  1
  O  O17  1  0.50000000  0.63724800  0.90255300  1
  O  O18  1  0.50000000  0.36275200  0.09744700  1
  O  O19  1  0.00000000  0.09744700  0.63724800  1
  O  O20  1  0.75000000  0.67650000  0.17650000  1
  O  O21  1  0.25000000  0.82350000  0.67650000  1
  O  O22  1  0.25000000  0.17650000  0.32350000  1
  O  O23  1  0.75000000  0.32350000  0.82350000  1
  O  O24  1  0.25000000  0.67650000  0.17650000  1
  O  O25  1  0.75000000  0.82350000  0.67650000  1
  O  O26  1  0.75000000  0.17650000  0.32350000  1
  O  O27  1  0.25000000  0.32350000  0.82350000  1
