# generated using pymatgen
data_Na3P6N11
_symmetry_space_group_name_H-M   'P 1'
_cell_length_a   10.19146400
_cell_length_b   10.19146400
_cell_length_c   10.19146400
_cell_angle_alpha   90.00000000
_cell_angle_beta   90.00000000
_cell_angle_gamma   90.00000000
_symmetry_Int_Tables_number   1
_chemical_formula_structural   Na3P6N11
_chemical_formula_sum   'Na12 P24 N44'
_cell_volume   1058.54597267
_cell_formula_units_Z   4
loop_
 _symmetry_equiv_pos_site_id
 _symmetry_equiv_pos_as_xyz
  1  'x, y, z'
loop_
 _atom_site_type_symbol
 _atom_site_label
 _atom_site_symmetry_multiplicity
 _atom_site_fract_x
 _atom_site_fract_y
 _atom_site_fract_z
 _atom_site_occupancy
  Na  Na0  1  0.52203000  0.52203000  0.52203000  1
  Na  Na1  1  0.97797000  0.47797000  0.02203000  1
  Na  Na2  1  0.02203000  0.97797000  0.47797000  1
  Na  Na3  1  0.47797000  0.02203000  0.97797000  1
  Na  Na4  1  0.87351900  0.87351900  0.87351900  1
  Na  Na5  1  0.62648100  0.12648100  0.37351900  1
  Na  Na6  1  0.37351900  0.62648100  0.12648100  1
  Na  Na7  1  0.12648100  0.37351900  0.62648100  1
  Na  Na8  1  0.21937400  0.21937400  0.21937400  1
  Na  Na9  1  0.28062600  0.78062600  0.71937400  1
  Na  Na10  1  0.71937400  0.28062600  0.78062600  1
  Na  Na11  1  0.78062600  0.71937400  0.28062600  1
  P  P12  1  0.93701400  0.01609100  0.17401400  1
  P  P13  1  0.67401400  0.56298600  0.98390900  1
  P  P14  1  0.82598600  0.43701400  0.48390900  1
  P  P15  1  0.56298600  0.98390900  0.67401400  1
  P  P16  1  0.48390900  0.82598600  0.43701400  1
  P  P17  1  0.98390900  0.67401400  0.56298600  1
  P  P18  1  0.17401400  0.93701400  0.01609100  1
  P  P19  1  0.01609100  0.17401400  0.93701400  1
  P  P20  1  0.43701400  0.48390900  0.82598600  1
  P  P21  1  0.06298600  0.51609100  0.32598600  1
  P  P22  1  0.51609100  0.32598600  0.06298600  1
  P  P23  1  0.32598600  0.06298600  0.51609100  1
  P  P24  1  0.31102600  0.92563700  0.26654000  1
  P  P25  1  0.81102600  0.57436300  0.73346000  1
  P  P26  1  0.68897400  0.42563700  0.23346000  1
  P  P27  1  0.57436300  0.73346000  0.81102600  1
  P  P28  1  0.23346000  0.68897400  0.42563700  1
  P  P29  1  0.73346000  0.81102600  0.57436300  1
  P  P30  1  0.92563700  0.26654000  0.31102600  1
  P  P31  1  0.26654000  0.31102600  0.92563700  1
  P  P32  1  0.42563700  0.23346000  0.68897400  1
  P  P33  1  0.07436300  0.76654000  0.18897400  1
  P  P34  1  0.76654000  0.18897400  0.07436300  1
  P  P35  1  0.18897400  0.07436300  0.76654000  1
  N  N36  1  0.71114300  0.71114300  0.71114300  1
  N  N37  1  0.87882700  0.78602300  0.52122100  1
  N  N38  1  0.97877900  0.12117300  0.28602300  1
  N  N39  1  0.12117300  0.28602300  0.97877900  1
  N  N40  1  0.47877900  0.37882700  0.71397700  1
  N  N41  1  0.02122100  0.62117300  0.21397700  1
  N  N42  1  0.62117300  0.21397700  0.02122100  1
  N  N43  1  0.21397700  0.02122100  0.62117300  1
  N  N44  1  0.46087200  0.87507000  0.28709500  1
  N  N45  1  0.96087200  0.62493000  0.71290500  1
  N  N46  1  0.53912800  0.37507000  0.21290500  1
  N  N47  1  0.62493000  0.71290500  0.96087200  1
  N  N48  1  0.96387900  0.53612100  0.46387900  1
  N  N49  1  0.53612100  0.46387900  0.96387900  1
  N  N50  1  0.46387900  0.96387900  0.53612100  1
  N  N51  1  0.03612100  0.03612100  0.03612100  1
  N  N52  1  0.28885700  0.21114300  0.78885700  1
  N  N53  1  0.21114300  0.78885700  0.28885700  1
  N  N54  1  0.78885700  0.28885700  0.21114300  1
  N  N55  1  0.37882700  0.71397700  0.47877900  1
  N  N56  1  0.46086700  0.62907600  0.77227700  1
  N  N57  1  0.78602300  0.52122100  0.87882700  1
  N  N58  1  0.71397700  0.47877900  0.37882700  1
  N  N59  1  0.52122100  0.87882700  0.78602300  1
  N  N60  1  0.27227700  0.03913300  0.37092400  1
  N  N61  1  0.37092400  0.27227700  0.03913300  1
  N  N62  1  0.03913300  0.37092400  0.27227700  1
  N  N63  1  0.21290500  0.53912800  0.37507000  1
  N  N64  1  0.87092400  0.22772300  0.96086700  1
  N  N65  1  0.96086700  0.87092400  0.22772300  1
  N  N66  1  0.12907500  0.72772300  0.53913300  1
  N  N67  1  0.62907600  0.77227700  0.46086700  1
  N  N68  1  0.53913300  0.12907500  0.72772300  1
  N  N69  1  0.77227700  0.46086700  0.62907600  1
  N  N70  1  0.72772300  0.53913300  0.12907500  1
  N  N71  1  0.22772300  0.96086700  0.87092400  1
  N  N72  1  0.03912800  0.12493000  0.78709500  1
  N  N73  1  0.78709500  0.03912800  0.12493000  1
  N  N74  1  0.12493000  0.78709500  0.03912800  1
  N  N75  1  0.37507000  0.21290500  0.53912800  1
  N  N76  1  0.28709500  0.46087200  0.87507000  1
  N  N77  1  0.87507000  0.28709500  0.46087200  1
  N  N78  1  0.71290500  0.96087200  0.62493000  1
  N  N79  1  0.28602300  0.97877900  0.12117300  1
