# generated using pymatgen
data_Sr5(AlSb3)2
_symmetry_space_group_name_H-M   'P 1'
_cell_length_a   10.41128900
_cell_length_b   12.19525500
_cell_length_c   13.65521300
_cell_angle_alpha   90.00000000
_cell_angle_beta   90.00000000
_cell_angle_gamma   90.00000000
_symmetry_Int_Tables_number   1
_chemical_formula_structural   Sr5(AlSb3)2
_chemical_formula_sum   'Sr20 Al8 Sb24'
_cell_volume   1733.77951166
_cell_formula_units_Z   4
loop_
 _symmetry_equiv_pos_site_id
 _symmetry_equiv_pos_as_xyz
  1  'x, y, z'
loop_
 _atom_site_type_symbol
 _atom_site_label
 _atom_site_symmetry_multiplicity
 _atom_site_fract_x
 _atom_site_fract_y
 _atom_site_fract_z
 _atom_site_occupancy
  Sr  Sr0  1  0.98004600  0.83157000  0.46556400  1
  Sr  Sr1  1  0.25000000  0.16083400  0.81328900  1
  Sr  Sr2  1  0.48004600  0.66843000  0.96556400  1
  Sr  Sr3  1  0.51995400  0.33157000  0.03443600  1
  Sr  Sr4  1  0.47425500  0.58103900  0.26249200  1
  Sr  Sr5  1  0.52574500  0.91896100  0.76249200  1
  Sr  Sr6  1  0.75000000  0.33916600  0.31328900  1
  Sr  Sr7  1  0.48004600  0.16843000  0.53443600  1
  Sr  Sr8  1  0.02574500  0.08103900  0.23750800  1
  Sr  Sr9  1  0.02574500  0.58103900  0.26249200  1
  Sr  Sr10  1  0.52574500  0.41896100  0.73750800  1
  Sr  Sr11  1  0.75000000  0.83916600  0.18671100  1
  Sr  Sr12  1  0.98004600  0.33157000  0.03443600  1
  Sr  Sr13  1  0.51995400  0.83157000  0.46556400  1
  Sr  Sr14  1  0.01995400  0.66843000  0.96556400  1
  Sr  Sr15  1  0.47425500  0.08103900  0.23750800  1
  Sr  Sr16  1  0.97425500  0.41896100  0.73750800  1
  Sr  Sr17  1  0.97425500  0.91896100  0.76249200  1
  Sr  Sr18  1  0.25000000  0.66083400  0.68671100  1
  Sr  Sr19  1  0.01995400  0.16843000  0.53443600  1
  Al  Al20  1  0.75000000  0.57978900  0.56581200  1
  Al  Al21  1  0.25000000  0.42021100  0.43418800  1
  Al  Al22  1  0.25000000  0.81050500  0.29907000  1
  Al  Al23  1  0.75000000  0.18949500  0.70093000  1
  Al  Al24  1  0.25000000  0.92021100  0.06581200  1
  Al  Al25  1  0.75000000  0.68949500  0.79907000  1
  Al  Al26  1  0.75000000  0.07978900  0.93418800  1
  Al  Al27  1  0.25000000  0.31050500  0.20093000  1
  Sb  Sb28  1  0.75000000  0.64354700  0.37750000  1
  Sb  Sb29  1  0.05676600  0.82692200  0.16918900  1
  Sb  Sb30  1  0.94323400  0.67307800  0.66918900  1
  Sb  Sb31  1  0.25000000  0.95400200  0.62381400  1
  Sb  Sb32  1  0.05676600  0.32692200  0.33081100  1
  Sb  Sb33  1  0.25000000  0.64957100  0.43721200  1
  Sb  Sb34  1  0.44323400  0.32692200  0.33081100  1
  Sb  Sb35  1  0.55676600  0.17307800  0.83081100  1
  Sb  Sb36  1  0.25000000  0.49872100  0.08851100  1
  Sb  Sb37  1  0.75000000  0.35042900  0.56278800  1
  Sb  Sb38  1  0.25000000  0.14957100  0.06278800  1
  Sb  Sb39  1  0.25000000  0.45400200  0.87618600  1
  Sb  Sb40  1  0.55676600  0.67307800  0.66918900  1
  Sb  Sb41  1  0.25000000  0.35645300  0.62250000  1
  Sb  Sb42  1  0.75000000  0.14354700  0.12250000  1
  Sb  Sb43  1  0.94323400  0.17307800  0.83081100  1
  Sb  Sb44  1  0.75000000  0.00127900  0.58851100  1
  Sb  Sb45  1  0.75000000  0.04599800  0.37618600  1
  Sb  Sb46  1  0.75000000  0.54599800  0.12381400  1
  Sb  Sb47  1  0.75000000  0.50127900  0.91148900  1
  Sb  Sb48  1  0.25000000  0.99872100  0.41148900  1
  Sb  Sb49  1  0.75000000  0.85042900  0.93721200  1
  Sb  Sb50  1  0.44323400  0.82692200  0.16918900  1
  Sb  Sb51  1  0.25000000  0.85645300  0.87750000  1
