# generated using pymatgen
data_GaH18C3(N3F2)3
_symmetry_space_group_name_H-M   'P 1'
_cell_length_a   14.22982665
_cell_length_b   14.22982665
_cell_length_c   14.22982665
_cell_angle_alpha   90.00000000
_cell_angle_beta   90.00000000
_cell_angle_gamma   90.00000000
_symmetry_Int_Tables_number   1
_chemical_formula_structural   GaH18C3(N3F2)3
_chemical_formula_sum   'Ga8 H144 C24 N72 F48'
_cell_volume   2881.36866185
_cell_formula_units_Z   8
loop_
 _symmetry_equiv_pos_site_id
 _symmetry_equiv_pos_as_xyz
  1  'x, y, z'
loop_
 _atom_site_type_symbol
 _atom_site_label
 _atom_site_symmetry_multiplicity
 _atom_site_fract_x
 _atom_site_fract_y
 _atom_site_fract_z
 _atom_site_occupancy
  H  H0  1  0.89733247  0.81427607  0.53030212  1
  H  H1  1  0.53030212  0.89733247  0.81427607  1
  H  H2  1  0.81427607  0.53030212  0.89733247  1
  H  H3  1  0.68572393  0.46969788  0.39733247  1
  H  H4  1  0.03030212  0.60266753  0.18572393  1
  H  H5  1  0.18572393  0.03030212  0.60266753  1
  H  H6  1  0.96969788  0.10266753  0.31427607  1
  H  H7  1  0.46969788  0.39733247  0.68572393  1
  H  H8  1  0.31427607  0.96969788  0.10266753  1
  H  H9  1  0.39733247  0.68572393  0.46969788  1
  H  H10  1  0.10266753  0.31427607  0.96969788  1
  H  H11  1  0.60266753  0.18572393  0.03030212  1
  H  H12  1  0.10266753  0.18572393  0.46969788  1
  H  H13  1  0.46969788  0.10266753  0.18572393  1
  H  H14  1  0.18572393  0.46969788  0.10266753  1
  H  H15  1  0.31427607  0.53030212  0.60266753  1
  H  H16  1  0.96969788  0.39733247  0.81427607  1
  H  H17  1  0.81427607  0.96969788  0.39733247  1
  H  H18  1  0.03030212  0.89733247  0.68572393  1
  H  H19  1  0.53030212  0.60266753  0.31427607  1
  H  H20  1  0.68572393  0.03030212  0.89733247  1
  H  H21  1  0.60266753  0.31427607  0.53030212  1
  H  H22  1  0.89733247  0.68572393  0.03030212  1
  H  H23  1  0.39733247  0.81427607  0.96969788  1
  H  H24  1  0.89868296  0.69303115  0.51227981  1
  H  H25  1  0.51227981  0.89868296  0.69303115  1
  H  H26  1  0.69303115  0.51227981  0.89868296  1
  H  H27  1  0.80696885  0.48772019  0.39868296  1
  H  H28  1  0.01227981  0.60131704  0.30696885  1
  H  H29  1  0.30696885  0.01227981  0.60131704  1
  H  H30  1  0.98772019  0.10131704  0.19303115  1
  H  H31  1  0.48772019  0.39868296  0.80696885  1
  H  H32  1  0.19303115  0.98772019  0.10131704  1
  H  H33  1  0.39868296  0.80696885  0.48772019  1
  H  H34  1  0.10131704  0.19303115  0.98772019  1
  H  H35  1  0.60131704  0.30696885  0.01227981  1
  H  H36  1  0.10131704  0.30696885  0.48772019  1
  H  H37  1  0.48772019  0.10131704  0.30696885  1
  H  H38  1  0.30696885  0.48772019  0.10131704  1
  H  H39  1  0.19303115  0.51227981  0.60131704  1
  H  H40  1  0.98772019  0.39868296  0.69303115  1
  H  H41  1  0.69303115  0.98772019  0.39868296  1
  H  H42  1  0.01227981  0.89868296  0.80696885  1
  H  H43  1  0.51227981  0.60131704  0.19303115  1
  H  H44  1  0.80696885  0.01227981  0.89868296  1
  H  H45  1  0.60131704  0.19303115  0.51227981  1
  H  H46  1  0.89868296  0.80696885  0.01227981  1
  H  H47  1  0.39868296  0.69303115  0.98772019  1
  H  H48  1  0.64883993  0.83690212  0.53635726  1
  H  H49  1  0.53635726  0.64883993  0.83690212  1
  H  H50  1  0.83690212  0.53635726  0.64883993  1
  H  H51  1  0.66309788  0.46364274  0.14883993  1
  H  H52  1  0.03635726  0.85116007  0.16309788  1
  H  H53  1  0.16309788  0.03635726  0.85116007  1
  H  H54  1  0.96364274  0.35116007  0.33690212  1
  H  H55  1  0.46364274  0.14883993  0.66309788  1
  H  H56  1  0.33690212  0.96364274  0.35116007  1
  H  H57  1  0.14883993  0.66309788  0.46364274  1
  H  H58  1  0.35116007  0.33690212  0.96364274  1
  H  H59  1  0.85116007  0.16309788  0.03635726  1
  H  H60  1  0.35116007  0.16309788  0.46364274  1
  H  H61  1  0.46364274  0.35116007  0.16309788  1
  H  H62  1  0.16309788  0.46364274  0.35116007  1
  H  H63  1  0.33690212  0.53635726  0.85116007  1
  H  H64  1  0.96364274  0.14883993  0.83690212  1
  H  H65  1  0.83690212  0.96364274  0.14883993  1
  H  H66  1  0.03635726  0.64883993  0.66309788  1
  H  H67  1  0.53635726  0.85116007  0.33690212  1
  H  H68  1  0.66309788  0.03635726  0.64883993  1
  H  H69  1  0.85116007  0.33690212  0.53635726  1
  H  H70  1  0.64883993  0.66309788  0.03635726  1
  H  H71  1  0.14883993  0.83690212  0.96364274  1
  H  H72  1  0.75848717  0.89216543  0.54187395  1
  H  H73  1  0.54187395  0.75848717  0.89216543  1
  H  H74  1  0.89216543  0.54187395  0.75848717  1
  H  H75  1  0.60783457  0.45812605  0.25848717  1
  H  H76  1  0.04187395  0.74151283  0.10783457  1
  H  H77  1  0.10783457  0.04187395  0.74151283  1
  H  H78  1  0.95812605  0.24151283  0.39216543  1
  H  H79  1  0.45812605  0.25848717  0.60783457  1
  H  H80  1  0.39216543  0.95812605  0.24151283  1
  H  H81  1  0.25848717  0.60783457  0.45812605  1
  H  H82  1  0.24151283  0.39216543  0.95812605  1
  H  H83  1  0.74151283  0.10783457  0.04187395  1
  H  H84  1  0.24151283  0.10783457  0.45812605  1
  H  H85  1  0.45812605  0.24151283  0.10783457  1
  H  H86  1  0.10783457  0.45812605  0.24151283  1
  H  H87  1  0.39216543  0.54187395  0.74151283  1
  H  H88  1  0.95812605  0.25848717  0.89216543  1
  H  H89  1  0.89216543  0.95812605  0.25848717  1
  H  H90  1  0.04187395  0.75848717  0.60783457  1
  H  H91  1  0.54187395  0.74151283  0.39216543  1
  H  H92  1  0.60783457  0.04187395  0.75848717  1
  H  H93  1  0.74151283  0.39216543  0.54187395  1
  H  H94  1  0.75848717  0.60783457  0.04187395  1
  H  H95  1  0.25848717  0.89216543  0.95812605  1
  H  H96  1  0.65088221  0.66356058  0.50938612  1
  H  H97  1  0.50938612  0.65088221  0.66356058  1
  H  H98  1  0.66356058  0.50938612  0.65088221  1
  H  H99  1  0.83643942  0.49061388  0.15088221  1
  H  H100  1  0.00938612  0.84911779  0.33643942  1
  H  H101  1  0.33643942  0.00938612  0.84911779  1
  H  H102  1  0.99061388  0.34911779  0.16356058  1
  H  H103  1  0.49061388  0.15088221  0.83643942  1
  H  H104  1  0.16356058  0.99061388  0.34911779  1
  H  H105  1  0.15088221  0.83643942  0.49061388  1
  H  H106  1  0.34911779  0.16356058  0.99061388  1
  H  H107  1  0.84911779  0.33643942  0.00938612  1
  H  H108  1  0.34911779  0.33643942  0.49061388  1
  H  H109  1  0.49061388  0.34911779  0.33643942  1
  H  H110  1  0.33643942  0.49061388  0.34911779  1
  H  H111  1  0.16356058  0.50938612  0.84911779  1
  H  H112  1  0.99061388  0.15088221  0.66356058  1
  H  H113  1  0.66356058  0.99061388  0.15088221  1
  H  H114  1  0.00938612  0.65088221  0.83643942  1
  H  H115  1  0.50938612  0.84911779  0.16356058  1
  H  H116  1  0.83643942  0.00938612  0.65088221  1
  H  H117  1  0.84911779  0.16356058  0.50938612  1
  H  H118  1  0.65088221  0.83643942  0.00938612  1
  H  H119  1  0.15088221  0.66356058  0.99061388  1
  H  H120  1  0.76212550  0.61063532  0.50694352  1
  H  H121  1  0.50694352  0.76212550  0.61063532  1
  H  H122  1  0.61063532  0.50694352  0.76212550  1
  H  H123  1  0.88936468  0.49305648  0.26212550  1
  H  H124  1  0.00694352  0.73787450  0.38936468  1
  H  H125  1  0.38936468  0.00694352  0.73787450  1
  H  H126  1  0.99305648  0.23787450  0.11063532  1
  H  H127  1  0.49305648  0.26212550  0.88936468  1
  H  H128  1  0.11063532  0.99305648  0.23787450  1
  H  H129  1  0.26212550  0.88936468  0.49305648  1
  H  H130  1  0.23787450  0.11063532  0.99305648  1
  H  H131  1  0.73787450  0.38936468  0.00694352  1
  H  H132  1  0.23787450  0.38936468  0.49305648  1
  H  H133  1  0.49305648  0.23787450  0.38936468  1
  H  H134  1  0.38936468  0.49305648  0.23787450  1
  H  H135  1  0.11063532  0.50694352  0.73787450  1
  H  H136  1  0.99305648  0.26212550  0.61063532  1
  H  H137  1  0.61063532  0.99305648  0.26212550  1
  H  H138  1  0.00694352  0.76212550  0.88936468  1
  H  H139  1  0.50694352  0.73787450  0.11063532  1
  H  H140  1  0.88936468  0.00694352  0.76212550  1
  H  H141  1  0.73787450  0.11063532  0.50694352  1
  H  H142  1  0.76212550  0.88936468  0.00694352  1
  H  H143  1  0.26212550  0.61063532  0.99305648  1
  C  C144  1  0.76701876  0.75136026  0.52659016  1
  C  C145  1  0.52659016  0.76701876  0.75136026  1
  C  C146  1  0.75136026  0.52659016  0.76701876  1
  C  C147  1  0.74863974  0.47340984  0.26701876  1
  C  C148  1  0.02659016  0.73298124  0.24863974  1
  C  C149  1  0.24863974  0.02659016  0.73298124  1
  C  C150  1  0.97340984  0.23298124  0.25136026  1
  C  C151  1  0.47340984  0.26701876  0.74863974  1
  C  C152  1  0.25136026  0.97340984  0.23298124  1
  C  C153  1  0.26701876  0.74863974  0.47340984  1
  C  C154  1  0.23298124  0.25136026  0.97340984  1
  C  C155  1  0.73298124  0.24863974  0.02659016  1
  C  C156  1  0.23298124  0.24863974  0.47340984  1
  C  C157  1  0.47340984  0.23298124  0.24863974  1
  C  C158  1  0.24863974  0.47340984  0.23298124  1
  C  C159  1  0.25136026  0.52659016  0.73298124  1
  C  C160  1  0.97340984  0.26701876  0.75136026  1
  C  C161  1  0.75136026  0.97340984  0.26701876  1
  C  C162  1  0.02659016  0.76701876  0.74863974  1
  C  C163  1  0.52659016  0.73298124  0.25136026  1
  C  C164  1  0.74863974  0.02659016  0.76701876  1
  C  C165  1  0.73298124  0.25136026  0.52659016  1
  C  C166  1  0.76701876  0.74863974  0.02659016  1
  C  C167  1  0.26701876  0.75136026  0.97340984  1
  N  N168  1  0.86110640  0.75279437  0.52433896  1
  N  N169  1  0.52433896  0.86110640  0.75279437  1
  N  N170  1  0.75279437  0.52433896  0.86110640  1
  N  N171  1  0.74720563  0.47566104  0.36110640  1
  N  N172  1  0.02433896  0.63889360  0.24720563  1
  N  N173  1  0.24720563  0.02433896  0.63889360  1
  N  N174  1  0.97566104  0.13889360  0.25279437  1
  N  N175  1  0.47566104  0.36110640  0.74720563  1
  N  N176  1  0.25279437  0.97566104  0.13889360  1
  N  N177  1  0.36110640  0.74720563  0.47566104  1
  N  N178  1  0.13889360  0.25279437  0.97566104  1
  N  N179  1  0.63889360  0.24720563  0.02433896  1
  N  N180  1  0.13889360  0.24720563  0.47566104  1
  N  N181  1  0.47566104  0.13889360  0.24720563  1
  N  N182  1  0.24720563  0.47566104  0.13889360  1
  N  N183  1  0.25279437  0.52433896  0.63889360  1
  N  N184  1  0.97566104  0.36110640  0.75279437  1
  N  N185  1  0.75279437  0.97566104  0.36110640  1
  N  N186  1  0.02433896  0.86110640  0.74720563  1
  N  N187  1  0.52433896  0.63889360  0.25279437  1
  N  N188  1  0.74720563  0.02433896  0.86110640  1
  N  N189  1  0.63889360  0.25279437  0.52433896  1
  N  N190  1  0.86110640  0.74720563  0.02433896  1
  N  N191  1  0.36110640  0.75279437  0.97566104  1
  N  N192  1  0.72039077  0.83161207  0.54172386  1
  N  N193  1  0.54172386  0.72039077  0.83161207  1
  N  N194  1  0.83161207  0.54172386  0.72039077  1
  N  N195  1  0.66838793  0.45827614  0.22039077  1
  N  N196  1  0.04172386  0.77960923  0.16838793  1
  N  N197  1  0.16838793  0.04172386  0.77960923  1
  N  N198  1  0.95827614  0.27960923  0.33161207  1
  N  N199  1  0.45827614  0.22039077  0.66838793  1
  N  N200  1  0.33161207  0.95827614  0.27960923  1
  N  N201  1  0.22039077  0.66838793  0.45827614  1
  N  N202  1  0.27960923  0.33161207  0.95827614  1
  N  N203  1  0.77960923  0.16838793  0.04172386  1
  N  N204  1  0.27960923  0.16838793  0.45827614  1
  N  N205  1  0.45827614  0.27960923  0.16838793  1
  N  N206  1  0.16838793  0.45827614  0.27960923  1
  N  N207  1  0.33161207  0.54172386  0.77960923  1
  N  N208  1  0.95827614  0.22039077  0.83161207  1
  N  N209  1  0.83161207  0.95827614  0.22039077  1
  N  N210  1  0.04172386  0.72039077  0.66838793  1
  N  N211  1  0.54172386  0.77960923  0.33161207  1
  N  N212  1  0.66838793  0.04172386  0.72039077  1
  N  N213  1  0.77960923  0.33161207  0.54172386  1
  N  N214  1  0.72039077  0.66838793  0.04172386  1
  N  N215  1  0.22039077  0.83161207  0.95827614  1
  N  N216  1  0.72233503  0.66954772  0.51547758  1
  N  N217  1  0.51547758  0.72233503  0.66954772  1
  N  N218  1  0.66954772  0.51547758  0.72233503  1
  N  N219  1  0.83045228  0.48452242  0.22233503  1
  N  N220  1  0.01547758  0.77766497  0.33045228  1
  N  N221  1  0.33045228  0.01547758  0.77766497  1
  N  N222  1  0.98452242  0.27766497  0.16954772  1
  N  N223  1  0.48452242  0.22233503  0.83045228  1
  N  N224  1  0.16954772  0.98452242  0.27766497  1
  N  N225  1  0.22233503  0.83045228  0.48452242  1
  N  N226  1  0.27766497  0.16954772  0.98452242  1
  N  N227  1  0.77766497  0.33045228  0.01547758  1
  N  N228  1  0.27766497  0.33045228  0.48452242  1
  N  N229  1  0.48452242  0.27766497  0.33045228  1
  N  N230  1  0.33045228  0.48452242  0.27766497  1
  N  N231  1  0.16954772  0.51547758  0.77766497  1
  N  N232  1  0.98452242  0.22233503  0.66954772  1
  N  N233  1  0.66954772  0.98452242  0.22233503  1
  N  N234  1  0.01547758  0.72233503  0.83045228  1
  N  N235  1  0.51547758  0.77766497  0.16954772  1
  N  N236  1  0.83045228  0.01547758  0.72233503  1
  N  N237  1  0.77766497  0.16954772  0.51547758  1
  N  N238  1  0.72233503  0.83045228  0.01547758  1
  N  N239  1  0.22233503  0.66954772  0.98452242  1
  F  F240  1  0.03042208  0.63032390  0.02613510  1
  F  F241  1  0.02613510  0.03042208  0.63032390  1
  F  F242  1  0.63032390  0.02613510  0.03042208  1
  F  F243  1  0.86967610  0.97386490  0.53042208  1
  F  F244  1  0.52613510  0.46957792  0.36967610  1
  F  F245  1  0.36967610  0.52613510  0.46957792  1
  F  F246  1  0.47386490  0.96957792  0.13032390  1
  F  F247  1  0.97386490  0.53042208  0.86967610  1
  F  F248  1  0.13032390  0.47386490  0.96957792  1
  F  F249  1  0.53042208  0.86967610  0.97386490  1
  F  F250  1  0.96957792  0.13032390  0.47386490  1
  F  F251  1  0.46957792  0.36967610  0.52613510  1
  F  F252  1  0.96957792  0.36967610  0.97386490  1
  F  F253  1  0.97386490  0.96957792  0.36967610  1
  F  F254  1  0.36967610  0.97386490  0.96957792  1
  F  F255  1  0.13032390  0.02613510  0.46957792  1
  F  F256  1  0.47386490  0.53042208  0.63032390  1
  F  F257  1  0.63032390  0.47386490  0.53042208  1
  F  F258  1  0.52613510  0.03042208  0.86967610  1
  F  F259  1  0.02613510  0.46957792  0.13032390  1
  F  F260  1  0.86967610  0.52613510  0.03042208  1
  F  F261  1  0.46957792  0.13032390  0.02613510  1
  F  F262  1  0.03042208  0.86967610  0.52613510  1
  F  F263  1  0.53042208  0.63032390  0.47386490  1
  F  F264  1  0.02145330  0.63186288  0.47257929  1
  F  F265  1  0.47257929  0.02145330  0.63186288  1
  F  F266  1  0.63186288  0.47257929  0.02145330  1
  F  F267  1  0.86813712  0.52742071  0.52145330  1
  F  F268  1  0.97257929  0.47854670  0.36813712  1
  F  F269  1  0.36813712  0.97257929  0.47854670  1
  F  F270  1  0.02742071  0.97854670  0.13186288  1
  F  F271  1  0.52742071  0.52145330  0.86813712  1
  F  F272  1  0.13186288  0.02742071  0.97854670  1
  F  F273  1  0.52145330  0.86813712  0.52742071  1
  F  F274  1  0.97854670  0.13186288  0.02742071  1
  F  F275  1  0.47854670  0.36813712  0.97257929  1
  F  F276  1  0.97854670  0.36813712  0.52742071  1
  F  F277  1  0.52742071  0.97854670  0.36813712  1
  F  F278  1  0.36813712  0.52742071  0.97854670  1
  F  F279  1  0.13186288  0.47257929  0.47854670  1
  F  F280  1  0.02742071  0.52145330  0.63186288  1
  F  F281  1  0.63186288  0.02742071  0.52145330  1
  F  F282  1  0.97257929  0.02145330  0.86813712  1
  F  F283  1  0.47257929  0.47854670  0.13186288  1
  F  F284  1  0.86813712  0.97257929  0.02145330  1
  F  F285  1  0.47854670  0.13186288  0.47257929  1
  F  F286  1  0.02145330  0.86813712  0.97257929  1
  F  F287  1  0.52145330  0.63186288  0.02742071  1
  Ga  Ga288  1  0.00000000  0.50000000  0.00000000  1
  Ga  Ga289  1  0.00000000  0.00000000  0.50000000  1
  Ga  Ga290  1  0.50000000  0.00000000  0.00000000  1
  Ga  Ga291  1  0.50000000  0.50000000  0.50000000  1
  Ga  Ga292  1  0.00000000  0.50000000  0.50000000  1
  Ga  Ga293  1  0.50000000  0.00000000  0.50000000  1
  Ga  Ga294  1  0.50000000  0.50000000  0.00000000  1
  Ga  Ga295  1  0.00000000  0.00000000  0.00000000  1
