# generated using pymatgen
data_GdScSi
_symmetry_space_group_name_H-M   'P 1'
_cell_length_a   8.33712102
_cell_length_b   8.33712102
_cell_length_c   8.33712102
_cell_angle_alpha   150.73093411
_cell_angle_beta   150.73093411
_cell_angle_gamma   41.86951864
_symmetry_Int_Tables_number   1
_chemical_formula_structural   GdScSi
_chemical_formula_sum   'Gd2 Sc2 Si2'
_cell_volume   138.19647601
_cell_formula_units_Z   2
loop_
 _symmetry_equiv_pos_site_id
 _symmetry_equiv_pos_as_xyz
  1  'x, y, z'
loop_
 _atom_site_type_symbol
 _atom_site_label
 _atom_site_symmetry_multiplicity
 _atom_site_fract_x
 _atom_site_fract_y
 _atom_site_fract_z
 _atom_site_occupancy
  Gd  Gd0  1  0.67787500  0.67787500  0.00000000  1
  Gd  Gd1  1  0.32212500  0.32212500  0.00000000  1
  Sc  Sc2  1  0.00000000  0.50000000  0.50000000  1
  Sc  Sc3  1  0.50000000  0.00000000  0.50000000  1
  Si  Si4  1  0.87495400  0.87495400  0.00000000  1
  Si  Si5  1  0.12504600  0.12504600  0.00000000  1
