# generated using pymatgen
data_H4BrN
_symmetry_space_group_name_H-M   'P 1'
_cell_length_a   5.84676400
_cell_length_b   5.84676400
_cell_length_c   4.35176300
_cell_angle_alpha   90.00000000
_cell_angle_beta   90.00000000
_cell_angle_gamma   90.00000000
_symmetry_Int_Tables_number   1
_chemical_formula_structural   H4BrN
_chemical_formula_sum   'H8 Br2 N2'
_cell_volume   148.76349187
_cell_formula_units_Z   2
loop_
 _symmetry_equiv_pos_site_id
 _symmetry_equiv_pos_as_xyz
  1  'x, y, z'
loop_
 _atom_site_type_symbol
 _atom_site_label
 _atom_site_symmetry_multiplicity
 _atom_site_fract_x
 _atom_site_fract_y
 _atom_site_fract_z
 _atom_site_occupancy
  H  H0  1  0.85328000  0.00000000  0.86285100  1
  H  H1  1  0.14672000  0.00000000  0.86285100  1
  H  H2  1  0.50000000  0.35328000  0.86285100  1
  H  H3  1  0.50000000  0.64672000  0.86285100  1
  H  H4  1  0.00000000  0.14672000  0.13714900  1
  H  H5  1  0.64672000  0.50000000  0.13714900  1
  H  H6  1  0.35328000  0.50000000  0.13714900  1
  H  H7  1  0.00000000  0.85328000  0.13714900  1
  Br  Br8  1  0.50000000  0.00000000  0.60253900  1
  Br  Br9  1  0.00000000  0.50000000  0.39746100  1
  N  N10  1  0.00000000  0.00000000  0.00000000  1
  N  N11  1  0.50000000  0.50000000  0.00000000  1
