# generated using pymatgen
data_Na3SiSe4
_symmetry_space_group_name_H-M   'P 1'
_cell_length_a   17.29445400
_cell_length_b   7.38454300
_cell_length_c   13.91295682
_cell_angle_alpha   80.92637157
_cell_angle_beta   90.00000000
_cell_angle_gamma   90.00000000
_symmetry_Int_Tables_number   1
_chemical_formula_structural   Na3SiSe4
_chemical_formula_sum   'Na24 Si8 Se32'
_cell_volume   1754.61194854
_cell_formula_units_Z   8
loop_
 _symmetry_equiv_pos_site_id
 _symmetry_equiv_pos_as_xyz
  1  'x, y, z'
loop_
 _atom_site_type_symbol
 _atom_site_label
 _atom_site_symmetry_multiplicity
 _atom_site_fract_x
 _atom_site_fract_y
 _atom_site_fract_z
 _atom_site_occupancy
  Na  Na0  1  0.94825700  0.05106100  0.28318900  1
  Na  Na1  1  0.44825700  0.94893900  0.21681100  1
  Na  Na2  1  0.05174300  0.94893900  0.71681100  1
  Na  Na3  1  0.55174300  0.05106100  0.78318900  1
  Na  Na4  1  0.67335600  0.57684400  0.76612800  1
  Na  Na5  1  0.17335600  0.42315600  0.73387200  1
  Na  Na6  1  0.32664400  0.42315600  0.23387200  1
  Na  Na7  1  0.82664400  0.57684400  0.26612800  1
  Na  Na8  1  0.69988500  0.98258600  0.28560100  1
  Na  Na9  1  0.19988500  0.01741400  0.21439900  1
  Na  Na10  1  0.30011500  0.01741400  0.71439900  1
  Na  Na11  1  0.80011500  0.98258600  0.78560100  1
  Na  Na12  1  0.60897100  0.41884400  0.02135000  1
  Na  Na13  1  0.10897100  0.58115600  0.47865000  1
  Na  Na14  1  0.39102900  0.58115600  0.97865000  1
  Na  Na15  1  0.89102900  0.41884400  0.52135000  1
  Na  Na16  1  0.67127500  0.29577400  0.50752800  1
  Na  Na17  1  0.93316800  0.75142500  0.00314900  1
  Na  Na18  1  0.56683200  0.75142500  0.50314900  1
  Na  Na19  1  0.06683200  0.24857500  0.99685100  1
  Na  Na20  1  0.82872500  0.29577400  0.00752800  1
  Na  Na21  1  0.32872500  0.70422600  0.49247200  1
  Na  Na22  1  0.17127500  0.70422600  0.99247200  1
  Na  Na23  1  0.43316800  0.24857500  0.49685100  1
  Si  Si24  1  0.02569600  0.60098500  0.23107100  1
  Si  Si25  1  0.52569600  0.39901500  0.26892900  1
  Si  Si26  1  0.97430400  0.39901500  0.76892900  1
  Si  Si27  1  0.47430400  0.60098500  0.73107100  1
  Si  Si28  1  0.77645900  0.88514700  0.52690400  1
  Si  Si29  1  0.27645900  0.11485300  0.97309600  1
  Si  Si30  1  0.22354100  0.11485300  0.47309600  1
  Si  Si31  1  0.72354100  0.88514700  0.02690400  1
  Se  Se32  1  0.96636500  0.67223200  0.36459300  1
  Se  Se33  1  0.10741100  0.19772900  0.38782200  1
  Se  Se34  1  0.39258900  0.19772900  0.88782200  1
  Se  Se35  1  0.89258900  0.80227100  0.61217800  1
  Se  Se36  1  0.06663200  0.85189600  0.12806300  1
  Se  Se37  1  0.56663200  0.14810400  0.37193700  1
  Se  Se38  1  0.93336800  0.14810400  0.87193700  1
  Se  Se39  1  0.43336800  0.85189600  0.62806300  1
  Se  Se40  1  0.73326100  0.66508900  0.44329000  1
  Se  Se41  1  0.23326100  0.33491100  0.05671000  1
  Se  Se42  1  0.26673900  0.33491100  0.55671000  1
  Se  Se43  1  0.76673900  0.66508900  0.94329000  1
  Se  Se44  1  0.14794000  0.47484100  0.28127200  1
  Se  Se45  1  0.64794000  0.52515900  0.21872800  1
  Se  Se46  1  0.85206000  0.52515900  0.71872800  1
  Se  Se47  1  0.35206000  0.47484100  0.78127200  1
  Se  Se48  1  0.60741100  0.80227100  0.11217800  1
  Se  Se49  1  0.46636500  0.32776800  0.13540700  1
  Se  Se50  1  0.03363500  0.32776800  0.63540700  1
  Se  Se51  1  0.53363500  0.67223200  0.86459300  1
  Se  Se52  1  0.81469100  0.94264100  0.13612900  1
  Se  Se53  1  0.31469100  0.05735900  0.36387100  1
  Se  Se54  1  0.18530900  0.05735900  0.86387100  1
  Se  Se55  1  0.68530900  0.94264100  0.63612900  1
  Se  Se56  1  0.81860400  0.13682100  0.42456200  1
  Se  Se57  1  0.31860400  0.86317900  0.07543800  1
  Se  Se58  1  0.18139600  0.86317900  0.57543800  1
  Se  Se59  1  0.68139600  0.13682100  0.92456200  1
  Se  Se60  1  0.45675600  0.59629700  0.34619300  1
  Se  Se61  1  0.95675600  0.40370300  0.15380700  1
  Se  Se62  1  0.54324400  0.40370300  0.65380700  1
  Se  Se63  1  0.04324400  0.59629700  0.84619300  1
