# generated using pymatgen
data_K2In3CuSe6
_symmetry_space_group_name_H-M   'P 1'
_cell_length_a   8.24992595
_cell_length_b   8.24992595
_cell_length_c   21.72278683
_cell_angle_alpha   84.59961231
_cell_angle_beta   84.59961231
_cell_angle_gamma   90.01928004
_symmetry_Int_Tables_number   1
_chemical_formula_structural   K2In3CuSe6
_chemical_formula_sum   'K8 In12 Cu4 Se24'
_cell_volume   1465.32173402
_cell_formula_units_Z   4
loop_
 _symmetry_equiv_pos_site_id
 _symmetry_equiv_pos_as_xyz
  1  'x, y, z'
loop_
 _atom_site_type_symbol
 _atom_site_label
 _atom_site_symmetry_multiplicity
 _atom_site_fract_x
 _atom_site_fract_y
 _atom_site_fract_z
 _atom_site_occupancy
  K  K0  1  0.76247700  0.39478600  0.41676600  1
  K  K1  1  0.60521400  0.23752300  0.08323400  1
  K  K2  1  0.23752300  0.60521400  0.58323400  1
  K  K3  1  0.39478600  0.76247700  0.91676600  1
  K  K4  1  0.78002000  0.89609300  0.41687300  1
  K  K5  1  0.10390700  0.21998000  0.08312700  1
  K  K6  1  0.21998000  0.10390700  0.58312700  1
  K  K7  1  0.89609300  0.78002000  0.91687300  1
  In  In8  1  0.27916000  0.15403200  0.38500500  1
  In  In9  1  0.84596800  0.72084000  0.11499500  1
  In  In10  1  0.72084000  0.84596800  0.61499500  1
  In  In11  1  0.15403200  0.27916000  0.88500500  1
  In  In12  1  0.34620100  0.72167500  0.11522800  1
  In  In13  1  0.27832500  0.65379900  0.38477200  1
  In  In14  1  0.65379900  0.27832500  0.88477200  1
  In  In15  1  0.72167500  0.34620100  0.61522800  1
  In  In16  1  0.56114100  0.43885900  0.25000000  1
  In  In17  1  0.43885900  0.56114100  0.75000000  1
  In  In18  1  0.06348500  0.93651500  0.25000000  1
  In  In19  1  0.93651500  0.06348500  0.75000000  1
  Cu  Cu20  1  0.06316300  0.43821600  0.24995700  1
  Cu  Cu21  1  0.56178400  0.93683700  0.25004300  1
  Cu  Cu22  1  0.93683700  0.56178400  0.75004300  1
  Cu  Cu23  1  0.43821600  0.06316300  0.74995700  1
  Se  Se24  1  0.18266800  0.02697900  0.81968600  1
  Se  Se25  1  0.97302100  0.81733200  0.68031400  1
  Se  Se26  1  0.81733200  0.97302100  0.18031400  1
  Se  Se27  1  0.02697900  0.18266800  0.31968600  1
  Se  Se28  1  0.15782400  0.56367900  0.81968700  1
  Se  Se29  1  0.43632100  0.84217600  0.68031300  1
  Se  Se30  1  0.84217600  0.43632100  0.18031300  1
  Se  Se31  1  0.56367900  0.15782400  0.31968700  1
  Se  Se32  1  0.97391200  0.34305100  0.68072600  1
  Se  Se33  1  0.65694900  0.02608800  0.81927400  1
  Se  Se34  1  0.02608800  0.65694900  0.31927400  1
  Se  Se35  1  0.34305100  0.97391200  0.18072600  1
  Se  Se36  1  0.88498100  0.26598700  0.95979500  1
  Se  Se37  1  0.73401300  0.11501900  0.54020500  1
  Se  Se38  1  0.11501900  0.73401300  0.04020500  1
  Se  Se39  1  0.26598700  0.88498100  0.45979500  1
  Se  Se40  1  0.43646300  0.31630700  0.68057100  1
  Se  Se41  1  0.68369300  0.56353700  0.81942900  1
  Se  Se42  1  0.56353700  0.68369300  0.31942900  1
  Se  Se43  1  0.31630700  0.43646300  0.18057100  1
  Se  Se44  1  0.38551000  0.25356500  0.95996900  1
  Se  Se45  1  0.74643500  0.61449000  0.54003100  1
  Se  Se46  1  0.61449000  0.74643500  0.04003100  1
  Se  Se47  1  0.25356500  0.38551000  0.45996900  1
