# generated using pymatgen
data_K2PrI5
_symmetry_space_group_name_H-M   'P 1'
_cell_length_a   9.33983400
_cell_length_b   9.94822000
_cell_length_c   14.65827700
_cell_angle_alpha   90.00000000
_cell_angle_beta   90.00000000
_cell_angle_gamma   90.00000000
_symmetry_Int_Tables_number   1
_chemical_formula_structural   K2PrI5
_chemical_formula_sum   'K8 Pr4 I20'
_cell_volume   1361.96975291
_cell_formula_units_Z   4
loop_
 _symmetry_equiv_pos_site_id
 _symmetry_equiv_pos_as_xyz
  1  'x, y, z'
loop_
 _atom_site_type_symbol
 _atom_site_label
 _atom_site_symmetry_multiplicity
 _atom_site_fract_x
 _atom_site_fract_y
 _atom_site_fract_z
 _atom_site_occupancy
  K  K0  1  0.43487200  0.50547800  0.67216300  1
  K  K1  1  0.93487200  0.49452200  0.82783700  1
  K  K2  1  0.56512800  0.00547800  0.32783700  1
  K  K3  1  0.06512800  0.99452200  0.17216300  1
  K  K4  1  0.56512800  0.49452200  0.32783700  1
  K  K5  1  0.06512800  0.50547800  0.17216300  1
  K  K6  1  0.43487200  0.99452200  0.67216300  1
  K  K7  1  0.93487200  0.00547800  0.82783700  1
  Pr  Pr8  1  0.91956500  0.75000000  0.50565000  1
  Pr  Pr9  1  0.58043500  0.75000000  0.00565000  1
  Pr  Pr10  1  0.08043500  0.25000000  0.49435000  1
  Pr  Pr11  1  0.41956500  0.25000000  0.99435000  1
  I  I12  1  0.57044400  0.75000000  0.50647800  1
  I  I13  1  0.33049600  0.95383200  0.92611200  1
  I  I14  1  0.83049600  0.04616800  0.57388800  1
  I  I15  1  0.66950400  0.45383200  0.07388800  1
  I  I16  1  0.07044400  0.25000000  0.99352200  1
  I  I17  1  0.65737400  0.75000000  0.79300100  1
  I  I18  1  0.92955600  0.75000000  0.00647800  1
  I  I19  1  0.42955600  0.25000000  0.49352200  1
  I  I20  1  0.12061900  0.75000000  0.68382100  1
  I  I21  1  0.15737400  0.25000000  0.70699900  1
  I  I22  1  0.34262600  0.25000000  0.20699900  1
  I  I23  1  0.84262600  0.75000000  0.29300100  1
  I  I24  1  0.66950400  0.04616800  0.07388800  1
  I  I25  1  0.62061900  0.25000000  0.81617900  1
  I  I26  1  0.87938100  0.25000000  0.31617900  1
  I  I27  1  0.37938100  0.75000000  0.18382100  1
  I  I28  1  0.83049600  0.45383200  0.57388800  1
  I  I29  1  0.33049600  0.54616800  0.92611200  1
  I  I30  1  0.16950400  0.95383200  0.42611200  1
  I  I31  1  0.16950400  0.54616800  0.42611200  1
