# generated using pymatgen
data_KAlSb4
_symmetry_space_group_name_H-M   'P 1'
_cell_length_a   4.27920200
_cell_length_b   10.55059100
_cell_length_c   18.28990700
_cell_angle_alpha   90.00000000
_cell_angle_beta   90.00000000
_cell_angle_gamma   90.00000000
_symmetry_Int_Tables_number   1
_chemical_formula_structural   KAlSb4
_chemical_formula_sum   'K4 Al4 Sb16'
_cell_volume   825.75473511
_cell_formula_units_Z   4
loop_
 _symmetry_equiv_pos_site_id
 _symmetry_equiv_pos_as_xyz
  1  'x, y, z'
loop_
 _atom_site_type_symbol
 _atom_site_label
 _atom_site_symmetry_multiplicity
 _atom_site_fract_x
 _atom_site_fract_y
 _atom_site_fract_z
 _atom_site_occupancy
  K  K0  1  0.25000000  0.32364600  0.93443500  1
  K  K1  1  0.75000000  0.67635400  0.06556500  1
  K  K2  1  0.25000000  0.82364600  0.56556500  1
  K  K3  1  0.75000000  0.17635400  0.43443500  1
  Al  Al4  1  0.25000000  0.18078600  0.13162700  1
  Al  Al5  1  0.75000000  0.81921400  0.86837300  1
  Al  Al6  1  0.25000000  0.68078600  0.36837300  1
  Al  Al7  1  0.75000000  0.31921400  0.63162700  1
  Sb  Sb8  1  0.75000000  0.82879400  0.39911000  1
  Sb  Sb9  1  0.25000000  0.17120600  0.60089000  1
  Sb  Sb10  1  0.75000000  0.32879400  0.10089000  1
  Sb  Sb11  1  0.25000000  0.67120600  0.89911000  1
  Sb  Sb12  1  0.75000000  0.38710000  0.77461800  1
  Sb  Sb13  1  0.25000000  0.61290000  0.22538200  1
  Sb  Sb14  1  0.75000000  0.88710000  0.72538200  1
  Sb  Sb15  1  0.25000000  0.11290000  0.27461800  1
  Sb  Sb16  1  0.75000000  0.53582000  0.54968200  1
  Sb  Sb17  1  0.25000000  0.46418000  0.45031800  1
  Sb  Sb18  1  0.75000000  0.03582000  0.95031800  1
  Sb  Sb19  1  0.25000000  0.96418000  0.04968200  1
  Sb  Sb20  1  0.75000000  0.92984000  0.25287200  1
  Sb  Sb21  1  0.25000000  0.07016000  0.74712800  1
  Sb  Sb22  1  0.75000000  0.42984000  0.24712800  1
  Sb  Sb23  1  0.25000000  0.57016000  0.75287200  1
