# generated using pymatgen
data_HoSi3Rh5
_symmetry_space_group_name_H-M   'P 1'
_cell_length_a   15.64253998
_cell_length_b   15.64253998
_cell_length_c   3.87927000
_cell_angle_alpha   90.00000000
_cell_angle_beta   90.00000000
_cell_angle_gamma   119.99999993
_symmetry_Int_Tables_number   1
_chemical_formula_structural   HoSi3Rh5
_chemical_formula_sum   'Ho6 Si18 Rh30'
_cell_volume   822.04423376
_cell_formula_units_Z   6
loop_
 _symmetry_equiv_pos_site_id
 _symmetry_equiv_pos_as_xyz
  1  'x, y, z'
loop_
 _atom_site_type_symbol
 _atom_site_label
 _atom_site_symmetry_multiplicity
 _atom_site_fract_x
 _atom_site_fract_y
 _atom_site_fract_z
 _atom_site_occupancy
  Ho  Ho0  1  0.60606900  0.89999400  0.25000000  1
  Ho  Ho1  1  0.70607500  0.60606900  0.75000000  1
  Ho  Ho2  1  0.89999400  0.29392500  0.75000000  1
  Ho  Ho3  1  0.10000600  0.70607500  0.25000000  1
  Ho  Ho4  1  0.29392500  0.39393100  0.25000000  1
  Ho  Ho5  1  0.39393100  0.10000600  0.75000000  1
  Si  Si6  1  0.44171100  0.76041600  0.75000000  1
  Si  Si7  1  0.68129500  0.44171100  0.25000000  1
  Si  Si8  1  0.76041600  0.31870500  0.25000000  1
  Si  Si9  1  0.23958400  0.68129500  0.75000000  1
  Si  Si10  1  0.31870500  0.55828900  0.75000000  1
  Si  Si11  1  0.55828900  0.23958400  0.25000000  1
  Si  Si12  1  0.88049800  0.13094700  0.25000000  1
  Si  Si13  1  0.11950200  0.86905300  0.75000000  1
  Si  Si14  1  0.13094700  0.25044900  0.75000000  1
  Si  Si15  1  0.25044900  0.11950200  0.25000000  1
  Si  Si16  1  0.37077800  0.93816000  0.25000000  1
  Si  Si17  1  0.43261800  0.37077800  0.75000000  1
  Si  Si18  1  0.93816000  0.56738200  0.75000000  1
  Si  Si19  1  0.06184000  0.43261800  0.25000000  1
  Si  Si20  1  0.56738200  0.62922200  0.25000000  1
  Si  Si21  1  0.62922200  0.06184000  0.75000000  1
  Si  Si22  1  0.74955100  0.88049800  0.75000000  1
  Si  Si23  1  0.86905300  0.74955100  0.25000000  1
  Rh  Rh24  1  0.46373200  0.92490800  0.75000000  1
  Rh  Rh25  1  0.15379200  0.41450600  0.75000000  1
  Rh  Rh26  1  0.26071400  0.84620800  0.75000000  1
  Rh  Rh27  1  0.73928600  0.15379200  0.25000000  1
  Rh  Rh28  1  0.84620800  0.58549400  0.25000000  1
  Rh  Rh29  1  0.41450600  0.26071400  0.25000000  1
  Rh  Rh30  1  0.65212500  0.22339600  0.75000000  1
  Rh  Rh31  1  0.42872900  0.65212500  0.25000000  1
  Rh  Rh32  1  0.22339600  0.57127100  0.25000000  1
  Rh  Rh33  1  0.77660400  0.42872900  0.75000000  1
  Rh  Rh34  1  0.57127100  0.34787500  0.75000000  1
  Rh  Rh35  1  0.34787500  0.77660400  0.25000000  1
  Rh  Rh36  1  0.14298800  0.02914100  0.75000000  1
  Rh  Rh37  1  0.11384700  0.14298800  0.25000000  1
  Rh  Rh38  1  0.02914100  0.88615300  0.25000000  1
  Rh  Rh39  1  0.97085900  0.11384700  0.75000000  1
  Rh  Rh40  1  0.88615300  0.85701200  0.75000000  1
  Rh  Rh41  1  0.85701200  0.97085900  0.25000000  1
  Rh  Rh42  1  0.92490800  0.46117600  0.25000000  1
  Rh  Rh43  1  0.07509200  0.53882400  0.75000000  1
  Rh  Rh44  1  0.46117600  0.53626800  0.75000000  1
  Rh  Rh45  1  0.53626800  0.07509200  0.25000000  1
  Rh  Rh46  1  0.72844400  0.77218400  0.25000000  1
  Rh  Rh47  1  0.95626000  0.72844400  0.75000000  1
  Rh  Rh48  1  0.77218400  0.04374000  0.75000000  1
  Rh  Rh49  1  0.22781600  0.95626000  0.25000000  1
  Rh  Rh50  1  0.04374000  0.27155600  0.25000000  1
  Rh  Rh51  1  0.27155600  0.22781600  0.75000000  1
  Rh  Rh52  1  0.58549400  0.73928600  0.75000000  1
  Rh  Rh53  1  0.53882400  0.46373200  0.25000000  1
