# generated using pymatgen
data_CeScS3
_symmetry_space_group_name_H-M   'P 1'
_cell_length_a   6.51202200
_cell_length_b   7.17247700
_cell_length_c   9.55071200
_cell_angle_alpha   90.00000000
_cell_angle_beta   90.00000000
_cell_angle_gamma   90.00000000
_symmetry_Int_Tables_number   1
_chemical_formula_structural   CeScS3
_chemical_formula_sum   'Ce4 Sc4 S12'
_cell_volume   446.08823819
_cell_formula_units_Z   4
loop_
 _symmetry_equiv_pos_site_id
 _symmetry_equiv_pos_as_xyz
  1  'x, y, z'
loop_
 _atom_site_type_symbol
 _atom_site_label
 _atom_site_symmetry_multiplicity
 _atom_site_fract_x
 _atom_site_fract_y
 _atom_site_fract_z
 _atom_site_occupancy
  Ce  Ce0  1  0.96318400  0.89992900  0.75000000  1
  Ce  Ce1  1  0.46318400  0.60007100  0.25000000  1
  Ce  Ce2  1  0.53681600  0.39992900  0.75000000  1
  Ce  Ce3  1  0.03681600  0.10007100  0.25000000  1
  Sc  Sc4  1  0.50000000  0.00000000  0.50000000  1
  Sc  Sc5  1  0.00000000  0.50000000  0.50000000  1
  Sc  Sc6  1  0.00000000  0.50000000  0.00000000  1
  Sc  Sc7  1  0.50000000  0.00000000  0.00000000  1
  S  S8  1  0.82248200  0.18659200  0.56256800  1
  S  S9  1  0.32248200  0.31340800  0.43743200  1
  S  S10  1  0.67751800  0.68659200  0.93743200  1
  S  S11  1  0.17751800  0.81340800  0.06256800  1
  S  S12  1  0.17751800  0.81340800  0.43743200  1
  S  S13  1  0.67751800  0.68659200  0.56256800  1
  S  S14  1  0.32248200  0.31340800  0.06256800  1
  S  S15  1  0.82248200  0.18659200  0.93743200  1
  S  S16  1  0.62945500  0.96191100  0.25000000  1
  S  S17  1  0.12945500  0.53808900  0.75000000  1
  S  S18  1  0.87054500  0.46191100  0.25000000  1
  S  S19  1  0.37054500  0.03808900  0.75000000  1
