# generated using pymatgen
data_Nb2SeF14
_symmetry_space_group_name_H-M   'P 1'
_cell_length_a   17.59701700
_cell_length_b   7.82361600
_cell_length_c   9.04874947
_cell_angle_alpha   76.22093838
_cell_angle_beta   90.00000000
_cell_angle_gamma   90.00000000
_symmetry_Int_Tables_number   1
_chemical_formula_structural   Nb2SeF14
_chemical_formula_sum   'Nb8 Se4 F56'
_cell_volume   1209.91087630
_cell_formula_units_Z   4
loop_
 _symmetry_equiv_pos_site_id
 _symmetry_equiv_pos_as_xyz
  1  'x, y, z'
loop_
 _atom_site_type_symbol
 _atom_site_label
 _atom_site_symmetry_multiplicity
 _atom_site_fract_x
 _atom_site_fract_y
 _atom_site_fract_z
 _atom_site_occupancy
  Nb  Nb0  1  0.81859400  0.77850900  0.22843400  1
  Nb  Nb1  1  0.31859400  0.22149100  0.27156600  1
  Nb  Nb2  1  0.18140600  0.22149100  0.77156600  1
  Nb  Nb3  1  0.68140600  0.77850900  0.72843400  1
  Nb  Nb4  1  0.53866500  0.21590900  0.67215500  1
  Nb  Nb5  1  0.03866500  0.78409100  0.82784500  1
  Nb  Nb6  1  0.46133500  0.78409100  0.32784500  1
  Nb  Nb7  1  0.96133500  0.21590900  0.17215500  1
  Se  Se8  1  0.86293400  0.16476100  0.62892500  1
  Se  Se9  1  0.36293400  0.83523900  0.87107500  1
  Se  Se10  1  0.13706600  0.83523900  0.37107500  1
  Se  Se11  1  0.63706600  0.16476100  0.12892500  1
  F  F12  1  0.66731200  0.17851300  0.30763300  1
  F  F13  1  0.16731200  0.82148700  0.19236700  1
  F  F14  1  0.33268800  0.82148700  0.69236700  1
  F  F15  1  0.83268800  0.17851300  0.80763300  1
  F  F16  1  0.70091700  0.32036500  0.03244000  1
  F  F17  1  0.20091700  0.67963500  0.46756000  1
  F  F18  1  0.29908300  0.67963500  0.96756000  1
  F  F19  1  0.79908300  0.32036500  0.53244000  1
  F  F20  1  0.56651400  0.31851100  0.12821300  1
  F  F21  1  0.06651400  0.68148900  0.37178700  1
  F  F22  1  0.43348600  0.68148900  0.87178700  1
  F  F23  1  0.93348600  0.31851100  0.62821300  1
  F  F24  1  0.75703700  0.97212400  0.66157100  1
  F  F25  1  0.25703700  0.02787600  0.83842900  1
  F  F26  1  0.24296300  0.02787600  0.33842900  1
  F  F27  1  0.74296300  0.97212400  0.16157100  1
  F  F28  1  0.60060600  0.61938000  0.79477700  1
  F  F29  1  0.10060600  0.38062000  0.70522300  1
  F  F30  1  0.39939400  0.38062000  0.20522300  1
  F  F31  1  0.89939400  0.61938000  0.29477700  1
  F  F32  1  0.75809800  0.60818500  0.76733000  1
  F  F33  1  0.25809800  0.39181500  0.73267000  1
  F  F34  1  0.24190200  0.39181500  0.23267000  1
  F  F35  1  0.74190200  0.60818500  0.26733000  1
  F  F36  1  0.67820900  0.84306900  0.91927100  1
  F  F37  1  0.17820900  0.15693100  0.58072900  1
  F  F38  1  0.32179100  0.15693100  0.08072900  1
  F  F39  1  0.82179100  0.84306900  0.41927100  1
  F  F40  1  0.66233700  0.78298400  0.52067600  1
  F  F41  1  0.16233700  0.21701600  0.97932400  1
  F  F42  1  0.33766300  0.21701600  0.47932400  1
  F  F43  1  0.83766300  0.78298400  0.02067600  1
  F  F44  1  0.60093800  0.98998300  0.67622200  1
  F  F45  1  0.10093800  0.01001700  0.82377800  1
  F  F46  1  0.39906200  0.01001700  0.32377800  1
  F  F47  1  0.89906200  0.98998300  0.17622200  1
  F  F48  1  0.45639600  0.04710600  0.75768100  1
  F  F49  1  0.95639600  0.95289400  0.74231900  1
  F  F50  1  0.54360400  0.95289400  0.24231900  1
  F  F51  1  0.04360400  0.04710600  0.25768100  1
  F  F52  1  0.62791800  0.34592600  0.60747500  1
  F  F53  1  0.12791800  0.65407400  0.89252500  1
  F  F54  1  0.37208200  0.65407400  0.39252500  1
  F  F55  1  0.87208200  0.34592600  0.10747500  1
  F  F56  1  0.47648500  0.40770900  0.67963800  1
  F  F57  1  0.97648500  0.59229100  0.82036200  1
  F  F58  1  0.52351500  0.59229100  0.32036200  1
  F  F59  1  0.02351500  0.40770900  0.17963800  1
  F  F60  1  0.57551500  0.17817900  0.88433600  1
  F  F61  1  0.07551500  0.82182100  0.61566400  1
  F  F62  1  0.42448500  0.82182100  0.11566400  1
  F  F63  1  0.92448500  0.17817900  0.38433600  1
  F  F64  1  0.51214900  0.20360500  0.47317900  1
  F  F65  1  0.01214900  0.79639500  0.02682100  1
  F  F66  1  0.48785100  0.79639500  0.52682100  1
  F  F67  1  0.98785100  0.20360500  0.97317900  1
