# generated using pymatgen
data_Cs2V4O9
_symmetry_space_group_name_H-M   'P 1'
_cell_length_a   5.85462578
_cell_length_b   5.85441979
_cell_length_c   16.16305182
_cell_angle_alpha   79.54714153
_cell_angle_beta   79.54440121
_cell_angle_gamma   89.88824698
_symmetry_Int_Tables_number   1
_chemical_formula_structural   Cs2V4O9
_chemical_formula_sum   'Cs4 V8 O18'
_cell_volume   535.48099761
_cell_formula_units_Z   2
loop_
 _symmetry_equiv_pos_site_id
 _symmetry_equiv_pos_as_xyz
  1  'x, y, z'
loop_
 _atom_site_type_symbol
 _atom_site_label
 _atom_site_symmetry_multiplicity
 _atom_site_fract_x
 _atom_site_fract_y
 _atom_site_fract_z
 _atom_site_occupancy
  Cs  Cs0  1  0.37491300  0.85725800  0.74990000  1
  Cs  Cs1  1  0.87518700  0.39285900  0.74988500  1
  Cs  Cs2  1  0.14285100  0.12517500  0.24988500  1
  Cs  Cs3  1  0.60725500  0.62492800  0.24989800  1
  V  V4  1  0.11903900  0.68653800  0.04737600  1
  V  V5  1  0.91556800  0.56352700  0.45269500  1
  V  V6  1  0.43645800  0.36890700  0.54731000  1
  V  V7  1  0.31357400  0.16569100  0.95261000  1
  V  V8  1  0.63174500  0.98372200  0.45266200  1
  V  V9  1  0.83369400  0.26613500  0.04730900  1
  V  V10  1  0.01616100  0.08377900  0.54732000  1
  V  V11  1  0.73375500  0.88177500  0.95260800  1
  O  O12  1  0.75001400  0.24998000  0.49997900  1
  O  O13  1  0.00002700  0.00002700  0.99997100  1
  O  O14  1  0.61358000  0.08594900  0.35073800  1
  O  O15  1  0.13780600  0.68650900  0.14924900  1
  O  O16  1  0.03573400  0.56324200  0.35076700  1
  O  O17  1  0.71289100  0.16428400  0.14925200  1
  O  O18  1  0.91431400  0.96290000  0.64922100  1
  O  O19  1  0.83598300  0.86358400  0.85069400  1
  O  O20  1  0.43651300  0.38779300  0.64916600  1
  O  O21  1  0.31323500  0.28581100  0.85071800  1
  O  O22  1  0.35432100  0.05231900  0.53167600  1
  O  O23  1  0.39614200  0.83269700  0.96850100  1
  O  O24  1  0.11395600  0.41595400  0.53169800  1
  O  O25  1  0.63538300  0.19884900  0.96850300  1
  O  O26  1  0.94886200  0.88533700  0.46852300  1
  O  O27  1  0.80238800  0.60432700  0.03167800  1
  O  O28  1  0.58265600  0.64613700  0.46850800  1
  O  O29  1  0.16599600  0.36400400  0.03170100  1
