# generated using pymatgen
data_Rb2SnTe5
_symmetry_space_group_name_H-M   'P 1'
_cell_length_a   10.07392986
_cell_length_b   10.07392986
_cell_length_c   10.07392986
_cell_angle_alpha   127.38042207
_cell_angle_beta   127.38042207
_cell_angle_gamma   77.63089198
_symmetry_Int_Tables_number   1
_chemical_formula_structural   Rb2SnTe5
_chemical_formula_sum   'Rb4 Sn2 Te10'
_cell_volume   625.94424925
_cell_formula_units_Z   2
loop_
 _symmetry_equiv_pos_site_id
 _symmetry_equiv_pos_as_xyz
  1  'x, y, z'
loop_
 _atom_site_type_symbol
 _atom_site_label
 _atom_site_symmetry_multiplicity
 _atom_site_fract_x
 _atom_site_fract_y
 _atom_site_fract_z
 _atom_site_occupancy
  Rb  Rb0  1  0.24603300  0.24603300  0.00000000  1
  Rb  Rb1  1  0.74603300  0.74603300  0.00000000  1
  Rb  Rb2  1  0.99567400  0.99567400  0.00000000  1
  Rb  Rb3  1  0.49567400  0.49567400  0.00000000  1
  Sn  Sn4  1  0.24707000  0.74707000  0.50000000  1
  Sn  Sn5  1  0.74707000  0.24707000  0.50000000  1
  Te  Te6  1  0.96053600  0.46053600  0.15374000  1
  Te  Te7  1  0.46053600  0.30679600  0.50000000  1
  Te  Te8  1  0.80679600  0.96053600  0.50000000  1
  Te  Te9  1  0.30679600  0.80679600  0.84626000  1
  Te  Te10  1  0.68654200  0.18654200  0.15305400  1
  Te  Te11  1  0.18654200  0.03348800  0.50000000  1
  Te  Te12  1  0.53348800  0.68654200  0.50000000  1
  Te  Te13  1  0.03348800  0.53348800  0.84694600  1
  Te  Te14  1  0.99696100  0.49696100  0.50000000  1
  Te  Te15  1  0.49696100  0.99696100  0.50000000  1
