# generated using pymatgen
data_RbDy2Cl7
_symmetry_space_group_name_H-M   'P 1'
_cell_length_a   7.00373200
_cell_length_b   12.69569800
_cell_length_c   13.60149900
_cell_angle_alpha   90.00000000
_cell_angle_beta   90.00000000
_cell_angle_gamma   90.00000000
_symmetry_Int_Tables_number   1
_chemical_formula_structural   RbDy2Cl7
_chemical_formula_sum   'Rb4 Dy8 Cl28'
_cell_volume   1209.40810927
_cell_formula_units_Z   4
loop_
 _symmetry_equiv_pos_site_id
 _symmetry_equiv_pos_as_xyz
  1  'x, y, z'
loop_
 _atom_site_type_symbol
 _atom_site_label
 _atom_site_symmetry_multiplicity
 _atom_site_fract_x
 _atom_site_fract_y
 _atom_site_fract_z
 _atom_site_occupancy
  Rb  Rb0  1  0.25000000  0.19492800  0.04048700  1
  Rb  Rb1  1  0.75000000  0.80507200  0.95951300  1
  Rb  Rb2  1  0.75000000  0.69492800  0.45951300  1
  Rb  Rb3  1  0.25000000  0.30507200  0.54048700  1
  Dy  Dy4  1  0.25000000  0.65712100  0.74907300  1
  Dy  Dy5  1  0.75000000  0.34287900  0.25092700  1
  Dy  Dy6  1  0.75000000  0.15712100  0.75092700  1
  Dy  Dy7  1  0.25000000  0.84287900  0.24907300  1
  Dy  Dy8  1  0.25000000  0.53987300  0.23728900  1
  Dy  Dy9  1  0.75000000  0.46012700  0.76271100  1
  Dy  Dy10  1  0.75000000  0.03987300  0.26271100  1
  Dy  Dy11  1  0.25000000  0.96012700  0.73728900  1
  Cl  Cl12  1  0.99027800  0.46030600  0.36578300  1
  Cl  Cl13  1  0.49027800  0.53969400  0.63421700  1
  Cl  Cl14  1  0.00972200  0.96030600  0.13421700  1
  Cl  Cl15  1  0.50972200  0.03969400  0.86578300  1
  Cl  Cl16  1  0.00972200  0.53969400  0.63421700  1
  Cl  Cl17  1  0.50972200  0.46030600  0.36578300  1
  Cl  Cl18  1  0.99027800  0.03969400  0.86578300  1
  Cl  Cl19  1  0.49027800  0.96030600  0.13421700  1
  Cl  Cl20  1  0.01047700  0.42194000  0.12460300  1
  Cl  Cl21  1  0.51047700  0.57806000  0.87539700  1
  Cl  Cl22  1  0.98952300  0.92194000  0.37539700  1
  Cl  Cl23  1  0.48952300  0.07806000  0.62460300  1
  Cl  Cl24  1  0.25000000  0.68817200  0.38858100  1
  Cl  Cl25  1  0.75000000  0.31182800  0.61141900  1
  Cl  Cl26  1  0.75000000  0.18817200  0.11141900  1
  Cl  Cl27  1  0.25000000  0.81182800  0.88858100  1
  Cl  Cl28  1  0.48988300  0.69321100  0.17602900  1
  Cl  Cl29  1  0.98988300  0.30678900  0.82397100  1
  Cl  Cl30  1  0.51011700  0.19321100  0.32397100  1
  Cl  Cl31  1  0.01011700  0.80678900  0.67602900  1
  Cl  Cl32  1  0.51011700  0.30678900  0.82397100  1
  Cl  Cl33  1  0.01011700  0.69321100  0.17602900  1
  Cl  Cl34  1  0.48988300  0.80678900  0.67602900  1
  Cl  Cl35  1  0.98988300  0.19321100  0.32397100  1
  Cl  Cl36  1  0.51047700  0.92194000  0.37539700  1
  Cl  Cl37  1  0.01047700  0.07806000  0.62460300  1
  Cl  Cl38  1  0.48952300  0.42194000  0.12460300  1
  Cl  Cl39  1  0.98952300  0.57806000  0.87539700  1
