# generated using pymatgen
data_Re2PCl13
_symmetry_space_group_name_H-M   'P 1'
_cell_length_a   11.17190000
_cell_length_b   9.18539300
_cell_length_c   9.73153267
_cell_angle_alpha   81.67298080
_cell_angle_beta   90.00000000
_cell_angle_gamma   90.00000000
_symmetry_Int_Tables_number   1
_chemical_formula_structural   Re2PCl13
_chemical_formula_sum   'Re4 P2 Cl26'
_cell_volume   988.10527450
_cell_formula_units_Z   2
loop_
 _symmetry_equiv_pos_site_id
 _symmetry_equiv_pos_as_xyz
  1  'x, y, z'
loop_
 _atom_site_type_symbol
 _atom_site_label
 _atom_site_symmetry_multiplicity
 _atom_site_fract_x
 _atom_site_fract_y
 _atom_site_fract_z
 _atom_site_occupancy
  Re  Re0  1  0.25000000  0.82946600  0.09219000  1
  Re  Re1  1  0.75000000  0.17053400  0.90781000  1
  Re  Re2  1  0.25000000  0.68023300  0.86615400  1
  Re  Re3  1  0.75000000  0.31976700  0.13384600  1
  P  P4  1  0.25000000  0.26188600  0.50898000  1
  P  P5  1  0.75000000  0.73811400  0.49102000  1
  Cl  Cl6  1  0.60710200  0.80831900  0.57851800  1
  Cl  Cl7  1  0.10710200  0.19168100  0.42148200  1
  Cl  Cl8  1  0.75000000  0.43781800  0.89433300  1
  Cl  Cl9  1  0.25000000  0.56218200  0.10566700  1
  Cl  Cl10  1  0.90644000  0.15083300  0.08271600  1
  Cl  Cl11  1  0.40644000  0.84916700  0.91728400  1
  Cl  Cl12  1  0.09356000  0.84916700  0.91728400  1
  Cl  Cl13  1  0.59356000  0.15083300  0.08271600  1
  Cl  Cl14  1  0.75000000  0.20268300  0.36353100  1
  Cl  Cl15  1  0.25000000  0.79731700  0.63646900  1
  Cl  Cl16  1  0.89883400  0.47939600  0.18218500  1
  Cl  Cl17  1  0.39883400  0.52060400  0.81781500  1
  Cl  Cl18  1  0.10116600  0.52060400  0.81781500  1
  Cl  Cl19  1  0.60116600  0.47939600  0.18218500  1
  Cl  Cl20  1  0.75000000  0.91558600  0.92793200  1
  Cl  Cl21  1  0.25000000  0.08441400  0.07206800  1
  Cl  Cl22  1  0.89760500  0.19056700  0.73838000  1
  Cl  Cl23  1  0.39760500  0.80943300  0.26162000  1
  Cl  Cl24  1  0.10239500  0.80943300  0.26162000  1
  Cl  Cl25  1  0.60239500  0.19056700  0.73838000  1
  Cl  Cl26  1  0.75000000  0.81169800  0.29259400  1
  Cl  Cl27  1  0.25000000  0.18830200  0.70740600  1
  Cl  Cl28  1  0.75000000  0.52289700  0.51956400  1
  Cl  Cl29  1  0.25000000  0.47710300  0.48043600  1
  Cl  Cl30  1  0.89289800  0.80831900  0.57851800  1
  Cl  Cl31  1  0.39289800  0.19168100  0.42148200  1
