# generated using pymatgen
data_YbIn2Au
_symmetry_space_group_name_H-M   'P 1'
_cell_length_a   5.87744743
_cell_length_b   5.87744743
_cell_length_c   7.72224900
_cell_angle_alpha   90.00000000
_cell_angle_beta   90.00000000
_cell_angle_gamma   134.04353668
_symmetry_Int_Tables_number   1
_chemical_formula_structural   YbIn2Au
_chemical_formula_sum   'Yb2 In4 Au2'
_cell_volume   191.75048691
_cell_formula_units_Z   2
loop_
 _symmetry_equiv_pos_site_id
 _symmetry_equiv_pos_as_xyz
  1  'x, y, z'
loop_
 _atom_site_type_symbol
 _atom_site_label
 _atom_site_symmetry_multiplicity
 _atom_site_fract_x
 _atom_site_fract_y
 _atom_site_fract_z
 _atom_site_occupancy
  Yb  Yb0  1  0.07585000  0.92415000  0.25000000  1
  Yb  Yb1  1  0.92415000  0.07585000  0.75000000  1
  In  In2  1  0.63412800  0.36587200  0.54998000  1
  In  In3  1  0.36587200  0.63412800  0.45002000  1
  In  In4  1  0.63412800  0.36587200  0.95002000  1
  In  In5  1  0.36587200  0.63412800  0.04998000  1
  Au  Au6  1  0.21106500  0.78893500  0.75000000  1
  Au  Au7  1  0.78893500  0.21106500  0.25000000  1
