# generated using pymatgen
data_K2S5O16
_symmetry_space_group_name_H-M   'P 1'
_cell_length_a   9.45309500
_cell_length_b   11.14156900
_cell_length_c   14.86214400
_cell_angle_alpha   90.00000000
_cell_angle_beta   90.00000000
_cell_angle_gamma   90.00000000
_symmetry_Int_Tables_number   1
_chemical_formula_structural   K2S5O16
_chemical_formula_sum   'K8 S20 O64'
_cell_volume   1565.31534070
_cell_formula_units_Z   4
loop_
 _symmetry_equiv_pos_site_id
 _symmetry_equiv_pos_as_xyz
  1  'x, y, z'
loop_
 _atom_site_type_symbol
 _atom_site_label
 _atom_site_symmetry_multiplicity
 _atom_site_fract_x
 _atom_site_fract_y
 _atom_site_fract_z
 _atom_site_occupancy
  K  K0  1  0.24006200  0.01062400  0.04826900  1
  K  K1  1  0.74006200  0.48937600  0.95173100  1
  K  K2  1  0.75993800  0.01062400  0.45173100  1
  K  K3  1  0.25993800  0.48937600  0.54826900  1
  K  K4  1  0.75993800  0.98937600  0.95173100  1
  K  K5  1  0.25993800  0.51062400  0.04826900  1
  K  K6  1  0.24006200  0.98937600  0.54826900  1
  K  K7  1  0.74006200  0.51062400  0.45173100  1
  S  S8  1  0.00000000  0.16896400  0.25000000  1
  S  S9  1  0.50000000  0.33103600  0.75000000  1
  S  S10  1  0.00000000  0.83103600  0.75000000  1
  S  S11  1  0.50000000  0.66896400  0.25000000  1
  S  S12  1  0.21843500  0.34805600  0.29525900  1
  S  S13  1  0.71843500  0.15194400  0.70474100  1
  S  S14  1  0.78156500  0.34805600  0.20474100  1
  S  S15  1  0.28156500  0.15194400  0.79525900  1
  S  S16  1  0.93178700  0.75086300  0.07120900  1
  S  S17  1  0.43178700  0.74913700  0.92879100  1
  S  S18  1  0.06821300  0.75086300  0.42879100  1
  S  S19  1  0.56821300  0.74913700  0.57120900  1
  S  S20  1  0.06821300  0.24913700  0.92879100  1
  S  S21  1  0.56821300  0.25086300  0.07120900  1
  S  S22  1  0.93178700  0.24913700  0.57120900  1
  S  S23  1  0.43178700  0.25086300  0.42879100  1
  S  S24  1  0.71843500  0.84805600  0.20474100  1
  S  S25  1  0.21843500  0.65194400  0.79525900  1
  S  S26  1  0.28156500  0.84805600  0.29525900  1
  S  S27  1  0.78156500  0.65194400  0.70474100  1
  O  O28  1  0.60242000  0.60672800  0.30284100  1
  O  O29  1  0.10242000  0.89327200  0.69715900  1
  O  O30  1  0.39758000  0.60672800  0.19715900  1
  O  O31  1  0.89758000  0.89327200  0.80284100  1
  O  O32  1  0.39758000  0.39327200  0.69715900  1
  O  O33  1  0.89758000  0.10672800  0.30284100  1
  O  O34  1  0.60242000  0.39327200  0.80284100  1
  O  O35  1  0.10242000  0.10672800  0.19715900  1
  O  O36  1  0.70818500  0.87379600  0.29869100  1
  O  O37  1  0.20818500  0.62620400  0.70130900  1
  O  O38  1  0.29181500  0.87379600  0.20130900  1
  O  O39  1  0.79181500  0.62620400  0.79869100  1
  O  O40  1  0.29181500  0.12620400  0.70130900  1
  O  O41  1  0.79181500  0.37379600  0.29869100  1
  O  O42  1  0.70818500  0.12620400  0.79869100  1
  O  O43  1  0.20818500  0.37379600  0.20130900  1
  O  O44  1  0.70170700  0.93973800  0.13823000  1
  O  O45  1  0.20170700  0.56026200  0.86177000  1
  O  O46  1  0.29829300  0.93973800  0.36177000  1
  O  O47  1  0.79829300  0.56026200  0.63823000  1
  O  O48  1  0.29829300  0.06026200  0.86177000  1
  O  O49  1  0.79829300  0.43973800  0.13823000  1
  O  O50  1  0.97245700  0.34422700  0.90542900  1
  O  O51  1  0.70170700  0.06026200  0.63823000  1
  O  O52  1  0.02754300  0.65577300  0.09457100  1
  O  O53  1  0.52754300  0.84422700  0.90542900  1
  O  O54  1  0.97245700  0.65577300  0.40542900  1
  O  O55  1  0.47245700  0.84422700  0.59457100  1
  O  O56  1  0.07573600  0.25758000  0.32040500  1
  O  O57  1  0.57573600  0.24242000  0.67959500  1
  O  O58  1  0.92426400  0.25758000  0.17959500  1
  O  O59  1  0.42426400  0.24242000  0.82040500  1
  O  O60  1  0.92426400  0.74242000  0.67959500  1
  O  O61  1  0.42426400  0.75758000  0.32040500  1
  O  O62  1  0.07573600  0.74242000  0.82040500  1
  O  O63  1  0.57573600  0.75758000  0.17959500  1
  O  O64  1  0.34375200  0.26479800  0.31248200  1
  O  O65  1  0.84375200  0.23520200  0.68751800  1
  O  O66  1  0.65624800  0.26479800  0.18751800  1
  O  O67  1  0.15624800  0.23520200  0.81248200  1
  O  O68  1  0.65624800  0.73520200  0.68751800  1
  O  O69  1  0.15624800  0.76479800  0.31248200  1
  O  O70  1  0.34375200  0.73520200  0.81248200  1
  O  O71  1  0.84375200  0.76479800  0.18751800  1
  O  O72  1  0.48824400  0.37061700  0.43978200  1
  O  O73  1  0.98824400  0.12938300  0.56021800  1
  O  O74  1  0.51175600  0.37061700  0.06021800  1
  O  O75  1  0.01175600  0.12938300  0.93978200  1
  O  O76  1  0.51175600  0.62938300  0.56021800  1
  O  O77  1  0.01175600  0.87061700  0.43978200  1
  O  O78  1  0.48824400  0.62938300  0.93978200  1
  O  O79  1  0.98824400  0.87061700  0.06021800  1
  O  O80  1  0.31101600  0.22140800  0.48449300  1
  O  O81  1  0.81101600  0.27859200  0.51550700  1
  O  O82  1  0.68898400  0.22140800  0.01550700  1
  O  O83  1  0.18898400  0.27859200  0.98449300  1
  O  O84  1  0.68898400  0.77859200  0.51550700  1
  O  O85  1  0.18898400  0.72140800  0.48449300  1
  O  O86  1  0.31101600  0.77859200  0.98449300  1
  O  O87  1  0.81101600  0.72140800  0.01550700  1
  O  O88  1  0.52754300  0.15577300  0.40542900  1
  O  O89  1  0.02754300  0.34422700  0.59457100  1
  O  O90  1  0.47245700  0.15577300  0.09457100  1
  O  O91  1  0.20170700  0.43973800  0.36177000  1
