# generated using pymatgen
data_Pb(IO3)2
_symmetry_space_group_name_H-M   'P 1'
_cell_length_a   5.63974300
_cell_length_b   6.17602200
_cell_length_c   17.05650400
_cell_angle_alpha   90.00000000
_cell_angle_beta   90.00000000
_cell_angle_gamma   90.00000000
_symmetry_Int_Tables_number   1
_chemical_formula_structural   Pb(IO3)2
_chemical_formula_sum   'Pb4 I8 O24'
_cell_volume   594.09810714
_cell_formula_units_Z   4
loop_
 _symmetry_equiv_pos_site_id
 _symmetry_equiv_pos_as_xyz
  1  'x, y, z'
loop_
 _atom_site_type_symbol
 _atom_site_label
 _atom_site_symmetry_multiplicity
 _atom_site_fract_x
 _atom_site_fract_y
 _atom_site_fract_z
 _atom_site_occupancy
  Pb  Pb0  1  0.76178800  0.25000000  0.50000000  1
  Pb  Pb1  1  0.73821200  0.75000000  0.00000000  1
  Pb  Pb2  1  0.23821200  0.75000000  0.50000000  1
  Pb  Pb3  1  0.26178800  0.25000000  0.00000000  1
  I  I4  1  0.75487700  0.70130900  0.33841600  1
  I  I5  1  0.75487700  0.79869100  0.66158400  1
  I  I6  1  0.74512300  0.20130900  0.16158400  1
  I  I7  1  0.74512300  0.29869100  0.83841600  1
  I  I8  1  0.24512300  0.29869100  0.66158400  1
  I  I9  1  0.24512300  0.20130900  0.33841600  1
  I  I10  1  0.25487700  0.79869100  0.83841600  1
  I  I11  1  0.25487700  0.70130900  0.16158400  1
  O  O12  1  0.59054800  0.92312700  0.38714700  1
  O  O13  1  0.59054800  0.57687300  0.61285300  1
  O  O14  1  0.90945200  0.42312700  0.11285300  1
  O  O15  1  0.90945200  0.07687300  0.88714700  1
  O  O16  1  0.40945200  0.07687300  0.61285300  1
  O  O17  1  0.40945200  0.42312700  0.38714700  1
  O  O18  1  0.09054800  0.57687300  0.88714700  1
  O  O19  1  0.09054800  0.92312700  0.11285300  1
  O  O20  1  0.00075000  0.84814500  0.29152100  1
  O  O21  1  0.00075000  0.65185500  0.70847900  1
  O  O22  1  0.49925000  0.34814500  0.20847900  1
  O  O23  1  0.49925000  0.15185500  0.79152100  1
  O  O24  1  0.39695000  0.60206700  0.06963800  1
  O  O25  1  0.39695000  0.89793300  0.93036200  1
  O  O26  1  0.10305000  0.10206700  0.43036200  1
  O  O27  1  0.10305000  0.39793300  0.56963800  1
  O  O28  1  0.60305000  0.39793300  0.93036200  1
  O  O29  1  0.60305000  0.10206700  0.06963800  1
  O  O30  1  0.89695000  0.89793300  0.56963800  1
  O  O31  1  0.89695000  0.60206700  0.43036200  1
  O  O32  1  0.50075000  0.84814500  0.20847900  1
  O  O33  1  0.50075000  0.65185500  0.79152100  1
  O  O34  1  0.99925000  0.34814500  0.29152100  1
  O  O35  1  0.99925000  0.15185500  0.70847900  1
