# generated using pymatgen
data_GeRh
_symmetry_space_group_name_H-M   'P 1'
_cell_length_a   3.28237100
_cell_length_b   5.74923300
_cell_length_c   6.56726200
_cell_angle_alpha   90.00000000
_cell_angle_beta   90.00000000
_cell_angle_gamma   90.00000000
_symmetry_Int_Tables_number   1
_chemical_formula_structural   GeRh
_chemical_formula_sum   'Ge4 Rh4'
_cell_volume   123.93156085
_cell_formula_units_Z   4
loop_
 _symmetry_equiv_pos_site_id
 _symmetry_equiv_pos_as_xyz
  1  'x, y, z'
loop_
 _atom_site_type_symbol
 _atom_site_label
 _atom_site_symmetry_multiplicity
 _atom_site_fract_x
 _atom_site_fract_y
 _atom_site_fract_z
 _atom_site_occupancy
  Ge  Ge0  1  0.75000000  0.80728200  0.43869500  1
  Ge  Ge1  1  0.25000000  0.19271800  0.56130500  1
  Ge  Ge2  1  0.75000000  0.30728200  0.06130500  1
  Ge  Ge3  1  0.25000000  0.69271800  0.93869500  1
  Rh  Rh4  1  0.75000000  0.99602100  0.79681400  1
  Rh  Rh5  1  0.25000000  0.00397900  0.20318600  1
  Rh  Rh6  1  0.75000000  0.49602100  0.70318600  1
  Rh  Rh7  1  0.25000000  0.50397900  0.29681400  1
