# generated using pymatgen
data_Co2P2O7
_symmetry_space_group_name_H-M   'P 1'
_cell_length_a   8.44240600
_cell_length_b   7.07802500
_cell_length_c   9.11443912
_cell_angle_alpha   66.81260805
_cell_angle_beta   90.00000000
_cell_angle_gamma   90.00000000
_symmetry_Int_Tables_number   1
_chemical_formula_structural   Co2P2O7
_chemical_formula_sum   'Co8 P8 O28'
_cell_volume   500.64362060
_cell_formula_units_Z   4
loop_
 _symmetry_equiv_pos_site_id
 _symmetry_equiv_pos_as_xyz
  1  'x, y, z'
loop_
 _atom_site_type_symbol
 _atom_site_label
 _atom_site_symmetry_multiplicity
 _atom_site_fract_x
 _atom_site_fract_y
 _atom_site_fract_z
 _atom_site_occupancy
  Co  Co0  1  0.93731300  0.30335800  0.31698500  1
  Co  Co1  1  0.43731300  0.69664200  0.18301500  1
  Co  Co2  1  0.06268700  0.69664200  0.68301500  1
  Co  Co3  1  0.56268700  0.30335800  0.81698500  1
  Co  Co4  1  0.42623700  0.76848600  0.60866300  1
  Co  Co5  1  0.92623700  0.23151400  0.89133700  1
  Co  Co6  1  0.57376300  0.23151400  0.39133700  1
  Co  Co7  1  0.07376300  0.76848600  0.10866300  1
  P  P8  1  0.27554500  0.46701200  0.96739000  1
  P  P9  1  0.77554500  0.53298800  0.53261000  1
  P  P10  1  0.72445500  0.53298800  0.03261000  1
  P  P11  1  0.22445500  0.46701200  0.46739000  1
  P  P12  1  0.26794400  0.06395400  0.25765800  1
  P  P13  1  0.76794400  0.93604600  0.24234200  1
  P  P14  1  0.73205600  0.93604600  0.74234200  1
  P  P15  1  0.23205600  0.06395400  0.75765800  1
  O  O16  1  0.11272700  0.44445000  0.89887300  1
  O  O17  1  0.61272700  0.55555000  0.60112700  1
  O  O18  1  0.88727300  0.55555000  0.10112700  1
  O  O19  1  0.38727300  0.44445000  0.39887300  1
  O  O20  1  0.40937300  0.51727800  0.84353900  1
  O  O21  1  0.90937300  0.48272200  0.65646100  1
  O  O22  1  0.59062700  0.48272200  0.15646100  1
  O  O23  1  0.09062700  0.51727800  0.34353900  1
  O  O24  1  0.11097900  0.11924700  0.30918700  1
  O  O25  1  0.61097900  0.88075300  0.19081300  1
  O  O26  1  0.88902100  0.88075300  0.69081300  1
  O  O27  1  0.38902100  0.11924700  0.80918700  1
  O  O28  1  0.40212200  0.02628700  0.38055800  1
  O  O29  1  0.90212200  0.97371300  0.11944200  1
  O  O30  1  0.59787800  0.97371300  0.61944200  1
  O  O31  1  0.09787800  0.02628700  0.88055800  1
  O  O32  1  0.16959800  0.25138700  0.59947600  1
  O  O33  1  0.66959800  0.74861300  0.90052400  1
  O  O34  1  0.83040200  0.74861300  0.40052400  1
  O  O35  1  0.33040200  0.25138700  0.09947600  1
  O  O36  1  0.23341500  0.62246500  0.54759900  1
  O  O37  1  0.73341500  0.37753500  0.95240100  1
  O  O38  1  0.76658500  0.37753500  0.45240100  1
  O  O39  1  0.26658500  0.62246500  0.04759900  1
  O  O40  1  0.24218300  0.88336000  0.70337700  1
  O  O41  1  0.74218300  0.11664000  0.79662300  1
  O  O42  1  0.75781700  0.11664000  0.29662300  1
  O  O43  1  0.25781700  0.88336000  0.20337700  1
