# generated using pymatgen
data_Rb6Cl4O
_symmetry_space_group_name_H-M   'P 1'
_cell_length_a   9.17943671
_cell_length_b   9.17943671
_cell_length_c   9.17943667
_cell_angle_alpha   89.38020831
_cell_angle_beta   89.38020831
_cell_angle_gamma   89.38020591
_symmetry_Int_Tables_number   1
_chemical_formula_structural   Rb6Cl4O
_chemical_formula_sum   'Rb12 Cl8 O2'
_cell_volume   773.34343509
_cell_formula_units_Z   2
loop_
 _symmetry_equiv_pos_site_id
 _symmetry_equiv_pos_as_xyz
  1  'x, y, z'
loop_
 _atom_site_type_symbol
 _atom_site_label
 _atom_site_symmetry_multiplicity
 _atom_site_fract_x
 _atom_site_fract_y
 _atom_site_fract_z
 _atom_site_occupancy
  Rb  Rb0  1  0.05646200  0.92967900  0.71739100  1
  Rb  Rb1  1  0.92967900  0.71739100  0.05646200  1
  Rb  Rb2  1  0.71739100  0.05646200  0.92967900  1
  Rb  Rb3  1  0.57032100  0.44353800  0.78260900  1
  Rb  Rb4  1  0.78260900  0.57032100  0.44353800  1
  Rb  Rb5  1  0.44353800  0.78260900  0.57032100  1
  Rb  Rb6  1  0.07032100  0.28260900  0.94353800  1
  Rb  Rb7  1  0.94353800  0.07032100  0.28260900  1
  Rb  Rb8  1  0.28260900  0.94353800  0.07032100  1
  Rb  Rb9  1  0.42967900  0.55646200  0.21739100  1
  Rb  Rb10  1  0.21739100  0.42967900  0.55646200  1
  Rb  Rb11  1  0.55646200  0.21739100  0.42967900  1
  Cl  Cl12  1  0.75000000  0.75000000  0.75000000  1
  Cl  Cl13  1  0.25000000  0.25000000  0.25000000  1
  Cl  Cl14  1  0.75000000  0.37613000  0.12387000  1
  Cl  Cl15  1  0.12387000  0.75000000  0.37613000  1
  Cl  Cl16  1  0.37613000  0.12387000  0.75000000  1
  Cl  Cl17  1  0.25000000  0.62387000  0.87613000  1
  Cl  Cl18  1  0.87613000  0.25000000  0.62387000  1
  Cl  Cl19  1  0.62387000  0.87613000  0.25000000  1
  O  O20  1  0.50000000  0.50000000  0.50000000  1
  O  O21  1  0.00000000  0.00000000  0.00000000  1
