# generated using pymatgen
data_V3Se4
_symmetry_space_group_name_H-M   'P 1'
_cell_length_a   6.89520660
_cell_length_b   6.89520660
_cell_length_c   6.18646296
_cell_angle_alpha   64.91150514
_cell_angle_beta   64.91150514
_cell_angle_gamma   28.58840264
_symmetry_Int_Tables_number   1
_chemical_formula_structural   V3Se4
_chemical_formula_sum   'V3 Se4'
_cell_volume   126.55573960
_cell_formula_units_Z   1
loop_
 _symmetry_equiv_pos_site_id
 _symmetry_equiv_pos_as_xyz
  1  'x, y, z'
loop_
 _atom_site_type_symbol
 _atom_site_label
 _atom_site_symmetry_multiplicity
 _atom_site_fract_x
 _atom_site_fract_y
 _atom_site_fract_z
 _atom_site_occupancy
  V  V0  1  0.74476000  0.74476000  0.32317300  1
  V  V1  1  0.25524000  0.25524000  0.67682700  1
  V  V2  1  0.00000000  0.00000000  0.00000000  1
  Se  Se3  1  0.35876500  0.35876500  0.97985100  1
  Se  Se4  1  0.64123500  0.64123500  0.02014900  1
  Se  Se5  1  0.89278900  0.89278900  0.45242200  1
  Se  Se6  1  0.10721100  0.10721100  0.54757800  1
