# generated using pymatgen
data_PdBr2
_symmetry_space_group_name_H-M   'P 1'
_cell_length_a   7.39353973
_cell_length_b   7.39353973
_cell_length_c   6.64543301
_cell_angle_alpha   77.99048066
_cell_angle_beta   77.99048066
_cell_angle_gamma   37.84904671
_symmetry_Int_Tables_number   1
_chemical_formula_structural   PdBr2
_chemical_formula_sum   'Pd2 Br4'
_cell_volume   217.43648231
_cell_formula_units_Z   2
loop_
 _symmetry_equiv_pos_site_id
 _symmetry_equiv_pos_as_xyz
  1  'x, y, z'
loop_
 _atom_site_type_symbol
 _atom_site_label
 _atom_site_symmetry_multiplicity
 _atom_site_fract_x
 _atom_site_fract_y
 _atom_site_fract_z
 _atom_site_occupancy
  Pd  Pd0  1  0.50000000  0.50000000  0.50000000  1
  Pd  Pd1  1  0.50000000  0.50000000  0.00000000  1
  Br  Br2  1  0.77247100  0.47282200  0.19307100  1
  Br  Br3  1  0.52717800  0.22752900  0.30692900  1
  Br  Br4  1  0.22752900  0.52717800  0.80692900  1
  Br  Br5  1  0.47282200  0.77247100  0.69307100  1
