# generated using pymatgen
data_Rb2PdI6
_symmetry_space_group_name_H-M   'P 1'
_cell_length_a   8.32968200
_cell_length_b   12.65806400
_cell_length_c   14.68168300
_cell_angle_alpha   90.00000000
_cell_angle_beta   90.00000000
_cell_angle_gamma   90.00000000
_symmetry_Int_Tables_number   1
_chemical_formula_structural   Rb2PdI6
_chemical_formula_sum   'Rb8 Pd4 I24'
_cell_volume   1548.00212208
_cell_formula_units_Z   4
loop_
 _symmetry_equiv_pos_site_id
 _symmetry_equiv_pos_as_xyz
  1  'x, y, z'
loop_
 _atom_site_type_symbol
 _atom_site_label
 _atom_site_symmetry_multiplicity
 _atom_site_fract_x
 _atom_site_fract_y
 _atom_site_fract_z
 _atom_site_occupancy
  Rb  Rb0  1  0.28927700  0.01577100  0.86099600  1
  Rb  Rb1  1  0.78927700  0.48422900  0.63900400  1
  Rb  Rb2  1  0.71072300  0.51577100  0.13900400  1
  Rb  Rb3  1  0.21072300  0.98422900  0.36099600  1
  Rb  Rb4  1  0.71072300  0.98422900  0.13900400  1
  Rb  Rb5  1  0.21072300  0.51577100  0.36099600  1
  Rb  Rb6  1  0.28927700  0.48422900  0.86099600  1
  Rb  Rb7  1  0.78927700  0.01577100  0.63900400  1
  Pd  Pd8  1  0.26632300  0.25000000  0.59776000  1
  Pd  Pd9  1  0.76632300  0.25000000  0.90224000  1
  Pd  Pd10  1  0.73367700  0.75000000  0.40224000  1
  Pd  Pd11  1  0.23367700  0.75000000  0.09776000  1
  I  I12  1  0.45003700  0.25000000  0.41189000  1
  I  I13  1  0.95003700  0.25000000  0.08811000  1
  I  I14  1  0.54996300  0.75000000  0.58811000  1
  I  I15  1  0.04996300  0.75000000  0.91189000  1
  I  I16  1  0.49472000  0.25000000  0.21666800  1
  I  I17  1  0.99472000  0.25000000  0.28333200  1
  I  I18  1  0.50528000  0.75000000  0.78333200  1
  I  I19  1  0.00528000  0.75000000  0.71666800  1
  I  I20  1  0.48663000  0.25000000  0.99550500  1
  I  I21  1  0.98663000  0.25000000  0.50449500  1
  I  I22  1  0.51337000  0.75000000  0.00449500  1
  I  I23  1  0.01337000  0.75000000  0.49550500  1
  I  I24  1  0.02149600  0.25000000  0.79395100  1
  I  I25  1  0.52149600  0.25000000  0.70604900  1
  I  I26  1  0.97850400  0.75000000  0.20604900  1
  I  I27  1  0.47850400  0.75000000  0.29395100  1
  I  I28  1  0.26433600  0.03894100  0.60535800  1
  I  I29  1  0.76433600  0.46105900  0.89464200  1
  I  I30  1  0.73566400  0.53894100  0.39464200  1
  I  I31  1  0.23566400  0.96105900  0.10535800  1
  I  I32  1  0.73566400  0.96105900  0.39464200  1
  I  I33  1  0.23566400  0.53894100  0.10535800  1
  I  I34  1  0.26433600  0.46105900  0.60535800  1
  I  I35  1  0.76433600  0.03894100  0.89464200  1
