# generated using pymatgen
data_PuBr3
_symmetry_space_group_name_H-M   'P 1'
_cell_length_a   7.56926750
_cell_length_b   7.56926750
_cell_length_c   9.19537100
_cell_angle_alpha   90.00000000
_cell_angle_beta   90.00000000
_cell_angle_gamma   149.00698724
_symmetry_Int_Tables_number   1
_chemical_formula_structural   PuBr3
_chemical_formula_sum   'Pu2 Br6'
_cell_volume   271.28647544
_cell_formula_units_Z   2
loop_
 _symmetry_equiv_pos_site_id
 _symmetry_equiv_pos_as_xyz
  1  'x, y, z'
loop_
 _atom_site_type_symbol
 _atom_site_label
 _atom_site_symmetry_multiplicity
 _atom_site_fract_x
 _atom_site_fract_y
 _atom_site_fract_z
 _atom_site_occupancy
  Pu  Pu0  1  0.26125000  0.73875000  0.25000000  1
  Pu  Pu1  1  0.73875000  0.26125000  0.75000000  1
  Br  Br2  1  0.65854500  0.34145500  0.43132400  1
  Br  Br3  1  0.34145500  0.65854500  0.56867600  1
  Br  Br4  1  0.09844200  0.90155800  0.75000000  1
  Br  Br5  1  0.90155800  0.09844200  0.25000000  1
  Br  Br6  1  0.65854500  0.34145500  0.06867600  1
  Br  Br7  1  0.34145500  0.65854500  0.93132400  1
