# generated using pymatgen
data_VSb2
_symmetry_space_group_name_H-M   'P 1'
_cell_length_a   5.44799534
_cell_length_b   5.44799534
_cell_length_c   5.44799534
_cell_angle_alpha   105.35546491
_cell_angle_beta   105.35546491
_cell_angle_gamma   118.05939950
_symmetry_Int_Tables_number   1
_chemical_formula_structural   VSb2
_chemical_formula_sum   'V2 Sb4'
_cell_volume   122.35062527
_cell_formula_units_Z   2
loop_
 _symmetry_equiv_pos_site_id
 _symmetry_equiv_pos_as_xyz
  1  'x, y, z'
loop_
 _atom_site_type_symbol
 _atom_site_label
 _atom_site_symmetry_multiplicity
 _atom_site_fract_x
 _atom_site_fract_y
 _atom_site_fract_z
 _atom_site_occupancy
  V  V0  1  0.75000000  0.75000000  0.00000000  1
  V  V1  1  0.25000000  0.25000000  0.00000000  1
  Sb  Sb2  1  0.34309100  0.15690900  0.50000000  1
  Sb  Sb3  1  0.84309100  0.34309100  0.18618300  1
  Sb  Sb4  1  0.65690900  0.84309100  0.50000000  1
  Sb  Sb5  1  0.15690900  0.65690900  0.81381700  1
