# generated using pymatgen
data_K3GeTe3
_symmetry_space_group_name_H-M   'P 1'
_cell_length_a   10.67277143
_cell_length_b   10.67277143
_cell_length_c   9.83809416
_cell_angle_alpha   85.78541644
_cell_angle_beta   85.78541644
_cell_angle_gamma   81.37828818
_symmetry_Int_Tables_number   1
_chemical_formula_structural   K3GeTe3
_chemical_formula_sum   'K12 Ge4 Te12'
_cell_volume   1102.75812162
_cell_formula_units_Z   4
loop_
 _symmetry_equiv_pos_site_id
 _symmetry_equiv_pos_as_xyz
  1  'x, y, z'
loop_
 _atom_site_type_symbol
 _atom_site_label
 _atom_site_symmetry_multiplicity
 _atom_site_fract_x
 _atom_site_fract_y
 _atom_site_fract_z
 _atom_site_occupancy
  K  K0  1  0.22481200  0.24806200  0.77497800  1
  K  K1  1  0.75193800  0.77518800  0.72502200  1
  K  K2  1  0.77518800  0.75193800  0.22502200  1
  K  K3  1  0.24806200  0.22481200  0.27497800  1
  K  K4  1  0.81011800  0.36785700  0.86549200  1
  K  K5  1  0.63214300  0.18988200  0.63450800  1
  K  K6  1  0.18988300  0.63214300  0.13450800  1
  K  K7  1  0.36785700  0.81011800  0.36549200  1
  K  K8  1  0.40309400  0.59690600  0.75000000  1
  K  K9  1  0.59690600  0.40309400  0.25000000  1
  K  K10  1  0.09408800  0.90591200  0.75000000  1
  K  K11  1  0.90591200  0.09408800  0.25000000  1
  Ge  Ge12  1  0.56839400  0.07552000  0.04061600  1
  Ge  Ge13  1  0.92448000  0.43160600  0.45938400  1
  Ge  Ge14  1  0.43160600  0.92448000  0.95938400  1
  Ge  Ge15  1  0.07552000  0.56839400  0.54061600  1
  Te  Te16  1  0.56829900  0.05334000  0.30903200  1
  Te  Te17  1  0.94666000  0.43170100  0.19096800  1
  Te  Te18  1  0.43170100  0.94666000  0.69096800  1
  Te  Te19  1  0.05334000  0.56829900  0.80903200  1
  Te  Te20  1  0.47701900  0.30979700  0.96183600  1
  Te  Te21  1  0.69020300  0.52298100  0.53816400  1
  Te  Te22  1  0.52298100  0.69020300  0.03816400  1
  Te  Te23  1  0.30979700  0.47701900  0.46183600  1
  Te  Te24  1  0.80081500  0.02173800  0.93741100  1
  Te  Te25  1  0.97826200  0.19918500  0.56258900  1
  Te  Te26  1  0.19918500  0.97826200  0.06258900  1
  Te  Te27  1  0.02173800  0.80081500  0.43741100  1
