# generated using pymatgen
data_KAs2F7
_symmetry_space_group_name_H-M   'P 1'
_cell_length_a   7.46776700
_cell_length_b   8.96745700
_cell_length_c   11.11905400
_cell_angle_alpha   69.47725466
_cell_angle_beta   90.00000000
_cell_angle_gamma   90.00000000
_symmetry_Int_Tables_number   1
_chemical_formula_structural   KAs2F7
_chemical_formula_sum   'K4 As8 F28'
_cell_volume   697.35035781
_cell_formula_units_Z   4
loop_
 _symmetry_equiv_pos_site_id
 _symmetry_equiv_pos_as_xyz
  1  'x, y, z'
loop_
 _atom_site_type_symbol
 _atom_site_label
 _atom_site_symmetry_multiplicity
 _atom_site_fract_x
 _atom_site_fract_y
 _atom_site_fract_z
 _atom_site_occupancy
  K  K0  1  0.65479400  0.27648600  0.07805300  1
  K  K1  1  0.15479400  0.22351400  0.92194700  1
  K  K2  1  0.34520600  0.72351400  0.92194700  1
  K  K3  1  0.84520600  0.77648600  0.07805300  1
  As  As4  1  0.18071900  0.34007600  0.22562800  1
  As  As5  1  0.68071900  0.15992400  0.77437200  1
  As  As6  1  0.81928100  0.65992400  0.77437200  1
  As  As7  1  0.31928100  0.84007600  0.22562800  1
  As  As8  1  0.67035000  0.37126500  0.40363900  1
  As  As9  1  0.17035000  0.12873500  0.59636100  1
  As  As10  1  0.32965000  0.62873500  0.59636100  1
  As  As11  1  0.82965000  0.87126500  0.40363900  1
  F  F12  1  0.00582600  0.30362800  0.36633400  1
  F  F13  1  0.50582600  0.19637200  0.63366600  1
  F  F14  1  0.99417400  0.69637200  0.63366600  1
  F  F15  1  0.49417400  0.80362800  0.36633400  1
  F  F16  1  0.12593700  0.54846900  0.17711000  1
  F  F17  1  0.62593700  0.95153100  0.82289000  1
  F  F18  1  0.87406300  0.45153100  0.82289000  1
  F  F19  1  0.37406300  0.04846900  0.17711000  1
  F  F20  1  0.00481500  0.29351900  0.13296200  1
  F  F21  1  0.50481500  0.20648100  0.86703800  1
  F  F22  1  0.99518500  0.70648100  0.86703800  1
  F  F23  1  0.49518500  0.79351900  0.13296200  1
  F  F24  1  0.06035600  0.93356800  0.39019600  1
  F  F25  1  0.56035600  0.56643200  0.60980400  1
  F  F26  1  0.93964400  0.06643200  0.60980400  1
  F  F27  1  0.43964400  0.43356800  0.39019600  1
  F  F28  1  0.87871000  0.69448200  0.37126200  1
  F  F29  1  0.37871000  0.80551800  0.62873800  1
  F  F30  1  0.12129000  0.30551800  0.62873800  1
  F  F31  1  0.62129000  0.19448200  0.37126200  1
  F  F32  1  0.79774400  0.98206600  0.23597000  1
  F  F33  1  0.29774400  0.51793400  0.76403000  1
  F  F34  1  0.20225600  0.01793400  0.76403000  1
  F  F35  1  0.70225600  0.48206600  0.23597000  1
  F  F36  1  0.17969900  0.90040700  0.06626200  1
  F  F37  1  0.67969900  0.59959300  0.93373800  1
  F  F38  1  0.82030100  0.09959300  0.93373800  1
  F  F39  1  0.32030100  0.40040700  0.06626200  1
