# generated using pymatgen
data_Ca3(InNi2)4
_symmetry_space_group_name_H-M   'P 1'
_cell_length_a   8.98119969
_cell_length_b   8.98119969
_cell_length_c   7.54406600
_cell_angle_alpha   90.00000000
_cell_angle_beta   90.00000000
_cell_angle_gamma   119.99999773
_symmetry_Int_Tables_number   1
_chemical_formula_structural   Ca3(InNi2)4
_chemical_formula_sum   'Ca6 In8 Ni16'
_cell_volume   526.99297552
_cell_formula_units_Z   2
loop_
 _symmetry_equiv_pos_site_id
 _symmetry_equiv_pos_as_xyz
  1  'x, y, z'
loop_
 _atom_site_type_symbol
 _atom_site_label
 _atom_site_symmetry_multiplicity
 _atom_site_fract_x
 _atom_site_fract_y
 _atom_site_fract_z
 _atom_site_occupancy
  Ca  Ca0  1  0.47041100  0.52958900  0.23362200  1
  Ca  Ca1  1  0.94082200  0.47041100  0.73362200  1
  Ca  Ca2  1  0.52958900  0.05917800  0.73362200  1
  Ca  Ca3  1  0.47041100  0.94082200  0.23362200  1
  Ca  Ca4  1  0.05917800  0.52958900  0.23362200  1
  Ca  Ca5  1  0.52958900  0.47041100  0.73362200  1
  In  In6  1  0.33333300  0.66666700  0.57396500  1
  In  In7  1  0.66666700  0.33333300  0.07396500  1
  In  In8  1  0.83069100  0.66138200  0.43006100  1
  In  In9  1  0.16930900  0.83069100  0.93006100  1
  In  In10  1  0.66138200  0.83069100  0.93006100  1
  In  In11  1  0.33861800  0.16930900  0.43006100  1
  In  In12  1  0.83069100  0.16930900  0.43006100  1
  In  In13  1  0.16930900  0.33861800  0.93006100  1
  Ni  Ni14  1  0.00000000  0.00000000  0.00157400  1
  Ni  Ni15  1  0.00000000  0.00000000  0.50157400  1
  Ni  Ni16  1  0.66666700  0.33333300  0.42782500  1
  Ni  Ni17  1  0.33333300  0.66666700  0.92782500  1
  Ni  Ni18  1  0.09798700  0.19597500  0.24926100  1
  Ni  Ni19  1  0.90201300  0.09798700  0.74926100  1
  Ni  Ni20  1  0.19597500  0.09798700  0.74926100  1
  Ni  Ni21  1  0.80402500  0.90201300  0.24926100  1
  Ni  Ni22  1  0.09798700  0.90201300  0.24926100  1
  Ni  Ni23  1  0.90201300  0.80402500  0.74926100  1
  Ni  Ni24  1  0.16018200  0.32036300  0.56185100  1
  Ni  Ni25  1  0.83981800  0.16018200  0.06185100  1
  Ni  Ni26  1  0.32036300  0.16018200  0.06185100  1
  Ni  Ni27  1  0.67963700  0.83981800  0.56185100  1
  Ni  Ni28  1  0.16018200  0.83981800  0.56185100  1
  Ni  Ni29  1  0.83981800  0.67963700  0.06185100  1
