# generated using pymatgen
data_Ni3Se2
_symmetry_space_group_name_H-M   'P 1'
_cell_length_a   4.23470098
_cell_length_b   4.23470098
_cell_length_c   4.23470122
_cell_angle_alpha   90.72104412
_cell_angle_beta   90.72104412
_cell_angle_gamma   90.72104641
_symmetry_Int_Tables_number   1
_chemical_formula_structural   Ni3Se2
_chemical_formula_sum   'Ni3 Se2'
_cell_volume   75.92140172
_cell_formula_units_Z   1
loop_
 _symmetry_equiv_pos_site_id
 _symmetry_equiv_pos_as_xyz
  1  'x, y, z'
loop_
 _atom_site_type_symbol
 _atom_site_label
 _atom_site_symmetry_multiplicity
 _atom_site_fract_x
 _atom_site_fract_y
 _atom_site_fract_z
 _atom_site_occupancy
  Ni  Ni0  1  0.75200400  0.24799600  0.00000000  1
  Ni  Ni1  1  0.24799600  0.00000000  0.75200400  1
  Ni  Ni2  1  0.00000000  0.75200400  0.24799600  1
  Se  Se3  1  0.25830800  0.25830800  0.25830800  1
  Se  Se4  1  0.74169200  0.74169200  0.74169200  1
