# generated using pymatgen
data_Ba3(GaS3)2
_symmetry_space_group_name_H-M   'P 1'
_cell_length_a   8.61455965
_cell_length_b   8.61455965
_cell_length_c   9.22970612
_cell_angle_alpha   89.07863065
_cell_angle_beta   89.07863065
_cell_angle_gamma   115.67571436
_symmetry_Int_Tables_number   1
_chemical_formula_structural   Ba3(GaS3)2
_chemical_formula_sum   'Ba6 Ga4 S12'
_cell_volume   617.02996441
_cell_formula_units_Z   2
loop_
 _symmetry_equiv_pos_site_id
 _symmetry_equiv_pos_as_xyz
  1  'x, y, z'
loop_
 _atom_site_type_symbol
 _atom_site_label
 _atom_site_symmetry_multiplicity
 _atom_site_fract_x
 _atom_site_fract_y
 _atom_site_fract_z
 _atom_site_occupancy
  Ba  Ba0  1  0.03541400  0.96458600  0.75000000  1
  Ba  Ba1  1  0.96458600  0.03541400  0.25000000  1
  Ba  Ba2  1  0.26588000  0.54164500  0.50942800  1
  Ba  Ba3  1  0.45835500  0.73412000  0.99057200  1
  Ba  Ba4  1  0.73412000  0.45835500  0.49057200  1
  Ba  Ba5  1  0.54164500  0.26588000  0.00942800  1
  Ga  Ga6  1  0.98008300  0.65426100  0.06771900  1
  Ga  Ga7  1  0.34573900  0.01991700  0.43228100  1
  Ga  Ga8  1  0.01991700  0.34573900  0.93228100  1
  Ga  Ga9  1  0.65426100  0.98008300  0.56771900  1
  S  S10  1  0.53022200  0.91438000  0.33466400  1
  S  S11  1  0.08562000  0.46977800  0.16533600  1
  S  S12  1  0.46977800  0.08562000  0.66533600  1
  S  S13  1  0.91438000  0.53022200  0.83466400  1
  S  S14  1  0.27074400  0.36895200  0.83253400  1
  S  S15  1  0.63104800  0.72925600  0.66746600  1
  S  S16  1  0.72925600  0.63104800  0.16746600  1
  S  S17  1  0.36895200  0.27074400  0.33253400  1
  S  S18  1  0.20238500  0.91980900  0.04070300  1
  S  S19  1  0.08019100  0.79761500  0.45929700  1
  S  S20  1  0.91980900  0.20238500  0.54070300  1
  S  S21  1  0.79761500  0.08019100  0.95929700  1
