# generated using pymatgen
data_SrIn2Ir
_symmetry_space_group_name_H-M   'P 1'
_cell_length_a   5.98833615
_cell_length_b   5.98833615
_cell_length_c   8.18679100
_cell_angle_alpha   90.00000000
_cell_angle_beta   90.00000000
_cell_angle_gamma   137.50467725
_symmetry_Int_Tables_number   1
_chemical_formula_structural   SrIn2Ir
_chemical_formula_sum   'Sr2 In4 Ir2'
_cell_volume   198.32191096
_cell_formula_units_Z   2
loop_
 _symmetry_equiv_pos_site_id
 _symmetry_equiv_pos_as_xyz
  1  'x, y, z'
loop_
 _atom_site_type_symbol
 _atom_site_label
 _atom_site_symmetry_multiplicity
 _atom_site_fract_x
 _atom_site_fract_y
 _atom_site_fract_z
 _atom_site_occupancy
  Sr  Sr0  1  0.93924200  0.06075800  0.75000000  1
  Sr  Sr1  1  0.06075800  0.93924200  0.25000000  1
  In  In2  1  0.65452400  0.34547600  0.94733800  1
  In  In3  1  0.65452400  0.34547600  0.55266200  1
  In  In4  1  0.34547600  0.65452400  0.05266200  1
  In  In5  1  0.34547600  0.65452400  0.44733800  1
  Ir  Ir6  1  0.21998800  0.78001200  0.75000000  1
  Ir  Ir7  1  0.78001200  0.21998800  0.25000000  1
