# generated using pymatgen
data_Np(Al2Fe)4
_symmetry_space_group_name_H-M   'P 1'
_cell_length_a   6.64280553
_cell_length_b   6.64280553
_cell_length_c   6.64280553
_cell_angle_alpha   98.20675291
_cell_angle_beta   98.20675291
_cell_angle_gamma   135.60295993
_symmetry_Int_Tables_number   1
_chemical_formula_structural   Np(Al2Fe)4
_chemical_formula_sum   'Np1 Al8 Fe4'
_cell_volume   189.87845381
_cell_formula_units_Z   1
loop_
 _symmetry_equiv_pos_site_id
 _symmetry_equiv_pos_as_xyz
  1  'x, y, z'
loop_
 _atom_site_type_symbol
 _atom_site_label
 _atom_site_symmetry_multiplicity
 _atom_site_fract_x
 _atom_site_fract_y
 _atom_site_fract_z
 _atom_site_occupancy
  Np  Np0  1  0.00000000  0.00000000  0.00000000  1
  Al  Al1  1  0.50000000  0.71967600  0.21967600  1
  Al  Al2  1  0.28032400  0.50000000  0.78032400  1
  Al  Al3  1  0.71967600  0.50000000  0.21967600  1
  Al  Al4  1  0.50000000  0.28032400  0.78032400  1
  Al  Al5  1  0.00000000  0.65802400  0.65802400  1
  Al  Al6  1  0.00000000  0.34197600  0.34197600  1
  Al  Al7  1  0.65802400  0.00000000  0.65802400  1
  Al  Al8  1  0.34197600  0.00000000  0.34197600  1
  Fe  Fe9  1  0.50000000  0.00000000  0.00000000  1
  Fe  Fe10  1  0.50000000  0.50000000  0.50000000  1
  Fe  Fe11  1  0.00000000  0.00000000  0.50000000  1
  Fe  Fe12  1  0.00000000  0.50000000  0.00000000  1
