# generated using pymatgen
data_LuGeRu
_symmetry_space_group_name_H-M   'P 1'
_cell_length_a   4.29969100
_cell_length_b   6.90726000
_cell_length_c   7.33111500
_cell_angle_alpha   90.00000000
_cell_angle_beta   90.00000000
_cell_angle_gamma   90.00000000
_symmetry_Int_Tables_number   1
_chemical_formula_structural   LuGeRu
_chemical_formula_sum   'Lu4 Ge4 Ru4'
_cell_volume   217.72739768
_cell_formula_units_Z   4
loop_
 _symmetry_equiv_pos_site_id
 _symmetry_equiv_pos_as_xyz
  1  'x, y, z'
loop_
 _atom_site_type_symbol
 _atom_site_label
 _atom_site_symmetry_multiplicity
 _atom_site_fract_x
 _atom_site_fract_y
 _atom_site_fract_z
 _atom_site_occupancy
  Lu  Lu0  1  0.25000000  0.49465300  0.69103700  1
  Lu  Lu1  1  0.75000000  0.00534700  0.19103700  1
  Lu  Lu2  1  0.75000000  0.50534700  0.30896300  1
  Lu  Lu3  1  0.25000000  0.99465300  0.80896300  1
  Ge  Ge4  1  0.75000000  0.70653100  0.88858700  1
  Ge  Ge5  1  0.25000000  0.79346900  0.38858700  1
  Ge  Ge6  1  0.25000000  0.29346900  0.11141300  1
  Ge  Ge7  1  0.75000000  0.20653100  0.61141300  1
  Ru  Ru8  1  0.75000000  0.84222500  0.56151500  1
  Ru  Ru9  1  0.75000000  0.34222500  0.93848500  1
  Ru  Ru10  1  0.25000000  0.65777500  0.06151500  1
  Ru  Ru11  1  0.25000000  0.15777500  0.43848500  1
