# generated using pymatgen
data_Mn(SbO3)2
_symmetry_space_group_name_H-M   'P 1'
_cell_length_a   8.94908379
_cell_length_b   9.61240900
_cell_length_c   8.94908800
_cell_angle_alpha   90.00014195
_cell_angle_beta   119.99995397
_cell_angle_gamma   90.00010321
_symmetry_Int_Tables_number   1
_chemical_formula_structural   Mn(SbO3)2
_chemical_formula_sum   'Mn6 Sb12 O36'
_cell_volume   666.68460682
_cell_formula_units_Z   6
loop_
 _symmetry_equiv_pos_site_id
 _symmetry_equiv_pos_as_xyz
  1  'x, y, z'
loop_
 _atom_site_type_symbol
 _atom_site_label
 _atom_site_symmetry_multiplicity
 _atom_site_fract_x
 _atom_site_fract_y
 _atom_site_fract_z
 _atom_site_occupancy
  Mn  Mn0  1  0.63308900  0.50000300  0.99999900  1
  Mn  Mn1  1  0.00000100  0.99999800  0.63309800  1
  Mn  Mn2  1  0.00000000  0.49999600  0.63309900  1
  Mn  Mn3  1  0.36686700  0.00000200  0.36686900  1
  Mn  Mn4  1  0.36687000  0.49999200  0.36687300  1
  Mn  Mn5  1  0.63314200  0.00000900  0.00000400  1
  Sb  Sb6  1  0.00000000  0.00000200  0.00000100  1
  Sb  Sb7  1  0.00000000  0.49999800  0.00000000  1
  Sb  Sb8  1  0.33333400  0.24546100  0.66666700  1
  Sb  Sb9  1  0.33333400  0.74546100  0.66666800  1
  Sb  Sb10  1  0.66666700  0.25453900  0.33333500  1
  Sb  Sb11  1  0.66666800  0.75453900  0.33333500  1
  Sb  Sb12  1  0.30501400  0.25000000  0.00000200  1
  Sb  Sb13  1  0.30501200  0.75000000  0.00000000  1
  Sb  Sb14  1  0.69498700  0.25000000  0.69498700  1
  Sb  Sb15  1  0.69498800  0.75000000  0.69498800  1
  Sb  Sb16  1  0.00000100  0.25000000  0.30501600  1
  Sb  Sb17  1  0.00000100  0.75000000  0.30501500  1
  O  O18  1  0.22462400  0.35860600  0.77902000  1
  O  O19  1  0.22463500  0.85859800  0.77902600  1
  O  O20  1  0.55439400  0.35860300  0.77537500  1
  O  O21  1  0.55439200  0.85859700  0.77537000  1
  O  O22  1  0.22098500  0.35860600  0.44560400  1
  O  O23  1  0.22098300  0.85860000  0.44560700  1
  O  O24  1  0.77537600  0.14139500  0.55439600  1
  O  O25  1  0.77537300  0.64139700  0.55439300  1
  O  O26  1  0.44560400  0.14139700  0.22098400  1
  O  O27  1  0.44560800  0.64140200  0.22098000  1
  O  O28  1  0.77901800  0.14139700  0.22462400  1
  O  O29  1  0.77902600  0.64140200  0.22463600  1
  O  O30  1  0.47197200  0.13463300  0.58908500  1
  O  O31  1  0.47197600  0.63463700  0.58909200  1
  O  O32  1  0.11711600  0.13463300  0.52802700  1
  O  O33  1  0.11711600  0.63463300  0.52802600  1
  O  O34  1  0.41091400  0.13463300  0.88288800  1
  O  O35  1  0.41090200  0.63463900  0.88288100  1
  O  O36  1  0.52802600  0.36536600  0.11711700  1
  O  O37  1  0.52802500  0.86536100  0.11711900  1
  O  O38  1  0.58908400  0.36537100  0.47197400  1
  O  O39  1  0.58908600  0.86536500  0.47197400  1
  O  O40  1  0.88288600  0.36536900  0.41091300  1
  O  O41  1  0.88288000  0.86536100  0.41090300  1
  O  O42  1  0.88978900  0.38192400  0.10331300  1
  O  O43  1  0.88979300  0.88192200  0.10331400  1
  O  O44  1  0.21352500  0.38192600  0.11021900  1
  O  O45  1  0.21352400  0.88192200  0.11021400  1
  O  O46  1  0.89669300  0.38192600  0.78647900  1
  O  O47  1  0.89669000  0.88192300  0.78648300  1
  O  O48  1  0.11021600  0.11807500  0.21352100  1
  O  O49  1  0.11021200  0.61807800  0.21352400  1
  O  O50  1  0.10330900  0.11807400  0.88979000  1
  O  O51  1  0.10331400  0.61807800  0.88978900  1
  O  O52  1  0.78647900  0.11807600  0.89669400  1
  O  O53  1  0.78648000  0.61807900  0.89668800  1
