# generated using pymatgen
data_K4PbO3
_symmetry_space_group_name_H-M   'P 1'
_cell_length_a   6.66701500
_cell_length_b   11.74599600
_cell_length_c   18.97148100
_cell_angle_alpha   90.00000000
_cell_angle_beta   90.00000000
_cell_angle_gamma   90.00000000
_symmetry_Int_Tables_number   1
_chemical_formula_structural   K4PbO3
_chemical_formula_sum   'K32 Pb8 O24'
_cell_volume   1485.67055516
_cell_formula_units_Z   8
loop_
 _symmetry_equiv_pos_site_id
 _symmetry_equiv_pos_as_xyz
  1  'x, y, z'
loop_
 _atom_site_type_symbol
 _atom_site_label
 _atom_site_symmetry_multiplicity
 _atom_site_fract_x
 _atom_site_fract_y
 _atom_site_fract_z
 _atom_site_occupancy
  K  K0  1  0.94506200  0.38116600  0.20107500  1
  K  K1  1  0.44506200  0.11883400  0.79892500  1
  K  K2  1  0.05493800  0.88116600  0.29892500  1
  K  K3  1  0.55493800  0.61883400  0.70107500  1
  K  K4  1  0.05493800  0.61883400  0.79892500  1
  K  K5  1  0.55493800  0.88116600  0.20107500  1
  K  K6  1  0.94506200  0.11883400  0.70107500  1
  K  K7  1  0.44506200  0.38116600  0.29892500  1
  K  K8  1  0.76494900  0.18783100  0.94319700  1
  K  K9  1  0.26494900  0.31216900  0.05680300  1
  K  K10  1  0.23505100  0.68783100  0.55680300  1
  K  K11  1  0.73505100  0.81216900  0.44319700  1
  K  K12  1  0.23505100  0.81216900  0.05680300  1
  K  K13  1  0.73505100  0.68783100  0.94319700  1
  K  K14  1  0.76494900  0.31216900  0.44319700  1
  K  K15  1  0.26494900  0.18783100  0.55680300  1
  K  K16  1  0.74730100  0.05462600  0.53360600  1
  K  K17  1  0.24730100  0.44537400  0.46639400  1
  K  K18  1  0.25269900  0.55462600  0.96639400  1
  K  K19  1  0.75269900  0.94537400  0.03360600  1
  K  K20  1  0.25269900  0.94537400  0.46639400  1
  K  K21  1  0.75269900  0.55462600  0.53360600  1
  K  K22  1  0.74730100  0.44537400  0.03360600  1
  K  K23  1  0.24730100  0.05462600  0.96639400  1
  K  K24  1  0.62688300  0.17227500  0.14765900  1
  K  K25  1  0.12688300  0.32772500  0.85234100  1
  K  K26  1  0.37311700  0.67227500  0.35234100  1
  K  K27  1  0.87311700  0.82772500  0.64765900  1
  K  K28  1  0.37311700  0.82772500  0.85234100  1
  K  K29  1  0.87311700  0.67227500  0.14765900  1
  K  K30  1  0.62688300  0.32772500  0.64765900  1
  K  K31  1  0.12688300  0.17227500  0.35234100  1
  Pb  Pb32  1  0.61097900  0.06217300  0.34567700  1
  Pb  Pb33  1  0.11097900  0.43782700  0.65432300  1
  Pb  Pb34  1  0.38902100  0.56217300  0.15432300  1
  Pb  Pb35  1  0.88902100  0.93782700  0.84567700  1
  Pb  Pb36  1  0.38902100  0.93782700  0.65432300  1
  Pb  Pb37  1  0.88902100  0.56217300  0.34567700  1
  Pb  Pb38  1  0.61097900  0.43782700  0.84567700  1
  Pb  Pb39  1  0.11097900  0.06217300  0.15432300  1
  O  O40  1  0.95738300  0.35161700  0.56560800  1
  O  O41  1  0.45738300  0.14838300  0.43439200  1
  O  O42  1  0.04261700  0.85161700  0.93439200  1
  O  O43  1  0.54261700  0.64838300  0.06560800  1
  O  O44  1  0.04261700  0.64838300  0.43439200  1
  O  O45  1  0.54261700  0.85161700  0.56560800  1
  O  O46  1  0.95738300  0.14838300  0.06560800  1
  O  O47  1  0.45738300  0.35161700  0.93439200  1
  O  O48  1  0.54269100  0.39362600  0.15725100  1
  O  O49  1  0.04269100  0.10637400  0.84274900  1
  O  O50  1  0.45730900  0.89362600  0.34274900  1
  O  O51  1  0.95730900  0.60637400  0.65725100  1
  O  O52  1  0.45730900  0.60637400  0.84274900  1
  O  O53  1  0.95730900  0.89362600  0.15725100  1
  O  O54  1  0.54269100  0.10637400  0.65725100  1
  O  O55  1  0.04269100  0.39362600  0.34274900  1
  O  O56  1  0.88757300  0.48859000  0.90045300  1
  O  O57  1  0.38757300  0.01141000  0.09954700  1
  O  O58  1  0.11242700  0.98859000  0.59954700  1
  O  O59  1  0.61242700  0.51141000  0.40045300  1
  O  O60  1  0.11242700  0.51141000  0.09954700  1
  O  O61  1  0.61242700  0.98859000  0.90045300  1
  O  O62  1  0.88757300  0.01141000  0.40045300  1
  O  O63  1  0.38757300  0.48859000  0.59954700  1
