# generated using pymatgen
data_SrPb
_symmetry_space_group_name_H-M   'P 1'
_cell_length_a   6.73004133
_cell_length_b   6.73004133
_cell_length_c   4.70663300
_cell_angle_alpha   90.00000000
_cell_angle_beta   90.00000000
_cell_angle_gamma   135.20308254
_symmetry_Int_Tables_number   1
_chemical_formula_structural   SrPb
_chemical_formula_sum   'Sr2 Pb2'
_cell_volume   150.20555404
_cell_formula_units_Z   2
loop_
 _symmetry_equiv_pos_site_id
 _symmetry_equiv_pos_as_xyz
  1  'x, y, z'
loop_
 _atom_site_type_symbol
 _atom_site_label
 _atom_site_symmetry_multiplicity
 _atom_site_fract_x
 _atom_site_fract_y
 _atom_site_fract_z
 _atom_site_occupancy
  Sr  Sr0  1  0.13369900  0.86630100  0.25000000  1
  Sr  Sr1  1  0.86630100  0.13369900  0.75000000  1
  Pb  Pb2  1  0.41508100  0.58491900  0.25000000  1
  Pb  Pb3  1  0.58491900  0.41508100  0.75000000  1
