# generated using pymatgen
data_MgH12(BrO6)2
_symmetry_space_group_name_H-M   'P 1'
_cell_length_a   10.59594200
_cell_length_b   10.59594200
_cell_length_c   10.59594200
_cell_angle_alpha   90.00000000
_cell_angle_beta   90.00000000
_cell_angle_gamma   90.00000000
_symmetry_Int_Tables_number   1
_chemical_formula_structural   MgH12(BrO6)2
_chemical_formula_sum   'Mg4 H48 Br8 O48'
_cell_volume   1189.64865296
_cell_formula_units_Z   4
loop_
 _symmetry_equiv_pos_site_id
 _symmetry_equiv_pos_as_xyz
  1  'x, y, z'
loop_
 _atom_site_type_symbol
 _atom_site_label
 _atom_site_symmetry_multiplicity
 _atom_site_fract_x
 _atom_site_fract_y
 _atom_site_fract_z
 _atom_site_occupancy
  Mg  Mg0  1  0.00000000  0.00000000  0.00000000  1
  Mg  Mg1  1  0.50000000  0.00000000  0.50000000  1
  Mg  Mg2  1  0.50000000  0.50000000  0.00000000  1
  Mg  Mg3  1  0.00000000  0.50000000  0.50000000  1
  H  H4  1  0.25941300  0.03041500  0.42635600  1
  H  H5  1  0.75941300  0.46958500  0.57364400  1
  H  H6  1  0.74058700  0.53041500  0.07364400  1
  H  H7  1  0.46958500  0.57364400  0.75941300  1
  H  H8  1  0.07364400  0.74058700  0.53041500  1
  H  H9  1  0.57364400  0.75941300  0.46958500  1
  H  H10  1  0.03041500  0.42635600  0.25941300  1
  H  H11  1  0.42635600  0.25941300  0.03041500  1
  H  H12  1  0.53041500  0.07364400  0.74058700  1
  H  H13  1  0.96958500  0.92635600  0.24058700  1
  H  H14  1  0.92635600  0.24058700  0.96958500  1
  H  H15  1  0.24058700  0.96958500  0.92635600  1
  H  H16  1  0.25941300  0.46958500  0.92635600  1
  H  H17  1  0.53041500  0.42635600  0.24058700  1
  H  H18  1  0.92635600  0.25941300  0.46958500  1
  H  H19  1  0.42635600  0.24058700  0.53041500  1
  H  H20  1  0.96958500  0.57364400  0.74058700  1
  H  H21  1  0.57364400  0.74058700  0.96958500  1
  H  H22  1  0.46958500  0.92635600  0.25941300  1
  H  H23  1  0.03041500  0.07364400  0.75941300  1
  H  H24  1  0.07364400  0.75941300  0.03041500  1
  H  H25  1  0.75941300  0.03041500  0.07364400  1
  H  H26  1  0.57867100  0.03140200  0.25568800  1
  H  H27  1  0.07867100  0.46859800  0.74431200  1
  H  H28  1  0.42132900  0.53140200  0.24431200  1
  H  H29  1  0.46859800  0.74431200  0.07867100  1
  H  H30  1  0.24431200  0.42132900  0.53140200  1
  H  H31  1  0.74431200  0.07867100  0.46859800  1
  H  H32  1  0.03140200  0.25568800  0.57867100  1
  H  H33  1  0.25568800  0.57867100  0.03140200  1
  H  H34  1  0.53140200  0.24431200  0.42132900  1
  H  H35  1  0.96859800  0.75568800  0.92132900  1
  H  H36  1  0.75568800  0.92132900  0.96859800  1
  H  H37  1  0.92132900  0.96859800  0.75568800  1
  H  H38  1  0.42132900  0.96859800  0.74431200  1
  H  H39  1  0.92132900  0.53140200  0.25568800  1
  H  H40  1  0.57867100  0.46859800  0.75568800  1
  H  H41  1  0.53140200  0.25568800  0.92132900  1
  H  H42  1  0.75568800  0.57867100  0.46859800  1
  H  H43  1  0.25568800  0.92132900  0.53140200  1
  H  H44  1  0.96859800  0.74431200  0.42132900  1
  H  H45  1  0.74431200  0.42132900  0.96859800  1
  H  H46  1  0.46859800  0.75568800  0.57867100  1
  H  H47  1  0.03140200  0.24431200  0.07867100  1
  H  H48  1  0.24431200  0.07867100  0.03140200  1
  H  H49  1  0.07867100  0.03140200  0.24431200  1
  H  H50  1  0.74058700  0.96958500  0.57364400  1
  H  H51  1  0.24058700  0.53041500  0.42635600  1
  Br  Br52  1  0.24842000  0.74842000  0.75158000  1
  Br  Br53  1  0.75158000  0.24842000  0.74842000  1
  Br  Br54  1  0.74842000  0.75158000  0.24842000  1
  Br  Br55  1  0.25158000  0.25158000  0.25158000  1
  Br  Br56  1  0.74842000  0.74842000  0.74842000  1
  Br  Br57  1  0.75158000  0.25158000  0.24842000  1
  Br  Br58  1  0.24842000  0.75158000  0.25158000  1
  Br  Br59  1  0.25158000  0.24842000  0.75158000  1
  O  O60  1  0.96091200  0.03495700  0.80879800  1
  O  O61  1  0.80879800  0.96091200  0.03495700  1
  O  O62  1  0.03495700  0.80879800  0.96091200  1
  O  O63  1  0.46504300  0.19120200  0.46091200  1
  O  O64  1  0.30879800  0.53908800  0.96504300  1
  O  O65  1  0.96504300  0.30879800  0.53908800  1
  O  O66  1  0.96091200  0.46504300  0.30879800  1
  O  O67  1  0.19120200  0.46091200  0.46504300  1
  O  O68  1  0.53495700  0.69120200  0.03908800  1
  O  O69  1  0.46091200  0.46504300  0.19120200  1
  O  O70  1  0.03908800  0.53495700  0.69120200  1
  O  O71  1  0.53908800  0.96504300  0.30879800  1
  O  O72  1  0.53908800  0.53495700  0.80879800  1
  O  O73  1  0.46504300  0.30879800  0.96091200  1
  O  O74  1  0.80879800  0.53908800  0.53495700  1
  O  O75  1  0.30879800  0.96091200  0.46504300  1
  O  O76  1  0.03495700  0.69120200  0.46091200  1
  O  O77  1  0.69120200  0.46091200  0.03495700  1
  O  O78  1  0.53495700  0.80879800  0.53908800  1
  O  O79  1  0.96504300  0.19120200  0.03908800  1
  O  O80  1  0.19120200  0.03908800  0.96504300  1
  O  O81  1  0.03908800  0.96504300  0.19120200  1
  O  O82  1  0.67151100  0.13881000  0.16843100  1
  O  O83  1  0.17151100  0.36119000  0.83156900  1
  O  O84  1  0.32848900  0.63881000  0.33156900  1
  O  O85  1  0.36119000  0.83156900  0.17151100  1
  O  O86  1  0.33156900  0.32848900  0.63881000  1
  O  O87  1  0.83156900  0.17151100  0.36119000  1
  O  O88  1  0.13881000  0.16843100  0.67151100  1
  O  O89  1  0.16843100  0.67151100  0.13881000  1
  O  O90  1  0.63881000  0.33156900  0.32848900  1
  O  O91  1  0.86119000  0.66843100  0.82848900  1
  O  O92  1  0.66843100  0.82848900  0.86119000  1
  O  O93  1  0.82848900  0.86119000  0.66843100  1
  O  O94  1  0.32848900  0.86119000  0.83156900  1
  O  O95  1  0.82848900  0.63881000  0.16843100  1
  O  O96  1  0.67151100  0.36119000  0.66843100  1
  O  O97  1  0.63881000  0.16843100  0.82848900  1
  O  O98  1  0.66843100  0.67151100  0.36119000  1
  O  O99  1  0.16843100  0.82848900  0.63881000  1
  O  O100  1  0.86119000  0.83156900  0.32848900  1
  O  O101  1  0.83156900  0.32848900  0.86119000  1
  O  O102  1  0.36119000  0.66843100  0.67151100  1
  O  O103  1  0.13881000  0.33156900  0.17151100  1
  O  O104  1  0.33156900  0.17151100  0.13881000  1
  O  O105  1  0.17151100  0.13881000  0.33156900  1
  O  O106  1  0.46091200  0.03495700  0.69120200  1
  O  O107  1  0.69120200  0.03908800  0.53495700  1
