# generated using pymatgen
data_GdBr3
_symmetry_space_group_name_H-M   'P 1'
_cell_length_a   7.36784274
_cell_length_b   7.36784274
_cell_length_c   7.46968931
_cell_angle_alpha   81.22210736
_cell_angle_beta   81.22210736
_cell_angle_gamma   120.10347729
_symmetry_Int_Tables_number   1
_chemical_formula_structural   GdBr3
_chemical_formula_sum   'Gd2 Br6'
_cell_volume   334.00827545
_cell_formula_units_Z   2
loop_
 _symmetry_equiv_pos_site_id
 _symmetry_equiv_pos_as_xyz
  1  'x, y, z'
loop_
 _atom_site_type_symbol
 _atom_site_label
 _atom_site_symmetry_multiplicity
 _atom_site_fract_x
 _atom_site_fract_y
 _atom_site_fract_z
 _atom_site_occupancy
  Gd  Gd0  1  0.16631800  0.83368200  0.00000000  1
  Gd  Gd1  1  0.83368200  0.16631800  0.00000000  1
  Br  Br2  1  0.93734000  0.57048200  0.77170700  1
  Br  Br3  1  0.42951800  0.06266000  0.22829300  1
  Br  Br4  1  0.79560300  0.79560300  0.22879500  1
  Br  Br5  1  0.20439700  0.20439700  0.77120500  1
  Br  Br6  1  0.57048200  0.93734000  0.77170700  1
  Br  Br7  1  0.06266000  0.42951800  0.22829300  1
