# generated using pymatgen
data_SOF2
_symmetry_space_group_name_H-M   'P 1'
_cell_length_a   7.30163000
_cell_length_b   5.43765800
_cell_length_c   15.01920014
_cell_angle_alpha   82.73339669
_cell_angle_beta   90.00000000
_cell_angle_gamma   90.00000000
_symmetry_Int_Tables_number   1
_chemical_formula_structural   SOF2
_chemical_formula_sum   'S8 O8 F16'
_cell_volume   591.52938838
_cell_formula_units_Z   8
loop_
 _symmetry_equiv_pos_site_id
 _symmetry_equiv_pos_as_xyz
  1  'x, y, z'
loop_
 _atom_site_type_symbol
 _atom_site_label
 _atom_site_symmetry_multiplicity
 _atom_site_fract_x
 _atom_site_fract_y
 _atom_site_fract_z
 _atom_site_occupancy
  S  S0  1  0.77821300  0.53501100  0.64886700  1
  S  S1  1  0.27821300  0.46498900  0.85113300  1
  S  S2  1  0.22178700  0.46498900  0.35113300  1
  S  S3  1  0.72178700  0.53501100  0.14886700  1
  S  S4  1  0.84012300  0.95268200  0.86377100  1
  S  S5  1  0.34012300  0.04731800  0.63622900  1
  S  S6  1  0.15987700  0.04731800  0.13622900  1
  S  S7  1  0.65987700  0.95268200  0.36377100  1
  O  O8  1  0.02578600  0.97277500  0.83237100  1
  O  O9  1  0.80177600  0.49486600  0.74447600  1
  O  O10  1  0.30177600  0.50513400  0.75552400  1
  O  O11  1  0.19822400  0.50513400  0.25552400  1
  O  O12  1  0.69822400  0.49486600  0.24447600  1
  O  O13  1  0.52578600  0.02722500  0.66762900  1
  O  O14  1  0.97421400  0.02722500  0.16762900  1
  O  O15  1  0.47421400  0.97277500  0.33237100  1
  F  F16  1  0.59009800  0.76856300  0.11339300  1
  F  F17  1  0.09009800  0.23143700  0.38660700  1
  F  F18  1  0.40990200  0.23143700  0.88660700  1
  F  F19  1  0.91101100  0.33485700  0.60890200  1
  F  F20  1  0.90990200  0.76856300  0.61339300  1
  F  F21  1  0.58898900  0.33485700  0.10890200  1
  F  F22  1  0.08898900  0.66514300  0.39109800  1
  F  F23  1  0.41101100  0.66514300  0.89109800  1
  F  F24  1  0.67560100  0.13551900  0.44117300  1
  F  F25  1  0.17560100  0.86448100  0.05882700  1
  F  F26  1  0.32439900  0.86448100  0.55882700  1
  F  F27  1  0.82439900  0.13551900  0.94117300  1
  F  F28  1  0.66606000  0.70218000  0.43619500  1
  F  F29  1  0.16606000  0.29782000  0.06380500  1
  F  F30  1  0.33394000  0.29782000  0.56380500  1
  F  F31  1  0.83394000  0.70218000  0.93619500  1
