# generated using pymatgen
data_TlAgSe
_symmetry_space_group_name_H-M   'P 1'
_cell_length_a   4.70091300
_cell_length_b   7.68612700
_cell_length_c   8.47508200
_cell_angle_alpha   90.00000000
_cell_angle_beta   90.00000000
_cell_angle_gamma   90.00000000
_symmetry_Int_Tables_number   1
_chemical_formula_structural   TlAgSe
_chemical_formula_sum   'Tl4 Ag4 Se4'
_cell_volume   306.22008929
_cell_formula_units_Z   4
loop_
 _symmetry_equiv_pos_site_id
 _symmetry_equiv_pos_as_xyz
  1  'x, y, z'
loop_
 _atom_site_type_symbol
 _atom_site_label
 _atom_site_symmetry_multiplicity
 _atom_site_fract_x
 _atom_site_fract_y
 _atom_site_fract_z
 _atom_site_occupancy
  Tl  Tl0  1  0.75000000  0.18357700  0.00076300  1
  Tl  Tl1  1  0.25000000  0.81642300  0.99923700  1
  Tl  Tl2  1  0.75000000  0.31642300  0.50076300  1
  Tl  Tl3  1  0.25000000  0.68357700  0.49923700  1
  Ag  Ag4  1  0.25000000  0.08444200  0.67532800  1
  Ag  Ag5  1  0.75000000  0.91555800  0.32467200  1
  Ag  Ag6  1  0.25000000  0.41555800  0.17532800  1
  Ag  Ag7  1  0.75000000  0.58444200  0.82467200  1
  Se  Se8  1  0.75000000  0.59971700  0.18458500  1
  Se  Se9  1  0.25000000  0.40028300  0.81541500  1
  Se  Se10  1  0.75000000  0.90028300  0.68458500  1
  Se  Se11  1  0.25000000  0.09971700  0.31541500  1
