# generated using pymatgen
data_DySiPt
_symmetry_space_group_name_H-M   'P 1'
_cell_length_a   4.29229700
_cell_length_b   7.02332500
_cell_length_c   7.47899600
_cell_angle_alpha   90.00000000
_cell_angle_beta   90.00000000
_cell_angle_gamma   90.00000000
_symmetry_Int_Tables_number   1
_chemical_formula_structural   DySiPt
_chemical_formula_sum   'Dy4 Si4 Pt4'
_cell_volume   225.46328549
_cell_formula_units_Z   4
loop_
 _symmetry_equiv_pos_site_id
 _symmetry_equiv_pos_as_xyz
  1  'x, y, z'
loop_
 _atom_site_type_symbol
 _atom_site_label
 _atom_site_symmetry_multiplicity
 _atom_site_fract_x
 _atom_site_fract_y
 _atom_site_fract_z
 _atom_site_occupancy
  Dy  Dy0  1  0.75000000  0.50325300  0.79980500  1
  Dy  Dy1  1  0.25000000  0.99674700  0.29980500  1
  Dy  Dy2  1  0.75000000  0.00325300  0.70019500  1
  Dy  Dy3  1  0.25000000  0.49674700  0.20019500  1
  Si  Si4  1  0.25000000  0.81345400  0.91152500  1
  Si  Si5  1  0.25000000  0.31345400  0.58847500  1
  Si  Si6  1  0.75000000  0.18654600  0.08847500  1
  Si  Si7  1  0.75000000  0.68654600  0.41152500  1
  Pt  Pt8  1  0.25000000  0.69932800  0.58540000  1
  Pt  Pt9  1  0.25000000  0.19932800  0.91460000  1
  Pt  Pt10  1  0.75000000  0.80067200  0.08540000  1
  Pt  Pt11  1  0.75000000  0.30067200  0.41460000  1
