# generated using pymatgen
data_U(ClO)2
_symmetry_space_group_name_H-M   'P 1'
_cell_length_a   6.09440700
_cell_length_b   8.49465000
_cell_length_c   8.74769000
_cell_angle_alpha   90.00000000
_cell_angle_beta   90.00000000
_cell_angle_gamma   90.00000000
_symmetry_Int_Tables_number   1
_chemical_formula_structural   U(ClO)2
_chemical_formula_sum   'U4 Cl8 O8'
_cell_volume   452.86663783
_cell_formula_units_Z   4
loop_
 _symmetry_equiv_pos_site_id
 _symmetry_equiv_pos_as_xyz
  1  'x, y, z'
loop_
 _atom_site_type_symbol
 _atom_site_label
 _atom_site_symmetry_multiplicity
 _atom_site_fract_x
 _atom_site_fract_y
 _atom_site_fract_z
 _atom_site_occupancy
  U  U0  1  0.56825600  0.25000000  0.42923000  1
  U  U1  1  0.93174400  0.75000000  0.92923000  1
  U  U2  1  0.43174400  0.75000000  0.57077000  1
  U  U3  1  0.06825600  0.25000000  0.07077000  1
  Cl  Cl4  1  0.82107400  0.44224300  0.87996400  1
  Cl  Cl5  1  0.82107400  0.05775700  0.87996400  1
  Cl  Cl6  1  0.67892600  0.94224300  0.37996400  1
  Cl  Cl7  1  0.32107400  0.05775700  0.62003600  1
  Cl  Cl8  1  0.17892600  0.55775700  0.12003600  1
  Cl  Cl9  1  0.17892600  0.94224300  0.12003600  1
  Cl  Cl10  1  0.32107400  0.44224300  0.62003600  1
  Cl  Cl11  1  0.67892600  0.55775700  0.37996400  1
  O  O12  1  0.21967000  0.75000000  0.43159900  1
  O  O13  1  0.35288100  0.25000000  0.27964300  1
  O  O14  1  0.85288100  0.25000000  0.22035700  1
  O  O15  1  0.71967000  0.75000000  0.06840100  1
  O  O16  1  0.78033000  0.25000000  0.56840100  1
  O  O17  1  0.14711900  0.75000000  0.77964300  1
  O  O18  1  0.64711900  0.75000000  0.72035700  1
  O  O19  1  0.28033000  0.25000000  0.93159900  1
