# generated using pymatgen
data_Ho5Sb3
_symmetry_space_group_name_H-M   'P 1'
_cell_length_a   8.94411405
_cell_length_b   8.94411405
_cell_length_c   6.27843300
_cell_angle_alpha   90.00000000
_cell_angle_beta   90.00000000
_cell_angle_gamma   120.00000039
_symmetry_Int_Tables_number   1
_chemical_formula_structural   Ho5Sb3
_chemical_formula_sum   'Ho10 Sb6'
_cell_volume   434.96724239
_cell_formula_units_Z   2
loop_
 _symmetry_equiv_pos_site_id
 _symmetry_equiv_pos_as_xyz
  1  'x, y, z'
loop_
 _atom_site_type_symbol
 _atom_site_label
 _atom_site_symmetry_multiplicity
 _atom_site_fract_x
 _atom_site_fract_y
 _atom_site_fract_z
 _atom_site_occupancy
  Ho  Ho0  1  0.33333300  0.66666700  0.00000000  1
  Ho  Ho1  1  0.66666700  0.33333300  0.50000000  1
  Ho  Ho2  1  0.66666700  0.33333300  0.00000000  1
  Ho  Ho3  1  0.33333300  0.66666700  0.50000000  1
  Ho  Ho4  1  0.75351700  0.00000000  0.75000000  1
  Ho  Ho5  1  0.75351700  0.75351700  0.25000000  1
  Ho  Ho6  1  0.00000000  0.24648300  0.25000000  1
  Ho  Ho7  1  0.00000000  0.75351700  0.75000000  1
  Ho  Ho8  1  0.24648300  0.24648300  0.75000000  1
  Ho  Ho9  1  0.24648300  0.00000000  0.25000000  1
  Sb  Sb10  1  0.38890200  0.00000000  0.75000000  1
  Sb  Sb11  1  0.38890200  0.38890200  0.25000000  1
  Sb  Sb12  1  0.00000000  0.61109800  0.25000000  1
  Sb  Sb13  1  0.00000000  0.38890200  0.75000000  1
  Sb  Sb14  1  0.61109800  0.61109800  0.75000000  1
  Sb  Sb15  1  0.61109800  0.00000000  0.25000000  1
