# generated using pymatgen
data_LiV2P5O16
_symmetry_space_group_name_H-M   'P 1'
_cell_length_a   6.81572600
_cell_length_b   5.08218700
_cell_length_c   18.86099761
_cell_angle_alpha   89.77797333
_cell_angle_beta   90.00000000
_cell_angle_gamma   90.00000000
_symmetry_Int_Tables_number   1
_chemical_formula_structural   LiV2P5O16
_chemical_formula_sum   'Li2 V4 P10 O32'
_cell_volume   653.31730702
_cell_formula_units_Z   2
loop_
 _symmetry_equiv_pos_site_id
 _symmetry_equiv_pos_as_xyz
  1  'x, y, z'
loop_
 _atom_site_type_symbol
 _atom_site_label
 _atom_site_symmetry_multiplicity
 _atom_site_fract_x
 _atom_site_fract_y
 _atom_site_fract_z
 _atom_site_occupancy
  Li  Li0  1  0.34847000  0.72965200  0.52924100  1
  Li  Li1  1  0.65153000  0.72965200  0.02924100  1
  V  V2  1  0.81767900  0.73278000  0.59294300  1
  V  V3  1  0.18232100  0.73278000  0.09294300  1
  V  V4  1  0.82116100  0.25837100  0.90690400  1
  V  V5  1  0.17883900  0.25837100  0.40690400  1
  P  P6  1  0.52641300  0.25006600  0.63047200  1
  P  P7  1  0.47358700  0.25006600  0.13047200  1
  P  P8  1  0.53445400  0.74717700  0.86976300  1
  P  P9  1  0.87368500  0.22744400  0.07962100  1
  P  P10  1  0.46554600  0.74717700  0.36976300  1
  P  P11  1  0.25872400  0.00906600  0.24960600  1
  P  P12  1  0.74127600  0.00906600  0.74960600  1
  P  P13  1  0.87130200  0.77225500  0.42232500  1
  P  P14  1  0.12631500  0.22744400  0.57962100  1
  P  P15  1  0.12869800  0.77225500  0.92232500  1
  O  O16  1  0.15120700  0.85105800  0.19468000  1
  O  O17  1  0.94477400  0.05383800  0.43020800  1
  O  O18  1  0.59712300  0.21642500  0.71100500  1
  O  O19  1  0.39129900  0.03658000  0.08376500  1
  O  O20  1  0.96222000  0.39214800  0.61111400  1
  O  O21  1  0.84879300  0.85105800  0.69468000  1
  O  O22  1  0.03778000  0.39214800  0.11111400  1
  O  O23  1  0.60870100  0.03658000  0.58376500  1
  O  O24  1  0.58957500  0.81634300  0.78908300  1
  O  O25  1  0.36439400  0.92901200  0.42251100  1
  O  O26  1  0.29631500  0.21888600  0.64103800  1
  O  O27  1  0.30637900  0.79825200  0.86455000  1
  O  O28  1  0.63560600  0.92901200  0.92251100  1
  O  O29  1  0.85868700  0.15834800  0.80270300  1
  O  O30  1  0.41042500  0.81634300  0.28908300  1
  O  O31  1  0.55844800  0.53319800  0.60796000  1
  O  O32  1  0.92006200  0.93506400  0.06903300  1
  O  O33  1  0.01746300  0.58441500  0.38922200  1
  O  O34  1  0.98253700  0.58441500  0.88922200  1
  O  O35  1  0.22161600  0.35853900  0.51416200  1
  O  O36  1  0.07993800  0.93506400  0.56903300  1
  O  O37  1  0.42811800  0.45845200  0.38244500  1
  O  O38  1  0.05522600  0.05383800  0.93020800  1
  O  O39  1  0.77349900  0.67392900  0.49067200  1
  O  O40  1  0.70368500  0.21888600  0.14103800  1
  O  O41  1  0.22650100  0.67392900  0.99067200  1
  O  O42  1  0.14131300  0.15834800  0.30270300  1
  O  O43  1  0.40287700  0.21642500  0.21100500  1
  O  O44  1  0.77838400  0.35853900  0.01416200  1
  O  O45  1  0.69362100  0.79825200  0.36455000  1
  O  O46  1  0.44155200  0.53319800  0.10796000  1
  O  O47  1  0.57188200  0.45845200  0.88244500  1
