# generated using pymatgen
data_Ca(Cu2P)2
_symmetry_space_group_name_H-M   'P 1'
_cell_length_a   7.27945800
_cell_length_b   7.27945800
_cell_length_c   3.79808500
_cell_angle_alpha   90.00000000
_cell_angle_beta   90.00000000
_cell_angle_gamma   90.00000000
_symmetry_Int_Tables_number   1
_chemical_formula_structural   Ca(Cu2P)2
_chemical_formula_sum   'Ca2 Cu8 P4'
_cell_volume   201.26245652
_cell_formula_units_Z   2
loop_
 _symmetry_equiv_pos_site_id
 _symmetry_equiv_pos_as_xyz
  1  'x, y, z'
loop_
 _atom_site_type_symbol
 _atom_site_label
 _atom_site_symmetry_multiplicity
 _atom_site_fract_x
 _atom_site_fract_y
 _atom_site_fract_z
 _atom_site_occupancy
  Ca  Ca0  1  0.00000000  0.00000000  0.00000000  1
  Ca  Ca1  1  0.50000000  0.50000000  0.50000000  1
  Cu  Cu2  1  0.66383200  0.91501700  0.50000000  1
  Cu  Cu3  1  0.16383200  0.58498300  0.00000000  1
  Cu  Cu4  1  0.41501700  0.83616800  0.00000000  1
  Cu  Cu5  1  0.91501700  0.66383200  0.50000000  1
  Cu  Cu6  1  0.83616800  0.41501700  0.00000000  1
  Cu  Cu7  1  0.58498300  0.16383200  0.00000000  1
  Cu  Cu8  1  0.08498300  0.33616800  0.50000000  1
  Cu  Cu9  1  0.33616800  0.08498300  0.50000000  1
  P  P10  1  0.28109000  0.28109000  0.00000000  1
  P  P11  1  0.71891000  0.71891000  0.00000000  1
  P  P12  1  0.78109000  0.21891000  0.50000000  1
  P  P13  1  0.21891000  0.78109000  0.50000000  1
