# generated using pymatgen
data_Ba4P2O
_symmetry_space_group_name_H-M   'P 1'
_cell_length_a   9.05226857
_cell_length_b   9.05226857
_cell_length_c   7.62743200
_cell_angle_alpha   90.00000000
_cell_angle_beta   90.00000000
_cell_angle_gamma   132.73684690
_symmetry_Int_Tables_number   1
_chemical_formula_structural   Ba4P2O
_chemical_formula_sum   'Ba8 P4 O2'
_cell_volume   459.06288943
_cell_formula_units_Z   2
loop_
 _symmetry_equiv_pos_site_id
 _symmetry_equiv_pos_as_xyz
  1  'x, y, z'
loop_
 _atom_site_type_symbol
 _atom_site_label
 _atom_site_symmetry_multiplicity
 _atom_site_fract_x
 _atom_site_fract_y
 _atom_site_fract_z
 _atom_site_occupancy
  Ba  Ba0  1  0.67758700  0.32241300  0.43020600  1
  Ba  Ba1  1  0.32241300  0.67758700  0.56979400  1
  Ba  Ba2  1  0.17758700  0.82241300  0.06979400  1
  Ba  Ba3  1  0.82241300  0.17758700  0.93020600  1
  Ba  Ba4  1  0.72982300  0.77017700  0.25000000  1
  Ba  Ba5  1  0.77017700  0.72982300  0.75000000  1
  Ba  Ba6  1  0.27017700  0.22982300  0.75000000  1
  Ba  Ba7  1  0.22982300  0.27017700  0.25000000  1
  P  P8  1  0.13436100  0.86563900  0.47542400  1
  P  P9  1  0.86563900  0.13436100  0.52457600  1
  P  P10  1  0.36563900  0.63436100  0.97542400  1
  P  P11  1  0.63436100  0.36563900  0.02457600  1
  O  O12  1  0.50000000  0.50000000  0.50000000  1
  O  O13  1  0.00000000  0.00000000  0.00000000  1
