# generated using pymatgen
data_TbSbRh
_symmetry_space_group_name_H-M   'P 1'
_cell_length_a   4.57451200
_cell_length_b   7.20177900
_cell_length_c   7.88180600
_cell_angle_alpha   90.00000000
_cell_angle_beta   90.00000000
_cell_angle_gamma   90.00000000
_symmetry_Int_Tables_number   1
_chemical_formula_structural   TbSbRh
_chemical_formula_sum   'Tb4 Sb4 Rh4'
_cell_volume   259.66313871
_cell_formula_units_Z   4
loop_
 _symmetry_equiv_pos_site_id
 _symmetry_equiv_pos_as_xyz
  1  'x, y, z'
loop_
 _atom_site_type_symbol
 _atom_site_label
 _atom_site_symmetry_multiplicity
 _atom_site_fract_x
 _atom_site_fract_y
 _atom_site_fract_z
 _atom_site_occupancy
  Tb  Tb0  1  0.25000000  0.50807500  0.20227600  1
  Tb  Tb1  1  0.75000000  0.49192500  0.79772400  1
  Tb  Tb2  1  0.25000000  0.00807500  0.29772400  1
  Tb  Tb3  1  0.75000000  0.99192500  0.70227600  1
  Sb  Sb4  1  0.25000000  0.19546200  0.90843600  1
  Sb  Sb5  1  0.75000000  0.30453800  0.40843600  1
  Sb  Sb6  1  0.25000000  0.69546200  0.59156400  1
  Sb  Sb7  1  0.75000000  0.80453800  0.09156400  1
  Rh  Rh8  1  0.75000000  0.19441900  0.08192500  1
  Rh  Rh9  1  0.25000000  0.30558100  0.58192500  1
  Rh  Rh10  1  0.75000000  0.69441900  0.41807500  1
  Rh  Rh11  1  0.25000000  0.80558100  0.91807500  1
