# generated using pymatgen
data_K2CoCl4
_symmetry_space_group_name_H-M   'P 1'
_cell_length_a   7.36319900
_cell_length_b   12.54030200
_cell_length_c   27.23224200
_cell_angle_alpha   90.00000000
_cell_angle_beta   90.00000000
_cell_angle_gamma   90.00000000
_symmetry_Int_Tables_number   1
_chemical_formula_structural   K2CoCl4
_chemical_formula_sum   'K24 Co12 Cl48'
_cell_volume   2514.53642592
_cell_formula_units_Z   12
loop_
 _symmetry_equiv_pos_site_id
 _symmetry_equiv_pos_as_xyz
  1  'x, y, z'
loop_
 _atom_site_type_symbol
 _atom_site_label
 _atom_site_symmetry_multiplicity
 _atom_site_fract_x
 _atom_site_fract_y
 _atom_site_fract_z
 _atom_site_occupancy
  K  K0  1  0.21296200  0.92138400  0.04463300  1
  K  K1  1  0.71296200  0.07861600  0.95536700  1
  K  K2  1  0.21296200  0.57861600  0.54463300  1
  K  K3  1  0.71296200  0.42138400  0.45536700  1
  K  K4  1  0.23080000  0.91576700  0.38162500  1
  K  K5  1  0.73080000  0.08423300  0.61837500  1
  K  K6  1  0.23080000  0.58423300  0.88162500  1
  K  K7  1  0.73080000  0.41576700  0.11837500  1
  K  K8  1  0.27759700  0.92012500  0.71128500  1
  K  K9  1  0.77759700  0.07987500  0.28871500  1
  K  K10  1  0.27759700  0.57987500  0.21128500  1
  K  K11  1  0.77759700  0.42012500  0.78871500  1
  K  K12  1  0.20261900  0.31425100  0.99969500  1
  K  K13  1  0.70261900  0.68574900  0.00030500  1
  K  K14  1  0.20261900  0.18574900  0.49969500  1
  K  K15  1  0.70261900  0.81425100  0.50030500  1
  K  K16  1  0.27972800  0.31365500  0.33276800  1
  K  K17  1  0.77972800  0.68634500  0.66723200  1
  K  K18  1  0.27972800  0.18634500  0.83276800  1
  K  K19  1  0.77972800  0.81365500  0.16723200  1
  K  K20  1  0.26746100  0.31702600  0.66751500  1
  K  K21  1  0.76746100  0.68297400  0.33248500  1
  K  K22  1  0.26746100  0.18297400  0.16751500  1
  K  K23  1  0.76746100  0.81702600  0.83248500  1
  Co  Co24  1  0.24862600  0.58221100  0.07298700  1
  Co  Co25  1  0.74862600  0.41778900  0.92701300  1
  Co  Co26  1  0.24862600  0.91778900  0.57298700  1
  Co  Co27  1  0.74862600  0.08221100  0.42701300  1
  Co  Co28  1  0.21947700  0.58337900  0.40545200  1
  Co  Co29  1  0.71947700  0.41662100  0.59454800  1
  Co  Co30  1  0.21947700  0.91662100  0.90545200  1
  Co  Co31  1  0.71947700  0.08337900  0.09454800  1
  Co  Co32  1  0.26299500  0.58473900  0.74167800  1
  Co  Co33  1  0.76299500  0.41526100  0.25832200  1
  Co  Co34  1  0.26299500  0.91526100  0.24167800  1
  Co  Co35  1  0.76299500  0.08473900  0.75832200  1
  Cl  Cl36  1  0.32445300  0.55666600  0.99397500  1
  Cl  Cl37  1  0.82445300  0.44333400  0.00602500  1
  Cl  Cl38  1  0.32445300  0.94333400  0.49397500  1
  Cl  Cl39  1  0.82445300  0.05666600  0.50602500  1
  Cl  Cl40  1  0.18305700  0.56115300  0.32460100  1
  Cl  Cl41  1  0.68305700  0.43884700  0.67539900  1
  Cl  Cl42  1  0.18305700  0.93884700  0.82460100  1
  Cl  Cl43  1  0.68305700  0.06115300  0.17539900  1
  Cl  Cl44  1  0.18930800  0.56605100  0.66211600  1
  Cl  Cl45  1  0.68930800  0.43394900  0.33788400  1
  Cl  Cl46  1  0.18930800  0.93394900  0.16211600  1
  Cl  Cl47  1  0.68930800  0.06605100  0.83788400  1
  Cl  Cl48  1  0.17118300  0.42957100  0.11249400  1
  Cl  Cl49  1  0.67118300  0.57042900  0.88750600  1
  Cl  Cl50  1  0.17118300  0.07042900  0.61249400  1
  Cl  Cl51  1  0.67118300  0.92957100  0.38750600  1
  Cl  Cl52  1  0.17010400  0.42705500  0.44560200  1
  Cl  Cl53  1  0.67010400  0.57294500  0.55439800  1
  Cl  Cl54  1  0.17010400  0.07294500  0.94560200  1
  Cl  Cl55  1  0.67010400  0.92705500  0.05439800  1
  Cl  Cl56  1  0.33989200  0.43024200  0.78002300  1
  Cl  Cl57  1  0.83989200  0.56975800  0.21997700  1
  Cl  Cl58  1  0.33989200  0.06975800  0.28002300  1
  Cl  Cl59  1  0.83989200  0.93024200  0.71997700  1
  Cl  Cl60  1  0.02578400  0.70388100  0.08108800  1
  Cl  Cl61  1  0.52578400  0.29611900  0.91891200  1
  Cl  Cl62  1  0.02578400  0.79611900  0.58108800  1
  Cl  Cl63  1  0.52578400  0.20388100  0.41891200  1
  Cl  Cl64  1  0.01248600  0.70331400  0.43209400  1
  Cl  Cl65  1  0.51248600  0.29668600  0.56790600  1
  Cl  Cl66  1  0.01248600  0.79668600  0.93209400  1
  Cl  Cl67  1  0.51248600  0.20331400  0.06790600  1
  Cl  Cl68  1  0.00196700  0.63691900  0.77950800  1
  Cl  Cl69  1  0.50196700  0.36308100  0.22049200  1
  Cl  Cl70  1  0.00196700  0.86308100  0.27950800  1
  Cl  Cl71  1  0.50196700  0.13691900  0.72049200  1
  Cl  Cl72  1  0.50650700  0.63934300  0.11105300  1
  Cl  Cl73  1  0.00650700  0.36065700  0.88894700  1
  Cl  Cl74  1  0.50650700  0.86065700  0.61105300  1
  Cl  Cl75  1  0.00650700  0.13934300  0.38894700  1
  Cl  Cl76  1  0.49568600  0.64357200  0.42768500  1
  Cl  Cl77  1  0.99568600  0.35642800  0.57231500  1
  Cl  Cl78  1  0.49568600  0.85642800  0.92768500  1
  Cl  Cl79  1  0.99568600  0.14357200  0.07231500  1
  Cl  Cl80  1  0.47980600  0.70924000  0.75305900  1
  Cl  Cl81  1  0.97980600  0.29076000  0.24694100  1
  Cl  Cl82  1  0.47980600  0.79076000  0.25305900  1
  Cl  Cl83  1  0.97980600  0.20924000  0.74694100  1
