# generated using pymatgen
data_NaNp2F9
_symmetry_space_group_name_H-M   'P 1'
_cell_length_a   6.95439900
_cell_length_b   8.68530700
_cell_length_c   11.10494000
_cell_angle_alpha   90.00000000
_cell_angle_beta   90.00000000
_cell_angle_gamma   90.00000000
_symmetry_Int_Tables_number   1
_chemical_formula_structural   NaNp2F9
_chemical_formula_sum   'Na4 Np8 F36'
_cell_volume   670.75048389
_cell_formula_units_Z   4
loop_
 _symmetry_equiv_pos_site_id
 _symmetry_equiv_pos_as_xyz
  1  'x, y, z'
loop_
 _atom_site_type_symbol
 _atom_site_label
 _atom_site_symmetry_multiplicity
 _atom_site_fract_x
 _atom_site_fract_y
 _atom_site_fract_z
 _atom_site_occupancy
  Na  Na0  1  0.34964500  0.03536000  0.75000000  1
  Na  Na1  1  0.84964500  0.46464000  0.25000000  1
  Na  Na2  1  0.65035500  0.96464000  0.25000000  1
  Na  Na3  1  0.15035500  0.53536000  0.75000000  1
  Np  Np4  1  0.66102600  0.67184800  0.95191100  1
  Np  Np5  1  0.83897400  0.17184800  0.95191100  1
  Np  Np6  1  0.33897400  0.32815200  0.45191100  1
  Np  Np7  1  0.16102600  0.82815200  0.45191100  1
  Np  Np8  1  0.16102600  0.82815200  0.04808900  1
  Np  Np9  1  0.83897400  0.17184800  0.54808900  1
  Np  Np10  1  0.33897400  0.32815200  0.04808900  1
  Np  Np11  1  0.66102600  0.67184800  0.54808900  1
  F  F12  1  0.57988100  0.50132200  0.10460000  1
  F  F13  1  0.47910300  0.79829800  0.10320000  1
  F  F14  1  0.14174900  0.29145200  0.61201400  1
  F  F15  1  0.52089700  0.20170200  0.89680000  1
  F  F16  1  0.80117800  0.43157500  0.91908300  1
  F  F17  1  0.07988100  0.99867800  0.60460000  1
  F  F18  1  0.42011900  0.49867800  0.60460000  1
  F  F19  1  0.85825100  0.70854800  0.38798600  1
  F  F20  1  0.97910300  0.70170200  0.60320000  1
  F  F21  1  0.19882200  0.56842500  0.08091700  1
  F  F22  1  0.64174900  0.20854800  0.38798600  1
  F  F23  1  0.02089700  0.29829800  0.39680000  1
  F  F24  1  0.69882200  0.93157500  0.58091700  1
  F  F25  1  0.16116500  0.82800700  0.25000000  1
  F  F26  1  0.57988100  0.50132200  0.39540000  1
  F  F27  1  0.33883500  0.32800700  0.25000000  1
  F  F28  1  0.85825100  0.70854800  0.11201400  1
  F  F29  1  0.02089700  0.29829800  0.10320000  1
  F  F30  1  0.66116500  0.67199300  0.75000000  1
  F  F31  1  0.35825100  0.79145200  0.61201400  1
  F  F32  1  0.92011900  0.00132200  0.10460000  1
  F  F33  1  0.47910300  0.79829800  0.39680000  1
  F  F34  1  0.30117800  0.06842500  0.41908300  1
  F  F35  1  0.30117800  0.06842500  0.08091700  1
  F  F36  1  0.69882200  0.93157500  0.91908300  1
  F  F37  1  0.97910300  0.70170200  0.89680000  1
  F  F38  1  0.19882200  0.56842500  0.41908300  1
  F  F39  1  0.35825100  0.79145200  0.88798600  1
  F  F40  1  0.83883500  0.17199300  0.75000000  1
  F  F41  1  0.64174900  0.20854800  0.11201400  1
  F  F42  1  0.42011900  0.49867800  0.89540000  1
  F  F43  1  0.07988100  0.99867800  0.89540000  1
  F  F44  1  0.80117800  0.43157500  0.58091700  1
  F  F45  1  0.52089700  0.20170200  0.60320000  1
  F  F46  1  0.14174900  0.29145200  0.88798600  1
  F  F47  1  0.92011900  0.00132200  0.39540000  1
