# generated using pymatgen
data_RbBiO2
_symmetry_space_group_name_H-M   'P 1'
_cell_length_a   6.00871606
_cell_length_b   6.00871606
_cell_length_c   6.09947392
_cell_angle_alpha   67.47566767
_cell_angle_beta   67.47566767
_cell_angle_gamma   93.82630117
_symmetry_Int_Tables_number   1
_chemical_formula_structural   RbBiO2
_chemical_formula_sum   'Rb2 Bi2 O4'
_cell_volume   181.92680251
_cell_formula_units_Z   2
loop_
 _symmetry_equiv_pos_site_id
 _symmetry_equiv_pos_as_xyz
  1  'x, y, z'
loop_
 _atom_site_type_symbol
 _atom_site_label
 _atom_site_symmetry_multiplicity
 _atom_site_fract_x
 _atom_site_fract_y
 _atom_site_fract_z
 _atom_site_occupancy
  Rb  Rb0  1  0.36530100  0.63469900  0.25000000  1
  Rb  Rb1  1  0.63469900  0.36530100  0.75000000  1
  Bi  Bi2  1  0.09126400  0.90873600  0.75000000  1
  Bi  Bi3  1  0.90873600  0.09126400  0.25000000  1
  O  O4  1  0.75391800  0.87807400  0.71508500  1
  O  O5  1  0.12192600  0.24608200  0.78491500  1
  O  O6  1  0.87807400  0.75391800  0.21508500  1
  O  O7  1  0.24608200  0.12192600  0.28491500  1
