# generated using pymatgen
data_SbCl5
_symmetry_space_group_name_H-M   'P 1'
_cell_length_a   8.01024641
_cell_length_b   8.01024641
_cell_length_c   8.43475900
_cell_angle_alpha   90.00000000
_cell_angle_beta   90.00000000
_cell_angle_gamma   120.00000339
_symmetry_Int_Tables_number   1
_chemical_formula_structural   SbCl5
_chemical_formula_sum   'Sb2 Cl10'
_cell_volume   468.70010110
_cell_formula_units_Z   2
loop_
 _symmetry_equiv_pos_site_id
 _symmetry_equiv_pos_as_xyz
  1  'x, y, z'
loop_
 _atom_site_type_symbol
 _atom_site_label
 _atom_site_symmetry_multiplicity
 _atom_site_fract_x
 _atom_site_fract_y
 _atom_site_fract_z
 _atom_site_occupancy
  Sb  Sb0  1  0.66666700  0.33333300  0.75000000  1
  Sb  Sb1  1  0.33333300  0.66666700  0.25000000  1
  Cl  Cl2  1  0.83478700  0.66957400  0.75000000  1
  Cl  Cl3  1  0.16521300  0.83478700  0.25000000  1
  Cl  Cl4  1  0.33333300  0.66666700  0.96821000  1
  Cl  Cl5  1  0.66666700  0.33333300  0.46821000  1
  Cl  Cl6  1  0.66666700  0.33333300  0.03179000  1
  Cl  Cl7  1  0.33333300  0.66666700  0.53179000  1
  Cl  Cl8  1  0.16521300  0.33042600  0.25000000  1
  Cl  Cl9  1  0.83478700  0.16521300  0.75000000  1
  Cl  Cl10  1  0.33042600  0.16521300  0.75000000  1
  Cl  Cl11  1  0.66957400  0.83478700  0.25000000  1
