# generated using pymatgen
data_Ca2Sb2S5
_symmetry_space_group_name_H-M   'P 1'
_cell_length_a   5.73777700
_cell_length_b   11.43811900
_cell_length_c   15.20776106
_cell_angle_alpha   69.14527539
_cell_angle_beta   90.00000000
_cell_angle_gamma   90.00000000
_symmetry_Int_Tables_number   1
_chemical_formula_structural   Ca2Sb2S5
_chemical_formula_sum   'Ca8 Sb8 S20'
_cell_volume   932.68800662
_cell_formula_units_Z   4
loop_
 _symmetry_equiv_pos_site_id
 _symmetry_equiv_pos_as_xyz
  1  'x, y, z'
loop_
 _atom_site_type_symbol
 _atom_site_label
 _atom_site_symmetry_multiplicity
 _atom_site_fract_x
 _atom_site_fract_y
 _atom_site_fract_z
 _atom_site_occupancy
  Ca  Ca0  1  0.73313000  0.16801000  0.66618700  1
  Ca  Ca1  1  0.23313000  0.33199000  0.33381300  1
  Ca  Ca2  1  0.26687000  0.83199000  0.33381300  1
  Ca  Ca3  1  0.76687000  0.66801000  0.66618700  1
  Ca  Ca4  1  0.27557300  0.69323400  0.10651500  1
  Ca  Ca5  1  0.77557300  0.80676600  0.89348500  1
  Ca  Ca6  1  0.72442700  0.30676600  0.89348500  1
  Ca  Ca7  1  0.22442700  0.19323400  0.10651500  1
  Sb  Sb8  1  0.84462300  0.05314600  0.38420000  1
  Sb  Sb9  1  0.34462300  0.44685400  0.61580000  1
  Sb  Sb10  1  0.15537700  0.94685400  0.61580000  1
  Sb  Sb11  1  0.65537700  0.55314600  0.38420000  1
  Sb  Sb12  1  0.76058300  0.42586000  0.12515200  1
  Sb  Sb13  1  0.26058300  0.07414000  0.87484800  1
  Sb  Sb14  1  0.23941700  0.57414000  0.87484800  1
  Sb  Sb15  1  0.73941700  0.92586000  0.12515200  1
  S  S16  1  0.73423400  0.34061600  0.29908500  1
  S  S17  1  0.23423400  0.15938400  0.70091500  1
  S  S18  1  0.26576600  0.65938400  0.70091500  1
  S  S19  1  0.76576600  0.84061600  0.29908500  1
  S  S20  1  0.69692000  0.06373600  0.87879500  1
  S  S21  1  0.19692000  0.43626400  0.12120500  1
  S  S22  1  0.30308000  0.93626400  0.12120500  1
  S  S23  1  0.80308000  0.56373600  0.87879500  1
  S  S24  1  0.72541900  0.40431000  0.69536900  1
  S  S25  1  0.22541900  0.09569000  0.30463100  1
  S  S26  1  0.27458100  0.59569000  0.30463100  1
  S  S27  1  0.77458100  0.90431000  0.69536900  1
  S  S28  1  0.98955900  0.15300800  0.50036300  1
  S  S29  1  0.48955900  0.34699200  0.49963700  1
  S  S30  1  0.01044100  0.84699200  0.49963700  1
  S  S31  1  0.51044100  0.65300800  0.50036300  1
  S  S32  1  0.22684700  0.27626100  0.90405700  1
  S  S33  1  0.72684700  0.22373900  0.09594300  1
  S  S34  1  0.77315300  0.72373900  0.09594300  1
  S  S35  1  0.27315300  0.77626100  0.90405700  1
