# generated using pymatgen
data_Hg3(SI)2
_symmetry_space_group_name_H-M   'P 1'
_cell_length_a   11.98400290
_cell_length_b   11.98400290
_cell_length_c   11.98400290
_cell_angle_alpha   131.86131842
_cell_angle_beta   130.55138268
_cell_angle_gamma   71.49063718
_symmetry_Int_Tables_number   1
_chemical_formula_structural   Hg3(SI)2
_chemical_formula_sum   'Hg12 S8 I8'
_cell_volume   953.12482575
_cell_formula_units_Z   4
loop_
 _symmetry_equiv_pos_site_id
 _symmetry_equiv_pos_as_xyz
  1  'x, y, z'
loop_
 _atom_site_type_symbol
 _atom_site_label
 _atom_site_symmetry_multiplicity
 _atom_site_fract_x
 _atom_site_fract_y
 _atom_site_fract_z
 _atom_site_occupancy
  Hg  Hg0  1  0.64901100  0.14901100  0.00000000  1
  Hg  Hg1  1  0.85098900  0.85098900  0.50000000  1
  Hg  Hg2  1  0.35098900  0.85098900  0.00000000  1
  Hg  Hg3  1  0.14901100  0.14901100  0.50000000  1
  Hg  Hg4  1  0.47911900  0.75199900  0.73111800  1
  Hg  Hg5  1  0.02088100  0.75199900  0.27288000  1
  Hg  Hg6  1  0.97911900  0.24800100  0.72712000  1
  Hg  Hg7  1  0.52088100  0.24800100  0.26888200  1
  Hg  Hg8  1  0.11606200  0.15942200  0.04336000  1
  Hg  Hg9  1  0.38393800  0.42729700  0.04336000  1
  Hg  Hg10  1  0.88393800  0.84057800  0.95664000  1
  Hg  Hg11  1  0.61606200  0.57270300  0.95664000  1
  S  S12  1  0.63310200  0.87576700  0.75840700  1
  S  S13  1  0.86689800  0.62530600  0.24266500  1
  S  S14  1  0.88264000  0.12423300  0.75733500  1
  S  S15  1  0.61736000  0.37469400  0.24159300  1
  S  S16  1  0.36689800  0.12423300  0.24159300  1
  S  S17  1  0.13310200  0.37469400  0.75733500  1
  S  S18  1  0.11736000  0.87576700  0.24266500  1
  S  S19  1  0.38264000  0.62530600  0.75840700  1
  I  I20  1  0.99933500  0.25615700  0.25682200  1
  I  I21  1  0.50066500  0.75748800  0.25682200  1
  I  I22  1  0.00066500  0.74384300  0.74317800  1
  I  I23  1  0.49933500  0.24251200  0.74317800  1
  I  I24  1  0.75000000  0.02128500  0.27128500  1
  I  I25  1  0.25000000  0.97871500  0.72871500  1
  I  I26  1  0.75000000  0.49389500  0.74389500  1
  I  I27  1  0.25000000  0.50610500  0.25610500  1
