# generated using pymatgen
data_BaHgS2
_symmetry_space_group_name_H-M   'P 1'
_cell_length_a   4.28905600
_cell_length_b   7.45999900
_cell_length_c   14.62630400
_cell_angle_alpha   90.00000000
_cell_angle_beta   90.00000000
_cell_angle_gamma   90.00000000
_symmetry_Int_Tables_number   1
_chemical_formula_structural   BaHgS2
_chemical_formula_sum   'Ba4 Hg4 S8'
_cell_volume   467.98839276
_cell_formula_units_Z   4
loop_
 _symmetry_equiv_pos_site_id
 _symmetry_equiv_pos_as_xyz
  1  'x, y, z'
loop_
 _atom_site_type_symbol
 _atom_site_label
 _atom_site_symmetry_multiplicity
 _atom_site_fract_x
 _atom_site_fract_y
 _atom_site_fract_z
 _atom_site_occupancy
  Ba  Ba0  1  0.00000000  0.00337600  0.89840200  1
  Ba  Ba1  1  0.00000000  0.67923100  0.60958600  1
  Ba  Ba2  1  0.00000000  0.50337600  0.10159800  1
  Ba  Ba3  1  0.00000000  0.17923100  0.39041400  1
  Hg  Hg4  1  0.50000000  0.66545100  0.35246500  1
  Hg  Hg5  1  0.50000000  0.16545100  0.64753500  1
  Hg  Hg6  1  0.50000000  0.99990200  0.14077600  1
  Hg  Hg7  1  0.50000000  0.49990200  0.85922400  1
  S  S8  1  0.50000000  0.38858200  0.53128100  1
  S  S9  1  0.50000000  0.88858200  0.46871900  1
  S  S10  1  0.00000000  0.89182100  0.22155600  1
  S  S11  1  0.00000000  0.39182100  0.77844400  1
  S  S12  1  0.50000000  0.39907400  0.26323800  1
  S  S13  1  0.50000000  0.72896400  0.98424300  1
  S  S14  1  0.50000000  0.22896400  0.01575700  1
  S  S15  1  0.50000000  0.89907400  0.73676200  1
