# generated using pymatgen
data_TeRhCl
_symmetry_space_group_name_H-M   'P 1'
_cell_length_a   7.05483859
_cell_length_b   7.05483859
_cell_length_c   6.75684004
_cell_angle_alpha   63.40409378
_cell_angle_beta   63.40409378
_cell_angle_gamma   30.56987842
_symmetry_Int_Tables_number   1
_chemical_formula_structural   TeRhCl
_chemical_formula_sum   'Te2 Rh2 Cl2'
_cell_volume   151.49862682
_cell_formula_units_Z   2
loop_
 _symmetry_equiv_pos_site_id
 _symmetry_equiv_pos_as_xyz
  1  'x, y, z'
loop_
 _atom_site_type_symbol
 _atom_site_label
 _atom_site_symmetry_multiplicity
 _atom_site_fract_x
 _atom_site_fract_y
 _atom_site_fract_z
 _atom_site_occupancy
  Te  Te0  1  0.14020200  0.14020200  0.52737400  1
  Te  Te1  1  0.85979800  0.85979800  0.47262600  1
  Rh  Rh2  1  0.74922500  0.74922500  0.24684700  1
  Rh  Rh3  1  0.25077500  0.25077500  0.75315300  1
  Cl  Cl4  1  0.63756400  0.63756400  0.03181500  1
  Cl  Cl5  1  0.36243600  0.36243600  0.96818500  1
