# generated using pymatgen
data_P2Os
_symmetry_space_group_name_H-M   'P 1'
_cell_length_a   2.94843700
_cell_length_b   5.12694400
_cell_length_c   5.93519600
_cell_angle_alpha   90.00000000
_cell_angle_beta   90.00000000
_cell_angle_gamma   90.00000000
_symmetry_Int_Tables_number   1
_chemical_formula_structural   P2Os
_chemical_formula_sum   'P4 Os2'
_cell_volume   89.71922051
_cell_formula_units_Z   2
loop_
 _symmetry_equiv_pos_site_id
 _symmetry_equiv_pos_as_xyz
  1  'x, y, z'
loop_
 _atom_site_type_symbol
 _atom_site_label
 _atom_site_symmetry_multiplicity
 _atom_site_fract_x
 _atom_site_fract_y
 _atom_site_fract_z
 _atom_site_occupancy
  P  P0  1  0.50000000  0.33755300  0.87220300  1
  P  P1  1  0.50000000  0.66244700  0.12779700  1
  P  P2  1  0.00000000  0.16244700  0.37220300  1
  P  P3  1  0.00000000  0.83755300  0.62779700  1
  Os  Os4  1  0.50000000  0.50000000  0.50000000  1
  Os  Os5  1  0.00000000  0.00000000  0.00000000  1
