# generated using pymatgen
data_Sb4Cl2O5
_symmetry_space_group_name_H-M   'P 1'
_cell_length_a   5.22680800
_cell_length_b   6.38273200
_cell_length_c   13.82230539
_cell_angle_alpha   84.30471943
_cell_angle_beta   90.00000000
_cell_angle_gamma   90.00000000
_symmetry_Int_Tables_number   1
_chemical_formula_structural   Sb4Cl2O5
_chemical_formula_sum   'Sb8 Cl4 O10'
_cell_volume   458.85402420
_cell_formula_units_Z   2
loop_
 _symmetry_equiv_pos_site_id
 _symmetry_equiv_pos_as_xyz
  1  'x, y, z'
loop_
 _atom_site_type_symbol
 _atom_site_label
 _atom_site_symmetry_multiplicity
 _atom_site_fract_x
 _atom_site_fract_y
 _atom_site_fract_z
 _atom_site_occupancy
  Sb  Sb0  1  0.60259300  0.79826600  0.29602900  1
  Sb  Sb1  1  0.10259300  0.20173400  0.20397100  1
  Sb  Sb2  1  0.39740700  0.20173400  0.70397100  1
  Sb  Sb3  1  0.89740700  0.79826600  0.79602900  1
  Sb  Sb4  1  0.72231800  0.18380400  0.45265000  1
  Sb  Sb5  1  0.22231800  0.81619600  0.04735000  1
  Sb  Sb6  1  0.27768200  0.81619600  0.54735000  1
  Sb  Sb7  1  0.77768200  0.18380400  0.95265000  1
  Cl  Cl8  1  0.71489100  0.48893100  0.11737900  1
  Cl  Cl9  1  0.21489100  0.51106900  0.38262100  1
  Cl  Cl10  1  0.28510900  0.51106900  0.88262100  1
  Cl  Cl11  1  0.78510900  0.48893100  0.61737900  1
  O  O12  1  0.50742000  0.06977900  0.58147600  1
  O  O13  1  0.00742000  0.93022100  0.91852400  1
  O  O14  1  0.49258000  0.93022100  0.41852400  1
  O  O15  1  0.99258000  0.06977900  0.08147600  1
  O  O16  1  0.82588000  0.07310700  0.29032200  1
  O  O17  1  0.32588000  0.92689300  0.20967800  1
  O  O18  1  0.17412000  0.92689300  0.70967800  1
  O  O19  1  0.67412000  0.07310700  0.79032200  1
  O  O20  1  0.50000000  0.00000000  0.00000000  1
  O  O21  1  0.00000000  0.00000000  0.50000000  1
