# generated using pymatgen
data_Zr6BCl14
_symmetry_space_group_name_H-M   'P 1'
_cell_length_a   9.73775067
_cell_length_b   9.73775067
_cell_length_c   11.72198400
_cell_angle_alpha   90.00000000
_cell_angle_beta   90.00000000
_cell_angle_gamma   96.23393878
_symmetry_Int_Tables_number   1
_chemical_formula_structural   Zr6BCl14
_chemical_formula_sum   'Zr12 B2 Cl28'
_cell_volume   1104.95028835
_cell_formula_units_Z   2
loop_
 _symmetry_equiv_pos_site_id
 _symmetry_equiv_pos_as_xyz
  1  'x, y, z'
loop_
 _atom_site_type_symbol
 _atom_site_label
 _atom_site_symmetry_multiplicity
 _atom_site_fract_x
 _atom_site_fract_y
 _atom_site_fract_z
 _atom_site_occupancy
  Zr  Zr0  1  0.64832500  0.64832500  0.10784300  1
  Zr  Zr1  1  0.85167500  0.85167500  0.60784300  1
  Zr  Zr2  1  0.14832500  0.14832500  0.39215700  1
  Zr  Zr3  1  0.35167500  0.35167500  0.89215700  1
  Zr  Zr4  1  0.45267900  0.68779500  0.88326000  1
  Zr  Zr5  1  0.04732100  0.81220500  0.38326000  1
  Zr  Zr6  1  0.18779500  0.95267900  0.61674000  1
  Zr  Zr7  1  0.31220500  0.54732100  0.11674000  1
  Zr  Zr8  1  0.54732100  0.31220500  0.11674000  1
  Zr  Zr9  1  0.95267900  0.18779500  0.61674000  1
  Zr  Zr10  1  0.81220500  0.04732100  0.38326000  1
  Zr  Zr11  1  0.68779500  0.45267900  0.88326000  1
  B  B12  1  0.50000000  0.50000000  0.00000000  1
  B  B13  1  0.00000000  0.00000000  0.50000000  1
  Cl  Cl14  1  0.24946000  0.75054000  0.50000000  1
  Cl  Cl15  1  0.25054000  0.74946000  0.00000000  1
  Cl  Cl16  1  0.75054000  0.24946000  0.50000000  1
  Cl  Cl17  1  0.74946000  0.25054000  0.00000000  1
  Cl  Cl18  1  0.84227700  0.84227700  0.24123800  1
  Cl  Cl19  1  0.65772300  0.65772300  0.74123800  1
  Cl  Cl20  1  0.34227700  0.34227700  0.25876200  1
  Cl  Cl21  1  0.15772300  0.15772300  0.75876200  1
  Cl  Cl22  1  0.60253600  0.10253600  0.25000000  1
  Cl  Cl23  1  0.89746400  0.39746400  0.75000000  1
  Cl  Cl24  1  0.96470500  0.20662400  0.25162900  1
  Cl  Cl25  1  0.53529500  0.29337600  0.75162900  1
  Cl  Cl26  1  0.70662400  0.46470500  0.24837100  1
  Cl  Cl27  1  0.79337600  0.03529500  0.74837100  1
  Cl  Cl28  1  0.03529500  0.79337600  0.74837100  1
  Cl  Cl29  1  0.46470500  0.70662400  0.24837100  1
  Cl  Cl30  1  0.29337600  0.53529500  0.75162900  1
  Cl  Cl31  1  0.20662400  0.96470500  0.25162900  1
  Cl  Cl32  1  0.13693100  0.38215400  0.00850000  1
  Cl  Cl33  1  0.36306900  0.11784600  0.50850000  1
  Cl  Cl34  1  0.88215400  0.63693100  0.49150000  1
  Cl  Cl35  1  0.61784600  0.86306900  0.99150000  1
  Cl  Cl36  1  0.86306900  0.61784600  0.99150000  1
  Cl  Cl37  1  0.63693100  0.88215400  0.49150000  1
  Cl  Cl38  1  0.11784600  0.36306900  0.50850000  1
  Cl  Cl39  1  0.38215400  0.13693100  0.00850000  1
  Cl  Cl40  1  0.10253600  0.60253600  0.25000000  1
  Cl  Cl41  1  0.39746400  0.89746400  0.75000000  1
