# generated using pymatgen
data_CaBr2
_symmetry_space_group_name_H-M   'P 1'
_cell_length_a   4.38358900
_cell_length_b   6.70112500
_cell_length_c   7.00328100
_cell_angle_alpha   90.00000000
_cell_angle_beta   90.00000000
_cell_angle_gamma   90.00000000
_symmetry_Int_Tables_number   1
_chemical_formula_structural   CaBr2
_chemical_formula_sum   'Ca2 Br4'
_cell_volume   205.72122417
_cell_formula_units_Z   2
loop_
 _symmetry_equiv_pos_site_id
 _symmetry_equiv_pos_as_xyz
  1  'x, y, z'
loop_
 _atom_site_type_symbol
 _atom_site_label
 _atom_site_symmetry_multiplicity
 _atom_site_fract_x
 _atom_site_fract_y
 _atom_site_fract_z
 _atom_site_occupancy
  Ca  Ca0  1  0.00000000  0.00000000  0.00000000  1
  Ca  Ca1  1  0.50000000  0.50000000  0.50000000  1
  Br  Br2  1  0.00000000  0.27641000  0.32683300  1
  Br  Br3  1  0.00000000  0.72359000  0.67316700  1
  Br  Br4  1  0.50000000  0.77641000  0.17316700  1
  Br  Br5  1  0.50000000  0.22359000  0.82683300  1
