# generated using pymatgen
data_Fe2(MoO4)3
_symmetry_space_group_name_H-M   'P 1'
_cell_length_a   9.46320500
_cell_length_b   9.54811700
_cell_length_c   13.18288500
_cell_angle_alpha   90.00000000
_cell_angle_beta   90.00000000
_cell_angle_gamma   90.00000000
_symmetry_Int_Tables_number   1
_chemical_formula_structural   Fe2(MoO4)3
_chemical_formula_sum   'Fe8 Mo12 O48'
_cell_volume   1191.14996934
_cell_formula_units_Z   4
loop_
 _symmetry_equiv_pos_site_id
 _symmetry_equiv_pos_as_xyz
  1  'x, y, z'
loop_
 _atom_site_type_symbol
 _atom_site_label
 _atom_site_symmetry_multiplicity
 _atom_site_fract_x
 _atom_site_fract_y
 _atom_site_fract_z
 _atom_site_occupancy
  Fe  Fe0  1  0.74997600  0.46585100  0.38096700  1
  Fe  Fe1  1  0.74997600  0.03414900  0.61903300  1
  Fe  Fe2  1  0.75002400  0.96585100  0.11903300  1
  Fe  Fe3  1  0.75002400  0.53414900  0.88096700  1
  Fe  Fe4  1  0.25002400  0.53414900  0.61903300  1
  Fe  Fe5  1  0.25002400  0.96585100  0.38096700  1
  Fe  Fe6  1  0.24997600  0.03414900  0.88096700  1
  Fe  Fe7  1  0.24997600  0.46585100  0.11903300  1
  Mo  Mo8  1  0.52665900  0.75000000  0.50000000  1
  Mo  Mo9  1  0.02665900  0.75000000  0.00000000  1
  Mo  Mo10  1  0.47334100  0.25000000  0.50000000  1
  Mo  Mo11  1  0.97334100  0.25000000  0.00000000  1
  Mo  Mo12  1  0.89478800  0.11632600  0.35526300  1
  Mo  Mo13  1  0.89478800  0.38367400  0.64473700  1
  Mo  Mo14  1  0.60521200  0.61632600  0.14473700  1
  Mo  Mo15  1  0.60521200  0.88367400  0.85526300  1
  Mo  Mo16  1  0.10521200  0.88367400  0.64473700  1
  Mo  Mo17  1  0.10521200  0.61632600  0.35526300  1
  Mo  Mo18  1  0.39478800  0.38367400  0.85526300  1
  Mo  Mo19  1  0.39478800  0.11632600  0.14473700  1
  O  O20  1  0.35978000  0.29809400  0.16869800  1
  O  O21  1  0.35978000  0.20190600  0.83130200  1
  O  O22  1  0.14022000  0.79809400  0.33130200  1
  O  O23  1  0.14022000  0.70190600  0.66869800  1
  O  O24  1  0.64022000  0.70190600  0.83130200  1
  O  O25  1  0.64022000  0.79809400  0.16869800  1
  O  O26  1  0.85978000  0.20190600  0.66869800  1
  O  O27  1  0.85978000  0.29809400  0.33130200  1
  O  O28  1  0.32057900  0.07037100  0.02465300  1
  O  O29  1  0.32057900  0.42962900  0.97534700  1
  O  O30  1  0.17942100  0.57037100  0.47534700  1
  O  O31  1  0.17942100  0.92962900  0.52465300  1
  O  O32  1  0.67942100  0.92962900  0.97534700  1
  O  O33  1  0.67942100  0.57037100  0.02465300  1
  O  O34  1  0.82057900  0.42962900  0.52465300  1
  O  O35  1  0.82057900  0.07037100  0.47534700  1
  O  O36  1  0.91666000  0.66177500  0.90953800  1
  O  O37  1  0.08334000  0.16177500  0.90953800  1
  O  O38  1  0.41666000  0.83822500  0.40953800  1
  O  O39  1  0.41666000  0.66177500  0.59046200  1
  O  O40  1  0.58256500  0.09087300  0.14156600  1
  O  O41  1  0.58256500  0.40912700  0.85843400  1
  O  O42  1  0.91743500  0.59087300  0.35843400  1
  O  O43  1  0.91743500  0.90912700  0.64156600  1
  O  O44  1  0.41743500  0.90912700  0.85843400  1
  O  O45  1  0.41743500  0.59087300  0.14156600  1
  O  O46  1  0.08256500  0.40912700  0.64156600  1
  O  O47  1  0.08256500  0.09087300  0.35843400  1
  O  O48  1  0.86462700  0.12686900  0.06619700  1
  O  O49  1  0.86462700  0.37313100  0.93380300  1
  O  O50  1  0.63537300  0.62686900  0.43380300  1
  O  O51  1  0.63537300  0.87313100  0.56619700  1
  O  O52  1  0.13537300  0.87313100  0.93380300  1
  O  O53  1  0.13537300  0.62686900  0.06619700  1
  O  O54  1  0.36462700  0.37313100  0.56619700  1
  O  O55  1  0.36462700  0.12686900  0.43380300  1
  O  O56  1  0.81780100  0.00763600  0.25893300  1
  O  O57  1  0.81780100  0.49236400  0.74106700  1
  O  O58  1  0.68219900  0.50763600  0.24106700  1
  O  O59  1  0.68219900  0.99236400  0.75893300  1
  O  O60  1  0.18219900  0.99236400  0.74106700  1
  O  O61  1  0.18219900  0.50763600  0.25893300  1
  O  O62  1  0.31780100  0.49236400  0.75893300  1
  O  O63  1  0.31780100  0.00763600  0.24106700  1
  O  O64  1  0.58334000  0.33822500  0.40953800  1
  O  O65  1  0.58334000  0.16177500  0.59046200  1
  O  O66  1  0.91666000  0.83822500  0.09046200  1
  O  O67  1  0.08334000  0.33822500  0.09046200  1
