# generated using pymatgen
data_LaBrO
_symmetry_space_group_name_H-M   'P 1'
_cell_length_a   4.15135200
_cell_length_b   4.15135200
_cell_length_c   7.66877700
_cell_angle_alpha   90.00000000
_cell_angle_beta   90.00000000
_cell_angle_gamma   90.00000000
_symmetry_Int_Tables_number   1
_chemical_formula_structural   LaBrO
_chemical_formula_sum   'La2 Br2 O2'
_cell_volume   132.16158185
_cell_formula_units_Z   2
loop_
 _symmetry_equiv_pos_site_id
 _symmetry_equiv_pos_as_xyz
  1  'x, y, z'
loop_
 _atom_site_type_symbol
 _atom_site_label
 _atom_site_symmetry_multiplicity
 _atom_site_fract_x
 _atom_site_fract_y
 _atom_site_fract_z
 _atom_site_occupancy
  La  La0  1  0.00000000  0.50000000  0.84332000  1
  La  La1  1  0.50000000  0.00000000  0.15668000  1
  Br  Br2  1  0.50000000  0.00000000  0.64042400  1
  Br  Br3  1  0.00000000  0.50000000  0.35957600  1
  O  O4  1  0.00000000  0.00000000  0.00000000  1
  O  O5  1  0.50000000  0.50000000  0.00000000  1
