# generated using pymatgen
data_TcCl4
_symmetry_space_group_name_H-M   'P 1'
_cell_length_a   6.15182500
_cell_length_b   13.21356600
_cell_length_c   15.44137900
_cell_angle_alpha   90.00000000
_cell_angle_beta   90.00000000
_cell_angle_gamma   90.00000000
_symmetry_Int_Tables_number   1
_chemical_formula_structural   TcCl4
_chemical_formula_sum   'Tc8 Cl32'
_cell_volume   1255.19180048
_cell_formula_units_Z   8
loop_
 _symmetry_equiv_pos_site_id
 _symmetry_equiv_pos_as_xyz
  1  'x, y, z'
loop_
 _atom_site_type_symbol
 _atom_site_label
 _atom_site_symmetry_multiplicity
 _atom_site_fract_x
 _atom_site_fract_y
 _atom_site_fract_z
 _atom_site_occupancy
  Tc  Tc0  1  0.89678600  0.62809700  0.31578300  1
  Tc  Tc1  1  0.39678600  0.87190300  0.68421700  1
  Tc  Tc2  1  0.10321400  0.12809700  0.18421700  1
  Tc  Tc3  1  0.60321400  0.37190300  0.81578300  1
  Tc  Tc4  1  0.10321400  0.37190300  0.68421700  1
  Tc  Tc5  1  0.60321400  0.12809700  0.31578300  1
  Tc  Tc6  1  0.89678600  0.87190300  0.81578300  1
  Tc  Tc7  1  0.39678600  0.62809700  0.18421700  1
  Cl  Cl8  1  0.75677800  0.52023400  0.41465000  1
  Cl  Cl9  1  0.25677800  0.97976600  0.58535000  1
  Cl  Cl10  1  0.24322200  0.02023400  0.08535000  1
  Cl  Cl11  1  0.74322200  0.47976600  0.91465000  1
  Cl  Cl12  1  0.24322200  0.47976600  0.58535000  1
  Cl  Cl13  1  0.74322200  0.02023400  0.41465000  1
  Cl  Cl14  1  0.75677800  0.97976600  0.91465000  1
  Cl  Cl15  1  0.25677800  0.52023400  0.08535000  1
  Cl  Cl16  1  0.57270100  0.72866500  0.30266100  1
  Cl  Cl17  1  0.07270100  0.77133500  0.69733900  1
  Cl  Cl18  1  0.42729900  0.22866500  0.19733900  1
  Cl  Cl19  1  0.92729900  0.27133500  0.80266100  1
  Cl  Cl20  1  0.42729900  0.27133500  0.69733900  1
  Cl  Cl21  1  0.92729900  0.22866500  0.30266100  1
  Cl  Cl22  1  0.57270100  0.77133500  0.80266100  1
  Cl  Cl23  1  0.07270100  0.72866500  0.19733900  1
  Cl  Cl24  1  0.22134800  0.52769900  0.30306200  1
  Cl  Cl25  1  0.72134800  0.97230100  0.69693800  1
  Cl  Cl26  1  0.77865200  0.02769900  0.19693800  1
  Cl  Cl27  1  0.27865200  0.47230100  0.80306200  1
  Cl  Cl28  1  0.77865200  0.47230100  0.69693800  1
  Cl  Cl29  1  0.27865200  0.02769900  0.30306200  1
  Cl  Cl30  1  0.22134800  0.97230100  0.80306200  1
  Cl  Cl31  1  0.72134800  0.52769900  0.19693800  1
  Cl  Cl32  1  0.53547900  0.73587400  0.08502900  1
  Cl  Cl33  1  0.03547900  0.76412600  0.91497100  1
  Cl  Cl34  1  0.46452100  0.23587400  0.41497100  1
  Cl  Cl35  1  0.96452100  0.26412600  0.58502900  1
  Cl  Cl36  1  0.46452100  0.26412600  0.91497100  1
  Cl  Cl37  1  0.96452100  0.23587400  0.08502900  1
  Cl  Cl38  1  0.53547900  0.76412600  0.58502900  1
  Cl  Cl39  1  0.03547900  0.73587400  0.41497100  1
