# generated using pymatgen
data_KCdCl3
_symmetry_space_group_name_H-M   'P 1'
_cell_length_a   4.06972600
_cell_length_b   9.01363500
_cell_length_c   14.90677900
_cell_angle_alpha   90.00000000
_cell_angle_beta   90.00000000
_cell_angle_gamma   90.00000000
_symmetry_Int_Tables_number   1
_chemical_formula_structural   KCdCl3
_chemical_formula_sum   'K4 Cd4 Cl12'
_cell_volume   546.82574246
_cell_formula_units_Z   4
loop_
 _symmetry_equiv_pos_site_id
 _symmetry_equiv_pos_as_xyz
  1  'x, y, z'
loop_
 _atom_site_type_symbol
 _atom_site_label
 _atom_site_symmetry_multiplicity
 _atom_site_fract_x
 _atom_site_fract_y
 _atom_site_fract_z
 _atom_site_occupancy
  K  K0  1  0.25000000  0.42780000  0.17837000  1
  K  K1  1  0.75000000  0.57220000  0.82163000  1
  K  K2  1  0.25000000  0.92780000  0.32163000  1
  K  K3  1  0.75000000  0.07220000  0.67837000  1
  Cd  Cd4  1  0.75000000  0.82855100  0.05452700  1
  Cd  Cd5  1  0.25000000  0.17144900  0.94547300  1
  Cd  Cd6  1  0.75000000  0.32855100  0.44547300  1
  Cd  Cd7  1  0.25000000  0.67144900  0.55452700  1
  Cl  Cl8  1  0.75000000  0.98083800  0.89905200  1
  Cl  Cl9  1  0.25000000  0.01916200  0.10094800  1
  Cl  Cl10  1  0.75000000  0.48083800  0.60094800  1
  Cl  Cl11  1  0.25000000  0.51916200  0.39905200  1
  Cl  Cl12  1  0.25000000  0.66642100  0.98985900  1
  Cl  Cl13  1  0.75000000  0.33357900  0.01014100  1
  Cl  Cl14  1  0.25000000  0.16642100  0.51014100  1
  Cl  Cl15  1  0.75000000  0.83357900  0.48985900  1
  Cl  Cl16  1  0.25000000  0.79117300  0.70925400  1
  Cl  Cl17  1  0.75000000  0.20882700  0.29074600  1
  Cl  Cl18  1  0.25000000  0.29117300  0.79074600  1
  Cl  Cl19  1  0.75000000  0.70882700  0.20925400  1
