# generated using pymatgen
data_TiBr3
_symmetry_space_group_name_H-M   'P 1'
_cell_length_a   6.51870751
_cell_length_b   6.48822605
_cell_length_c   7.78059473
_cell_angle_alpha   65.49547895
_cell_angle_beta   65.49632537
_cell_angle_gamma   59.78803563
_symmetry_Int_Tables_number   1
_chemical_formula_structural   TiBr3
_chemical_formula_sum   'Ti2 Br6'
_cell_volume   249.72439653
_cell_formula_units_Z   2
loop_
 _symmetry_equiv_pos_site_id
 _symmetry_equiv_pos_as_xyz
  1  'x, y, z'
loop_
 _atom_site_type_symbol
 _atom_site_label
 _atom_site_symmetry_multiplicity
 _atom_site_fract_x
 _atom_site_fract_y
 _atom_site_fract_z
 _atom_site_occupancy
  Ti  Ti0  1  0.33932500  0.81943600  0.99997100  1
  Ti  Ti1  1  0.66067500  0.18056400  0.00002900  1
  Br  Br2  1  0.27499400  0.42524100  0.22645800  1
  Br  Br3  1  0.72500600  0.57475900  0.77354200  1
  Br  Br4  1  0.57426400  0.78155700  0.21676700  1
  Br  Br5  1  0.42573600  0.21844300  0.78323300  1
  Br  Br6  1  0.07309600  0.92613700  0.78130400  1
  Br  Br7  1  0.92690400  0.07386300  0.21869600  1
