# generated using pymatgen
data_Sm3(SiIr)2
_symmetry_space_group_name_H-M   'P 1'
_cell_length_a   5.71374146
_cell_length_b   5.71374146
_cell_length_c   13.41343100
_cell_angle_alpha   90.00000000
_cell_angle_beta   90.00000000
_cell_angle_gamma   137.59516640
_symmetry_Int_Tables_number   1
_chemical_formula_structural   Sm3(SiIr)2
_chemical_formula_sum   'Sm6 Si4 Ir4'
_cell_volume   295.30844609
_cell_formula_units_Z   2
loop_
 _symmetry_equiv_pos_site_id
 _symmetry_equiv_pos_as_xyz
  1  'x, y, z'
loop_
 _atom_site_type_symbol
 _atom_site_label
 _atom_site_symmetry_multiplicity
 _atom_site_fract_x
 _atom_site_fract_y
 _atom_site_fract_z
 _atom_site_occupancy
  Sm  Sm0  1  0.77297300  0.22702700  0.60386900  1
  Sm  Sm1  1  0.51734300  0.48265700  0.25000000  1
  Sm  Sm2  1  0.22702700  0.77297300  0.39613100  1
  Sm  Sm3  1  0.77297300  0.22702700  0.89613100  1
  Sm  Sm4  1  0.48265700  0.51734300  0.75000000  1
  Sm  Sm5  1  0.22702700  0.77297300  0.10386900  1
  Si  Si6  1  0.06065100  0.93934900  0.58863800  1
  Si  Si7  1  0.06065100  0.93934900  0.91136200  1
  Si  Si8  1  0.93934900  0.06065100  0.41136200  1
  Si  Si9  1  0.93934900  0.06065100  0.08863800  1
  Ir  Ir10  1  0.81482900  0.18517100  0.25000000  1
  Ir  Ir11  1  0.18517100  0.81482900  0.75000000  1
  Ir  Ir12  1  0.50000000  0.50000000  0.00000000  1
  Ir  Ir13  1  0.50000000  0.50000000  0.50000000  1
