# generated using pymatgen
data_LiNiAsO4
_symmetry_space_group_name_H-M   'P 1'
_cell_length_a   4.93003300
_cell_length_b   5.98432800
_cell_length_c   10.44696000
_cell_angle_alpha   90.00000000
_cell_angle_beta   90.00000000
_cell_angle_gamma   90.00000000
_symmetry_Int_Tables_number   1
_chemical_formula_structural   LiNiAsO4
_chemical_formula_sum   'Li4 Ni4 As4 O16'
_cell_volume   308.21597684
_cell_formula_units_Z   4
loop_
 _symmetry_equiv_pos_site_id
 _symmetry_equiv_pos_as_xyz
  1  'x, y, z'
loop_
 _atom_site_type_symbol
 _atom_site_label
 _atom_site_symmetry_multiplicity
 _atom_site_fract_x
 _atom_site_fract_y
 _atom_site_fract_z
 _atom_site_occupancy
  Li  Li0  1  0.00000000  0.00000000  0.00000000  1
  Li  Li1  1  0.50000000  0.00000000  0.50000000  1
  Li  Li2  1  0.00000000  0.50000000  0.00000000  1
  Li  Li3  1  0.50000000  0.50000000  0.50000000  1
  Ni  Ni4  1  0.99367300  0.24999900  0.27199300  1
  Ni  Ni5  1  0.50632700  0.24999900  0.77199300  1
  Ni  Ni6  1  0.00632700  0.75000000  0.72800600  1
  Ni  Ni7  1  0.49367300  0.75000000  0.22800700  1
  As  As8  1  0.06439300  0.24999900  0.59379700  1
  As  As9  1  0.43560700  0.24999900  0.09379600  1
  As  As10  1  0.93560600  0.75000000  0.40620300  1
  As  As11  1  0.56439300  0.75000000  0.90620400  1
  O  O12  1  0.78190700  0.24999900  0.09636900  1
  O  O13  1  0.21809200  0.75000000  0.90363100  1
  O  O14  1  0.71809400  0.24999900  0.59636900  1
  O  O15  1  0.28190800  0.75000000  0.40363100  1
  O  O16  1  0.70486000  0.75000000  0.05745600  1
  O  O17  1  0.29514000  0.24999900  0.94254400  1
  O  O18  1  0.20486000  0.24999900  0.44254400  1
  O  O19  1  0.79513900  0.75000000  0.55745600  1
  O  O20  1  0.22715400  0.47213200  0.66987400  1
  O  O21  1  0.72715400  0.52786700  0.83012600  1
  O  O22  1  0.77284600  0.97213300  0.33012600  1
  O  O23  1  0.27284600  0.02786700  0.16987400  1
  O  O24  1  0.77284600  0.52786700  0.33012600  1
  O  O25  1  0.27284600  0.47213200  0.16987400  1
  O  O26  1  0.22715400  0.02786700  0.66987400  1
  O  O27  1  0.72715400  0.97213300  0.83012600  1
