# generated using pymatgen
data_Ba5V3ClO12
_symmetry_space_group_name_H-M   'P 1'
_cell_length_a   10.74369406
_cell_length_b   10.74369406
_cell_length_c   7.88327200
_cell_angle_alpha   90.00000000
_cell_angle_beta   90.00000000
_cell_angle_gamma   120.00000035
_symmetry_Int_Tables_number   1
_chemical_formula_structural   Ba5V3ClO12
_chemical_formula_sum   'Ba10 V6 Cl2 O24'
_cell_volume   788.03300424
_cell_formula_units_Z   2
loop_
 _symmetry_equiv_pos_site_id
 _symmetry_equiv_pos_as_xyz
  1  'x, y, z'
loop_
 _atom_site_type_symbol
 _atom_site_label
 _atom_site_symmetry_multiplicity
 _atom_site_fract_x
 _atom_site_fract_y
 _atom_site_fract_z
 _atom_site_occupancy
  Ba  Ba0  1  0.66666700  0.33333300  0.49970000  1
  Ba  Ba1  1  0.33333300  0.66666700  0.99970000  1
  Ba  Ba2  1  0.33333300  0.66666700  0.50030000  1
  Ba  Ba3  1  0.66666700  0.33333300  0.00030000  1
  Ba  Ba4  1  0.99108200  0.24653800  0.75000000  1
  Ba  Ba5  1  0.75346200  0.74454400  0.75000000  1
  Ba  Ba6  1  0.25545600  0.00891800  0.75000000  1
  Ba  Ba7  1  0.00891800  0.75346200  0.25000000  1
  Ba  Ba8  1  0.24653800  0.25545600  0.25000000  1
  Ba  Ba9  1  0.74454400  0.99108200  0.25000000  1
  V  V10  1  0.37217500  0.40441100  0.75000000  1
  V  V11  1  0.59558900  0.96776400  0.75000000  1
  V  V12  1  0.03223600  0.62782500  0.75000000  1
  V  V13  1  0.62782500  0.59558900  0.25000000  1
  V  V14  1  0.40441100  0.03223600  0.25000000  1
  V  V15  1  0.96776400  0.37217500  0.25000000  1
  Cl  Cl16  1  0.00000000  0.00000000  0.50000000  1
  Cl  Cl17  1  0.00000000  0.00000000  0.00000000  1
  O  O18  1  0.48332300  0.32858300  0.75000000  1
  O  O19  1  0.67141700  0.15474100  0.75000000  1
  O  O20  1  0.84525900  0.51667700  0.75000000  1
  O  O21  1  0.51667700  0.67141700  0.25000000  1
  O  O22  1  0.32858300  0.84525900  0.25000000  1
  O  O23  1  0.15474100  0.48332300  0.25000000  1
  O  O24  1  0.46980500  0.59306300  0.75000000  1
  O  O25  1  0.40693700  0.87674200  0.75000000  1
  O  O26  1  0.12325800  0.53019500  0.75000000  1
  O  O27  1  0.53019500  0.40693700  0.25000000  1
  O  O28  1  0.59306300  0.12325800  0.25000000  1
  O  O29  1  0.87674200  0.46980500  0.25000000  1
  O  O30  1  0.25960700  0.35213200  0.57392000  1
  O  O31  1  0.64786800  0.90747500  0.57392000  1
  O  O32  1  0.09252500  0.74039300  0.57392000  1
  O  O33  1  0.74039300  0.64786800  0.07392000  1
  O  O34  1  0.35213200  0.09252500  0.07392000  1
  O  O35  1  0.90747500  0.25960700  0.07392000  1
  O  O36  1  0.74039300  0.64786800  0.42608000  1
  O  O37  1  0.35213200  0.09252500  0.42608000  1
  O  O38  1  0.90747500  0.25960700  0.42608000  1
  O  O39  1  0.25960700  0.35213200  0.92608000  1
  O  O40  1  0.64786800  0.90747500  0.92608000  1
  O  O41  1  0.09252500  0.74039300  0.92608000  1
