# generated using pymatgen
data_Cs3Sb5O14
_symmetry_space_group_name_H-M   'P 1'
_cell_length_a   7.46196700
_cell_length_b   7.47213000
_cell_length_c   25.90694400
_cell_angle_alpha   90.00000000
_cell_angle_beta   90.00000000
_cell_angle_gamma   90.00000000
_symmetry_Int_Tables_number   1
_chemical_formula_structural   Cs3Sb5O14
_chemical_formula_sum   'Cs12 Sb20 O56'
_cell_volume   1444.48797086
_cell_formula_units_Z   4
loop_
 _symmetry_equiv_pos_site_id
 _symmetry_equiv_pos_as_xyz
  1  'x, y, z'
loop_
 _atom_site_type_symbol
 _atom_site_label
 _atom_site_symmetry_multiplicity
 _atom_site_fract_x
 _atom_site_fract_y
 _atom_site_fract_z
 _atom_site_occupancy
  Cs  Cs0  1  0.50000000  0.13344000  0.88112600  1
  Cs  Cs1  1  0.50000000  0.86656000  0.11887400  1
  Cs  Cs2  1  0.50000000  0.63344000  0.61887400  1
  Cs  Cs3  1  0.50000000  0.36656000  0.38112600  1
  Cs  Cs4  1  0.00000000  0.14072500  0.78882000  1
  Cs  Cs5  1  0.00000000  0.85927500  0.21118000  1
  Cs  Cs6  1  0.00000000  0.64072500  0.71118000  1
  Cs  Cs7  1  0.00000000  0.35927500  0.28882000  1
  Cs  Cs8  1  0.50000000  0.23724300  0.51693700  1
  Cs  Cs9  1  0.50000000  0.76275700  0.48306300  1
  Cs  Cs10  1  0.50000000  0.73724300  0.98306300  1
  Cs  Cs11  1  0.50000000  0.26275700  0.01693600  1
  Sb  Sb12  1  0.25719000  0.85953200  0.35012900  1
  Sb  Sb13  1  0.25719000  0.14046800  0.64987100  1
  Sb  Sb14  1  0.74281000  0.35953200  0.14987100  1
  Sb  Sb15  1  0.74281000  0.64046800  0.85012900  1
  Sb  Sb16  1  0.74281000  0.14046800  0.64987100  1
  Sb  Sb17  1  0.74281000  0.85953200  0.35012900  1
  Sb  Sb18  1  0.25719000  0.64046800  0.85012900  1
  Sb  Sb19  1  0.25719000  0.35953200  0.14987100  1
  Sb  Sb20  1  0.50000000  0.38035600  0.75222100  1
  Sb  Sb21  1  0.50000000  0.61964400  0.24777900  1
  Sb  Sb22  1  0.50000000  0.88035600  0.74777900  1
  Sb  Sb23  1  0.50000000  0.11964400  0.25222100  1
  Sb  Sb24  1  0.00000000  0.40351700  0.94051100  1
  Sb  Sb25  1  0.00000000  0.59648300  0.05948900  1
  Sb  Sb26  1  0.00000000  0.90351700  0.55948900  1
  Sb  Sb27  1  0.00000000  0.09648300  0.44051100  1
  Sb  Sb28  1  0.00000000  0.42015200  0.55528600  1
  Sb  Sb29  1  0.00000000  0.57984800  0.44471400  1
  Sb  Sb30  1  0.00000000  0.92015200  0.94471400  1
  Sb  Sb31  1  0.00000000  0.07984800  0.05528600  1
  O  O32  1  0.00000000  0.08867900  0.66385600  1
  O  O33  1  0.00000000  0.91132100  0.33614400  1
  O  O34  1  0.00000000  0.58867900  0.83614400  1
  O  O35  1  0.00000000  0.41132100  0.16385600  1
  O  O36  1  0.23352700  0.53457300  0.08469100  1
  O  O37  1  0.23352700  0.46542700  0.91530900  1
  O  O38  1  0.76647300  0.03457300  0.41530900  1
  O  O39  1  0.76647300  0.96542700  0.58469100  1
  O  O40  1  0.76647300  0.46542700  0.91530900  1
  O  O41  1  0.76647300  0.53457300  0.08469100  1
  O  O42  1  0.23352700  0.96542700  0.58469100  1
  O  O43  1  0.23352700  0.03457300  0.41530900  1
  O  O44  1  0.00000000  0.16213600  0.91157700  1
  O  O45  1  0.00000000  0.83786400  0.08842300  1
  O  O46  1  0.00000000  0.66213600  0.58842300  1
  O  O47  1  0.00000000  0.33786400  0.41157700  1
  O  O48  1  0.50000000  0.16133600  0.62061500  1
  O  O49  1  0.50000000  0.83866400  0.37938500  1
  O  O50  1  0.50000000  0.66133600  0.87938500  1
  O  O51  1  0.50000000  0.33866400  0.12061500  1
  O  O52  1  0.30890900  0.57151900  0.19375400  1
  O  O53  1  0.29404800  0.67123500  0.29743400  1
  O  O54  1  0.30890900  0.42848100  0.80624600  1
  O  O55  1  0.69109100  0.92848100  0.69375400  1
  O  O56  1  0.69109100  0.42848100  0.80624600  1
  O  O57  1  0.69109100  0.57151900  0.19375400  1
  O  O58  1  0.30890900  0.92848100  0.69375400  1
  O  O59  1  0.30890900  0.07151900  0.30624600  1
  O  O60  1  0.17584700  0.50000000  0.50000000  1
  O  O61  1  0.82415300  0.00000000  0.00000000  1
  O  O62  1  0.82415300  0.50000000  0.50000000  1
  O  O63  1  0.17584700  0.00000000  0.00000000  1
  O  O64  1  0.50000000  0.37265500  0.27558500  1
  O  O65  1  0.50000000  0.62734500  0.72441500  1
  O  O66  1  0.50000000  0.87265500  0.22441500  1
  O  O67  1  0.50000000  0.12734500  0.77558500  1
  O  O68  1  0.00000000  0.34164200  0.01573100  1
  O  O69  1  0.00000000  0.65835800  0.98426900  1
  O  O70  1  0.00000000  0.84164200  0.48426900  1
  O  O71  1  0.00000000  0.15835800  0.51573100  1
  O  O72  1  0.20076400  0.16074200  0.09787500  1
  O  O73  1  0.20076400  0.83925800  0.90212500  1
  O  O74  1  0.79923600  0.66074200  0.40212500  1
  O  O75  1  0.79923600  0.33925800  0.59787500  1
  O  O76  1  0.79923600  0.83925800  0.90212500  1
  O  O77  1  0.79923600  0.16074200  0.09787500  1
  O  O78  1  0.20076400  0.33925800  0.59787500  1
  O  O79  1  0.20076400  0.66074200  0.40212500  1
  O  O80  1  0.29404800  0.17123500  0.20256600  1
  O  O81  1  0.29404800  0.82876500  0.79743400  1
  O  O82  1  0.70595200  0.67123500  0.29743400  1
  O  O83  1  0.70595200  0.32876500  0.70256600  1
  O  O84  1  0.70595200  0.82876500  0.79743400  1
  O  O85  1  0.70595200  0.17123500  0.20256600  1
  O  O86  1  0.29404800  0.32876500  0.70256600  1
  O  O87  1  0.69109100  0.07151900  0.30624600  1
