# generated using pymatgen
data_ZrCuSi
_symmetry_space_group_name_H-M   'P 1'
_cell_length_a   3.94247900
_cell_length_b   6.54258300
_cell_length_c   7.31607900
_cell_angle_alpha   90.00000000
_cell_angle_beta   90.00000000
_cell_angle_gamma   90.00000000
_symmetry_Int_Tables_number   1
_chemical_formula_structural   ZrCuSi
_chemical_formula_sum   'Zr4 Cu4 Si4'
_cell_volume   188.71091307
_cell_formula_units_Z   4
loop_
 _symmetry_equiv_pos_site_id
 _symmetry_equiv_pos_as_xyz
  1  'x, y, z'
loop_
 _atom_site_type_symbol
 _atom_site_label
 _atom_site_symmetry_multiplicity
 _atom_site_fract_x
 _atom_site_fract_y
 _atom_site_fract_z
 _atom_site_occupancy
  Zr  Zr0  1  0.25000000  0.50967100  0.69328800  1
  Zr  Zr1  1  0.75000000  0.49032900  0.30671200  1
  Zr  Zr2  1  0.25000000  0.00967100  0.80671200  1
  Zr  Zr3  1  0.75000000  0.99032900  0.19328800  1
  Cu  Cu4  1  0.75000000  0.83006300  0.57620200  1
  Cu  Cu5  1  0.25000000  0.16993700  0.42379800  1
  Cu  Cu6  1  0.75000000  0.33006300  0.92379800  1
  Cu  Cu7  1  0.25000000  0.66993700  0.07620200  1
  Si  Si8  1  0.25000000  0.27966700  0.10107900  1
  Si  Si9  1  0.75000000  0.72033300  0.89892100  1
  Si  Si10  1  0.25000000  0.77966700  0.39892100  1
  Si  Si11  1  0.75000000  0.22033300  0.60107900  1
