# generated using pymatgen
data_Sr2Ge
_symmetry_space_group_name_H-M   'P 1'
_cell_length_a   5.19632800
_cell_length_b   8.18933100
_cell_length_c   9.67823700
_cell_angle_alpha   90.00000000
_cell_angle_beta   90.00000000
_cell_angle_gamma   90.00000000
_symmetry_Int_Tables_number   1
_chemical_formula_structural   Sr2Ge
_chemical_formula_sum   'Sr8 Ge4'
_cell_volume   411.85205228
_cell_formula_units_Z   4
loop_
 _symmetry_equiv_pos_site_id
 _symmetry_equiv_pos_as_xyz
  1  'x, y, z'
loop_
 _atom_site_type_symbol
 _atom_site_label
 _atom_site_symmetry_multiplicity
 _atom_site_fract_x
 _atom_site_fract_y
 _atom_site_fract_z
 _atom_site_occupancy
  Sr  Sr0  1  0.75000000  0.34923500  0.07809800  1
  Sr  Sr1  1  0.25000000  0.65076500  0.92190200  1
  Sr  Sr2  1  0.75000000  0.84923500  0.42190200  1
  Sr  Sr3  1  0.25000000  0.15076500  0.57809800  1
  Sr  Sr4  1  0.25000000  0.01836200  0.17358100  1
  Sr  Sr5  1  0.75000000  0.98163800  0.82641900  1
  Sr  Sr6  1  0.25000000  0.51836200  0.32641900  1
  Sr  Sr7  1  0.75000000  0.48163800  0.67358100  1
  Ge  Ge8  1  0.25000000  0.75220700  0.60197000  1
  Ge  Ge9  1  0.75000000  0.24779300  0.39803000  1
  Ge  Ge10  1  0.25000000  0.25220700  0.89803000  1
  Ge  Ge11  1  0.75000000  0.74779300  0.10197000  1
