# generated using pymatgen
data_Ba3SiS5
_symmetry_space_group_name_H-M   'P 1'
_cell_length_a   8.69300500
_cell_length_b   9.55183200
_cell_length_c   12.13416400
_cell_angle_alpha   90.00000000
_cell_angle_beta   90.00000000
_cell_angle_gamma   90.00000000
_symmetry_Int_Tables_number   1
_chemical_formula_structural   Ba3SiS5
_chemical_formula_sum   'Ba12 Si4 S20'
_cell_volume   1007.54967015
_cell_formula_units_Z   4
loop_
 _symmetry_equiv_pos_site_id
 _symmetry_equiv_pos_as_xyz
  1  'x, y, z'
loop_
 _atom_site_type_symbol
 _atom_site_label
 _atom_site_symmetry_multiplicity
 _atom_site_fract_x
 _atom_site_fract_y
 _atom_site_fract_z
 _atom_site_occupancy
  Ba  Ba0  1  0.88604700  0.75000000  0.48027800  1
  Ba  Ba1  1  0.38604700  0.25000000  0.01972200  1
  Ba  Ba2  1  0.11395300  0.25000000  0.51972200  1
  Ba  Ba3  1  0.61395300  0.75000000  0.98027800  1
  Ba  Ba4  1  0.07777100  0.98026600  0.81740600  1
  Ba  Ba5  1  0.57777100  0.01973400  0.68259400  1
  Ba  Ba6  1  0.92222900  0.48026600  0.18259400  1
  Ba  Ba7  1  0.42222900  0.51973400  0.31740600  1
  Ba  Ba8  1  0.92222900  0.01973400  0.18259400  1
  Ba  Ba9  1  0.42222900  0.98026600  0.31740600  1
  Ba  Ba10  1  0.07777100  0.51973400  0.81740600  1
  Ba  Ba11  1  0.57777100  0.48026600  0.68259400  1
  Si  Si12  1  0.30588900  0.75000000  0.59694600  1
  Si  Si13  1  0.19411100  0.75000000  0.09694600  1
  Si  Si14  1  0.69411100  0.25000000  0.40305400  1
  Si  Si15  1  0.80588900  0.25000000  0.90305400  1
  S  S16  1  0.68212000  0.75000000  0.23441300  1
  S  S17  1  0.18212000  0.25000000  0.26558700  1
  S  S18  1  0.31788000  0.25000000  0.76558700  1
  S  S19  1  0.81788000  0.75000000  0.73441300  1
  S  S20  1  0.98652600  0.75000000  0.00523300  1
  S  S21  1  0.48652600  0.25000000  0.49476700  1
  S  S22  1  0.01347400  0.25000000  0.99476700  1
  S  S23  1  0.51347400  0.75000000  0.50523300  1
  S  S24  1  0.14963400  0.75000000  0.27073300  1
  S  S25  1  0.35036600  0.75000000  0.77073300  1
  S  S26  1  0.85036600  0.25000000  0.72926700  1
  S  S27  1  0.64963400  0.25000000  0.22926700  1
  S  S28  1  0.68339800  0.06589500  0.94467000  1
  S  S29  1  0.18339800  0.93410500  0.55533000  1
  S  S30  1  0.31660200  0.56589500  0.05533000  1
  S  S31  1  0.81660200  0.43410500  0.44467000  1
  S  S32  1  0.31660200  0.93410500  0.05533000  1
  S  S33  1  0.81660200  0.06589500  0.44467000  1
  S  S34  1  0.68339800  0.43410500  0.94467000  1
  S  S35  1  0.18339800  0.56589500  0.55533000  1
