# generated using pymatgen
data_LiSb3O8
_symmetry_space_group_name_H-M   'P 1'
_cell_length_a   4.78437500
_cell_length_b   5.70544400
_cell_length_c   10.45115081
_cell_angle_alpha   83.62096618
_cell_angle_beta   90.00000000
_cell_angle_gamma   90.00000000
_symmetry_Int_Tables_number   1
_chemical_formula_structural   LiSb3O8
_chemical_formula_sum   'Li2 Sb6 O16'
_cell_volume   283.51859192
_cell_formula_units_Z   2
loop_
 _symmetry_equiv_pos_site_id
 _symmetry_equiv_pos_as_xyz
  1  'x, y, z'
loop_
 _atom_site_type_symbol
 _atom_site_label
 _atom_site_symmetry_multiplicity
 _atom_site_fract_x
 _atom_site_fract_y
 _atom_site_fract_z
 _atom_site_occupancy
  Li  Li0  1  0.50000000  0.00000000  0.50000000  1
  Li  Li1  1  0.00000000  0.00000000  0.00000000  1
  Sb  Sb2  1  0.50000000  0.50000000  0.00000000  1
  Sb  Sb3  1  0.00000000  0.50000000  0.50000000  1
  Sb  Sb4  1  0.97692900  0.76312300  0.75118900  1
  Sb  Sb5  1  0.47692900  0.23687700  0.74881100  1
  Sb  Sb6  1  0.02307100  0.23687700  0.24881100  1
  Sb  Sb7  1  0.52307100  0.76312300  0.25118900  1
  O  O8  1  0.33057800  0.76365600  0.08207800  1
  O  O9  1  0.83057800  0.23634400  0.41792200  1
  O  O10  1  0.66942200  0.23634400  0.91792200  1
  O  O11  1  0.16942200  0.76365600  0.58207800  1
  O  O12  1  0.21980200  0.51979000  0.32680400  1
  O  O13  1  0.71980200  0.48021000  0.17319600  1
  O  O14  1  0.78019800  0.48021000  0.67319600  1
  O  O15  1  0.28019800  0.51979000  0.82680400  1
  O  O16  1  0.70829000  0.72055300  0.42042000  1
  O  O17  1  0.20829000  0.27944700  0.07958000  1
  O  O18  1  0.29171000  0.27944700  0.57958000  1
  O  O19  1  0.79171000  0.72055300  0.92042000  1
  O  O20  1  0.19126700  0.01129800  0.82464000  1
  O  O21  1  0.69126700  0.98870200  0.67536000  1
  O  O22  1  0.80873300  0.98870200  0.17536000  1
  O  O23  1  0.30873300  0.01129800  0.32464000  1
