# generated using pymatgen
data_CaSnAu
_symmetry_space_group_name_H-M   'P 1'
_cell_length_a   4.78195100
_cell_length_b   8.27696000
_cell_length_c   37.31282100
_cell_angle_alpha   90.00000000
_cell_angle_beta   90.00000000
_cell_angle_gamma   90.00000000
_symmetry_Int_Tables_number   1
_chemical_formula_structural   CaSnAu
_chemical_formula_sum   'Ca20 Sn20 Au20'
_cell_volume   1476.84209506
_cell_formula_units_Z   20
loop_
 _symmetry_equiv_pos_site_id
 _symmetry_equiv_pos_as_xyz
  1  'x, y, z'
loop_
 _atom_site_type_symbol
 _atom_site_label
 _atom_site_symmetry_multiplicity
 _atom_site_fract_x
 _atom_site_fract_y
 _atom_site_fract_z
 _atom_site_occupancy
  Ca  Ca0  1  0.25000000  0.71630700  0.99918200  1
  Ca  Ca1  1  0.75000000  0.28369300  0.00081800  1
  Ca  Ca2  1  0.75000000  0.21630700  0.50081800  1
  Ca  Ca3  1  0.25000000  0.78369300  0.49918200  1
  Ca  Ca4  1  0.25000000  0.79178700  0.10022300  1
  Ca  Ca5  1  0.75000000  0.20821300  0.89977700  1
  Ca  Ca6  1  0.75000000  0.29178700  0.39977700  1
  Ca  Ca7  1  0.25000000  0.70821300  0.60022300  1
  Ca  Ca8  1  0.25000000  0.71257800  0.20120100  1
  Ca  Ca9  1  0.75000000  0.28742200  0.79879900  1
  Ca  Ca10  1  0.75000000  0.21257800  0.29879900  1
  Ca  Ca11  1  0.25000000  0.78742200  0.70120100  1
  Ca  Ca12  1  0.25000000  0.78995000  0.30070500  1
  Ca  Ca13  1  0.75000000  0.21005000  0.69929500  1
  Ca  Ca14  1  0.75000000  0.28995000  0.19929500  1
  Ca  Ca15  1  0.25000000  0.71005000  0.80070500  1
  Ca  Ca16  1  0.25000000  0.71032500  0.40000400  1
  Ca  Ca17  1  0.75000000  0.28967500  0.59999600  1
  Ca  Ca18  1  0.75000000  0.21032500  0.09999600  1
  Ca  Ca19  1  0.25000000  0.78967500  0.90000400  1
  Sn  Sn20  1  0.25000000  0.41510000  0.05940800  1
  Sn  Sn21  1  0.75000000  0.58490000  0.94059200  1
  Sn  Sn22  1  0.75000000  0.91510000  0.44059200  1
  Sn  Sn23  1  0.25000000  0.08490000  0.55940800  1
  Sn  Sn24  1  0.25000000  0.41576700  0.14015800  1
  Sn  Sn25  1  0.75000000  0.58423300  0.85984200  1
  Sn  Sn26  1  0.75000000  0.91576700  0.35984200  1
  Sn  Sn27  1  0.25000000  0.08423300  0.64015800  1
  Sn  Sn28  1  0.25000000  0.08820300  0.23974800  1
  Sn  Sn29  1  0.75000000  0.91179700  0.76025200  1
  Sn  Sn30  1  0.75000000  0.58820300  0.26025200  1
  Sn  Sn31  1  0.25000000  0.41179700  0.73974800  1
  Sn  Sn32  1  0.25000000  0.41551300  0.34060500  1
  Sn  Sn33  1  0.75000000  0.58448700  0.65939500  1
  Sn  Sn34  1  0.75000000  0.91551300  0.15939500  1
  Sn  Sn35  1  0.25000000  0.08448700  0.84060500  1
  Sn  Sn36  1  0.25000000  0.41410900  0.45883800  1
  Sn  Sn37  1  0.75000000  0.58589100  0.54116200  1
  Sn  Sn38  1  0.75000000  0.91410900  0.04116200  1
  Sn  Sn39  1  0.25000000  0.08589100  0.95883800  1
  Au  Au40  1  0.25000000  0.08620700  0.04030300  1
  Au  Au41  1  0.75000000  0.91379300  0.95969700  1
  Au  Au42  1  0.75000000  0.58620700  0.45969700  1
  Au  Au43  1  0.25000000  0.41379300  0.54030300  1
  Au  Au44  1  0.25000000  0.08723900  0.15982600  1
  Au  Au45  1  0.75000000  0.91276100  0.84017400  1
  Au  Au46  1  0.75000000  0.58723900  0.34017400  1
  Au  Au47  1  0.25000000  0.41276100  0.65982600  1
  Au  Au48  1  0.25000000  0.41588600  0.25861500  1
  Au  Au49  1  0.75000000  0.58411400  0.74138500  1
  Au  Au50  1  0.75000000  0.91588600  0.24138500  1
  Au  Au51  1  0.25000000  0.08411400  0.75861500  1
  Au  Au52  1  0.25000000  0.08736500  0.35556000  1
  Au  Au53  1  0.75000000  0.91263500  0.64444000  1
  Au  Au54  1  0.75000000  0.58736500  0.14444000  1
  Au  Au55  1  0.25000000  0.41263500  0.85556000  1
  Au  Au56  1  0.25000000  0.08561700  0.44444000  1
  Au  Au57  1  0.75000000  0.91438300  0.55556000  1
  Au  Au58  1  0.75000000  0.58561700  0.05556000  1
  Au  Au59  1  0.25000000  0.41438300  0.94444000  1
