# generated using pymatgen
data_La3W(ClO2)3
_symmetry_space_group_name_H-M   'P 1'
_cell_length_a   9.50912851
_cell_length_b   9.50912851
_cell_length_c   5.48706300
_cell_angle_alpha   90.00000000
_cell_angle_beta   90.00000000
_cell_angle_gamma   120.00000352
_symmetry_Int_Tables_number   1
_chemical_formula_structural   La3W(ClO2)3
_chemical_formula_sum   'La6 W2 Cl6 O12'
_cell_volume   429.68678367
_cell_formula_units_Z   2
loop_
 _symmetry_equiv_pos_site_id
 _symmetry_equiv_pos_as_xyz
  1  'x, y, z'
loop_
 _atom_site_type_symbol
 _atom_site_label
 _atom_site_symmetry_multiplicity
 _atom_site_fract_x
 _atom_site_fract_y
 _atom_site_fract_z
 _atom_site_occupancy
  La  La0  1  0.08952500  0.68443500  0.75000000  1
  La  La1  1  0.40509100  0.08952500  0.25000000  1
  La  La2  1  0.91047500  0.31556500  0.25000000  1
  La  La3  1  0.59490900  0.91047500  0.75000000  1
  La  La4  1  0.31556500  0.40509100  0.75000000  1
  La  La5  1  0.68443500  0.59490900  0.25000000  1
  W  W6  1  0.33333300  0.66666700  0.25000000  1
  W  W7  1  0.66666700  0.33333300  0.75000000  1
  Cl  Cl8  1  0.80662500  0.75892000  0.75000000  1
  Cl  Cl9  1  0.75892000  0.95229500  0.25000000  1
  Cl  Cl10  1  0.04770500  0.80662500  0.25000000  1
  Cl  Cl11  1  0.19337500  0.24108000  0.25000000  1
  Cl  Cl12  1  0.24108000  0.04770500  0.75000000  1
  Cl  Cl13  1  0.95229500  0.19337500  0.75000000  1
  O  O14  1  0.36444000  0.83866800  0.47985000  1
  O  O15  1  0.52577200  0.36444000  0.97985000  1
  O  O16  1  0.83866800  0.47422800  0.97985000  1
  O  O17  1  0.16133200  0.52577200  0.47985000  1
  O  O18  1  0.47422800  0.63556000  0.47985000  1
  O  O19  1  0.63556000  0.16133200  0.97985000  1
  O  O20  1  0.63556000  0.16133200  0.52015000  1
  O  O21  1  0.47422800  0.63556000  0.02015000  1
  O  O22  1  0.83866800  0.47422800  0.52015000  1
  O  O23  1  0.52577200  0.36444000  0.52015000  1
  O  O24  1  0.36444000  0.83866800  0.02015000  1
  O  O25  1  0.16133200  0.52577200  0.02015000  1
