# generated using pymatgen
data_K4Be3O5
_symmetry_space_group_name_H-M   'P 1'
_cell_length_a   6.37735120
_cell_length_b   6.37735120
_cell_length_c   10.90765093
_cell_angle_alpha   67.19463471
_cell_angle_beta   67.19463471
_cell_angle_gamma   69.52153054
_symmetry_Int_Tables_number   1
_chemical_formula_structural   K4Be3O5
_chemical_formula_sum   'K8 Be6 O10'
_cell_volume   366.42432067
_cell_formula_units_Z   2
loop_
 _symmetry_equiv_pos_site_id
 _symmetry_equiv_pos_as_xyz
  1  'x, y, z'
loop_
 _atom_site_type_symbol
 _atom_site_label
 _atom_site_symmetry_multiplicity
 _atom_site_fract_x
 _atom_site_fract_y
 _atom_site_fract_z
 _atom_site_occupancy
  K  K0  1  0.44258400  0.22277900  0.59501400  1
  K  K1  1  0.77722100  0.55741600  0.90498600  1
  K  K2  1  0.55741600  0.77722100  0.40498600  1
  K  K3  1  0.22277900  0.44258400  0.09501400  1
  K  K4  1  0.25296200  0.08886400  0.92438200  1
  K  K5  1  0.91113600  0.74703800  0.57561800  1
  K  K6  1  0.74703800  0.91113600  0.07561800  1
  K  K7  1  0.08886400  0.25296200  0.42438200  1
  Be  Be8  1  0.31072100  0.68927900  0.75000000  1
  Be  Be9  1  0.68927900  0.31072100  0.25000000  1
  Be  Be10  1  0.26868100  0.73131900  0.25000000  1
  Be  Be11  1  0.73131900  0.26868100  0.75000000  1
  Be  Be12  1  0.97967700  0.02032300  0.25000000  1
  Be  Be13  1  0.02032300  0.97967700  0.75000000  1
  O  O14  1  0.47856100  0.52143900  0.25000000  1
  O  O15  1  0.52143900  0.47856100  0.75000000  1
  O  O16  1  0.87280400  0.22711800  0.12271900  1
  O  O17  1  0.77288200  0.12719600  0.37728100  1
  O  O18  1  0.12719600  0.77288200  0.87728100  1
  O  O19  1  0.22711800  0.87280400  0.62271900  1
  O  O20  1  0.26590500  0.98800500  0.23060400  1
  O  O21  1  0.01199500  0.73409500  0.26939600  1
  O  O22  1  0.73409500  0.01199500  0.76939600  1
  O  O23  1  0.98800500  0.26590500  0.73060400  1
