# generated using pymatgen
data_CaSn
_symmetry_space_group_name_H-M   'P 1'
_cell_length_a   6.28221872
_cell_length_b   6.28221872
_cell_length_c   4.38831000
_cell_angle_alpha   90.00000000
_cell_angle_beta   90.00000000
_cell_angle_gamma   134.83041090
_symmetry_Int_Tables_number   1
_chemical_formula_structural   CaSn
_chemical_formula_sum   'Ca2 Sn2'
_cell_volume   122.82593306
_cell_formula_units_Z   2
loop_
 _symmetry_equiv_pos_site_id
 _symmetry_equiv_pos_as_xyz
  1  'x, y, z'
loop_
 _atom_site_type_symbol
 _atom_site_label
 _atom_site_symmetry_multiplicity
 _atom_site_fract_x
 _atom_site_fract_y
 _atom_site_fract_z
 _atom_site_occupancy
  Ca  Ca0  1  0.13445400  0.86554600  0.25000000  1
  Ca  Ca1  1  0.86554600  0.13445400  0.75000000  1
  Sn  Sn2  1  0.41478300  0.58521700  0.25000000  1
  Sn  Sn3  1  0.58521700  0.41478300  0.75000000  1
