# generated using pymatgen
data_KBa4Bi3O
_symmetry_space_group_name_H-M   'P 1'
_cell_length_a   10.68837479
_cell_length_b   10.68837479
_cell_length_c   10.68837479
_cell_angle_alpha   129.43681824
_cell_angle_beta   129.43681824
_cell_angle_gamma   74.30872282
_symmetry_Int_Tables_number   1
_chemical_formula_structural   KBa4Bi3O
_chemical_formula_sum   'K2 Ba8 Bi6 O2'
_cell_volume   709.98999259
_cell_formula_units_Z   2
loop_
 _symmetry_equiv_pos_site_id
 _symmetry_equiv_pos_as_xyz
  1  'x, y, z'
loop_
 _atom_site_type_symbol
 _atom_site_label
 _atom_site_symmetry_multiplicity
 _atom_site_fract_x
 _atom_site_fract_y
 _atom_site_fract_z
 _atom_site_occupancy
  K  K0  1  0.00000000  0.00000000  0.00000000  1
  K  K1  1  0.50000000  0.50000000  0.00000000  1
  Ba  Ba2  1  0.49987400  0.99987400  0.80998600  1
  Ba  Ba3  1  0.99987400  0.18988800  0.50000000  1
  Ba  Ba4  1  0.18988800  0.68988800  0.19001400  1
  Ba  Ba5  1  0.50012600  0.00012600  0.19001400  1
  Ba  Ba6  1  0.68988800  0.49987400  0.50000000  1
  Ba  Ba7  1  0.81011200  0.31011200  0.80998600  1
  Ba  Ba8  1  0.31011200  0.50012600  0.50000000  1
  Ba  Ba9  1  0.00012600  0.81011200  0.50000000  1
  Bi  Bi10  1  0.37955700  0.12044300  0.50000000  1
  Bi  Bi11  1  0.87955700  0.37955700  0.25911400  1
  Bi  Bi12  1  0.25000000  0.25000000  0.00000000  1
  Bi  Bi13  1  0.75000000  0.75000000  0.00000000  1
  Bi  Bi14  1  0.12044300  0.62044300  0.74088600  1
  Bi  Bi15  1  0.62044300  0.87955700  0.50000000  1
  O  O16  1  0.25000000  0.75000000  0.50000000  1
  O  O17  1  0.75000000  0.25000000  0.50000000  1
