# generated using pymatgen
data_CePt
_symmetry_space_group_name_H-M   'P 1'
_cell_length_a   5.87411857
_cell_length_b   5.87411857
_cell_length_c   4.42833900
_cell_angle_alpha   90.00000000
_cell_angle_beta   90.00000000
_cell_angle_gamma   141.68457242
_symmetry_Int_Tables_number   1
_chemical_formula_structural   CePt
_chemical_formula_sum   'Ce2 Pt2'
_cell_volume   94.73515851
_cell_formula_units_Z   2
loop_
 _symmetry_equiv_pos_site_id
 _symmetry_equiv_pos_as_xyz
  1  'x, y, z'
loop_
 _atom_site_type_symbol
 _atom_site_label
 _atom_site_symmetry_multiplicity
 _atom_site_fract_x
 _atom_site_fract_y
 _atom_site_fract_z
 _atom_site_occupancy
  Ce  Ce0  1  0.86361300  0.13638700  0.25000000  1
  Ce  Ce1  1  0.13638700  0.86361300  0.75000000  1
  Pt  Pt2  1  0.59471000  0.40529000  0.25000000  1
  Pt  Pt3  1  0.40529000  0.59471000  0.75000000  1
