# generated using pymatgen
data_Bi2S3
_symmetry_space_group_name_H-M   'P 1'
_cell_length_a   4.02142100
_cell_length_b   11.17050300
_cell_length_c   11.73532500
_cell_angle_alpha   90.00000000
_cell_angle_beta   90.00000000
_cell_angle_gamma   90.00000000
_symmetry_Int_Tables_number   1
_chemical_formula_structural   Bi2S3
_chemical_formula_sum   'Bi8 S12'
_cell_volume   527.16600029
_cell_formula_units_Z   4
loop_
 _symmetry_equiv_pos_site_id
 _symmetry_equiv_pos_as_xyz
  1  'x, y, z'
loop_
 _atom_site_type_symbol
 _atom_site_label
 _atom_site_symmetry_multiplicity
 _atom_site_fract_x
 _atom_site_fract_y
 _atom_site_fract_z
 _atom_site_occupancy
  Bi  Bi0  1  0.25000000  0.32644400  0.51760900  1
  Bi  Bi1  1  0.75000000  0.67355600  0.48239100  1
  Bi  Bi2  1  0.75000000  0.82644400  0.98239100  1
  Bi  Bi3  1  0.25000000  0.17355600  0.01760900  1
  Bi  Bi4  1  0.75000000  0.03222700  0.65622400  1
  Bi  Bi5  1  0.25000000  0.96777300  0.34377600  1
  Bi  Bi6  1  0.25000000  0.53222700  0.84377600  1
  Bi  Bi7  1  0.75000000  0.46777300  0.15622400  1
  S  S8  1  0.75000000  0.37035100  0.95242200  1
  S  S9  1  0.25000000  0.62964900  0.04757800  1
  S  S10  1  0.25000000  0.87035100  0.54757800  1
  S  S11  1  0.75000000  0.12964900  0.45242200  1
  S  S12  1  0.75000000  0.44525100  0.62157500  1
  S  S13  1  0.25000000  0.55474900  0.37842500  1
  S  S14  1  0.25000000  0.94525100  0.87842500  1
  S  S15  1  0.75000000  0.05474900  0.12157500  1
  S  S16  1  0.25000000  0.30916900  0.21081700  1
  S  S17  1  0.75000000  0.69083100  0.78918300  1
  S  S18  1  0.75000000  0.80916900  0.28918300  1
  S  S19  1  0.25000000  0.19083100  0.71081700  1
