# generated using pymatgen
data_InPS4
_symmetry_space_group_name_H-M   'P 1'
_cell_length_a   6.17524968
_cell_length_b   6.17524968
_cell_length_c   6.17524968
_cell_angle_alpha   124.27386462
_cell_angle_beta   124.27386462
_cell_angle_gamma   82.74426091
_symmetry_Int_Tables_number   1
_chemical_formula_structural   InPS4
_chemical_formula_sum   'In1 P1 S4'
_cell_volume   154.39685588
_cell_formula_units_Z   1
loop_
 _symmetry_equiv_pos_site_id
 _symmetry_equiv_pos_as_xyz
  1  'x, y, z'
loop_
 _atom_site_type_symbol
 _atom_site_label
 _atom_site_symmetry_multiplicity
 _atom_site_fract_x
 _atom_site_fract_y
 _atom_site_fract_z
 _atom_site_occupancy
  In  In0  1  0.00000000  0.00000000  0.00000000  1
  P  P1  1  0.75000000  0.25000000  0.50000000  1
  S  S2  1  0.63676800  0.17350000  0.07386900  1
  S  S3  1  0.09963200  0.56289900  0.92613100  1
  S  S4  1  0.43710100  0.36323200  0.53673300  1
  S  S5  1  0.82650000  0.90036800  0.46326700  1
