# generated using pymatgen
data_LiNb6Cl19
_symmetry_space_group_name_H-M   'P 1'
_cell_length_a   6.88172500
_cell_length_b   6.95400700
_cell_length_c   28.63649600
_cell_angle_alpha   90.00000000
_cell_angle_beta   90.00000000
_cell_angle_gamma   90.00000000
_symmetry_Int_Tables_number   1
_chemical_formula_structural   LiNb6Cl19
_chemical_formula_sum   'Li2 Nb12 Cl38'
_cell_volume   1370.41566197
_cell_formula_units_Z   2
loop_
 _symmetry_equiv_pos_site_id
 _symmetry_equiv_pos_as_xyz
  1  'x, y, z'
loop_
 _atom_site_type_symbol
 _atom_site_label
 _atom_site_symmetry_multiplicity
 _atom_site_fract_x
 _atom_site_fract_y
 _atom_site_fract_z
 _atom_site_occupancy
  Li  Li0  1  0.00000000  0.50000000  0.00000000  1
  Li  Li1  1  0.00000000  0.50000000  0.50000000  1
  Nb  Nb2  1  0.28755800  0.34077800  0.10704100  1
  Nb  Nb3  1  0.71244200  0.34077800  0.39295900  1
  Nb  Nb4  1  0.28755800  0.65922200  0.89295900  1
  Nb  Nb5  1  0.71244200  0.65922200  0.60704100  1
  Nb  Nb6  1  0.71244200  0.65922200  0.89295900  1
  Nb  Nb7  1  0.28755800  0.65922200  0.60704100  1
  Nb  Nb8  1  0.71244200  0.34077800  0.10704100  1
  Nb  Nb9  1  0.28755800  0.34077800  0.39295900  1
  Nb  Nb10  1  0.50000000  0.77881400  0.81007500  1
  Nb  Nb11  1  0.50000000  0.77881400  0.68992500  1
  Nb  Nb12  1  0.50000000  0.22118600  0.18992500  1
  Nb  Nb13  1  0.50000000  0.22118600  0.31007500  1
  Cl  Cl14  1  0.25385400  0.61782800  0.05724800  1
  Cl  Cl15  1  0.74614600  0.61782800  0.44275200  1
  Cl  Cl16  1  0.25385400  0.38217200  0.94275200  1
  Cl  Cl17  1  0.74614600  0.38217200  0.55724800  1
  Cl  Cl18  1  0.74614600  0.38217200  0.94275200  1
  Cl  Cl19  1  0.25385400  0.38217200  0.55724800  1
  Cl  Cl20  1  0.74614600  0.61782800  0.05724800  1
  Cl  Cl21  1  0.25385400  0.61782800  0.44275200  1
  Cl  Cl22  1  0.00000000  0.79847600  0.94231800  1
  Cl  Cl23  1  0.00000000  0.79847600  0.55768200  1
  Cl  Cl24  1  0.50000000  0.54559100  0.34468100  1
  Cl  Cl25  1  0.50000000  0.54559100  0.15531900  1
  Cl  Cl26  1  0.50000000  0.45440900  0.65531900  1
  Cl  Cl27  1  0.50000000  0.45440900  0.84468100  1
  Cl  Cl28  1  0.24969300  0.03804200  0.34891800  1
  Cl  Cl29  1  0.75030700  0.03804200  0.15108200  1
  Cl  Cl30  1  0.24969300  0.96195800  0.65108200  1
  Cl  Cl31  1  0.75030700  0.96195800  0.84891800  1
  Cl  Cl32  1  0.75030700  0.96195800  0.65108200  1
  Cl  Cl33  1  0.24969300  0.96195800  0.84891800  1
  Cl  Cl34  1  0.75030700  0.03804200  0.34891800  1
  Cl  Cl35  1  0.24969300  0.03804200  0.15108200  1
  Cl  Cl36  1  0.50000000  0.17307200  0.44734500  1
  Cl  Cl37  1  0.50000000  0.17307200  0.05265500  1
  Cl  Cl38  1  0.50000000  0.82692800  0.55265500  1
  Cl  Cl39  1  0.50000000  0.82692800  0.94734500  1
  Cl  Cl40  1  0.50000000  0.94616000  0.25000000  1
  Cl  Cl41  1  0.50000000  0.05384000  0.75000000  1
  Cl  Cl42  1  0.26504000  0.35762800  0.25000000  1
  Cl  Cl43  1  0.73496000  0.35762800  0.25000000  1
  Cl  Cl44  1  0.26504000  0.64237200  0.75000000  1
  Cl  Cl45  1  0.73496000  0.64237200  0.75000000  1
  Cl  Cl46  1  0.00000000  0.47090600  0.34614800  1
  Cl  Cl47  1  0.00000000  0.47090600  0.15385200  1
  Cl  Cl48  1  0.00000000  0.52909400  0.65385200  1
  Cl  Cl49  1  0.00000000  0.52909400  0.84614800  1
  Cl  Cl50  1  0.00000000  0.20152400  0.44231800  1
  Cl  Cl51  1  0.00000000  0.20152400  0.05768200  1
