# generated using pymatgen
data_SmInIr
_symmetry_space_group_name_H-M   'P 1'
_cell_length_a   7.58214149
_cell_length_b   7.58214149
_cell_length_c   4.04890000
_cell_angle_alpha   90.00000000
_cell_angle_beta   90.00000000
_cell_angle_gamma   119.99999556
_symmetry_Int_Tables_number   1
_chemical_formula_structural   SmInIr
_chemical_formula_sum   'Sm3 In3 Ir3'
_cell_volume   201.58187061
_cell_formula_units_Z   3
loop_
 _symmetry_equiv_pos_site_id
 _symmetry_equiv_pos_as_xyz
  1  'x, y, z'
loop_
 _atom_site_type_symbol
 _atom_site_label
 _atom_site_symmetry_multiplicity
 _atom_site_fract_x
 _atom_site_fract_y
 _atom_site_fract_z
 _atom_site_occupancy
  Sm  Sm0  1  0.59191500  0.59191500  0.00000000  1
  Sm  Sm1  1  0.40808500  0.00000000  0.00000000  1
  Sm  Sm2  1  0.00000000  0.40808500  0.00000000  1
  In  In3  1  0.00000000  0.74639900  0.50000000  1
  In  In4  1  0.25360100  0.25360100  0.50000000  1
  In  In5  1  0.74639900  0.00000000  0.50000000  1
  Ir  Ir6  1  0.00000000  0.00000000  0.00000000  1
  Ir  Ir7  1  0.66666700  0.33333300  0.50000000  1
  Ir  Ir8  1  0.33333300  0.66666700  0.50000000  1
