# generated using pymatgen
data_Ce(SeO4)2
_symmetry_space_group_name_H-M   'P 1'
_cell_length_a   9.40986600
_cell_length_b   9.96641300
_cell_length_c   14.07985400
_cell_angle_alpha   90.00000000
_cell_angle_beta   90.00000000
_cell_angle_gamma   90.00000000
_symmetry_Int_Tables_number   1
_chemical_formula_structural   Ce(SeO4)2
_chemical_formula_sum   'Ce8 Se16 O64'
_cell_volume   1320.44546823
_cell_formula_units_Z   8
loop_
 _symmetry_equiv_pos_site_id
 _symmetry_equiv_pos_as_xyz
  1  'x, y, z'
loop_
 _atom_site_type_symbol
 _atom_site_label
 _atom_site_symmetry_multiplicity
 _atom_site_fract_x
 _atom_site_fract_y
 _atom_site_fract_z
 _atom_site_occupancy
  Ce  Ce0  1  0.22058100  0.03643900  0.89750000  1
  Ce  Ce1  1  0.77941900  0.46356100  0.39750000  1
  Ce  Ce2  1  0.72058100  0.46356100  0.89750000  1
  Ce  Ce3  1  0.27941900  0.53643900  0.10250000  1
  Ce  Ce4  1  0.77941900  0.96356100  0.10250000  1
  Ce  Ce5  1  0.72058100  0.96356100  0.60250000  1
  Ce  Ce6  1  0.27941900  0.03643900  0.39750000  1
  Ce  Ce7  1  0.22058100  0.53643900  0.60250000  1
  Se  Se8  1  0.99896600  0.27545100  0.05933200  1
  Se  Se9  1  0.49896600  0.22454900  0.05933200  1
  Se  Se10  1  0.81691400  0.60633800  0.65430800  1
  Se  Se11  1  0.68308600  0.60633800  0.15430800  1
  Se  Se12  1  0.68308600  0.10633800  0.34569200  1
  Se  Se13  1  0.18308600  0.89366200  0.15430800  1
  Se  Se14  1  0.31691400  0.39366200  0.84569200  1
  Se  Se15  1  0.50103400  0.77545100  0.94066800  1
  Se  Se16  1  0.31691400  0.89366200  0.65430800  1
  Se  Se17  1  0.81691400  0.10633800  0.84569200  1
  Se  Se18  1  0.00103400  0.72454900  0.94066800  1
  Se  Se19  1  0.49896600  0.72454900  0.44066800  1
  Se  Se20  1  0.18308600  0.39366200  0.34569200  1
  Se  Se21  1  0.50103400  0.27545100  0.55933200  1
  Se  Se22  1  0.00103400  0.22454900  0.55933200  1
  Se  Se23  1  0.99896600  0.77545100  0.44066800  1
  O  O24  1  0.24015800  0.42192400  0.45658100  1
  O  O25  1  0.74015800  0.07807600  0.45658100  1
  O  O26  1  0.88744100  0.18660400  0.12608700  1
  O  O27  1  0.57997500  0.35617500  0.47007300  1
  O  O28  1  0.92002500  0.35617500  0.97007300  1
  O  O29  1  0.50704800  0.58548200  0.15952700  1
  O  O30  1  0.61255900  0.18660400  0.62608700  1
  O  O31  1  0.76150500  0.50020000  0.22897100  1
  O  O32  1  0.91471000  0.11393900  0.62743400  1
  O  O33  1  0.58529000  0.61393900  0.37256600  1
  O  O34  1  0.23849500  0.99980000  0.72897100  1
  O  O35  1  0.75984200  0.57807600  0.54341900  1
  O  O36  1  0.73849500  0.50020000  0.72897100  1
  O  O37  1  0.73006800  0.76257600  0.18401500  1
  O  O38  1  0.99295200  0.08548200  0.84047300  1
  O  O39  1  0.00704800  0.41451800  0.34047300  1
  O  O40  1  0.92002500  0.85617500  0.52992700  1
  O  O41  1  0.76150500  0.00020000  0.27102900  1
  O  O42  1  0.49295200  0.91451800  0.65952700  1
  O  O43  1  0.08529000  0.38606100  0.12743400  1
  O  O44  1  0.11255900  0.31339600  0.62608700  1
  O  O45  1  0.76993200  0.26257600  0.81598500  1
  O  O46  1  0.61255900  0.68660400  0.87391300  1
  O  O47  1  0.41471000  0.38606100  0.62743400  1
  O  O48  1  0.57997500  0.85617500  0.02992700  1
  O  O49  1  0.07997500  0.14382500  0.47007300  1
  O  O50  1  0.07997500  0.64382500  0.02992700  1
  O  O51  1  0.11636800  0.16572700  0.01355500  1
  O  O52  1  0.61636800  0.83427300  0.48644500  1
  O  O53  1  0.42002500  0.14382500  0.97007300  1
  O  O54  1  0.11255900  0.81339600  0.87391300  1
  O  O55  1  0.76993200  0.76257600  0.68401500  1
  O  O56  1  0.25984200  0.92192400  0.54341900  1
  O  O57  1  0.73849500  0.00020000  0.77102900  1
  O  O58  1  0.88744100  0.68660400  0.37391300  1
  O  O59  1  0.38363200  0.16572700  0.51355500  1
  O  O60  1  0.24015800  0.92192400  0.04341900  1
  O  O61  1  0.88363200  0.33427300  0.51355500  1
  O  O62  1  0.38744100  0.31339600  0.12608700  1
  O  O63  1  0.23006800  0.23742400  0.31598500  1
  O  O64  1  0.58529000  0.11393900  0.12743400  1
  O  O65  1  0.26993200  0.73742400  0.68401500  1
  O  O66  1  0.42002500  0.64382500  0.52992700  1
  O  O67  1  0.74015800  0.57807600  0.04341900  1
  O  O68  1  0.26150500  0.49980000  0.27102900  1
  O  O69  1  0.26993200  0.23742400  0.81598500  1
  O  O70  1  0.38363200  0.66572700  0.98644500  1
  O  O71  1  0.25984200  0.42192400  0.95658100  1
  O  O72  1  0.99295200  0.58548200  0.65952700  1
  O  O73  1  0.73006800  0.26257600  0.31598500  1
  O  O74  1  0.49295200  0.41451800  0.84047300  1
  O  O75  1  0.11636800  0.66572700  0.48644500  1
  O  O76  1  0.88363200  0.83427300  0.98644500  1
  O  O77  1  0.23849500  0.49980000  0.77102900  1
  O  O78  1  0.75984200  0.07807600  0.95658100  1
  O  O79  1  0.41471000  0.88606100  0.87256600  1
  O  O80  1  0.91471000  0.61393900  0.87256600  1
  O  O81  1  0.00704800  0.91451800  0.15952700  1
  O  O82  1  0.08529000  0.88606100  0.37256600  1
  O  O83  1  0.23006800  0.73742400  0.18401500  1
  O  O84  1  0.26150500  0.99980000  0.22897100  1
  O  O85  1  0.38744100  0.81339600  0.37391300  1
  O  O86  1  0.50704800  0.08548200  0.34047300  1
  O  O87  1  0.61636800  0.33427300  0.01355500  1
