# generated using pymatgen
data_Li8Nb2O9
_symmetry_space_group_name_H-M   'P 1'
_cell_length_a   5.93666500
_cell_length_b   8.90776942
_cell_length_c   15.37796786
_cell_angle_alpha   87.17406629
_cell_angle_beta   100.84512959
_cell_angle_gamma   109.33172063
_symmetry_Int_Tables_number   1
_chemical_formula_structural   Li8Nb2O9
_chemical_formula_sum   'Li32 Nb8 O36'
_cell_volume   753.59338693
_cell_formula_units_Z   4
loop_
 _symmetry_equiv_pos_site_id
 _symmetry_equiv_pos_as_xyz
  1  'x, y, z'
loop_
 _atom_site_type_symbol
 _atom_site_label
 _atom_site_symmetry_multiplicity
 _atom_site_fract_x
 _atom_site_fract_y
 _atom_site_fract_z
 _atom_site_occupancy
  Li  Li0  1  0.40455500  0.90803700  0.64399500  1
  Li  Li1  1  0.59544500  0.09196300  0.35600500  1
  Li  Li2  1  0.97542200  0.84141000  0.85089300  1
  Li  Li3  1  0.02457800  0.15859000  0.14910700  1
  Li  Li4  1  0.13287000  0.33960600  0.65996900  1
  Li  Li5  1  0.86713000  0.66039400  0.34003100  1
  Li  Li6  1  0.25693300  0.40902500  0.84577700  1
  Li  Li7  1  0.74306700  0.59097500  0.15422300  1
  Li  Li8  1  0.79025100  0.12423300  0.73781400  1
  Li  Li9  1  0.20974900  0.87576700  0.26218600  1
  Li  Li10  1  0.33068700  0.12349600  0.73849300  1
  Li  Li11  1  0.66931300  0.87650400  0.26150700  1
  Li  Li12  1  0.05122000  0.62464200  0.76051100  1
  Li  Li13  1  0.94878000  0.37535800  0.23948900  1
  Li  Li14  1  0.59342900  0.62292700  0.76273600  1
  Li  Li15  1  0.40657100  0.37707300  0.23726400  1
  Li  Li16  1  0.43413400  0.12197000  0.96174600  1
  Li  Li17  1  0.56586600  0.87803000  0.03825400  1
  Li  Li18  1  0.91356500  0.12130400  0.97574000  1
  Li  Li19  1  0.08643500  0.87869600  0.02426000  1
  Li  Li20  1  0.17146300  0.62796000  0.94598100  1
  Li  Li21  1  0.82853700  0.37204000  0.05401900  1
  Li  Li22  1  0.67594600  0.63020500  0.96208600  1
  Li  Li23  1  0.32405400  0.36979500  0.03791400  1
  Li  Li24  1  0.70653500  0.12706200  0.53962800  1
  Li  Li25  1  0.29346500  0.87293800  0.46037200  1
  Li  Li26  1  0.21367500  0.12665600  0.54980000  1
  Li  Li27  1  0.78632500  0.87334400  0.45020000  1
  Li  Li28  1  0.93844400  0.62289500  0.52298100  1
  Li  Li29  1  0.06155600  0.37710500  0.47701900  1
  Li  Li30  1  0.48061100  0.62574200  0.54292100  1
  Li  Li31  1  0.51938900  0.37425800  0.45707900  1
  Nb  Nb32  1  0.89295400  0.87617200  0.64465000  1
  Nb  Nb33  1  0.25685800  0.62729600  0.13882700  1
  Nb  Nb34  1  0.74314200  0.37270400  0.86117300  1
  Nb  Nb35  1  0.35762500  0.62482000  0.35654700  1
  Nb  Nb36  1  0.64237500  0.37518000  0.64345300  1
  Nb  Nb37  1  0.50501100  0.12663000  0.15001200  1
  Nb  Nb38  1  0.49498900  0.87337000  0.84998800  1
  Nb  Nb39  1  0.10704600  0.12382800  0.35535000  1
  O  O40  1  0.98764800  0.89444300  0.34415800  1
  O  O41  1  0.13985600  0.39625300  0.14284200  1
  O  O42  1  0.86014400  0.60374700  0.85715800  1
  O  O43  1  0.46297700  0.63684000  0.05474000  1
  O  O44  1  0.53702300  0.36316000  0.94526000  1
  O  O45  1  0.97386100  0.64250800  0.05926900  1
  O  O46  1  0.02613900  0.35749200  0.94073100  1
  O  O47  1  0.47642900  0.85557900  0.35712500  1
  O  O48  1  0.69402000  0.87630700  0.75071600  1
  O  O49  1  0.30598000  0.12369300  0.24928400  1
  O  O50  1  0.19185000  0.87250300  0.74701500  1
  O  O51  1  0.80815000  0.12749700  0.25298500  1
  O  O52  1  0.76573200  0.62688700  0.65664900  1
  O  O53  1  0.23426800  0.37311300  0.34335100  1
  O  O54  1  0.60572200  0.12362500  0.84288300  1
  O  O55  1  0.39427800  0.87637500  0.15711700  1
  O  O56  1  0.45801200  0.37360000  0.75234200  1
  O  O57  1  0.54198800  0.62640000  0.24765800  1
  O  O58  1  0.92531600  0.37494200  0.74913000  1
  O  O59  1  0.07468400  0.62505800  0.25087000  1
  O  O60  1  0.07883100  0.86412900  0.55615200  1
  O  O61  1  0.92116900  0.13587100  0.44384800  1
  O  O62  1  0.15977200  0.61330400  0.44407500  1
  O  O63  1  0.39943600  0.13437500  0.44025300  1
  O  O64  1  0.01235200  0.10555700  0.65584200  1
  O  O65  1  0.52357100  0.14442100  0.64287500  1
  O  O66  1  0.77847500  0.88554900  0.94097700  1
  O  O67  1  0.22152500  0.11445100  0.05902300  1
  O  O68  1  0.29517800  0.88460700  0.93621600  1
  O  O69  1  0.70482200  0.11539300  0.06378400  1
  O  O70  1  0.37157300  0.64325000  0.84373500  1
  O  O71  1  0.62842700  0.35675000  0.15626500  1
  O  O72  1  0.35395700  0.38810000  0.56335900  1
  O  O73  1  0.64604300  0.61190000  0.43664100  1
  O  O74  1  0.84022800  0.38669600  0.55592500  1
  O  O75  1  0.60056400  0.86562500  0.55974700  1
