# generated using pymatgen
data_Tc2O7
_symmetry_space_group_name_H-M   'P 1'
_cell_length_a   5.89136100
_cell_length_b   7.81973300
_cell_length_c   14.26910400
_cell_angle_alpha   90.00000000
_cell_angle_beta   90.00000000
_cell_angle_gamma   90.00000000
_symmetry_Int_Tables_number   1
_chemical_formula_structural   Tc2O7
_chemical_formula_sum   'Tc8 O28'
_cell_volume   657.36149757
_cell_formula_units_Z   4
loop_
 _symmetry_equiv_pos_site_id
 _symmetry_equiv_pos_as_xyz
  1  'x, y, z'
loop_
 _atom_site_type_symbol
 _atom_site_label
 _atom_site_symmetry_multiplicity
 _atom_site_fract_x
 _atom_site_fract_y
 _atom_site_fract_z
 _atom_site_occupancy
  Tc  Tc0  1  0.80549000  0.48753400  0.39645900  1
  Tc  Tc1  1  0.30549000  0.51246600  0.10354100  1
  Tc  Tc2  1  0.69451000  0.98753400  0.60354100  1
  Tc  Tc3  1  0.19451000  0.01246600  0.89645900  1
  Tc  Tc4  1  0.19451000  0.51246600  0.60354100  1
  Tc  Tc5  1  0.69451000  0.48753400  0.89645900  1
  Tc  Tc6  1  0.30549000  0.01246600  0.39645900  1
  Tc  Tc7  1  0.80549000  0.98753400  0.10354100  1
  O  O8  1  0.57892400  0.62064900  0.41512400  1
  O  O9  1  0.07892400  0.37935100  0.08487600  1
  O  O10  1  0.92107600  0.12064900  0.58487600  1
  O  O11  1  0.42107600  0.87935100  0.91512400  1
  O  O12  1  0.42107600  0.37935100  0.58487600  1
  O  O13  1  0.92107600  0.62064900  0.91512400  1
  O  O14  1  0.07892400  0.87935100  0.41512400  1
  O  O15  1  0.57892400  0.12064900  0.08487600  1
  O  O16  1  0.00000000  0.00000000  0.00000000  1
  O  O17  1  0.50000000  0.00000000  0.50000000  1
  O  O18  1  0.50000000  0.50000000  0.00000000  1
  O  O19  1  0.00000000  0.50000000  0.50000000  1
  O  O20  1  0.70590500  0.78361300  0.11703900  1
  O  O21  1  0.20590500  0.21638700  0.38296100  1
  O  O22  1  0.79409500  0.28361300  0.88296100  1
  O  O23  1  0.29409500  0.71638700  0.61703900  1
  O  O24  1  0.29409500  0.21638700  0.88296100  1
  O  O25  1  0.79409500  0.78361300  0.61703900  1
  O  O26  1  0.20590500  0.71638700  0.11703900  1
  O  O27  1  0.70590500  0.28361300  0.38296100  1
  O  O28  1  0.93986600  0.04885700  0.20394900  1
  O  O29  1  0.43986600  0.95114300  0.29605100  1
  O  O30  1  0.56013400  0.54885700  0.79605100  1
  O  O31  1  0.06013400  0.45114300  0.70394900  1
  O  O32  1  0.06013400  0.95114300  0.79605100  1
  O  O33  1  0.56013400  0.04885700  0.70394900  1
  O  O34  1  0.43986600  0.45114300  0.20394900  1
  O  O35  1  0.93986600  0.54885700  0.29605100  1
