# generated using pymatgen
data_In2HgSe4
_symmetry_space_group_name_H-M   'P 1'
_cell_length_a   7.28328380
_cell_length_b   7.28328380
_cell_length_c   7.28328380
_cell_angle_alpha   131.29012968
_cell_angle_beta   131.29012968
_cell_angle_gamma   71.35252739
_symmetry_Int_Tables_number   1
_chemical_formula_structural   In2HgSe4
_chemical_formula_sum   'In2 Hg1 Se4'
_cell_volume   213.49303133
_cell_formula_units_Z   1
loop_
 _symmetry_equiv_pos_site_id
 _symmetry_equiv_pos_as_xyz
  1  'x, y, z'
loop_
 _atom_site_type_symbol
 _atom_site_label
 _atom_site_symmetry_multiplicity
 _atom_site_fract_x
 _atom_site_fract_y
 _atom_site_fract_z
 _atom_site_occupancy
  In  In0  1  0.25000000  0.75000000  0.50000000  1
  In  In1  1  0.50000000  0.50000000  0.00000000  1
  Hg  Hg2  1  0.00000000  0.00000000  0.00000000  1
  Se  Se3  1  0.09910700  0.58652600  0.96135200  1
  Se  Se4  1  0.86224600  0.90089300  0.48741900  1
  Se  Se5  1  0.41347400  0.37482700  0.51258100  1
  Se  Se6  1  0.62517300  0.13775400  0.03864800  1
