# generated using pymatgen
data_CsBeH3
_symmetry_space_group_name_H-M   'P 1'
_cell_length_a   5.96074800
_cell_length_b   5.10801300
_cell_length_c   7.86972501
_cell_angle_alpha   71.78211082
_cell_angle_beta   90.00000000
_cell_angle_gamma   90.00000000
_symmetry_Int_Tables_number   1
_chemical_formula_structural   CsBeH3
_chemical_formula_sum   'Cs2 Be2 H6'
_cell_volume   227.60328994
_cell_formula_units_Z   2
loop_
 _symmetry_equiv_pos_site_id
 _symmetry_equiv_pos_as_xyz
  1  'x, y, z'
loop_
 _atom_site_type_symbol
 _atom_site_label
 _atom_site_symmetry_multiplicity
 _atom_site_fract_x
 _atom_site_fract_y
 _atom_site_fract_z
 _atom_site_occupancy
  Cs  Cs0  1  0.75000000  0.18230500  0.23112800  1
  Cs  Cs1  1  0.25000000  0.81769500  0.76887200  1
  Be  Be2  1  0.25000000  0.76069200  0.23874700  1
  Be  Be3  1  0.75000000  0.23930800  0.76125300  1
  H  H4  1  0.95341700  0.30372500  0.82827400  1
  H  H5  1  0.45341700  0.69627500  0.17172600  1
  H  H6  1  0.04658300  0.69627500  0.17172600  1
  H  H7  1  0.54658300  0.30372500  0.82827400  1
  H  H8  1  0.75000000  0.09131300  0.63791200  1
  H  H9  1  0.25000000  0.90868700  0.36208800  1
