# generated using pymatgen
data_La2Ni12P5
_symmetry_space_group_name_H-M   'P 1'
_cell_length_a   3.68750300
_cell_length_b   10.92631500
_cell_length_c   13.15220245
_cell_angle_alpha   72.15943701
_cell_angle_beta   90.00000000
_cell_angle_gamma   90.00000000
_symmetry_Int_Tables_number   1
_chemical_formula_structural   La2Ni12P5
_chemical_formula_sum   'La4 Ni24 P10'
_cell_volume   504.43094516
_cell_formula_units_Z   2
loop_
 _symmetry_equiv_pos_site_id
 _symmetry_equiv_pos_as_xyz
  1  'x, y, z'
loop_
 _atom_site_type_symbol
 _atom_site_label
 _atom_site_symmetry_multiplicity
 _atom_site_fract_x
 _atom_site_fract_y
 _atom_site_fract_z
 _atom_site_occupancy
  La  La0  1  0.25000000  0.74738600  0.18795100  1
  La  La1  1  0.75000000  0.25261400  0.81204900  1
  La  La2  1  0.25000000  0.77894100  0.68325300  1
  La  La3  1  0.75000000  0.22105900  0.31674700  1
  Ni  Ni4  1  0.25000000  0.57205900  0.01446100  1
  Ni  Ni5  1  0.25000000  0.56571800  0.44832500  1
  Ni  Ni6  1  0.75000000  0.50631600  0.34101400  1
  Ni  Ni7  1  0.25000000  0.49368400  0.65898600  1
  Ni  Ni8  1  0.75000000  0.51079500  0.15084900  1
  Ni  Ni9  1  0.25000000  0.48920500  0.84915100  1
  Ni  Ni10  1  0.75000000  0.43428200  0.55167500  1
  Ni  Ni11  1  0.25000000  0.34409800  0.13519600  1
  Ni  Ni12  1  0.75000000  0.65666000  0.56154000  1
  Ni  Ni13  1  0.25000000  0.34334000  0.43846000  1
  Ni  Ni14  1  0.75000000  0.90546500  0.30496400  1
  Ni  Ni15  1  0.25000000  0.09453500  0.69503600  1
  Ni  Ni16  1  0.75000000  0.91906300  0.99031100  1
  Ni  Ni17  1  0.25000000  0.08093700  0.00968900  1
  Ni  Ni18  1  0.75000000  0.92160500  0.49030400  1
  Ni  Ni19  1  0.25000000  0.07839500  0.50969600  1
  Ni  Ni20  1  0.75000000  0.93943900  0.79638600  1
  Ni  Ni21  1  0.25000000  0.06056100  0.20361400  1
  Ni  Ni22  1  0.25000000  0.78673200  0.43805300  1
  Ni  Ni23  1  0.75000000  0.21326800  0.56194700  1
  Ni  Ni24  1  0.25000000  0.79861300  0.91847100  1
  Ni  Ni25  1  0.75000000  0.20138700  0.08152900  1
  Ni  Ni26  1  0.75000000  0.65590200  0.86480400  1
  Ni  Ni27  1  0.75000000  0.42794100  0.98553900  1
  P  P28  1  0.25000000  0.00739100  0.87138000  1
  P  P29  1  0.75000000  0.99260900  0.12862000  1
  P  P30  1  0.25000000  0.30006100  0.98386900  1
  P  P31  1  0.75000000  0.69993900  0.01613100  1
  P  P32  1  0.25000000  0.45167500  0.25940600  1
  P  P33  1  0.75000000  0.54832500  0.74059400  1
  P  P34  1  0.25000000  0.99189100  0.37877000  1
  P  P35  1  0.75000000  0.00810900  0.62123000  1
  P  P36  1  0.25000000  0.31132700  0.61195400  1
  P  P37  1  0.75000000  0.68867300  0.38804600  1
