# generated using pymatgen
data_K2In3AgSe6
_symmetry_space_group_name_H-M   'P 1'
_cell_length_a   8.41586176
_cell_length_b   8.41586176
_cell_length_c   21.80884663
_cell_angle_alpha   84.33077319
_cell_angle_beta   84.33077319
_cell_angle_gamma   89.86842283
_symmetry_Int_Tables_number   1
_chemical_formula_structural   K2In3AgSe6
_chemical_formula_sum   'K8 In12 Ag4 Se24'
_cell_volume   1529.53233152
_cell_formula_units_Z   4
loop_
 _symmetry_equiv_pos_site_id
 _symmetry_equiv_pos_as_xyz
  1  'x, y, z'
loop_
 _atom_site_type_symbol
 _atom_site_label
 _atom_site_symmetry_multiplicity
 _atom_site_fract_x
 _atom_site_fract_y
 _atom_site_fract_z
 _atom_site_occupancy
  K  K0  1  0.10475500  0.20740800  0.08280600  1
  K  K1  1  0.79259200  0.89524500  0.41719400  1
  K  K2  1  0.89524500  0.79259200  0.91719400  1
  K  K3  1  0.20740800  0.10475500  0.58280600  1
  K  K4  1  0.60726500  0.25035200  0.08273400  1
  K  K5  1  0.74964800  0.39273500  0.41726600  1
  K  K6  1  0.39273500  0.74964800  0.91726600  1
  K  K7  1  0.25035200  0.60726500  0.58273400  1
  In  In8  1  0.72255500  0.84919800  0.61238200  1
  In  In9  1  0.15080200  0.27744500  0.88761800  1
  In  In10  1  0.27744500  0.15080200  0.38761800  1
  In  In11  1  0.84919800  0.72255500  0.11238200  1
  In  In12  1  0.72027100  0.34988300  0.61189400  1
  In  In13  1  0.65011700  0.27972900  0.88810600  1
  In  In14  1  0.27972900  0.65011700  0.38810600  1
  In  In15  1  0.34988300  0.72027100  0.11189400  1
  In  In16  1  0.93304400  0.55992500  0.75000600  1
  In  In17  1  0.44007500  0.06695600  0.74999400  1
  In  In18  1  0.06695600  0.44007500  0.24999400  1
  In  In19  1  0.55992500  0.93304400  0.25000600  1
  Ag  Ag20  1  0.43740800  0.56259200  0.75000000  1
  Ag  Ag21  1  0.56259200  0.43740800  0.25000000  1
  Ag  Ag22  1  0.93524000  0.06476000  0.75000000  1
  Ag  Ag23  1  0.06476000  0.93524000  0.25000000  1
  Se  Se24  1  0.69538800  0.61829300  0.54012300  1
  Se  Se25  1  0.38170700  0.30461200  0.95987700  1
  Se  Se26  1  0.30461200  0.38170700  0.45987700  1
  Se  Se27  1  0.61829300  0.69538800  0.04012300  1
  Se  Se28  1  0.78409200  0.11779700  0.54035000  1
  Se  Se29  1  0.88220300  0.21590800  0.95965000  1
  Se  Se30  1  0.21590800  0.88220300  0.45965000  1
  Se  Se31  1  0.11779700  0.78409200  0.04035000  1
  Se  Se32  1  0.82532200  0.97319700  0.17536300  1
  Se  Se33  1  0.02680300  0.17467800  0.32463700  1
  Se  Se34  1  0.17467800  0.02680300  0.82463700  1
  Se  Se35  1  0.97319700  0.82532200  0.67536300  1
  Se  Se36  1  0.56058200  0.15999300  0.32480200  1
  Se  Se37  1  0.84000700  0.43941800  0.17519800  1
  Se  Se38  1  0.43941800  0.84000700  0.67519800  1
  Se  Se39  1  0.15999300  0.56058200  0.82480200  1
  Se  Se40  1  0.33706000  0.97207200  0.17456900  1
  Se  Se41  1  0.02792800  0.66294000  0.32543100  1
  Se  Se42  1  0.66294000  0.02792800  0.82543100  1
  Se  Se43  1  0.97207200  0.33706000  0.67456900  1
  Se  Se44  1  0.56304200  0.67129800  0.32521800  1
  Se  Se45  1  0.32870200  0.43695800  0.17478200  1
  Se  Se46  1  0.43695800  0.32870200  0.67478200  1
  Se  Se47  1  0.67129800  0.56304200  0.82521800  1
