# generated using pymatgen
data_TcP3
_symmetry_space_group_name_H-M   'P 1'
_cell_length_a   3.11688900
_cell_length_b   5.17276800
_cell_length_c   15.44266100
_cell_angle_alpha   90.00000000
_cell_angle_beta   90.00000000
_cell_angle_gamma   90.00000000
_symmetry_Int_Tables_number   1
_chemical_formula_structural   TcP3
_chemical_formula_sum   'Tc4 P12'
_cell_volume   248.98115355
_cell_formula_units_Z   4
loop_
 _symmetry_equiv_pos_site_id
 _symmetry_equiv_pos_as_xyz
  1  'x, y, z'
loop_
 _atom_site_type_symbol
 _atom_site_label
 _atom_site_symmetry_multiplicity
 _atom_site_fract_x
 _atom_site_fract_y
 _atom_site_fract_z
 _atom_site_occupancy
  Tc  Tc0  1  0.25000000  0.35050000  0.65048600  1
  Tc  Tc1  1  0.75000000  0.64950000  0.34951400  1
  Tc  Tc2  1  0.75000000  0.85050000  0.84951400  1
  Tc  Tc3  1  0.25000000  0.14950000  0.15048600  1
  P  P4  1  0.25000000  0.52232800  0.79281000  1
  P  P5  1  0.75000000  0.47767200  0.20719000  1
  P  P6  1  0.75000000  0.02232800  0.70719000  1
  P  P7  1  0.25000000  0.97767200  0.29281000  1
  P  P8  1  0.25000000  0.35307700  0.01279900  1
  P  P9  1  0.75000000  0.64692300  0.98720100  1
  P  P10  1  0.75000000  0.85307700  0.48720100  1
  P  P11  1  0.25000000  0.14692300  0.51279900  1
  P  P12  1  0.25000000  0.31968600  0.38145200  1
  P  P13  1  0.75000000  0.68031400  0.61854800  1
  P  P14  1  0.75000000  0.81968600  0.11854800  1
  P  P15  1  0.25000000  0.18031400  0.88145200  1
