# generated using pymatgen
data_SbO2
_symmetry_space_group_name_H-M   'P 1'
_cell_length_a   4.90657800
_cell_length_b   5.55192900
_cell_length_c   11.93748400
_cell_angle_alpha   90.00000000
_cell_angle_beta   90.00000000
_cell_angle_gamma   90.00000000
_symmetry_Int_Tables_number   1
_chemical_formula_structural   SbO2
_chemical_formula_sum   'Sb8 O16'
_cell_volume   325.18867562
_cell_formula_units_Z   8
loop_
 _symmetry_equiv_pos_site_id
 _symmetry_equiv_pos_as_xyz
  1  'x, y, z'
loop_
 _atom_site_type_symbol
 _atom_site_label
 _atom_site_symmetry_multiplicity
 _atom_site_fract_x
 _atom_site_fract_y
 _atom_site_fract_z
 _atom_site_occupancy
  Sb  Sb0  1  0.46249100  0.48081200  0.49842400  1
  Sb  Sb1  1  0.53750900  0.51918800  0.99842400  1
  Sb  Sb2  1  0.03750900  0.98081200  0.49842400  1
  Sb  Sb3  1  0.96249100  0.01918800  0.99842400  1
  Sb  Sb4  1  0.50111700  0.86701200  0.74708300  1
  Sb  Sb5  1  0.49888300  0.13298800  0.24708300  1
  Sb  Sb6  1  0.99888300  0.36701200  0.74708300  1
  Sb  Sb7  1  0.00111700  0.63298800  0.24708300  1
  O  O8  1  0.66625300  0.84430600  0.90460200  1
  O  O9  1  0.33374700  0.15569400  0.40460200  1
  O  O10  1  0.83374700  0.34430600  0.90460200  1
  O  O11  1  0.16625300  0.65569400  0.40460200  1
  O  O12  1  0.29475600  0.57961500  0.80664700  1
  O  O13  1  0.70524400  0.42038500  0.30664700  1
  O  O14  1  0.20524400  0.07961500  0.80664700  1
  O  O15  1  0.79475600  0.92038500  0.30664700  1
  O  O16  1  0.83926900  0.68180100  0.09249200  1
  O  O17  1  0.16073100  0.31819900  0.59249200  1
  O  O18  1  0.66073100  0.18180100  0.09249200  1
  O  O19  1  0.33926900  0.81819900  0.59249200  1
  O  O20  1  0.28876900  0.85630200  0.18735100  1
  O  O21  1  0.71123100  0.14369800  0.68735100  1
  O  O22  1  0.21123100  0.35630200  0.18735100  1
  O  O23  1  0.78876900  0.64369800  0.68735100  1
