# generated using pymatgen
data_SrP2(HO)4
_symmetry_space_group_name_H-M   'P 1'
_cell_length_a   8.58903940
_cell_length_b   8.58903940
_cell_length_c   6.00066140
_cell_angle_alpha   86.22822106
_cell_angle_beta   86.22822106
_cell_angle_gamma   40.92497382
_symmetry_Int_Tables_number   1
_chemical_formula_structural   SrP2(HO)4
_chemical_formula_sum   'Sr2 P4 H8 O8'
_cell_volume   289.26974621
_cell_formula_units_Z   2
loop_
 _symmetry_equiv_pos_site_id
 _symmetry_equiv_pos_as_xyz
  1  'x, y, z'
loop_
 _atom_site_type_symbol
 _atom_site_label
 _atom_site_symmetry_multiplicity
 _atom_site_fract_x
 _atom_site_fract_y
 _atom_site_fract_z
 _atom_site_occupancy
  Sr  Sr0  1  0.25162400  0.74837600  0.75000000  1
  Sr  Sr1  1  0.74837600  0.25162400  0.25000000  1
  P  P2  1  0.61695000  0.11196600  0.77540800  1
  P  P3  1  0.88803400  0.38305000  0.72459200  1
  P  P4  1  0.38305000  0.88803400  0.22459200  1
  P  P5  1  0.11196600  0.61695000  0.27540800  1
  H  H6  1  0.56532000  0.81964000  0.34365900  1
  H  H7  1  0.43468000  0.18036000  0.65634100  1
  H  H8  1  0.81964000  0.56532000  0.84365900  1
  H  H9  1  0.18036000  0.43468000  0.15634100  1
  H  H10  1  0.69774800  0.92344900  0.91526400  1
  H  H11  1  0.07655100  0.30225200  0.58473600  1
  H  H12  1  0.92344900  0.69774800  0.41526400  1
  H  H13  1  0.30225200  0.07655100  0.08473600  1
  O  O14  1  0.98653600  0.18209200  0.88770700  1
  O  O15  1  0.81790800  0.01346400  0.61229300  1
  O  O16  1  0.31688500  0.50831000  0.42006100  1
  O  O17  1  0.50831000  0.31688500  0.92006100  1
  O  O18  1  0.49169000  0.68311500  0.07993900  1
  O  O19  1  0.68311500  0.49169000  0.57993900  1
  O  O20  1  0.01346400  0.81790800  0.11229300  1
  O  O21  1  0.18209200  0.98653600  0.38770700  1
