# generated using pymatgen
data_ScSi2Rh
_symmetry_space_group_name_H-M   'P 1'
_cell_length_a   4.04363500
_cell_length_b   6.34639100
_cell_length_c   9.58178300
_cell_angle_alpha   90.00000000
_cell_angle_beta   90.00000000
_cell_angle_gamma   90.00000000
_symmetry_Int_Tables_number   1
_chemical_formula_structural   ScSi2Rh
_chemical_formula_sum   'Sc4 Si8 Rh4'
_cell_volume   245.89239865
_cell_formula_units_Z   4
loop_
 _symmetry_equiv_pos_site_id
 _symmetry_equiv_pos_as_xyz
  1  'x, y, z'
loop_
 _atom_site_type_symbol
 _atom_site_label
 _atom_site_symmetry_multiplicity
 _atom_site_fract_x
 _atom_site_fract_y
 _atom_site_fract_z
 _atom_site_occupancy
  Sc  Sc0  1  0.25000000  0.24002500  0.68217500  1
  Sc  Sc1  1  0.25000000  0.74002500  0.81782500  1
  Sc  Sc2  1  0.75000000  0.75997500  0.31782500  1
  Sc  Sc3  1  0.75000000  0.25997500  0.18217500  1
  Si  Si4  1  0.25000000  0.23139700  0.97145800  1
  Si  Si5  1  0.75000000  0.76860300  0.02854200  1
  Si  Si6  1  0.25000000  0.73139700  0.52854200  1
  Si  Si7  1  0.75000000  0.26860300  0.47145800  1
  Si  Si8  1  0.25000000  0.95657000  0.15848100  1
  Si  Si9  1  0.75000000  0.54343000  0.65848100  1
  Si  Si10  1  0.25000000  0.45657000  0.34151900  1
  Si  Si11  1  0.75000000  0.04343000  0.84151900  1
  Rh  Rh12  1  0.75000000  0.91603900  0.59965700  1
  Rh  Rh13  1  0.25000000  0.08396100  0.40034300  1
  Rh  Rh14  1  0.75000000  0.41603900  0.90034300  1
  Rh  Rh15  1  0.25000000  0.58396100  0.09965700  1
