# generated using pymatgen
data_LiP7
_symmetry_space_group_name_H-M   'P 1'
_cell_length_a   12.16080130
_cell_length_b   12.16080130
_cell_length_c   12.16080130
_cell_angle_alpha   111.83333238
_cell_angle_beta   111.83333238
_cell_angle_gamma   104.84376253
_symmetry_Int_Tables_number   1
_chemical_formula_structural   LiP7
_chemical_formula_sum   'Li8 P56'
_cell_volume   1377.70933966
_cell_formula_units_Z   8
loop_
 _symmetry_equiv_pos_site_id
 _symmetry_equiv_pos_as_xyz
  1  'x, y, z'
loop_
 _atom_site_type_symbol
 _atom_site_label
 _atom_site_symmetry_multiplicity
 _atom_site_fract_x
 _atom_site_fract_y
 _atom_site_fract_z
 _atom_site_occupancy
  Li  Li0  1  0.11875700  0.11875700  0.73751500  1
  Li  Li1  1  0.86875700  0.63124300  0.50000000  1
  Li  Li2  1  0.13124300  0.36875700  0.50000000  1
  Li  Li3  1  0.38124300  0.38124300  0.26248500  1
  Li  Li4  1  0.63124300  0.13124300  0.76248500  1
  Li  Li5  1  0.88124300  0.61875700  0.00000000  1
  Li  Li6  1  0.61875700  0.88124300  0.00000000  1
  Li  Li7  1  0.36875700  0.86875700  0.23751500  1
  P  P8  1  0.79392900  0.76773400  0.38279100  1
  P  P9  1  0.51773400  0.63494400  0.47380500  1
  P  P10  1  0.16113900  0.04392900  0.52619500  1
  P  P11  1  0.86505600  0.98226600  0.52619500  1
  P  P12  1  0.45607100  0.33886100  0.47380500  1
  P  P13  1  0.38494400  0.41113900  0.61720900  1
  P  P14  1  0.73226600  0.70607100  0.61720900  1
  P  P15  1  0.08886100  0.11505600  0.38279100  1
  P  P16  1  0.95607100  0.48226600  0.11720900  1
  P  P17  1  0.23226600  0.61505600  0.02619500  1
  P  P18  1  0.58886100  0.20607100  0.97380500  1
  P  P19  1  0.88494400  0.26773400  0.97380500  1
  P  P20  1  0.29392900  0.91113900  0.02619500  1
  P  P21  1  0.36505600  0.83886100  0.88279100  1
  P  P22  1  0.01773400  0.54392900  0.88279100  1
  P  P23  1  0.66113900  0.13494400  0.11720900  1
  P  P24  1  0.58294100  0.70993100  0.24642900  1
  P  P25  1  0.45993100  0.71350100  0.62699000  1
  P  P26  1  0.08651200  0.83294100  0.37301000  1
  P  P27  1  0.78649900  0.04006900  0.37301000  1
  P  P28  1  0.66705900  0.41348800  0.62699000  1
  P  P29  1  0.46350100  0.33651200  0.75357100  1
  P  P30  1  0.79006900  0.91705900  0.75357100  1
  P  P31  1  0.16348800  0.03649900  0.24642900  1
  P  P32  1  0.16705900  0.54006900  0.25357100  1
  P  P33  1  0.29006900  0.53649900  0.87301000  1
  P  P34  1  0.66348800  0.41705900  0.12699000  1
  P  P35  1  0.96350100  0.20993100  0.12699000  1
  P  P36  1  0.08294100  0.83651200  0.87301000  1
  P  P37  1  0.28649900  0.91348800  0.74642900  1
  P  P38  1  0.95993100  0.33294100  0.74642900  1
  P  P39  1  0.58651200  0.21350100  0.25357100  1
  P  P40  1  0.71749100  0.97061400  0.59417000  1
  P  P41  1  0.72061400  0.62644500  0.75312300  1
  P  P42  1  0.87332100  0.96749100  0.24687700  1
  P  P43  1  0.87355500  0.77938600  0.24687700  1
  P  P44  1  0.53250900  0.62667900  0.75312300  1
  P  P45  1  0.37644500  0.12332100  0.40583000  1
  P  P46  1  0.52938600  0.78250900  0.40583000  1
  P  P47  1  0.37667900  0.12355500  0.59417000  1
  P  P48  1  0.03250900  0.27938600  0.90583000  1
  P  P49  1  0.02938600  0.62355500  0.74687700  1
  P  P50  1  0.87667900  0.28250900  0.25312300  1
  P  P51  1  0.87644500  0.47061400  0.25312300  1
  P  P52  1  0.21749100  0.62332100  0.74687700  1
  P  P53  1  0.37355500  0.12667900  0.09417000  1
  P  P54  1  0.22061400  0.46749100  0.09417000  1
  P  P55  1  0.37332100  0.12644500  0.90583000  1
  P  P56  1  0.62500000  0.91513000  0.79013000  1
  P  P57  1  0.66513000  0.37500000  0.79013000  1
  P  P58  1  0.58487000  0.87500000  0.20987000  1
  P  P59  1  0.12500000  0.83487000  0.20987000  1
  P  P60  1  0.12500000  0.33487000  0.70987000  1
  P  P61  1  0.08487000  0.87500000  0.70987000  1
  P  P62  1  0.16513000  0.37500000  0.29013000  1
  P  P63  1  0.62500000  0.41513000  0.29013000  1
