# generated using pymatgen
data_Na2ZnO2
_symmetry_space_group_name_H-M   'P 1'
_cell_length_a   6.04124900
_cell_length_b   5.79402100
_cell_length_c   7.82476324
_cell_angle_alpha   85.12638467
_cell_angle_beta   90.00000000
_cell_angle_gamma   90.00000000
_symmetry_Int_Tables_number   1
_chemical_formula_structural   Na2ZnO2
_chemical_formula_sum   'Na8 Zn4 O8'
_cell_volume   272.90090785
_cell_formula_units_Z   4
loop_
 _symmetry_equiv_pos_site_id
 _symmetry_equiv_pos_as_xyz
  1  'x, y, z'
loop_
 _atom_site_type_symbol
 _atom_site_label
 _atom_site_symmetry_multiplicity
 _atom_site_fract_x
 _atom_site_fract_y
 _atom_site_fract_z
 _atom_site_occupancy
  Na  Na0  1  0.74206300  0.00875600  0.97224000  1
  Na  Na1  1  0.24206300  0.49124400  0.02776000  1
  Na  Na2  1  0.25793700  0.99124400  0.02776000  1
  Na  Na3  1  0.75793700  0.50875600  0.97224000  1
  Na  Na4  1  0.35512500  0.42870300  0.67566900  1
  Na  Na5  1  0.85512500  0.07129700  0.32433100  1
  Na  Na6  1  0.64487500  0.57129700  0.32433100  1
  Na  Na7  1  0.14487500  0.92870300  0.67566900  1
  Zn  Zn8  1  0.60638700  0.85533100  0.63552400  1
  Zn  Zn9  1  0.10638700  0.64466900  0.36447600  1
  Zn  Zn10  1  0.39361300  0.14466900  0.36447600  1
  Zn  Zn11  1  0.89361300  0.35533100  0.63552400  1
  O  O12  1  0.03505900  0.25140500  0.85154300  1
  O  O13  1  0.53505900  0.24859500  0.14845700  1
  O  O14  1  0.96494100  0.74859500  0.14845700  1
  O  O15  1  0.46494100  0.75140500  0.85154300  1
  O  O16  1  0.87770500  0.69770100  0.56276000  1
  O  O17  1  0.37770500  0.80229900  0.43724000  1
  O  O18  1  0.12229500  0.30229900  0.43724000  1
  O  O19  1  0.62229500  0.19770100  0.56276000  1
