# generated using pymatgen
data_Sn2OF5
_symmetry_space_group_name_H-M   'P 1'
_cell_length_a   5.78034926
_cell_length_b   5.78034926
_cell_length_c   8.48248454
_cell_angle_alpha   68.67476920
_cell_angle_beta   68.67476920
_cell_angle_gamma   71.87757423
_symmetry_Int_Tables_number   1
_chemical_formula_structural   Sn2OF5
_chemical_formula_sum   'Sn4 O2 F10'
_cell_volume   240.66081633
_cell_formula_units_Z   2
loop_
 _symmetry_equiv_pos_site_id
 _symmetry_equiv_pos_as_xyz
  1  'x, y, z'
loop_
 _atom_site_type_symbol
 _atom_site_label
 _atom_site_symmetry_multiplicity
 _atom_site_fract_x
 _atom_site_fract_y
 _atom_site_fract_z
 _atom_site_occupancy
  Sn  Sn0  1  0.50000000  0.50000000  0.00000000  1
  Sn  Sn1  1  0.50000000  0.50000000  0.50000000  1
  Sn  Sn2  1  0.97414300  0.97414300  0.32302400  1
  Sn  Sn3  1  0.02585700  0.02585700  0.67697600  1
  O  O4  1  0.19400300  0.80599700  0.50000000  1
  O  O5  1  0.80599700  0.19400300  0.50000000  1
  F  F6  1  0.20380800  0.20380800  0.14720100  1
  F  F7  1  0.79619200  0.79619200  0.85279900  1
  F  F8  1  0.27655500  0.27655500  0.50167300  1
  F  F9  1  0.72344500  0.72344500  0.49832700  1
  F  F10  1  0.39765900  0.39765900  0.76046300  1
  F  F11  1  0.60234100  0.60234100  0.23953700  1
  F  F12  1  0.87308400  0.29107500  0.80301600  1
  F  F13  1  0.70892500  0.12691600  0.19698400  1
  F  F14  1  0.12691600  0.70892500  0.19698400  1
  F  F15  1  0.29107500  0.87308400  0.80301600  1
