# generated using pymatgen
data_Mg2Ga5
_symmetry_space_group_name_H-M   'P 1'
_cell_length_a   7.10899402
_cell_length_b   7.10899402
_cell_length_c   7.10899402
_cell_angle_alpha   104.93127651
_cell_angle_beta   104.93127651
_cell_angle_gamma   118.99147255
_symmetry_Int_Tables_number   1
_chemical_formula_structural   Mg2Ga5
_chemical_formula_sum   'Mg4 Ga10'
_cell_volume   270.75773865
_cell_formula_units_Z   2
loop_
 _symmetry_equiv_pos_site_id
 _symmetry_equiv_pos_as_xyz
  1  'x, y, z'
loop_
 _atom_site_type_symbol
 _atom_site_label
 _atom_site_symmetry_multiplicity
 _atom_site_fract_x
 _atom_site_fract_y
 _atom_site_fract_z
 _atom_site_occupancy
  Mg  Mg0  1  0.69942400  0.69942400  0.39884900  1
  Mg  Mg1  1  0.69942400  0.30057600  0.00000000  1
  Mg  Mg2  1  0.30057600  0.69942400  0.00000000  1
  Mg  Mg3  1  0.30057600  0.30057600  0.60115100  1
  Ga  Ga4  1  0.18123500  0.88430500  0.70307000  1
  Ga  Ga5  1  0.47816600  0.18123500  0.29693000  1
  Ga  Ga6  1  0.88430500  0.18123500  0.70307000  1
  Ga  Ga7  1  0.18123500  0.47816600  0.29693000  1
  Ga  Ga8  1  0.71006300  0.71006300  0.00000000  1
  Ga  Ga9  1  0.28993700  0.28993700  0.00000000  1
  Ga  Ga10  1  0.52183400  0.81876500  0.70307000  1
  Ga  Ga11  1  0.81876500  0.11569500  0.29693000  1
  Ga  Ga12  1  0.81876500  0.52183400  0.70307000  1
  Ga  Ga13  1  0.11569500  0.81876500  0.29693000  1
