# generated using pymatgen
data_LuSiRh
_symmetry_space_group_name_H-M   'P 1'
_cell_length_a   4.18428500
_cell_length_b   6.75541400
_cell_length_c   7.37834300
_cell_angle_alpha   90.00000000
_cell_angle_beta   90.00000000
_cell_angle_gamma   90.00000000
_symmetry_Int_Tables_number   1
_chemical_formula_structural   LuSiRh
_chemical_formula_sum   'Lu4 Si4 Rh4'
_cell_volume   208.56050400
_cell_formula_units_Z   4
loop_
 _symmetry_equiv_pos_site_id
 _symmetry_equiv_pos_as_xyz
  1  'x, y, z'
loop_
 _atom_site_type_symbol
 _atom_site_label
 _atom_site_symmetry_multiplicity
 _atom_site_fract_x
 _atom_site_fract_y
 _atom_site_fract_z
 _atom_site_occupancy
  Lu  Lu0  1  0.25000000  0.00354500  0.80894200  1
  Lu  Lu1  1  0.75000000  0.99645500  0.19105800  1
  Lu  Lu2  1  0.25000000  0.50354500  0.69105800  1
  Lu  Lu3  1  0.75000000  0.49645500  0.30894200  1
  Si  Si4  1  0.25000000  0.29120000  0.10696400  1
  Si  Si5  1  0.75000000  0.70880000  0.89303600  1
  Si  Si6  1  0.25000000  0.79120000  0.39303600  1
  Si  Si7  1  0.75000000  0.20880000  0.60696400  1
  Rh  Rh8  1  0.75000000  0.84451600  0.56765900  1
  Rh  Rh9  1  0.25000000  0.15548400  0.43234100  1
  Rh  Rh10  1  0.75000000  0.34451600  0.93234100  1
  Rh  Rh11  1  0.25000000  0.65548400  0.06765900  1
