# generated using pymatgen
data_YAgPb
_symmetry_space_group_name_H-M   'P 1'
_cell_length_a   7.58176107
_cell_length_b   7.58176107
_cell_length_c   4.56053600
_cell_angle_alpha   90.00000000
_cell_angle_beta   90.00000000
_cell_angle_gamma   120.00000933
_symmetry_Int_Tables_number   1
_chemical_formula_structural   YAgPb
_chemical_formula_sum   'Y3 Ag3 Pb3'
_cell_volume   227.03178680
_cell_formula_units_Z   3
loop_
 _symmetry_equiv_pos_site_id
 _symmetry_equiv_pos_as_xyz
  1  'x, y, z'
loop_
 _atom_site_type_symbol
 _atom_site_label
 _atom_site_symmetry_multiplicity
 _atom_site_fract_x
 _atom_site_fract_y
 _atom_site_fract_z
 _atom_site_occupancy
  Y  Y0  1  0.57412100  0.00000000  0.50000000  1
  Y  Y1  1  0.42587900  0.42587900  0.50000000  1
  Y  Y2  1  0.00000000  0.57412100  0.50000000  1
  Ag  Ag3  1  0.24748800  0.00000000  0.00000000  1
  Ag  Ag4  1  0.75251200  0.75251200  0.00000000  1
  Ag  Ag5  1  0.00000000  0.24748800  0.00000000  1
  Pb  Pb6  1  0.00000000  0.00000000  0.50000000  1
  Pb  Pb7  1  0.33333300  0.66666700  0.00000000  1
  Pb  Pb8  1  0.66666700  0.33333300  0.00000000  1
