# generated using pymatgen
data_ZnNi10P3
_symmetry_space_group_name_H-M   'P 1'
_cell_length_a   7.64932855
_cell_length_b   7.64932855
_cell_length_c   9.34364500
_cell_angle_alpha   90.00000000
_cell_angle_beta   90.00000000
_cell_angle_gamma   120.00000472
_symmetry_Int_Tables_number   1
_chemical_formula_structural   ZnNi10P3
_chemical_formula_sum   'Zn3 Ni30 P9'
_cell_volume   473.47120309
_cell_formula_units_Z   3
loop_
 _symmetry_equiv_pos_site_id
 _symmetry_equiv_pos_as_xyz
  1  'x, y, z'
loop_
 _atom_site_type_symbol
 _atom_site_label
 _atom_site_symmetry_multiplicity
 _atom_site_fract_x
 _atom_site_fract_y
 _atom_site_fract_z
 _atom_site_occupancy
  Zn  Zn0  1  0.66666700  0.33333300  0.36017800  1
  Zn  Zn1  1  0.33333300  0.66666700  0.63982200  1
  Zn  Zn2  1  0.00000000  0.00000000  0.00000000  1
  Ni  Ni3  1  0.00000000  0.00000000  0.62123400  1
  Ni  Ni4  1  0.00000000  0.34054400  0.50000000  1
  Ni  Ni5  1  0.65945600  0.65945600  0.50000000  1
  Ni  Ni6  1  0.65945600  0.00000000  0.50000000  1
  Ni  Ni7  1  0.00000000  0.65945600  0.50000000  1
  Ni  Ni8  1  0.34054400  0.34054400  0.50000000  1
  Ni  Ni9  1  0.18266700  0.81733300  0.06639700  1
  Ni  Ni10  1  0.18266700  0.36533400  0.06639700  1
  Ni  Ni11  1  0.63466600  0.81733300  0.06639700  1
  Ni  Ni12  1  0.36533400  0.18266700  0.93360300  1
  Ni  Ni13  1  0.34054400  0.00000000  0.50000000  1
  Ni  Ni14  1  0.81733300  0.18266700  0.93360300  1
  Ni  Ni15  1  0.14001800  0.85998200  0.79484700  1
  Ni  Ni16  1  0.14001800  0.28003600  0.79484700  1
  Ni  Ni17  1  0.71996400  0.85998200  0.79484700  1
  Ni  Ni18  1  0.28003600  0.14001800  0.20515300  1
  Ni  Ni19  1  0.85998200  0.71996400  0.20515300  1
  Ni  Ni20  1  0.85998200  0.14001800  0.20515300  1
  Ni  Ni21  1  0.49135900  0.50864100  0.24050600  1
  Ni  Ni22  1  0.49135900  0.98271800  0.24050600  1
  Ni  Ni23  1  0.01728200  0.50864100  0.24050600  1
  Ni  Ni24  1  0.98271800  0.49135900  0.75949400  1
  Ni  Ni25  1  0.50864100  0.01728200  0.75949400  1
  Ni  Ni26  1  0.50864100  0.49135900  0.75949400  1
  Ni  Ni27  1  0.66666700  0.33333300  0.09748400  1
  Ni  Ni28  1  0.33333300  0.66666700  0.90251600  1
  Ni  Ni29  1  0.66666700  0.33333300  0.61409000  1
  Ni  Ni30  1  0.33333300  0.66666700  0.38591000  1
  Ni  Ni31  1  0.81733300  0.63466600  0.93360300  1
  Ni  Ni32  1  0.00000000  0.00000000  0.37876600  1
  P  P33  1  0.83483900  0.16516100  0.69105100  1
  P  P34  1  0.83483900  0.66967800  0.69105100  1
  P  P35  1  0.33032200  0.16516100  0.69105100  1
  P  P36  1  0.16516100  0.83483900  0.30894900  1
  P  P37  1  0.50000000  0.50000000  0.00000000  1
  P  P38  1  0.00000000  0.50000000  0.00000000  1
  P  P39  1  0.50000000  0.00000000  0.00000000  1
  P  P40  1  0.66967800  0.83483900  0.30894900  1
  P  P41  1  0.16516100  0.33032200  0.30894900  1
