# generated using pymatgen
data_KCeSiS4
_symmetry_space_group_name_H-M   'P 1'
_cell_length_a   6.70026800
_cell_length_b   6.57542200
_cell_length_c   8.82506616
_cell_angle_alpha   72.76269867
_cell_angle_beta   90.00000000
_cell_angle_gamma   90.00000000
_symmetry_Int_Tables_number   1
_chemical_formula_structural   KCeSiS4
_chemical_formula_sum   'K2 Ce2 Si2 S8'
_cell_volume   371.34372688
_cell_formula_units_Z   2
loop_
 _symmetry_equiv_pos_site_id
 _symmetry_equiv_pos_as_xyz
  1  'x, y, z'
loop_
 _atom_site_type_symbol
 _atom_site_label
 _atom_site_symmetry_multiplicity
 _atom_site_fract_x
 _atom_site_fract_y
 _atom_site_fract_z
 _atom_site_occupancy
  K  K0  1  0.50093700  0.27737800  0.93194100  1
  K  K1  1  0.00093700  0.72262200  0.06805900  1
  Ce  Ce2  1  0.51912600  0.22989000  0.45007000  1
  Ce  Ce3  1  0.01912600  0.77011000  0.54993000  1
  Si  Si4  1  0.48915800  0.78361800  0.31896000  1
  Si  Si5  1  0.98915800  0.21638200  0.68104000  1
  S  S6  1  0.44944000  0.59815200  0.56149100  1
  S  S7  1  0.94944000  0.40184800  0.43850900  1
  S  S8  1  0.98998200  0.41331400  0.83138000  1
  S  S9  1  0.48998200  0.58668600  0.16862000  1
  S  S10  1  0.75093300  0.97791500  0.28785100  1
  S  S11  1  0.25093300  0.02208500  0.71214900  1
  S  S12  1  0.75342500  0.98727000  0.72732500  1
  S  S13  1  0.25342500  0.01273000  0.27267500  1
