# generated using pymatgen
data_Nb5Sb4
_symmetry_space_group_name_H-M   'P 1'
_cell_length_a   7.58331765
_cell_length_b   7.58331765
_cell_length_c   7.58331765
_cell_angle_alpha   93.20384428
_cell_angle_beta   93.20384428
_cell_angle_gamma   152.65079337
_symmetry_Int_Tables_number   1
_chemical_formula_structural   Nb5Sb4
_chemical_formula_sum   'Nb5 Sb4'
_cell_volume   194.66695655
_cell_formula_units_Z   1
loop_
 _symmetry_equiv_pos_site_id
 _symmetry_equiv_pos_as_xyz
  1  'x, y, z'
loop_
 _atom_site_type_symbol
 _atom_site_label
 _atom_site_symmetry_multiplicity
 _atom_site_fract_x
 _atom_site_fract_y
 _atom_site_fract_z
 _atom_site_occupancy
  Nb  Nb0  1  0.00000000  0.00000000  0.00000000  1
  Nb  Nb1  1  0.68827400  0.37247800  0.06075100  1
  Nb  Nb2  1  0.37247800  0.31172600  0.68420400  1
  Nb  Nb3  1  0.62752200  0.68827400  0.31579600  1
  Nb  Nb4  1  0.31172600  0.62752200  0.93924900  1
  Sb  Sb5  1  0.94685700  0.29327800  0.24013500  1
  Sb  Sb6  1  0.29327800  0.05314300  0.34642000  1
  Sb  Sb7  1  0.70672200  0.94685700  0.65358000  1
  Sb  Sb8  1  0.05314300  0.70672200  0.75986500  1
