# generated using pymatgen
data_Na2Te2O7
_symmetry_space_group_name_H-M   'P 1'
_cell_length_a   7.36732226
_cell_length_b   7.36732226
_cell_length_c   7.36732226
_cell_angle_alpha   120.06112964
_cell_angle_beta   118.11657827
_cell_angle_gamma   91.59355579
_symmetry_Int_Tables_number   1
_chemical_formula_structural   Na2Te2O7
_chemical_formula_sum   'Na4 Te4 O14'
_cell_volume   286.43190812
_cell_formula_units_Z   2
loop_
 _symmetry_equiv_pos_site_id
 _symmetry_equiv_pos_as_xyz
  1  'x, y, z'
loop_
 _atom_site_type_symbol
 _atom_site_label
 _atom_site_symmetry_multiplicity
 _atom_site_fract_x
 _atom_site_fract_y
 _atom_site_fract_z
 _atom_site_occupancy
  Na  Na0  1  0.50000000  0.00000000  0.50000000  1
  Na  Na1  1  0.00000000  0.50000000  0.50000000  1
  Na  Na2  1  0.50000000  0.00000000  0.00000000  1
  Na  Na3  1  0.50000000  0.50000000  0.50000000  1
  Te  Te4  1  0.00000000  0.00000000  0.00000000  1
  Te  Te5  1  0.50000000  0.50000000  0.00000000  1
  Te  Te6  1  0.00000000  0.00000000  0.50000000  1
  Te  Te7  1  0.00000000  0.50000000  0.00000000  1
  O  O8  1  0.05325800  0.91276500  0.72435300  1
  O  O9  1  0.94674200  0.67109500  0.85950700  1
  O  O10  1  0.31158800  0.58723500  0.14049300  1
  O  O11  1  0.68841200  0.82890500  0.27564700  1
  O  O12  1  0.94674200  0.08723500  0.27564700  1
  O  O13  1  0.05325800  0.32890500  0.14049300  1
  O  O14  1  0.68841200  0.41276500  0.85950700  1
  O  O15  1  0.31158800  0.17109500  0.72435300  1
  O  O16  1  0.09293900  0.75000000  0.34293900  1
  O  O17  1  0.90706100  0.25000000  0.65706100  1
  O  O18  1  0.70033400  0.91800900  0.78232500  1
  O  O19  1  0.29966600  0.08199100  0.21767500  1
  O  O20  1  0.36431700  0.58199100  0.78232500  1
  O  O21  1  0.63568300  0.41800900  0.21767500  1
