# generated using pymatgen
data_Li3BiO3
_symmetry_space_group_name_H-M   'P 1'
_cell_length_a   9.15823100
_cell_length_b   9.37687031
_cell_length_c   9.86621960
_cell_angle_alpha   114.16401994
_cell_angle_beta   107.58130480
_cell_angle_gamma   89.17615848
_symmetry_Int_Tables_number   1
_chemical_formula_structural   Li3BiO3
_chemical_formula_sum   'Li24 Bi8 O24'
_cell_volume   731.07988127
_cell_formula_units_Z   8
loop_
 _symmetry_equiv_pos_site_id
 _symmetry_equiv_pos_as_xyz
  1  'x, y, z'
loop_
 _atom_site_type_symbol
 _atom_site_label
 _atom_site_symmetry_multiplicity
 _atom_site_fract_x
 _atom_site_fract_y
 _atom_site_fract_z
 _atom_site_occupancy
  Li  Li0  1  0.65195100  0.10792500  0.34383300  1
  Li  Li1  1  0.34804900  0.89207500  0.65616700  1
  Li  Li2  1  0.47645000  0.27737900  0.94370700  1
  Li  Li3  1  0.52355000  0.72262100  0.05629300  1
  Li  Li4  1  0.31536100  0.14938200  0.59597200  1
  Li  Li5  1  0.68463900  0.85061800  0.40402800  1
  Li  Li6  1  0.10007900  0.91405600  0.49837600  1
  Li  Li7  1  0.89992100  0.08594400  0.50162400  1
  Li  Li8  1  0.32611200  0.53340700  0.16002400  1
  Li  Li9  1  0.67388800  0.46659300  0.83997600  1
  Li  Li10  1  0.52351600  0.27921400  0.55442100  1
  Li  Li11  1  0.47648400  0.72078600  0.44557900  1
  Li  Li12  1  0.15487000  0.61798000  0.35507000  1
  Li  Li13  1  0.84513000  0.38202000  0.64493000  1
  Li  Li14  1  0.49628300  0.12790700  0.10940500  1
  Li  Li15  1  0.50371700  0.87209300  0.89059500  1
  Li  Li16  1  0.91922400  0.51256700  0.08278800  1
  Li  Li17  1  0.08077600  0.48743300  0.91721200  1
  Li  Li18  1  0.57938100  0.42501100  0.37281700  1
  Li  Li19  1  0.42061900  0.57498900  0.62718300  1
  Li  Li20  1  0.07626300  0.32741600  0.56013000  1
  Li  Li21  1  0.92373700  0.67258400  0.43987000  1
  Li  Li22  1  0.68436600  0.55416500  0.21327100  1
  Li  Li23  1  0.31563400  0.44583500  0.78672900  1
  Bi  Bi24  1  0.16123800  0.74331600  0.79795700  1
  Bi  Bi25  1  0.83876200  0.25668400  0.20204300  1
  Bi  Bi26  1  0.27807800  0.85799500  0.23002700  1
  Bi  Bi27  1  0.74812100  0.70923100  0.69274200  1
  Bi  Bi28  1  0.25187900  0.29076900  0.30725800  1
  Bi  Bi29  1  0.15682600  0.15792900  0.85884100  1
  Bi  Bi30  1  0.84317400  0.84207100  0.14115900  1
  Bi  Bi31  1  0.72192200  0.14200500  0.76997300  1
  O  O32  1  0.29947400  0.91905300  0.46312900  1
  O  O33  1  0.04903300  0.51755700  0.72758700  1
  O  O34  1  0.95096700  0.48244300  0.27241300  1
  O  O35  1  0.52857800  0.26737900  0.76041000  1
  O  O36  1  0.70052600  0.08094700  0.53687100  1
  O  O37  1  0.47142200  0.73262100  0.23959000  1
  O  O38  1  0.11365700  0.13803500  0.63178200  1
  O  O39  1  0.88634300  0.86196500  0.36821800  1
  O  O40  1  0.86000400  0.24697500  0.41759300  1
  O  O41  1  0.13999600  0.75302500  0.58240700  1
  O  O42  1  0.12264100  0.64785100  0.14146200  1
  O  O43  1  0.87735900  0.35214900  0.85853800  1
  O  O44  1  0.53563800  0.79729500  0.68340300  1
  O  O45  1  0.46436200  0.20270500  0.31659700  1
  O  O46  1  0.71834400  0.61932600  0.05150500  1
  O  O47  1  0.28165600  0.38067400  0.94849500  1
  O  O48  1  0.63322200  0.95072400  0.11696200  1
  O  O49  1  0.36677800  0.04927600  0.88303800  1
  O  O50  1  0.35077500  0.51556200  0.36109500  1
  O  O51  1  0.64922500  0.48443800  0.63890500  1
  O  O52  1  0.61806700  0.33170100  0.15727400  1
  O  O53  1  0.38193300  0.66829900  0.84272600  1
  O  O54  1  0.28805300  0.33867900  0.54284400  1
  O  O55  1  0.71194700  0.66132100  0.45715600  1
