# generated using pymatgen
data_Rb3Bi2I9
_symmetry_space_group_name_H-M   'P 1'
_cell_length_a   8.45412600
_cell_length_b   15.09137700
_cell_length_c   25.94747331
_cell_angle_alpha   56.05994482
_cell_angle_beta   90.00000000
_cell_angle_gamma   90.00000000
_symmetry_Int_Tables_number   1
_chemical_formula_structural   Rb3Bi2I9
_chemical_formula_sum   'Rb12 Bi8 I36'
_cell_volume   2746.45827496
_cell_formula_units_Z   4
loop_
 _symmetry_equiv_pos_site_id
 _symmetry_equiv_pos_as_xyz
  1  'x, y, z'
loop_
 _atom_site_type_symbol
 _atom_site_label
 _atom_site_symmetry_multiplicity
 _atom_site_fract_x
 _atom_site_fract_y
 _atom_site_fract_z
 _atom_site_occupancy
  Rb  Rb0  1  0.22219100  0.65217400  0.54753800  1
  Rb  Rb1  1  0.77780900  0.65217400  0.04753800  1
  Rb  Rb2  1  0.73389000  0.06008200  0.59456700  1
  Rb  Rb3  1  0.26611000  0.06008200  0.09456700  1
  Rb  Rb4  1  0.77292800  0.99744700  0.37607800  1
  Rb  Rb5  1  0.22707200  0.99744700  0.87607800  1
  Rb  Rb6  1  0.76780400  0.32171300  0.71124000  1
  Rb  Rb7  1  0.23219600  0.32171300  0.21124000  1
  Rb  Rb8  1  0.27373700  0.37934000  0.43156100  1
  Rb  Rb9  1  0.72626300  0.37934000  0.93156100  1
  Rb  Rb10  1  0.28208500  0.72624900  0.76002700  1
  Rb  Rb11  1  0.71791500  0.72624900  0.26002700  1
  Bi  Bi12  1  0.75866500  0.86247700  0.81219000  1
  Bi  Bi13  1  0.24133500  0.86247700  0.31219000  1
  Bi  Bi14  1  0.24087000  0.01206000  0.49435300  1
  Bi  Bi15  1  0.75913000  0.01206000  0.99435300  1
  Bi  Bi16  1  0.25815900  0.36259900  0.81309000  1
  Bi  Bi17  1  0.74184100  0.36259900  0.31309000  1
  Bi  Bi18  1  0.74389800  0.51869600  0.49228900  1
  Bi  Bi19  1  0.25610200  0.51869600  0.99228900  1
  I  I20  1  0.66853600  0.59827400  0.57206200  1
  I  I21  1  0.55954000  0.16553300  0.43672700  1
  I  I22  1  0.65738200  0.92480000  0.90930100  1
  I  I23  1  0.34261800  0.92480000  0.40930100  1
  I  I24  1  0.82234300  0.10374200  0.06902800  1
  I  I25  1  0.17765700  0.10374200  0.56902800  1
  I  I26  1  0.55947900  0.83676500  0.09487200  1
  I  I27  1  0.44052100  0.83676500  0.59487200  1
  I  I28  1  0.45173800  0.49793800  0.26933900  1
  I  I29  1  0.54826200  0.49793800  0.76933900  1
  I  I30  1  0.96035300  0.40978600  0.06348000  1
  I  I31  1  0.44046000  0.16553300  0.93672700  1
  I  I32  1  0.05059400  0.87831200  0.03691000  1
  I  I33  1  0.94940600  0.87831200  0.53691000  1
  I  I34  1  0.04885900  0.06196100  0.23671800  1
  I  I35  1  0.95114100  0.06196100  0.73671800  1
  I  I36  1  0.15722400  0.45250400  0.89684400  1
  I  I37  1  0.84277600  0.45250400  0.39684400  1
  I  I38  1  0.56901800  0.63554900  0.90503100  1
  I  I39  1  0.43098200  0.63554900  0.40503100  1
  I  I40  1  0.94546200  0.53482400  0.21282900  1
  I  I41  1  0.05453800  0.53482400  0.71282900  1
  I  I42  1  0.07124400  0.74539900  0.89835900  1
  I  I43  1  0.92875600  0.74539900  0.39835900  1
  I  I44  1  0.53432700  0.97315200  0.23944800  1
  I  I45  1  0.46567300  0.97315200  0.73944800  1
  I  I46  1  0.06093500  0.21066600  0.37109800  1
  I  I47  1  0.93906500  0.21066600  0.87109800  1
  I  I48  1  0.44702800  0.31891000  0.07038200  1
  I  I49  1  0.55297200  0.31891000  0.57038200  1
  I  I50  1  0.67593700  0.27059000  0.23883900  1
  I  I51  1  0.32406300  0.27059000  0.73883900  1
  I  I52  1  0.83824300  0.78476000  0.73180100  1
  I  I53  1  0.16175700  0.78476000  0.23180100  1
  I  I54  1  0.03964700  0.40978600  0.56348000  1
  I  I55  1  0.33146400  0.59827400  0.07206200  1
