# generated using pymatgen
data_Rb2NiH12(SeO7)2
_symmetry_space_group_name_H-M   'P 1'
_cell_length_a   12.74284400
_cell_length_b   6.43945900
_cell_length_c   9.36987673
_cell_angle_alpha   75.08232345
_cell_angle_beta   90.00000000
_cell_angle_gamma   90.00000000
_symmetry_Int_Tables_number   1
_chemical_formula_structural   Rb2NiH12(SeO7)2
_chemical_formula_sum   'Rb4 Ni2 H24 Se4 O28'
_cell_volume   742.95091911
_cell_formula_units_Z   2
loop_
 _symmetry_equiv_pos_site_id
 _symmetry_equiv_pos_as_xyz
  1  'x, y, z'
loop_
 _atom_site_type_symbol
 _atom_site_label
 _atom_site_symmetry_multiplicity
 _atom_site_fract_x
 _atom_site_fract_y
 _atom_site_fract_z
 _atom_site_occupancy
  Rb  Rb0  1  0.15379900  0.65783500  0.13379800  1
  Rb  Rb1  1  0.65379900  0.34216500  0.36620200  1
  Rb  Rb2  1  0.84620100  0.34216500  0.86620200  1
  Rb  Rb3  1  0.34620100  0.65783500  0.63379800  1
  Ni  Ni4  1  0.00000000  0.00000000  0.50000000  1
  Ni  Ni5  1  0.50000000  0.00000000  0.00000000  1
  H  H6  1  0.36307500  0.32190500  0.97231300  1
  H  H7  1  0.59392900  0.92792400  0.26723400  1
  H  H8  1  0.09392900  0.07207600  0.23276600  1
  H  H9  1  0.40607100  0.07207600  0.73276600  1
  H  H10  1  0.90607100  0.92792400  0.76723400  1
  H  H11  1  0.68171200  0.99950400  0.14393500  1
  H  H12  1  0.18171200  0.00049600  0.35606500  1
  H  H13  1  0.31828800  0.00049600  0.85606500  1
  H  H14  1  0.81828800  0.99950400  0.64393500  1
  H  H15  1  0.59050100  0.31340400  0.79608000  1
  H  H16  1  0.09050100  0.68659600  0.70392000  1
  H  H17  1  0.40949900  0.68659600  0.20392000  1
  H  H18  1  0.90949900  0.31340400  0.29608000  1
  H  H19  1  0.62737300  0.09156500  0.76202900  1
  H  H20  1  0.86307500  0.67809500  0.52768700  1
  H  H21  1  0.12737300  0.90843500  0.73797100  1
  H  H22  1  0.13692500  0.32190500  0.47231300  1
  H  H23  1  0.63692500  0.67809500  0.02768700  1
  H  H24  1  0.94437400  0.66813000  0.40220800  1
  H  H25  1  0.44437400  0.33187000  0.09779200  1
  H  H26  1  0.05562600  0.33187000  0.59779200  1
  H  H27  1  0.55562600  0.66813000  0.90220800  1
  H  H28  1  0.37262700  0.90843500  0.23797100  1
  H  H29  1  0.87262700  0.09156500  0.26202900  1
  Se  Se30  1  0.14036400  0.26765100  0.90365100  1
  Se  Se31  1  0.35963600  0.26765100  0.40365100  1
  Se  Se32  1  0.64036400  0.73234900  0.59634900  1
  Se  Se33  1  0.85963600  0.73234900  0.09634900  1
  O  O34  1  0.61134900  0.16190300  0.84220900  1
  O  O35  1  0.11134900  0.83809700  0.65779100  1
  O  O36  1  0.38865100  0.83809700  0.15779100  1
  O  O37  1  0.88865100  0.16190300  0.34220900  1
  O  O38  1  0.75628500  0.57649500  0.08417800  1
  O  O39  1  0.56238000  0.70929600  0.99708200  1
  O  O40  1  0.06238000  0.29070400  0.50291800  1
  O  O41  1  0.43762000  0.29070400  0.00291800  1
  O  O42  1  0.93762000  0.70929600  0.49708200  1
  O  O43  1  0.74371500  0.57649500  0.58417800  1
  O  O44  1  0.89263700  0.02586700  0.66736400  1
  O  O45  1  0.39263700  0.97413300  0.83263600  1
  O  O46  1  0.10736300  0.97413300  0.33263600  1
  O  O47  1  0.60736300  0.02586700  0.16736400  1
  O  O48  1  0.24371500  0.42350500  0.91582200  1
  O  O49  1  0.43516400  0.40301600  0.26311000  1
  O  O50  1  0.93516400  0.59698400  0.23689000  1
  O  O51  1  0.56483600  0.59698400  0.73689000  1
  O  O52  1  0.06483600  0.40301600  0.76311000  1
  O  O53  1  0.31756000  0.03455700  0.37287000  1
  O  O54  1  0.81756000  0.96544300  0.12713000  1
  O  O55  1  0.68244000  0.96544300  0.62713000  1
  O  O56  1  0.43109500  0.22263500  0.55808000  1
  O  O57  1  0.93109500  0.77736500  0.94192000  1
  O  O58  1  0.56890500  0.77736500  0.44192000  1
  O  O59  1  0.06890500  0.22263500  0.05808000  1
  O  O60  1  0.25628500  0.42350500  0.41582200  1
  O  O61  1  0.18244000  0.03455700  0.87287000  1
