# generated using pymatgen
data_CeTaO4
_symmetry_space_group_name_H-M   'P 1'
_cell_length_a   5.50978100
_cell_length_b   7.70595100
_cell_length_c   7.80138054
_cell_angle_alpha   79.87340105
_cell_angle_beta   90.00000000
_cell_angle_gamma   90.00000000
_symmetry_Int_Tables_number   1
_chemical_formula_structural   CeTaO4
_chemical_formula_sum   'Ce4 Ta4 O16'
_cell_volume   326.07177285
_cell_formula_units_Z   4
loop_
 _symmetry_equiv_pos_site_id
 _symmetry_equiv_pos_as_xyz
  1  'x, y, z'
loop_
 _atom_site_type_symbol
 _atom_site_label
 _atom_site_symmetry_multiplicity
 _atom_site_fract_x
 _atom_site_fract_y
 _atom_site_fract_z
 _atom_site_occupancy
  Ce  Ce0  1  0.27489400  0.34809900  0.39828900  1
  Ce  Ce1  1  0.72510600  0.65190100  0.60171100  1
  Ce  Ce2  1  0.22510600  0.34809900  0.89828900  1
  Ce  Ce3  1  0.77489400  0.65190100  0.10171100  1
  Ta  Ta4  1  0.23270700  0.83380500  0.80457900  1
  Ta  Ta5  1  0.26729300  0.83380500  0.30457900  1
  Ta  Ta6  1  0.73270700  0.16619500  0.69542100  1
  Ta  Ta7  1  0.76729300  0.16619500  0.19542100  1
  O  O8  1  0.15556500  0.83068100  0.05583500  1
  O  O9  1  0.99579800  0.33454500  0.63135200  1
  O  O10  1  0.48666900  0.61364800  0.33125000  1
  O  O11  1  0.49579800  0.66545500  0.86864800  1
  O  O12  1  0.40991400  0.05777600  0.79477800  1
  O  O13  1  0.50420200  0.33454500  0.13135200  1
  O  O14  1  0.65556500  0.16931900  0.44416500  1
  O  O15  1  0.59008600  0.94222400  0.20522200  1
  O  O16  1  0.98666900  0.38635200  0.16875000  1
  O  O17  1  0.90991400  0.94222400  0.70522200  1
  O  O18  1  0.34443500  0.83068100  0.55583500  1
  O  O19  1  0.01333100  0.61364800  0.83125000  1
  O  O20  1  0.09008600  0.05777600  0.29477800  1
  O  O21  1  0.51333100  0.38635200  0.66875000  1
  O  O22  1  0.00420200  0.66545500  0.36864800  1
  O  O23  1  0.84443500  0.16931900  0.94416500  1
