# generated using pymatgen
data_Pr2Br5
_symmetry_space_group_name_H-M   'P 1'
_cell_length_a   4.17036900
_cell_length_b   8.53216100
_cell_length_c   13.81863544
_cell_angle_alpha   86.81459690
_cell_angle_beta   90.00000000
_cell_angle_gamma   90.00000000
_symmetry_Int_Tables_number   1
_chemical_formula_structural   Pr2Br5
_chemical_formula_sum   'Pr4 Br10'
_cell_volume   490.93857854
_cell_formula_units_Z   2
loop_
 _symmetry_equiv_pos_site_id
 _symmetry_equiv_pos_as_xyz
  1  'x, y, z'
loop_
 _atom_site_type_symbol
 _atom_site_label
 _atom_site_symmetry_multiplicity
 _atom_site_fract_x
 _atom_site_fract_y
 _atom_site_fract_z
 _atom_site_occupancy
  Pr  Pr0  1  0.25000000  0.90615700  0.15363000  1
  Pr  Pr1  1  0.75000000  0.09384300  0.84637000  1
  Pr  Pr2  1  0.25000000  0.41679300  0.65657400  1
  Pr  Pr3  1  0.75000000  0.58320700  0.34342600  1
  Br  Br4  1  0.25000000  0.36384800  0.28177900  1
  Br  Br5  1  0.75000000  0.63615200  0.71822100  1
  Br  Br6  1  0.25000000  0.86416400  0.92929200  1
  Br  Br7  1  0.75000000  0.13583600  0.07070800  1
  Br  Br8  1  0.75000000  0.31779800  0.51346800  1
  Br  Br9  1  0.25000000  0.68220200  0.48653200  1
  Br  Br10  1  0.75000000  0.94204000  0.31044200  1
  Br  Br11  1  0.25000000  0.05796000  0.68955800  1
  Br  Br12  1  0.75000000  0.65772000  0.12434700  1
  Br  Br13  1  0.25000000  0.34228000  0.87565300  1
