# generated using pymatgen
data_Th2CoB10
_symmetry_space_group_name_H-M   'P 1'
_cell_length_a   4.17926600
_cell_length_b   5.61755100
_cell_length_c   11.21942000
_cell_angle_alpha   90.00000000
_cell_angle_beta   90.00000000
_cell_angle_gamma   90.00000000
_symmetry_Int_Tables_number   1
_chemical_formula_structural   Th2CoB10
_chemical_formula_sum   'Th4 Co2 B20'
_cell_volume   263.40101485
_cell_formula_units_Z   2
loop_
 _symmetry_equiv_pos_site_id
 _symmetry_equiv_pos_as_xyz
  1  'x, y, z'
loop_
 _atom_site_type_symbol
 _atom_site_label
 _atom_site_symmetry_multiplicity
 _atom_site_fract_x
 _atom_site_fract_y
 _atom_site_fract_z
 _atom_site_occupancy
  Th  Th0  1  0.50000000  0.30183700  0.86549000  1
  Th  Th1  1  0.50000000  0.69816300  0.13451000  1
  Th  Th2  1  0.50000000  0.80183700  0.63451000  1
  Th  Th3  1  0.50000000  0.19816300  0.36549000  1
  Co  Co4  1  0.00000000  0.50000000  0.50000000  1
  Co  Co5  1  0.00000000  0.00000000  0.00000000  1
  B  B6  1  0.00000000  0.12710200  0.54001700  1
  B  B7  1  0.00000000  0.87289800  0.45998300  1
  B  B8  1  0.00000000  0.62710200  0.95998300  1
  B  B9  1  0.00000000  0.37289800  0.04001700  1
  B  B10  1  0.00000000  0.15265200  0.69709100  1
  B  B11  1  0.00000000  0.84734800  0.30290900  1
  B  B12  1  0.29993700  0.20079100  0.11349300  1
  B  B13  1  0.29993700  0.79920900  0.88650700  1
  B  B14  1  0.70006300  0.70079100  0.38650700  1
  B  B15  1  0.70006300  0.29920900  0.61349300  1
  B  B16  1  0.70006300  0.79920900  0.88650700  1
  B  B17  1  0.70006300  0.20079100  0.11349300  1
  B  B18  1  0.29993700  0.29920900  0.61349300  1
  B  B19  1  0.29993700  0.70079100  0.38650700  1
  B  B20  1  0.00000000  0.03473900  0.18721300  1
  B  B21  1  0.00000000  0.96526100  0.81278700  1
  B  B22  1  0.00000000  0.53473900  0.31278700  1
  B  B23  1  0.00000000  0.46526100  0.68721300  1
  B  B24  1  0.00000000  0.34734800  0.19709100  1
  B  B25  1  0.00000000  0.65265200  0.80290900  1
