# generated using pymatgen
data_KScBP2HO9
_symmetry_space_group_name_H-M   'P 1'
_cell_length_a   5.33972900
_cell_length_b   8.39899036
_cell_length_c   8.47306136
_cell_angle_alpha   88.21737367
_cell_angle_beta   79.93687536
_cell_angle_gamma   86.65886203
_symmetry_Int_Tables_number   1
_chemical_formula_structural   KScBP2HO9
_chemical_formula_sum   'K2 Sc2 B2 P4 H2 O18'
_cell_volume   373.43603131
_cell_formula_units_Z   2
loop_
 _symmetry_equiv_pos_site_id
 _symmetry_equiv_pos_as_xyz
  1  'x, y, z'
loop_
 _atom_site_type_symbol
 _atom_site_label
 _atom_site_symmetry_multiplicity
 _atom_site_fract_x
 _atom_site_fract_y
 _atom_site_fract_z
 _atom_site_occupancy
  K  K0  1  0.71966600  0.32313400  0.12042300  1
  K  K1  1  0.28033400  0.67686600  0.87957700  1
  Sc  Sc2  1  0.27644900  0.19658600  0.80446400  1
  Sc  Sc3  1  0.72355100  0.80341400  0.19553600  1
  B  B4  1  0.88757800  0.72881800  0.55850400  1
  B  B5  1  0.11242200  0.27118200  0.44149600  1
  P  P6  1  0.78704000  0.93957300  0.80646100  1
  P  P7  1  0.21296000  0.06042700  0.19353900  1
  P  P8  1  0.80630500  0.42404000  0.69919800  1
  P  P9  1  0.19369500  0.57596000  0.30080200  1
  H  H10  1  0.58093000  0.86815100  0.51609900  1
  H  H11  1  0.41907000  0.13184900  0.48390100  1
  O  O12  1  0.56012200  0.36339600  0.79588200  1
  O  O13  1  0.43987800  0.63660400  0.20411800  1
  O  O14  1  0.71834900  0.80337000  0.45319800  1
  O  O15  1  0.28165100  0.19663000  0.54680200  1
  O  O16  1  0.46647300  0.00339600  0.24747700  1
  O  O17  1  0.53352700  0.99660400  0.75252300  1
  O  O18  1  0.02821100  0.40673200  0.79341100  1
  O  O19  1  0.97178900  0.59326800  0.20658900  1
  O  O20  1  0.03843100  0.15395900  0.33485300  1
  O  O21  1  0.96156900  0.84604100  0.66514700  1
  O  O22  1  0.05924400  0.92343700  0.15554900  1
  O  O23  1  0.94075600  0.07656300  0.84445100  1
  O  O24  1  0.12510300  0.66491000  0.46374700  1
  O  O25  1  0.87489700  0.33509000  0.53625300  1
  O  O26  1  0.26803500  0.17952500  0.04981200  1
  O  O27  1  0.73196500  0.82047500  0.95018800  1
  O  O28  1  0.25759200  0.39640400  0.34037400  1
  O  O29  1  0.74240800  0.60359600  0.65962600  1
