# generated using pymatgen
data_CaIn2Ir
_symmetry_space_group_name_H-M   'P 1'
_cell_length_a   5.76375700
_cell_length_b   7.96057000
_cell_length_c   16.06643500
_cell_angle_alpha   90.00000000
_cell_angle_beta   90.00000000
_cell_angle_gamma   90.00000000
_symmetry_Int_Tables_number   1
_chemical_formula_structural   CaIn2Ir
_chemical_formula_sum   'Ca8 In16 Ir8'
_cell_volume   737.17288021
_cell_formula_units_Z   8
loop_
 _symmetry_equiv_pos_site_id
 _symmetry_equiv_pos_as_xyz
  1  'x, y, z'
loop_
 _atom_site_type_symbol
 _atom_site_label
 _atom_site_symmetry_multiplicity
 _atom_site_fract_x
 _atom_site_fract_y
 _atom_site_fract_z
 _atom_site_occupancy
  Ca  Ca0  1  0.46105400  0.75000000  0.13821000  1
  Ca  Ca1  1  0.96105400  0.25000000  0.36179000  1
  Ca  Ca2  1  0.53894600  0.25000000  0.86179000  1
  Ca  Ca3  1  0.03894600  0.75000000  0.63821000  1
  Ca  Ca4  1  0.74796400  0.75000000  0.39761500  1
  Ca  Ca5  1  0.24796400  0.25000000  0.10238500  1
  Ca  Ca6  1  0.25203600  0.25000000  0.60238500  1
  Ca  Ca7  1  0.75203600  0.75000000  0.89761500  1
  In  In8  1  0.74832500  0.44595000  0.53928800  1
  In  In9  1  0.25167500  0.94595000  0.46071200  1
  In  In10  1  0.75167500  0.05405000  0.03928800  1
  In  In11  1  0.96702200  0.95006600  0.21218700  1
  In  In12  1  0.24832500  0.55405000  0.96071200  1
  In  In13  1  0.74832500  0.05405000  0.53928800  1
  In  In14  1  0.24832500  0.94595000  0.96071200  1
  In  In15  1  0.25167500  0.55405000  0.46071200  1
  In  In16  1  0.03297800  0.04993400  0.78781300  1
  In  In17  1  0.46702200  0.04993400  0.28781300  1
  In  In18  1  0.03297800  0.45006600  0.78781300  1
  In  In19  1  0.53297800  0.54993400  0.71218700  1
  In  In20  1  0.46702200  0.45006600  0.28781300  1
  In  In21  1  0.53297800  0.95006600  0.71218700  1
  In  In22  1  0.96702200  0.54993400  0.21218700  1
  In  In23  1  0.75167500  0.44595000  0.03928800  1
  Ir  Ir24  1  0.23411600  0.75000000  0.31419500  1
  Ir  Ir25  1  0.52066500  0.75000000  0.57027100  1
  Ir  Ir26  1  0.02066500  0.25000000  0.92972900  1
  Ir  Ir27  1  0.47933500  0.25000000  0.42972900  1
  Ir  Ir28  1  0.97933500  0.75000000  0.07027100  1
  Ir  Ir29  1  0.26588400  0.75000000  0.81419500  1
  Ir  Ir30  1  0.76588400  0.25000000  0.68580500  1
  Ir  Ir31  1  0.73411600  0.25000000  0.18580500  1
