# generated using pymatgen
data_Rb2CoI4
_symmetry_space_group_name_H-M   'P 1'
_cell_length_a   8.26010900
_cell_length_b   7.82300600
_cell_length_c   10.55108790
_cell_angle_alpha   70.60441168
_cell_angle_beta   90.00000000
_cell_angle_gamma   90.00000000
_symmetry_Int_Tables_number   1
_chemical_formula_structural   Rb2CoI4
_chemical_formula_sum   'Rb4 Co2 I8'
_cell_volume   643.10617890
_cell_formula_units_Z   2
loop_
 _symmetry_equiv_pos_site_id
 _symmetry_equiv_pos_as_xyz
  1  'x, y, z'
loop_
 _atom_site_type_symbol
 _atom_site_label
 _atom_site_symmetry_multiplicity
 _atom_site_fract_x
 _atom_site_fract_y
 _atom_site_fract_z
 _atom_site_occupancy
  Rb  Rb0  1  0.25000000  0.69993800  0.96246600  1
  Rb  Rb1  1  0.75000000  0.30006200  0.03753400  1
  Rb  Rb2  1  0.75000000  0.20315400  0.58553700  1
  Rb  Rb3  1  0.25000000  0.79684600  0.41446300  1
  Co  Co4  1  0.75000000  0.69651000  0.21441200  1
  Co  Co5  1  0.25000000  0.30349000  0.78558800  1
  I  I6  1  0.25000000  0.14019200  0.04357900  1
  I  I7  1  0.75000000  0.85980800  0.95642100  1
  I  I8  1  0.25000000  0.08653400  0.64661600  1
  I  I9  1  0.75000000  0.91346600  0.35338400  1
  I  I10  1  0.00103900  0.51460400  0.72322500  1
  I  I11  1  0.50103900  0.48539600  0.27677500  1
  I  I12  1  0.99896100  0.48539600  0.27677500  1
  I  I13  1  0.49896100  0.51460400  0.72322500  1
