# generated using pymatgen
data_Rb4Au6S5
_symmetry_space_group_name_H-M   'P 1'
_cell_length_a   10.19699860
_cell_length_b   10.19699860
_cell_length_c   10.27826900
_cell_angle_alpha   90.00000000
_cell_angle_beta   90.00000000
_cell_angle_gamma   120.00000388
_symmetry_Int_Tables_number   1
_chemical_formula_structural   Rb4Au6S5
_chemical_formula_sum   'Rb8 Au12 S10'
_cell_volume   925.54025733
_cell_formula_units_Z   2
loop_
 _symmetry_equiv_pos_site_id
 _symmetry_equiv_pos_as_xyz
  1  'x, y, z'
loop_
 _atom_site_type_symbol
 _atom_site_label
 _atom_site_symmetry_multiplicity
 _atom_site_fract_x
 _atom_site_fract_y
 _atom_site_fract_z
 _atom_site_occupancy
  Rb  Rb0  1  0.42044100  0.07599500  0.25000000  1
  Rb  Rb1  1  0.92400500  0.34444600  0.25000000  1
  Rb  Rb2  1  0.65555400  0.57955900  0.25000000  1
  Rb  Rb3  1  0.57955900  0.65555400  0.75000000  1
  Rb  Rb4  1  0.34444600  0.92400500  0.75000000  1
  Rb  Rb5  1  0.00000000  0.00000000  0.00000000  1
  Rb  Rb6  1  0.00000000  0.00000000  0.50000000  1
  Rb  Rb7  1  0.07599500  0.42044100  0.75000000  1
  Au  Au8  1  0.82738800  0.54462700  0.59365100  1
  Au  Au9  1  0.71723900  0.17261200  0.59365100  1
  Au  Au10  1  0.45537300  0.28276100  0.59365100  1
  Au  Au11  1  0.28276100  0.45537300  0.40634900  1
  Au  Au12  1  0.71723900  0.17261200  0.90634900  1
  Au  Au13  1  0.82738800  0.54462700  0.90634900  1
  Au  Au14  1  0.17261200  0.71723900  0.09365100  1
  Au  Au15  1  0.54462700  0.82738800  0.09365100  1
  Au  Au16  1  0.54462700  0.82738800  0.40634900  1
  Au  Au17  1  0.17261200  0.71723900  0.40634900  1
  Au  Au18  1  0.28276100  0.45537300  0.09365100  1
  Au  Au19  1  0.45537300  0.28276100  0.90634900  1
  S  S20  1  0.73118800  0.95948400  0.25000000  1
  S  S21  1  0.33333300  0.66666700  0.53552700  1
  S  S22  1  0.33333300  0.66666700  0.96447300  1
  S  S23  1  0.66666700  0.33333300  0.03552700  1
  S  S24  1  0.66666700  0.33333300  0.46447300  1
  S  S25  1  0.95948400  0.73118800  0.75000000  1
  S  S26  1  0.77170400  0.04051600  0.75000000  1
  S  S27  1  0.26881200  0.22829600  0.75000000  1
  S  S28  1  0.04051600  0.77170400  0.25000000  1
  S  S29  1  0.22829600  0.26881200  0.25000000  1
