# generated using pymatgen
data_NbSiIr
_symmetry_space_group_name_H-M   'P 1'
_cell_length_a   3.81765200
_cell_length_b   6.46643200
_cell_length_c   7.33579600
_cell_angle_alpha   90.00000000
_cell_angle_beta   90.00000000
_cell_angle_gamma   90.00000000
_symmetry_Int_Tables_number   1
_chemical_formula_structural   NbSiIr
_chemical_formula_sum   'Nb4 Si4 Ir4'
_cell_volume   181.09576659
_cell_formula_units_Z   4
loop_
 _symmetry_equiv_pos_site_id
 _symmetry_equiv_pos_as_xyz
  1  'x, y, z'
loop_
 _atom_site_type_symbol
 _atom_site_label
 _atom_site_symmetry_multiplicity
 _atom_site_fract_x
 _atom_site_fract_y
 _atom_site_fract_z
 _atom_site_occupancy
  Nb  Nb0  1  0.75000000  0.52413900  0.82813400  1
  Nb  Nb1  1  0.25000000  0.97586100  0.32813400  1
  Nb  Nb2  1  0.75000000  0.02413900  0.67186600  1
  Nb  Nb3  1  0.25000000  0.47586100  0.17186600  1
  Si  Si4  1  0.25000000  0.23013800  0.87509700  1
  Si  Si5  1  0.25000000  0.73013800  0.62490300  1
  Si  Si6  1  0.75000000  0.76986200  0.12490300  1
  Si  Si7  1  0.75000000  0.26986200  0.37509700  1
  Ir  Ir8  1  0.25000000  0.85412200  0.93707300  1
  Ir  Ir9  1  0.25000000  0.35412200  0.56292700  1
  Ir  Ir10  1  0.75000000  0.64587800  0.43707300  1
  Ir  Ir11  1  0.75000000  0.14587800  0.06292700  1
