# generated using pymatgen
data_CrBr3
_symmetry_space_group_name_H-M   'P 1'
_cell_length_a   7.77674707
_cell_length_b   7.77674707
_cell_length_c   7.77674735
_cell_angle_alpha   48.96870607
_cell_angle_beta   48.96870607
_cell_angle_gamma   48.96870931
_symmetry_Int_Tables_number   1
_chemical_formula_structural   CrBr3
_chemical_formula_sum   'Cr2 Br6'
_cell_volume   245.71947512
_cell_formula_units_Z   2
loop_
 _symmetry_equiv_pos_site_id
 _symmetry_equiv_pos_as_xyz
  1  'x, y, z'
loop_
 _atom_site_type_symbol
 _atom_site_label
 _atom_site_symmetry_multiplicity
 _atom_site_fract_x
 _atom_site_fract_y
 _atom_site_fract_z
 _atom_site_occupancy
  Cr  Cr0  1  0.66657200  0.66657200  0.66657200  1
  Cr  Cr1  1  0.33342800  0.33342800  0.33342800  1
  Br  Br2  1  0.93011200  0.57129700  0.28823400  1
  Br  Br3  1  0.57129700  0.28823400  0.93011200  1
  Br  Br4  1  0.28823400  0.93011200  0.57129700  1
  Br  Br5  1  0.42870300  0.71176600  0.06988800  1
  Br  Br6  1  0.71176600  0.06988800  0.42870300  1
  Br  Br7  1  0.06988800  0.42870300  0.71176600  1
