# generated using pymatgen
data_ZrPRu
_symmetry_space_group_name_H-M   'P 1'
_cell_length_a   3.89677100
_cell_length_b   6.47655900
_cell_length_c   7.37843500
_cell_angle_alpha   90.00000000
_cell_angle_beta   90.00000000
_cell_angle_gamma   90.00000000
_symmetry_Int_Tables_number   1
_chemical_formula_structural   ZrPRu
_chemical_formula_sum   'Zr4 P4 Ru4'
_cell_volume   186.21448766
_cell_formula_units_Z   4
loop_
 _symmetry_equiv_pos_site_id
 _symmetry_equiv_pos_as_xyz
  1  'x, y, z'
loop_
 _atom_site_type_symbol
 _atom_site_label
 _atom_site_symmetry_multiplicity
 _atom_site_fract_x
 _atom_site_fract_y
 _atom_site_fract_z
 _atom_site_occupancy
  Zr  Zr0  1  0.75000000  0.52236200  0.31897700  1
  Zr  Zr1  1  0.25000000  0.97763800  0.81897700  1
  Zr  Zr2  1  0.75000000  0.02236200  0.18102300  1
  Zr  Zr3  1  0.25000000  0.47763800  0.68102300  1
  P  P4  1  0.25000000  0.72433300  0.12149000  1
  P  P5  1  0.25000000  0.22433300  0.37851000  1
  P  P6  1  0.75000000  0.27566700  0.87851000  1
  P  P7  1  0.75000000  0.77566700  0.62149000  1
  Ru  Ru8  1  0.25000000  0.34893500  0.06038900  1
  Ru  Ru9  1  0.25000000  0.84893500  0.43961100  1
  Ru  Ru10  1  0.75000000  0.15106500  0.56038900  1
  Ru  Ru11  1  0.75000000  0.65106500  0.93961100  1
