# generated using pymatgen
data_Ca(AuF6)2
_symmetry_space_group_name_H-M   'P 1'
_cell_length_a   5.73252000
_cell_length_b   5.73252000
_cell_length_c   7.73908200
_cell_angle_alpha   90.00000000
_cell_angle_beta   90.00000000
_cell_angle_gamma   90.00000000
_symmetry_Int_Tables_number   1
_chemical_formula_structural   Ca(AuF6)2
_chemical_formula_sum   'Ca1 Au2 F12'
_cell_volume   254.32005304
_cell_formula_units_Z   1
loop_
 _symmetry_equiv_pos_site_id
 _symmetry_equiv_pos_as_xyz
  1  'x, y, z'
loop_
 _atom_site_type_symbol
 _atom_site_label
 _atom_site_symmetry_multiplicity
 _atom_site_fract_x
 _atom_site_fract_y
 _atom_site_fract_z
 _atom_site_occupancy
  Ca  Ca0  1  0.00000000  0.00000000  0.00000000  1
  Au  Au1  1  0.00000000  0.50000000  0.24145000  1
  Au  Au2  1  0.50000000  0.00000000  0.75855000  1
  F  F3  1  0.50000000  0.00000000  0.01210700  1
  F  F4  1  0.00000000  0.50000000  0.98789300  1
  F  F5  1  0.50000000  0.00000000  0.50956700  1
  F  F6  1  0.22245300  0.75730200  0.22664200  1
  F  F7  1  0.75730200  0.77754700  0.77335800  1
  F  F8  1  0.24269800  0.22245300  0.77335800  1
  F  F9  1  0.77754700  0.24269800  0.22664200  1
  F  F10  1  0.22245300  0.24269800  0.22664200  1
  F  F11  1  0.24269800  0.77754700  0.77335800  1
  F  F12  1  0.75730200  0.22245300  0.77335800  1
  F  F13  1  0.77754700  0.75730200  0.22664200  1
  F  F14  1  0.00000000  0.50000000  0.49043300  1
