# generated using pymatgen
data_Np(OF)2
_symmetry_space_group_name_H-M   'P 1'
_cell_length_a   6.06463959
_cell_length_b   6.06463959
_cell_length_c   6.06463953
_cell_angle_alpha   40.77189029
_cell_angle_beta   40.77189029
_cell_angle_gamma   40.77188221
_symmetry_Int_Tables_number   1
_chemical_formula_structural   Np(OF)2
_chemical_formula_sum   'Np1 O2 F2'
_cell_volume   85.84085758
_cell_formula_units_Z   1
loop_
 _symmetry_equiv_pos_site_id
 _symmetry_equiv_pos_as_xyz
  1  'x, y, z'
loop_
 _atom_site_type_symbol
 _atom_site_label
 _atom_site_symmetry_multiplicity
 _atom_site_fract_x
 _atom_site_fract_y
 _atom_site_fract_z
 _atom_site_occupancy
  Np  Np0  1  0.00000000  0.00000000  0.00000000  1
  O  O1  1  0.89361000  0.89361000  0.89361000  1
  O  O2  1  0.10639000  0.10639000  0.10639000  1
  F  F3  1  0.33362400  0.33362400  0.33362400  1
  F  F4  1  0.66637600  0.66637600  0.66637600  1
