# generated using pymatgen
data_CaInAu
_symmetry_space_group_name_H-M   'P 1'
_cell_length_a   4.67432000
_cell_length_b   7.47006100
_cell_length_c   8.50820000
_cell_angle_alpha   90.00000000
_cell_angle_beta   90.00000000
_cell_angle_gamma   90.00000000
_symmetry_Int_Tables_number   1
_chemical_formula_structural   CaInAu
_chemical_formula_sum   'Ca4 In4 Au4'
_cell_volume   297.08469517
_cell_formula_units_Z   4
loop_
 _symmetry_equiv_pos_site_id
 _symmetry_equiv_pos_as_xyz
  1  'x, y, z'
loop_
 _atom_site_type_symbol
 _atom_site_label
 _atom_site_symmetry_multiplicity
 _atom_site_fract_x
 _atom_site_fract_y
 _atom_site_fract_z
 _atom_site_occupancy
  Ca  Ca0  1  0.75000000  0.97844500  0.68571100  1
  Ca  Ca1  1  0.25000000  0.02155500  0.31428900  1
  Ca  Ca2  1  0.75000000  0.47844500  0.81428900  1
  Ca  Ca3  1  0.25000000  0.52155500  0.18571100  1
  In  In4  1  0.75000000  0.33889500  0.43455000  1
  In  In5  1  0.25000000  0.16110500  0.93455000  1
  In  In6  1  0.25000000  0.66110500  0.56545000  1
  In  In7  1  0.75000000  0.83889500  0.06545000  1
  Au  Au8  1  0.25000000  0.77285500  0.88284200  1
  Au  Au9  1  0.25000000  0.27285500  0.61715800  1
  Au  Au10  1  0.75000000  0.72714500  0.38284200  1
  Au  Au11  1  0.75000000  0.22714500  0.11715800  1
