# generated using pymatgen
data_Ce5Ge2Ru
_symmetry_space_group_name_H-M   'P 1'
_cell_length_a   7.82736300
_cell_length_b   8.79183300
_cell_length_c   11.75955600
_cell_angle_alpha   90.00000000
_cell_angle_beta   90.00000000
_cell_angle_gamma   90.00000000
_symmetry_Int_Tables_number   1
_chemical_formula_structural   Ce5Ge2Ru
_chemical_formula_sum   'Ce20 Ge8 Ru4'
_cell_volume   809.25581683
_cell_formula_units_Z   4
loop_
 _symmetry_equiv_pos_site_id
 _symmetry_equiv_pos_as_xyz
  1  'x, y, z'
loop_
 _atom_site_type_symbol
 _atom_site_label
 _atom_site_symmetry_multiplicity
 _atom_site_fract_x
 _atom_site_fract_y
 _atom_site_fract_z
 _atom_site_occupancy
  Ce  Ce0  1  0.70041900  0.46444000  0.93252100  1
  Ce  Ce1  1  0.20041900  0.96444100  0.56747900  1
  Ce  Ce2  1  0.70041900  0.03556000  0.93252100  1
  Ce  Ce3  1  0.79958100  0.46444000  0.43252100  1
  Ce  Ce4  1  0.97458100  0.75000000  0.99764400  1
  Ce  Ce5  1  0.47458100  0.25000000  0.50235600  1
  Ce  Ce6  1  0.02541900  0.25000000  0.00235600  1
  Ce  Ce7  1  0.52541900  0.75000000  0.49764400  1
  Ce  Ce8  1  0.29958100  0.53555900  0.06747900  1
  Ce  Ce9  1  0.79958100  0.03556000  0.43252100  1
  Ce  Ce10  1  0.29958100  0.96444100  0.06747900  1
  Ce  Ce11  1  0.20041900  0.53555900  0.56747900  1
  Ce  Ce12  1  0.36937500  0.75000000  0.79486600  1
  Ce  Ce13  1  0.86937500  0.25000000  0.70513400  1
  Ce  Ce14  1  0.63062500  0.25000000  0.20513400  1
  Ce  Ce15  1  0.13062500  0.75000000  0.29486600  1
  Ce  Ce16  1  0.84664200  0.75000000  0.71134300  1
  Ce  Ce17  1  0.34664200  0.25000000  0.78865700  1
  Ce  Ce18  1  0.15335800  0.25000000  0.28865700  1
  Ce  Ce19  1  0.65335800  0.75000000  0.21134300  1
  Ge  Ge20  1  0.57812800  0.49521500  0.67299300  1
  Ge  Ge21  1  0.92187200  0.00478500  0.17299300  1
  Ge  Ge22  1  0.42187200  0.99521500  0.32700700  1
  Ge  Ge23  1  0.07812800  0.50478500  0.82700700  1
  Ge  Ge24  1  0.42187200  0.50478500  0.32700700  1
  Ge  Ge25  1  0.07812800  0.99521500  0.82700700  1
  Ge  Ge26  1  0.57812800  0.00478500  0.67299300  1
  Ge  Ge27  1  0.92187200  0.49521500  0.17299300  1
  Ru  Ru28  1  0.57860400  0.75000000  0.97712600  1
  Ru  Ru29  1  0.07860400  0.25000000  0.52287400  1
  Ru  Ru30  1  0.42139600  0.25000000  0.02287400  1
  Ru  Ru31  1  0.92139600  0.75000000  0.47712600  1
