# generated using pymatgen
data_P2Pd
_symmetry_space_group_name_H-M   'P 1'
_cell_length_a   4.55519147
_cell_length_b   4.55519147
_cell_length_c   5.91973872
_cell_angle_alpha   66.27831708
_cell_angle_beta   66.27831708
_cell_angle_gamma   80.72994623
_symmetry_Int_Tables_number   1
_chemical_formula_structural   P2Pd
_chemical_formula_sum   'P4 Pd2'
_cell_volume   102.95376055
_cell_formula_units_Z   2
loop_
 _symmetry_equiv_pos_site_id
 _symmetry_equiv_pos_as_xyz
  1  'x, y, z'
loop_
 _atom_site_type_symbol
 _atom_site_label
 _atom_site_symmetry_multiplicity
 _atom_site_fract_x
 _atom_site_fract_y
 _atom_site_fract_z
 _atom_site_occupancy
  P  P0  1  0.68983000  0.93823600  0.33371400  1
  P  P1  1  0.06176400  0.31017000  0.16628600  1
  P  P2  1  0.93823600  0.68983000  0.83371400  1
  P  P3  1  0.31017000  0.06176400  0.66628600  1
  Pd  Pd4  1  0.00000000  0.50000000  0.50000000  1
  Pd  Pd5  1  0.50000000  0.00000000  0.00000000  1
