# generated using pymatgen
data_K(InAu2)2
_symmetry_space_group_name_H-M   'P 1'
_cell_length_a   7.57643236
_cell_length_b   7.57643236
_cell_length_c   7.57643236
_cell_angle_alpha   108.77211994
_cell_angle_beta   108.77211994
_cell_angle_gamma   110.87865604
_symmetry_Int_Tables_number   1
_chemical_formula_structural   K(InAu2)2
_chemical_formula_sum   'K2 In4 Au8'
_cell_volume   334.63797587
_cell_formula_units_Z   2
loop_
 _symmetry_equiv_pos_site_id
 _symmetry_equiv_pos_as_xyz
  1  'x, y, z'
loop_
 _atom_site_type_symbol
 _atom_site_label
 _atom_site_symmetry_multiplicity
 _atom_site_fract_x
 _atom_site_fract_y
 _atom_site_fract_z
 _atom_site_occupancy
  K  K0  1  0.75000000  0.75000000  0.00000000  1
  K  K1  1  0.25000000  0.25000000  0.00000000  1
  In  In2  1  0.85334300  0.35334300  0.20668500  1
  In  In3  1  0.35334300  0.14665700  0.50000000  1
  In  In4  1  0.64665700  0.85334300  0.50000000  1
  In  In5  1  0.14665700  0.64665700  0.79331500  1
  Au  Au6  1  0.68487500  0.48494500  0.50000000  1
  Au  Au7  1  0.48494500  0.98494500  0.80007100  1
  Au  Au8  1  0.98494500  0.18487500  0.50000000  1
  Au  Au9  1  0.18487500  0.68487500  0.19992900  1
  Au  Au10  1  0.51505500  0.01505500  0.19992900  1
  Au  Au11  1  0.01505500  0.81512500  0.50000000  1
  Au  Au12  1  0.31512500  0.51505500  0.50000000  1
  Au  Au13  1  0.81512500  0.31512500  0.80007100  1
