# generated using pymatgen
data_AuSeCl7
_symmetry_space_group_name_H-M   'P 1'
_cell_length_a   10.50578000
_cell_length_b   9.07677200
_cell_length_c   13.04930727
_cell_angle_alpha   71.52972166
_cell_angle_beta   90.00000000
_cell_angle_gamma   90.00000000
_symmetry_Int_Tables_number   1
_chemical_formula_structural   AuSeCl7
_chemical_formula_sum   'Au4 Se4 Cl28'
_cell_volume   1180.26379322
_cell_formula_units_Z   4
loop_
 _symmetry_equiv_pos_site_id
 _symmetry_equiv_pos_as_xyz
  1  'x, y, z'
loop_
 _atom_site_type_symbol
 _atom_site_label
 _atom_site_symmetry_multiplicity
 _atom_site_fract_x
 _atom_site_fract_y
 _atom_site_fract_z
 _atom_site_occupancy
  Au  Au0  1  0.07895200  0.78596000  0.04775500  1
  Au  Au1  1  0.57895200  0.21404000  0.45224500  1
  Au  Au2  1  0.92104800  0.21404000  0.95224500  1
  Au  Au3  1  0.42104800  0.78596000  0.54775500  1
  Se  Se4  1  0.71977500  0.76680300  0.99729400  1
  Se  Se5  1  0.21977500  0.23319700  0.50270600  1
  Se  Se6  1  0.28022500  0.23319700  0.00270600  1
  Se  Se7  1  0.78022500  0.76680300  0.49729400  1
  Cl  Cl8  1  0.70721200  0.54270200  0.96615300  1
  Cl  Cl9  1  0.20721200  0.45729800  0.53384700  1
  Cl  Cl10  1  0.29278800  0.45729800  0.03384700  1
  Cl  Cl11  1  0.79278800  0.54270200  0.46615300  1
  Cl  Cl12  1  0.58383200  0.63271600  0.64782100  1
  Cl  Cl13  1  0.08383200  0.36728400  0.85217900  1
  Cl  Cl14  1  0.41616800  0.36728400  0.35217900  1
  Cl  Cl15  1  0.91616800  0.63271600  0.14782100  1
  Cl  Cl16  1  0.54275900  0.83600800  0.38917000  1
  Cl  Cl17  1  0.04275900  0.16399200  0.11083000  1
  Cl  Cl18  1  0.45724100  0.16399200  0.61083000  1
  Cl  Cl19  1  0.95724100  0.83600800  0.88917000  1
  Cl  Cl20  1  0.26032900  0.94346500  0.44844300  1
  Cl  Cl21  1  0.76032900  0.05653500  0.05155700  1
  Cl  Cl22  1  0.73967100  0.05653500  0.55155700  1
  Cl  Cl23  1  0.23967100  0.94346500  0.94844300  1
  Cl  Cl24  1  0.29929200  0.72759300  0.70171200  1
  Cl  Cl25  1  0.79929200  0.27240700  0.79828800  1
  Cl  Cl26  1  0.70070800  0.27240700  0.29828800  1
  Cl  Cl27  1  0.20070800  0.72759300  0.20171200  1
  Cl  Cl28  1  0.57103200  0.72254500  0.12290900  1
  Cl  Cl29  1  0.07103200  0.27745500  0.37709100  1
  Cl  Cl30  1  0.42896800  0.27745500  0.87709100  1
  Cl  Cl31  1  0.92896800  0.72254500  0.62290900  1
  Cl  Cl32  1  0.89277300  0.89788600  0.35600700  1
  Cl  Cl33  1  0.39277300  0.10211400  0.14399300  1
  Cl  Cl34  1  0.10722700  0.10211400  0.64399300  1
  Cl  Cl35  1  0.60722700  0.89788600  0.85600700  1
