# generated using pymatgen
data_K2HgS2
_symmetry_space_group_name_H-M   'P 1'
_cell_length_a   7.43125400
_cell_length_b   8.12258200
_cell_length_c   10.83919900
_cell_angle_alpha   90.00000000
_cell_angle_beta   90.00000000
_cell_angle_gamma   90.00000000
_symmetry_Int_Tables_number   1
_chemical_formula_structural   K2HgS2
_chemical_formula_sum   'K8 Hg4 S8'
_cell_volume   654.26456542
_cell_formula_units_Z   4
loop_
 _symmetry_equiv_pos_site_id
 _symmetry_equiv_pos_as_xyz
  1  'x, y, z'
loop_
 _atom_site_type_symbol
 _atom_site_label
 _atom_site_symmetry_multiplicity
 _atom_site_fract_x
 _atom_site_fract_y
 _atom_site_fract_z
 _atom_site_occupancy
  K  K0  1  0.75000000  0.95082800  0.88799700  1
  K  K1  1  0.25000000  0.54917200  0.88799700  1
  K  K2  1  0.50000000  0.25000000  0.39624500  1
  K  K3  1  0.00000000  0.25000000  0.39624500  1
  K  K4  1  0.50000000  0.75000000  0.60375500  1
  K  K5  1  0.00000000  0.75000000  0.60375500  1
  K  K6  1  0.25000000  0.04917200  0.11200300  1
  K  K7  1  0.75000000  0.45082800  0.11200300  1
  Hg  Hg8  1  0.75000000  0.83625800  0.28481500  1
  Hg  Hg9  1  0.75000000  0.33625800  0.71518500  1
  Hg  Hg10  1  0.25000000  0.66374200  0.28481500  1
  Hg  Hg11  1  0.25000000  0.16374200  0.71518500  1
  S  S12  1  0.75000000  0.07688500  0.16456800  1
  S  S13  1  0.25000000  0.41466800  0.60720000  1
  S  S14  1  0.75000000  0.58533200  0.39280000  1
  S  S15  1  0.25000000  0.42311500  0.16456800  1
  S  S16  1  0.25000000  0.91466800  0.39280000  1
  S  S17  1  0.75000000  0.57688500  0.83543200  1
  S  S18  1  0.25000000  0.92311500  0.83543200  1
  S  S19  1  0.75000000  0.08533200  0.60720000  1
