# generated using pymatgen
data_XeIF7
_symmetry_space_group_name_H-M   'P 1'
_cell_length_a   7.90856241
_cell_length_b   7.90856241
_cell_length_c   7.90856241
_cell_angle_alpha   120.48139381
_cell_angle_beta   120.48139381
_cell_angle_gamma   89.16820435
_symmetry_Int_Tables_number   1
_chemical_formula_structural   XeIF7
_chemical_formula_sum   'Xe2 I2 F14'
_cell_volume   347.18138233
_cell_formula_units_Z   2
loop_
 _symmetry_equiv_pos_site_id
 _symmetry_equiv_pos_as_xyz
  1  'x, y, z'
loop_
 _atom_site_type_symbol
 _atom_site_label
 _atom_site_symmetry_multiplicity
 _atom_site_fract_x
 _atom_site_fract_y
 _atom_site_fract_z
 _atom_site_occupancy
  Xe  Xe0  1  0.50000000  0.00000000  0.50000000  1
  Xe  Xe1  1  0.00000000  0.50000000  0.50000000  1
  I  I2  1  0.28659200  0.28659200  0.00000000  1
  I  I3  1  0.71340800  0.71340800  0.00000000  1
  F  F4  1  0.75095400  0.59372500  0.34467900  1
  F  F5  1  0.40627500  0.75095400  0.15722900  1
  F  F6  1  0.59372500  0.24904600  0.84277100  1
  F  F7  1  0.24904600  0.40627500  0.65532100  1
  F  F8  1  0.87952700  0.87952700  0.00000000  1
  F  F9  1  0.12047300  0.12047300  0.00000000  1
  F  F10  1  0.79986700  0.97481000  0.29459900  1
  F  F11  1  0.50526800  0.79986700  0.82505700  1
  F  F12  1  0.97481000  0.68021100  0.17494300  1
  F  F13  1  0.68021100  0.50526800  0.70540100  1
  F  F14  1  0.20013300  0.02519000  0.70540100  1
  F  F15  1  0.49473200  0.20013300  0.17494300  1
  F  F16  1  0.02519000  0.31978900  0.82505700  1
  F  F17  1  0.31978900  0.49473200  0.29459900  1
