# generated using pymatgen
data_SeOF2
_symmetry_space_group_name_H-M   'P 1'
_cell_length_a   5.77491600
_cell_length_b   6.35623600
_cell_length_c   7.82489000
_cell_angle_alpha   90.00000000
_cell_angle_beta   90.00000000
_cell_angle_gamma   90.00000000
_symmetry_Int_Tables_number   1
_chemical_formula_structural   SeOF2
_chemical_formula_sum   'Se4 O4 F8'
_cell_volume   287.22611650
_cell_formula_units_Z   4
loop_
 _symmetry_equiv_pos_site_id
 _symmetry_equiv_pos_as_xyz
  1  'x, y, z'
loop_
 _atom_site_type_symbol
 _atom_site_label
 _atom_site_symmetry_multiplicity
 _atom_site_fract_x
 _atom_site_fract_y
 _atom_site_fract_z
 _atom_site_occupancy
  Se  Se0  1  0.45603800  0.75668800  0.80981300  1
  Se  Se1  1  0.54396200  0.25668800  0.19018700  1
  Se  Se2  1  0.04396200  0.25668800  0.80981300  1
  Se  Se3  1  0.95603800  0.75668800  0.19018700  1
  O  O4  1  0.25372400  0.38574600  0.90270900  1
  O  O5  1  0.24627600  0.88574600  0.90270900  1
  O  O6  1  0.75372400  0.38574600  0.09729100  1
  O  O7  1  0.74627600  0.88574600  0.09729100  1
  F  F8  1  0.12812600  0.96961000  0.27018300  1
  F  F9  1  0.62812600  0.96961000  0.72981700  1
  F  F10  1  0.87187400  0.46961000  0.72981700  1
  F  F11  1  0.37187400  0.46961000  0.27018300  1
  F  F12  1  0.84058800  0.70595600  0.39548500  1
  F  F13  1  0.15941200  0.20595600  0.60451500  1
  F  F14  1  0.65941200  0.20595600  0.39548500  1
  F  F15  1  0.34058800  0.70595600  0.60451500  1
