# generated using pymatgen
data_NbB
_symmetry_space_group_name_H-M   'P 1'
_cell_length_a   4.69335210
_cell_length_b   4.69335210
_cell_length_c   3.18297100
_cell_angle_alpha   90.00000000
_cell_angle_beta   90.00000000
_cell_angle_gamma   138.60302506
_symmetry_Int_Tables_number   1
_chemical_formula_structural   NbB
_chemical_formula_sum   'Nb2 B2'
_cell_volume   46.36382524
_cell_formula_units_Z   2
loop_
 _symmetry_equiv_pos_site_id
 _symmetry_equiv_pos_as_xyz
  1  'x, y, z'
loop_
 _atom_site_type_symbol
 _atom_site_label
 _atom_site_symmetry_multiplicity
 _atom_site_fract_x
 _atom_site_fract_y
 _atom_site_fract_z
 _atom_site_occupancy
  Nb  Nb0  1  0.85456300  0.14543700  0.75000000  1
  Nb  Nb1  1  0.14543700  0.85456300  0.25000000  1
  B  B2  1  0.55795200  0.44204800  0.75000000  1
  B  B3  1  0.44204800  0.55795200  0.25000000  1
