# generated using pymatgen
data_Sb2Os
_symmetry_space_group_name_H-M   'P 1'
_cell_length_a   3.25406600
_cell_length_b   6.01445800
_cell_length_c   6.76247100
_cell_angle_alpha   90.00000000
_cell_angle_beta   90.00000000
_cell_angle_gamma   90.00000000
_symmetry_Int_Tables_number   1
_chemical_formula_structural   Sb2Os
_chemical_formula_sum   'Sb4 Os2'
_cell_volume   132.35131765
_cell_formula_units_Z   2
loop_
 _symmetry_equiv_pos_site_id
 _symmetry_equiv_pos_as_xyz
  1  'x, y, z'
loop_
 _atom_site_type_symbol
 _atom_site_label
 _atom_site_symmetry_multiplicity
 _atom_site_fract_x
 _atom_site_fract_y
 _atom_site_fract_z
 _atom_site_occupancy
  Sb  Sb0  1  0.50000000  0.31813300  0.85764300  1
  Sb  Sb1  1  0.50000000  0.68186700  0.14235700  1
  Sb  Sb2  1  0.00000000  0.18186700  0.35764300  1
  Sb  Sb3  1  0.00000000  0.81813300  0.64235700  1
  Os  Os4  1  0.50000000  0.50000000  0.50000000  1
  Os  Os5  1  0.00000000  0.00000000  0.00000000  1
