# generated using pymatgen
data_RbScBP2HO9
_symmetry_space_group_name_H-M   'P 1'
_cell_length_a   5.39822500
_cell_length_b   8.51915859
_cell_length_c   8.51949869
_cell_angle_alpha   87.24846053
_cell_angle_beta   86.56336001
_cell_angle_gamma   80.29739867
_symmetry_Int_Tables_number   1
_chemical_formula_structural   RbScBP2HO9
_chemical_formula_sum   'Rb2 Sc2 B2 P4 H2 O18'
_cell_volume   385.21259454
_cell_formula_units_Z   2
loop_
 _symmetry_equiv_pos_site_id
 _symmetry_equiv_pos_as_xyz
  1  'x, y, z'
loop_
 _atom_site_type_symbol
 _atom_site_label
 _atom_site_symmetry_multiplicity
 _atom_site_fract_x
 _atom_site_fract_y
 _atom_site_fract_z
 _atom_site_occupancy
  Rb  Rb0  1  0.72121200  0.12225100  0.32649200  1
  Rb  Rb1  1  0.27878800  0.87774900  0.67350800  1
  Sc  Sc2  1  0.27944700  0.80137700  0.19198100  1
  Sc  Sc3  1  0.72055300  0.19862300  0.80801900  1
  B  B4  1  0.11581300  0.43869000  0.27545200  1
  B  B5  1  0.88418700  0.56131000  0.72454800  1
  P  P6  1  0.21145900  0.19496100  0.06212900  1
  P  P7  1  0.78854100  0.80503900  0.93787100  1
  P  P8  1  0.19122700  0.30530000  0.58293100  1
  P  P9  1  0.80877300  0.69470000  0.41706900  1
  H  H10  1  0.41550300  0.48310600  0.13388100  1
  H  H11  1  0.58449700  0.51689400  0.86611900  1
  O  O12  1  0.46036000  0.25000400  0.00167200  1
  O  O13  1  0.56441300  0.78734900  0.35502700  1
  O  O14  1  0.28464900  0.54399500  0.20112500  1
  O  O15  1  0.71535100  0.45600500  0.79887500  1
  O  O16  1  0.43558700  0.21265100  0.64497300  1
  O  O17  1  0.53964000  0.74999600  0.99832800  1
  O  O18  1  0.97242100  0.21027400  0.60420600  1
  O  O19  1  0.02757900  0.78972600  0.39579400  1
  O  O20  1  0.95218500  0.66796700  0.83962900  1
  O  O21  1  0.04781500  0.33203300  0.16037100  1
  O  O22  1  0.95285800  0.83590900  0.06878400  1
  O  O23  1  0.04714200  0.16409100  0.93121600  1
  O  O24  1  0.87834700  0.53135500  0.33503800  1
  O  O25  1  0.12165300  0.46864500  0.66496200  1
  O  O26  1  0.73020200  0.95343900  0.82507500  1
  O  O27  1  0.26979800  0.04656100  0.17492500  1
  O  O28  1  0.74740500  0.66004300  0.59626300  1
  O  O29  1  0.25259500  0.33995700  0.40373700  1
