# generated using pymatgen
data_Ba4Ti13O30
_symmetry_space_group_name_H-M   'P 1'
_cell_length_a   9.97681667
_cell_length_b   9.97681667
_cell_length_c   14.20742800
_cell_angle_alpha   90.00000000
_cell_angle_beta   90.00000000
_cell_angle_gamma   119.96590326
_symmetry_Int_Tables_number   1
_chemical_formula_structural   Ba4Ti13O30
_chemical_formula_sum   'Ba8 Ti26 O60'
_cell_volume   1225.12158653
_cell_formula_units_Z   2
loop_
 _symmetry_equiv_pos_site_id
 _symmetry_equiv_pos_as_xyz
  1  'x, y, z'
loop_
 _atom_site_type_symbol
 _atom_site_label
 _atom_site_symmetry_multiplicity
 _atom_site_fract_x
 _atom_site_fract_y
 _atom_site_fract_z
 _atom_site_occupancy
  Ba  Ba0  1  0.18478600  0.47837000  0.40966500  1
  Ba  Ba1  1  0.31521400  0.02163000  0.90966500  1
  Ba  Ba2  1  0.97837000  0.68478600  0.09033500  1
  Ba  Ba3  1  0.52163000  0.81521400  0.59033500  1
  Ba  Ba4  1  0.81521400  0.52163000  0.59033500  1
  Ba  Ba5  1  0.68478600  0.97837000  0.09033500  1
  Ba  Ba6  1  0.02163000  0.31521400  0.90966500  1
  Ba  Ba7  1  0.47837000  0.18478600  0.40966500  1
  Ti  Ti8  1  0.18397200  0.81602800  0.50000000  1
  Ti  Ti9  1  0.31602800  0.68397200  0.00000000  1
  Ti  Ti10  1  0.81602800  0.18397200  0.50000000  1
  Ti  Ti11  1  0.68397200  0.31602800  0.00000000  1
  Ti  Ti12  1  0.00000000  0.00000000  0.50000000  1
  Ti  Ti13  1  0.50000000  0.50000000  0.00000000  1
  Ti  Ti14  1  0.85174800  0.50122000  0.33549800  1
  Ti  Ti15  1  0.64825200  0.99878000  0.83549800  1
  Ti  Ti16  1  0.00122000  0.35174800  0.16450200  1
  Ti  Ti17  1  0.49878000  0.14825200  0.66450200  1
  Ti  Ti18  1  0.14825200  0.49878000  0.66450200  1
  Ti  Ti19  1  0.35174800  0.00122000  0.16450200  1
  Ti  Ti20  1  0.99878000  0.64825200  0.83549800  1
  Ti  Ti21  1  0.50122000  0.85174800  0.33549800  1
  Ti  Ti22  1  0.03645000  0.85307700  0.31922900  1
  Ti  Ti23  1  0.46355000  0.64692300  0.81922900  1
  Ti  Ti24  1  0.35307700  0.53645000  0.18077100  1
  Ti  Ti25  1  0.14692300  0.96355000  0.68077100  1
  Ti  Ti26  1  0.96355000  0.14692300  0.68077100  1
  Ti  Ti27  1  0.53645000  0.35307700  0.18077100  1
  Ti  Ti28  1  0.64692300  0.46355000  0.81922900  1
  Ti  Ti29  1  0.85307700  0.03645000  0.31922900  1
  Ti  Ti30  1  0.66291100  0.66291100  0.34740600  1
  Ti  Ti31  1  0.83708900  0.83708900  0.84740600  1
  Ti  Ti32  1  0.16291100  0.16291100  0.15259400  1
  Ti  Ti33  1  0.33708900  0.33708900  0.65259400  1
  O  O34  1  0.86052500  0.34957100  0.06844000  1
  O  O35  1  0.63947500  0.15042900  0.56844000  1
  O  O36  1  0.84957100  0.36052500  0.43156000  1
  O  O37  1  0.65042900  0.13947500  0.93156000  1
  O  O38  1  0.13947500  0.65042900  0.93156000  1
  O  O39  1  0.36052500  0.84957100  0.43156000  1
  O  O40  1  0.15042900  0.63947500  0.56844000  1
  O  O41  1  0.34957100  0.86052500  0.06844000  1
  O  O42  1  0.02976000  0.68538100  0.40523500  1
  O  O43  1  0.47024000  0.81461900  0.90523500  1
  O  O44  1  0.18538100  0.52976000  0.09476500  1
  O  O45  1  0.31461900  0.97024000  0.59476500  1
  O  O46  1  0.97024000  0.31461900  0.59476500  1
  O  O47  1  0.52976000  0.18538100  0.09476500  1
  O  O48  1  0.81461900  0.47024000  0.90523500  1
  O  O49  1  0.68538100  0.02976000  0.40523500  1
  O  O50  1  0.85991200  0.85991200  0.40427600  1
  O  O51  1  0.64008800  0.64008800  0.90427600  1
  O  O52  1  0.35991200  0.35991200  0.09572400  1
  O  O53  1  0.14008800  0.14008800  0.59572400  1
  O  O54  1  0.98841400  0.16292900  0.42443300  1
  O  O55  1  0.51158600  0.33707100  0.92443300  1
  O  O56  1  0.66292900  0.48841400  0.07556700  1
  O  O57  1  0.83707100  0.01158600  0.57556700  1
  O  O58  1  0.01158600  0.83707100  0.57556700  1
  O  O59  1  0.48841400  0.66292900  0.07556700  1
  O  O60  1  0.33707100  0.51158600  0.92443300  1
  O  O61  1  0.16292900  0.98841400  0.42443300  1
  O  O62  1  0.98783900  0.48783900  0.25000000  1
  O  O63  1  0.51216100  0.01216100  0.75000000  1
  O  O64  1  0.01216100  0.51216100  0.75000000  1
  O  O65  1  0.48783900  0.98783900  0.25000000  1
  O  O66  1  0.35662400  0.67344300  0.26600800  1
  O  O67  1  0.14337600  0.82655700  0.76600800  1
  O  O68  1  0.17344300  0.85662400  0.23399200  1
  O  O69  1  0.32655700  0.64337600  0.73399200  1
  O  O70  1  0.64337600  0.32655700  0.73399200  1
  O  O71  1  0.85662400  0.17344300  0.23399200  1
  O  O72  1  0.82655700  0.14337600  0.76600800  1
  O  O73  1  0.67344300  0.35662400  0.26600800  1
  O  O74  1  0.17993200  0.35402000  0.23276700  1
  O  O75  1  0.32006800  0.14598000  0.73276700  1
  O  O76  1  0.85402000  0.67993200  0.26723300  1
  O  O77  1  0.64598000  0.82006800  0.76723300  1
  O  O78  1  0.82006800  0.64598000  0.76723300  1
  O  O79  1  0.67993200  0.85402000  0.26723300  1
  O  O80  1  0.14598000  0.32006800  0.73276700  1
  O  O81  1  0.35402000  0.17993200  0.23276700  1
  O  O82  1  0.69282900  0.52559500  0.41675900  1
  O  O83  1  0.80717100  0.97440500  0.91675900  1
  O  O84  1  0.02559500  0.19282900  0.08324100  1
  O  O85  1  0.47440500  0.30717100  0.58324100  1
  O  O86  1  0.30717100  0.47440500  0.58324100  1
  O  O87  1  0.19282900  0.02559500  0.08324100  1
  O  O88  1  0.97440500  0.80717100  0.91675900  1
  O  O89  1  0.52559500  0.69282900  0.41675900  1
  O  O90  1  0.01833900  0.01833900  0.24946900  1
  O  O91  1  0.48166100  0.48166100  0.74946900  1
  O  O92  1  0.51833900  0.51833900  0.25053100  1
  O  O93  1  0.98166100  0.98166100  0.75053100  1
