# generated using pymatgen
data_K3CuO2
_symmetry_space_group_name_H-M   'P 1'
_cell_length_a   8.67369100
_cell_length_b   8.67369100
_cell_length_c   13.49690000
_cell_angle_alpha   90.00000000
_cell_angle_beta   90.00000000
_cell_angle_gamma   90.00000000
_symmetry_Int_Tables_number   1
_chemical_formula_structural   K3CuO2
_chemical_formula_sum   'K24 Cu8 O16'
_cell_volume   1015.41113807
_cell_formula_units_Z   8
loop_
 _symmetry_equiv_pos_site_id
 _symmetry_equiv_pos_as_xyz
  1  'x, y, z'
loop_
 _atom_site_type_symbol
 _atom_site_label
 _atom_site_symmetry_multiplicity
 _atom_site_fract_x
 _atom_site_fract_y
 _atom_site_fract_z
 _atom_site_occupancy
  K  K0  1  0.06393300  0.46518100  0.49866200  1
  K  K1  1  0.76495900  0.34597600  0.64267800  1
  K  K2  1  0.23504100  0.65402400  0.14267800  1
  K  K3  1  0.84597600  0.73504100  0.39267800  1
  K  K4  1  0.65402400  0.23504100  0.85732200  1
  K  K5  1  0.15402400  0.26495900  0.89267800  1
  K  K6  1  0.73504100  0.84597600  0.60732200  1
  K  K7  1  0.26495900  0.15402400  0.10732200  1
  K  K8  1  0.94367500  0.94367500  0.00000000  1
  K  K9  1  0.55632500  0.44367500  0.25000000  1
  K  K10  1  0.44367500  0.55632500  0.75000000  1
  K  K11  1  0.05632500  0.05632500  0.50000000  1
  K  K12  1  0.52436200  0.52436200  0.00000000  1
  K  K13  1  0.97563800  0.02436200  0.25000000  1
  K  K14  1  0.02436200  0.97563800  0.75000000  1
  K  K15  1  0.47563800  0.47563800  0.50000000  1
  K  K16  1  0.46518100  0.06393300  0.50133800  1
  K  K17  1  0.96518100  0.43606700  0.24866200  1
  K  K18  1  0.03481900  0.56393300  0.74866200  1
  K  K19  1  0.43606700  0.96518100  0.75133800  1
  K  K20  1  0.56393300  0.03481900  0.25133800  1
  K  K21  1  0.53481900  0.93606700  0.00133800  1
  K  K22  1  0.34597600  0.76495900  0.35732200  1
  K  K23  1  0.93606700  0.53481900  0.99866200  1
  Cu  Cu24  1  0.73571900  0.73604100  0.16574200  1
  Cu  Cu25  1  0.26428100  0.26395900  0.66574200  1
  Cu  Cu26  1  0.73604100  0.73571900  0.83425800  1
  Cu  Cu27  1  0.23604100  0.76428100  0.91574200  1
  Cu  Cu28  1  0.76395900  0.23571900  0.41574200  1
  Cu  Cu29  1  0.76428100  0.23604100  0.08425800  1
  Cu  Cu30  1  0.23571900  0.76395900  0.58425800  1
  Cu  Cu31  1  0.26395900  0.26428100  0.33425800  1
  O  O32  1  0.76300100  0.02581700  0.41682300  1
  O  O33  1  0.23699900  0.97418300  0.91682300  1
  O  O34  1  0.02581700  0.76300100  0.58317700  1
  O  O35  1  0.52581700  0.73699900  0.16682300  1
  O  O36  1  0.47418300  0.26300100  0.66682300  1
  O  O37  1  0.73699900  0.52581700  0.83317700  1
  O  O38  1  0.26300100  0.47418300  0.33317700  1
  O  O39  1  0.97418300  0.23699900  0.08317700  1
  O  O40  1  0.76732900  0.44505800  0.42021100  1
  O  O41  1  0.26732900  0.05494200  0.32978900  1
  O  O42  1  0.73267100  0.94505800  0.82978900  1
  O  O43  1  0.05494200  0.26732900  0.67021100  1
  O  O44  1  0.94505800  0.73267100  0.17021100  1
  O  O45  1  0.23267100  0.55494200  0.92021100  1
  O  O46  1  0.44505800  0.76732900  0.57978900  1
  O  O47  1  0.55494200  0.23267100  0.07978900  1
