# generated using pymatgen
data_Sr(NiP)2
_symmetry_space_group_name_H-M   'P 1'
_cell_length_a   8.17518220
_cell_length_b   8.17518220
_cell_length_c   8.17518220
_cell_angle_alpha   152.03656995
_cell_angle_beta   99.60521542
_cell_angle_gamma   87.12796038
_symmetry_Int_Tables_number   1
_chemical_formula_structural   Sr(NiP)2
_chemical_formula_sum   'Sr3 Ni6 P6'
_cell_volume   246.95458480
_cell_formula_units_Z   3
loop_
 _symmetry_equiv_pos_site_id
 _symmetry_equiv_pos_as_xyz
  1  'x, y, z'
loop_
 _atom_site_type_symbol
 _atom_site_label
 _atom_site_symmetry_multiplicity
 _atom_site_fract_x
 _atom_site_fract_y
 _atom_site_fract_z
 _atom_site_occupancy
  Sr  Sr0  1  0.31654800  0.31654800  0.00000000  1
  Sr  Sr1  1  0.68345200  0.68345200  0.00000000  1
  Sr  Sr2  1  0.00000000  0.00000000  0.00000000  1
  Ni  Ni3  1  0.58255900  0.84335000  0.73920800  1
  Ni  Ni4  1  0.27065800  0.50000000  0.77065800  1
  Ni  Ni5  1  0.72934200  0.50000000  0.22934200  1
  Ni  Ni6  1  0.10414200  0.84335000  0.26079200  1
  Ni  Ni7  1  0.41744100  0.15665000  0.26079200  1
  Ni  Ni8  1  0.89585800  0.15665000  0.73920800  1
  P  P9  1  0.32363600  0.66440400  0.65923200  1
  P  P10  1  0.67636400  0.33559600  0.34076800  1
  P  P11  1  0.99482800  0.33559600  0.65923200  1
  P  P12  1  0.38113100  0.00000000  0.38113100  1
  P  P13  1  0.00517200  0.66440400  0.34076800  1
  P  P14  1  0.61886900  0.00000000  0.61886900  1
