# generated using pymatgen
data_K2In12Se19
_symmetry_space_group_name_H-M   'P 1'
_cell_length_a   14.59434951
_cell_length_b   14.59434951
_cell_length_c   14.59434913
_cell_angle_alpha   58.33885955
_cell_angle_beta   58.33885955
_cell_angle_gamma   58.33885893
_symmetry_Int_Tables_number   1
_chemical_formula_structural   K2In12Se19
_chemical_formula_sum   'K4 In24 Se38'
_cell_volume   2114.45701539
_cell_formula_units_Z   2
loop_
 _symmetry_equiv_pos_site_id
 _symmetry_equiv_pos_as_xyz
  1  'x, y, z'
loop_
 _atom_site_type_symbol
 _atom_site_label
 _atom_site_symmetry_multiplicity
 _atom_site_fract_x
 _atom_site_fract_y
 _atom_site_fract_z
 _atom_site_occupancy
  K  K0  1  0.58666800  0.58666800  0.58666800  1
  K  K1  1  0.41333200  0.41333200  0.41333200  1
  K  K2  1  0.07877500  0.07877500  0.07877500  1
  K  K3  1  0.92122500  0.92122500  0.92122500  1
  In  In4  1  0.32356500  0.80160300  0.89705000  1
  In  In5  1  0.89705000  0.32356500  0.80160300  1
  In  In6  1  0.80160300  0.89705000  0.32356500  1
  In  In7  1  0.67643500  0.19839700  0.10295000  1
  In  In8  1  0.10295000  0.67643500  0.19839700  1
  In  In9  1  0.19839700  0.10295000  0.67643500  1
  In  In10  1  0.82423200  0.30831400  0.39865100  1
  In  In11  1  0.39865100  0.82423200  0.30831400  1
  In  In12  1  0.30831400  0.39865100  0.82423200  1
  In  In13  1  0.17576800  0.69168600  0.60134900  1
  In  In14  1  0.60134900  0.17576800  0.69168600  1
  In  In15  1  0.69168600  0.60134900  0.17576800  1
  In  In16  1  0.63709300  0.60269600  0.90897000  1
  In  In17  1  0.90897000  0.63709300  0.60269600  1
  In  In18  1  0.60269600  0.90897000  0.63709300  1
  In  In19  1  0.36290700  0.39730400  0.09103000  1
  In  In20  1  0.09103000  0.36290700  0.39730400  1
  In  In21  1  0.39730400  0.09103000  0.36290700  1
  In  In22  1  0.50043700  0.89857700  0.96327600  1
  In  In23  1  0.96327600  0.50043700  0.89857700  1
  In  In24  1  0.89857700  0.96327600  0.50043700  1
  In  In25  1  0.49956300  0.10142300  0.03672400  1
  In  In26  1  0.03672400  0.49956300  0.10142300  1
  In  In27  1  0.10142300  0.03672400  0.49956300  1
  Se  Se28  1  0.24898600  0.24898600  0.24898600  1
  Se  Se29  1  0.75101400  0.75101400  0.75101400  1
  Se  Se30  1  0.10541800  0.22765800  0.80079300  1
  Se  Se31  1  0.80079300  0.10541800  0.22765800  1
  Se  Se32  1  0.22765800  0.80079300  0.10541800  1
  Se  Se33  1  0.89458200  0.77234200  0.19920700  1
  Se  Se34  1  0.19920700  0.89458200  0.77234200  1
  Se  Se35  1  0.77234200  0.19920700  0.89458200  1
  Se  Se36  1  0.61246500  0.73150300  0.28885900  1
  Se  Se37  1  0.28885900  0.61246500  0.73150300  1
  Se  Se38  1  0.73150300  0.28885900  0.61246500  1
  Se  Se39  1  0.38753500  0.26849700  0.71114100  1
  Se  Se40  1  0.71114100  0.38753500  0.26849700  1
  Se  Se41  1  0.26849700  0.71114100  0.38753500  1
  Se  Se42  1  0.61997900  0.84757100  0.49159500  1
  Se  Se43  1  0.49159500  0.61997900  0.84757100  1
  Se  Se44  1  0.84757100  0.49159500  0.61997900  1
  Se  Se45  1  0.38002100  0.15242900  0.50840500  1
  Se  Se46  1  0.50840500  0.38002100  0.15242900  1
  Se  Se47  1  0.15242900  0.50840500  0.38002100  1
  Se  Se48  1  0.11971900  0.34809000  0.00286300  1
  Se  Se49  1  0.00286300  0.11971900  0.34809000  1
  Se  Se50  1  0.34809000  0.00286300  0.11971900  1
  Se  Se51  1  0.88028100  0.65191000  0.99713700  1
  Se  Se52  1  0.99713700  0.88028100  0.65191000  1
  Se  Se53  1  0.65191000  0.99713700  0.88028100  1
  Se  Se54  1  0.41518100  0.96644200  0.80811700  1
  Se  Se55  1  0.80811700  0.41518100  0.96644200  1
  Se  Se56  1  0.96644200  0.80811700  0.41518100  1
  Se  Se57  1  0.58481900  0.03355800  0.19188300  1
  Se  Se58  1  0.19188300  0.58481900  0.03355800  1
  Se  Se59  1  0.03355800  0.19188300  0.58481900  1
  Se  Se60  1  0.91654700  0.46520200  0.32022800  1
  Se  Se61  1  0.32022800  0.91654700  0.46520200  1
  Se  Se62  1  0.46520200  0.32022800  0.91654700  1
  Se  Se63  1  0.08345300  0.53479800  0.67977200  1
  Se  Se64  1  0.67977200  0.08345300  0.53479800  1
  Se  Se65  1  0.53479800  0.67977200  0.08345300  1
