# generated using pymatgen
data_Y6UO12
_symmetry_space_group_name_H-M   'P 1'
_cell_length_a   6.59690851
_cell_length_b   6.59690851
_cell_length_c   6.59690835
_cell_angle_alpha   99.02344701
_cell_angle_beta   99.02344701
_cell_angle_gamma   99.02344380
_symmetry_Int_Tables_number   1
_chemical_formula_structural   Y6UO12
_chemical_formula_sum   'Y6 U1 O12'
_cell_volume   275.14292633
_cell_formula_units_Z   1
loop_
 _symmetry_equiv_pos_site_id
 _symmetry_equiv_pos_as_xyz
  1  'x, y, z'
loop_
 _atom_site_type_symbol
 _atom_site_label
 _atom_site_symmetry_multiplicity
 _atom_site_fract_x
 _atom_site_fract_y
 _atom_site_fract_z
 _atom_site_occupancy
  Y  Y0  1  0.39035700  0.67795500  0.85487700  1
  Y  Y1  1  0.85487700  0.39035700  0.67795500  1
  Y  Y2  1  0.67795500  0.85487700  0.39035700  1
  Y  Y3  1  0.60964300  0.32204500  0.14512300  1
  Y  Y4  1  0.14512300  0.60964300  0.32204500  1
  Y  Y5  1  0.32204500  0.14512300  0.60964300  1
  U  U6  1  0.00000000  0.00000000  0.00000000  1
  O  O7  1  0.17753200  0.42731000  0.58836400  1
  O  O8  1  0.58836400  0.17753200  0.42731000  1
  O  O9  1  0.42731000  0.58836400  0.17753200  1
  O  O10  1  0.82246800  0.57269000  0.41163600  1
  O  O11  1  0.41163600  0.82246800  0.57269000  1
  O  O12  1  0.57269000  0.41163600  0.82246800  1
  O  O13  1  0.91926400  0.04675000  0.69247700  1
  O  O14  1  0.95325000  0.30752300  0.08073600  1
  O  O15  1  0.30752300  0.08073600  0.95325000  1
  O  O16  1  0.08073600  0.95325000  0.30752300  1
  O  O17  1  0.04675000  0.69247700  0.91926400  1
  O  O18  1  0.69247700  0.91926400  0.04675000  1
