# generated using pymatgen
data_Ba3Te4O11
_symmetry_space_group_name_H-M   'P 1'
_cell_length_a   8.15054800
_cell_length_b   9.61008763
_cell_length_c   10.25161301
_cell_angle_alpha   97.97682680
_cell_angle_beta   111.40976336
_cell_angle_gamma   102.67517426
_symmetry_Int_Tables_number   1
_chemical_formula_structural   Ba3Te4O11
_chemical_formula_sum   'Ba6 Te8 O22'
_cell_volume   707.86221077
_cell_formula_units_Z   2
loop_
 _symmetry_equiv_pos_site_id
 _symmetry_equiv_pos_as_xyz
  1  'x, y, z'
loop_
 _atom_site_type_symbol
 _atom_site_label
 _atom_site_symmetry_multiplicity
 _atom_site_fract_x
 _atom_site_fract_y
 _atom_site_fract_z
 _atom_site_occupancy
  Ba  Ba0  1  0.31076300  0.01546200  0.11463300  1
  Ba  Ba1  1  0.68923700  0.98453800  0.88536700  1
  Ba  Ba2  1  0.14459100  0.40710900  0.17768500  1
  Ba  Ba3  1  0.85540900  0.59289100  0.82231500  1
  Ba  Ba4  1  0.71915600  0.45796600  0.37033000  1
  Ba  Ba5  1  0.28084400  0.54203400  0.62967000  1
  Te  Te6  1  0.44075600  0.19594400  0.53759000  1
  Te  Te7  1  0.55924400  0.80405600  0.46241000  1
  Te  Te8  1  0.94612900  0.24335000  0.71879500  1
  Te  Te9  1  0.05387100  0.75665000  0.28120500  1
  Te  Te10  1  0.46512600  0.30600900  0.94115300  1
  Te  Te11  1  0.53487400  0.69399100  0.05884700  1
  Te  Te12  1  0.07406100  0.87923000  0.70452700  1
  Te  Te13  1  0.92593900  0.12077000  0.29547300  1
  O  O14  1  0.84975900  0.72568300  0.58484500  1
  O  O15  1  0.15024100  0.27431700  0.41515500  1
  O  O16  1  0.20252400  0.75759600  0.80206500  1
  O  O17  1  0.79747600  0.24240400  0.19793500  1
  O  O18  1  0.99602100  0.94363200  0.84932500  1
  O  O19  1  0.00397900  0.05636800  0.15067500  1
  O  O20  1  0.60058600  0.68763900  0.90014200  1
  O  O21  1  0.39941400  0.31236100  0.09985800  1
  O  O22  1  0.59648900  0.89980600  0.12365600  1
  O  O23  1  0.40351100  0.10019400  0.87634400  1
  O  O24  1  0.74111800  0.64796700  0.18899100  1
  O  O25  1  0.25888200  0.35203300  0.81100900  1
  O  O26  1  0.06841700  0.59882100  0.37108000  1
  O  O27  1  0.93158300  0.40117900  0.62892000  1
  O  O28  1  0.48211300  0.21348200  0.37220200  1
  O  O29  1  0.51788700  0.78651800  0.62779800  1
  O  O30  1  0.53594300  0.39342800  0.64341400  1
  O  O31  1  0.46405700  0.60657200  0.35658600  1
  O  O32  1  0.66728000  0.13442100  0.63817900  1
  O  O33  1  0.33272000  0.86557900  0.36182100  1
  O  O34  1  0.93878400  0.32703000  0.89289600  1
  O  O35  1  0.06121600  0.67297000  0.10710400  1
