# generated using pymatgen
data_NaMn3P3(HO6)2
_symmetry_space_group_name_H-M   'P 1'
_cell_length_a   8.78098572
_cell_length_b   8.78098572
_cell_length_c   6.74816483
_cell_angle_alpha   73.04241877
_cell_angle_beta   73.04241877
_cell_angle_gamma   91.12373272
_symmetry_Int_Tables_number   1
_chemical_formula_structural   NaMn3P3(HO6)2
_chemical_formula_sum   'Na2 Mn6 P6 H4 O24'
_cell_volume   472.93335834
_cell_formula_units_Z   2
loop_
 _symmetry_equiv_pos_site_id
 _symmetry_equiv_pos_as_xyz
  1  'x, y, z'
loop_
 _atom_site_type_symbol
 _atom_site_label
 _atom_site_symmetry_multiplicity
 _atom_site_fract_x
 _atom_site_fract_y
 _atom_site_fract_z
 _atom_site_occupancy
  Na  Na0  1  0.97686800  0.02313200  0.75000000  1
  Na  Na1  1  0.02313200  0.97686800  0.25000000  1
  Mn  Mn2  1  0.62671100  0.94955000  0.12796200  1
  Mn  Mn3  1  0.05045000  0.37328900  0.37203800  1
  Mn  Mn4  1  0.28308300  0.71691700  0.75000000  1
  Mn  Mn5  1  0.71691700  0.28308300  0.25000000  1
  Mn  Mn6  1  0.37328900  0.05045000  0.87203800  1
  Mn  Mn7  1  0.94955000  0.62671100  0.62796200  1
  P  P8  1  0.32320200  0.10346300  0.38856200  1
  P  P9  1  0.10346300  0.32320200  0.88856200  1
  P  P10  1  0.67857500  0.32142500  0.75000000  1
  P  P11  1  0.32142500  0.67857500  0.25000000  1
  P  P12  1  0.89653700  0.67679800  0.11143800  1
  P  P13  1  0.67679800  0.89653700  0.61143800  1
  H  H14  1  0.37071200  0.38171500  0.81154200  1
  H  H15  1  0.61828500  0.62928800  0.68845800  1
  H  H16  1  0.62928800  0.61828500  0.18845800  1
  H  H17  1  0.38171500  0.37071200  0.31154200  1
  O  O18  1  0.56217900  0.73729900  0.65299700  1
  O  O19  1  0.84760800  0.85190000  0.59734900  1
  O  O20  1  0.85190000  0.84760800  0.09734900  1
  O  O21  1  0.15239200  0.14810000  0.40265100  1
  O  O22  1  0.60943200  0.96372600  0.80122200  1
  O  O23  1  0.03627400  0.39056800  0.69877800  1
  O  O24  1  0.39056800  0.03627400  0.19877800  1
  O  O25  1  0.96372600  0.60943200  0.30122200  1
  O  O26  1  0.26270100  0.43782100  0.84700300  1
  O  O27  1  0.14810000  0.15239200  0.90265100  1
  O  O28  1  0.78668700  0.28618200  0.54230800  1
  O  O29  1  0.71381800  0.21331300  0.95769200  1
  O  O30  1  0.21331300  0.71381800  0.45769200  1
  O  O31  1  0.28618200  0.78668700  0.04230800  1
  O  O32  1  0.28910300  0.49977400  0.26497300  1
  O  O33  1  0.50022600  0.71089700  0.23502700  1
  O  O34  1  0.71089700  0.50022600  0.73502700  1
  O  O35  1  0.73729900  0.56217900  0.15299700  1
  O  O36  1  0.98272100  0.32319900  0.10785200  1
  O  O37  1  0.67680100  0.01727900  0.39214800  1
  O  O38  1  0.01727900  0.67680100  0.89214800  1
  O  O39  1  0.32319900  0.98272100  0.60785200  1
  O  O40  1  0.43782100  0.26270100  0.34700300  1
  O  O41  1  0.49977400  0.28910300  0.76497300  1
