# generated using pymatgen
data_Be2BHO4
_symmetry_space_group_name_H-M   'P 1'
_cell_length_a   4.45860100
_cell_length_b   9.89123700
_cell_length_c   12.23226800
_cell_angle_alpha   90.00000000
_cell_angle_beta   90.00000000
_cell_angle_gamma   90.00000000
_symmetry_Int_Tables_number   1
_chemical_formula_structural   Be2BHO4
_chemical_formula_sum   'Be16 B8 H8 O32'
_cell_volume   539.45621961
_cell_formula_units_Z   8
loop_
 _symmetry_equiv_pos_site_id
 _symmetry_equiv_pos_as_xyz
  1  'x, y, z'
loop_
 _atom_site_type_symbol
 _atom_site_label
 _atom_site_symmetry_multiplicity
 _atom_site_fract_x
 _atom_site_fract_y
 _atom_site_fract_z
 _atom_site_occupancy
  Be  Be0  1  0.27599700  0.23763500  0.06834800  1
  Be  Be1  1  0.77599700  0.26236500  0.93165200  1
  Be  Be2  1  0.72400300  0.73763500  0.43165200  1
  Be  Be3  1  0.75945300  0.00284100  0.31100300  1
  Be  Be4  1  0.72400300  0.76236500  0.93165200  1
  Be  Be5  1  0.22400300  0.73763500  0.06834800  1
  Be  Be6  1  0.27599700  0.26236500  0.56834800  1
  Be  Be7  1  0.77599700  0.23763500  0.43165200  1
  Be  Be8  1  0.25945300  0.49715900  0.68899700  1
  Be  Be9  1  0.24054700  0.50284100  0.18899700  1
  Be  Be10  1  0.74054700  0.99715900  0.81100300  1
  Be  Be11  1  0.24054700  0.99715900  0.68899700  1
  Be  Be12  1  0.74054700  0.50284100  0.31100300  1
  Be  Be13  1  0.75945300  0.49715900  0.81100300  1
  Be  Be14  1  0.22400300  0.76236500  0.56834800  1
  Be  Be15  1  0.25945300  0.00284100  0.18899700  1
  B  B16  1  0.27222000  0.10733600  0.39258900  1
  B  B17  1  0.77222000  0.10733600  0.10741100  1
  B  B18  1  0.27222000  0.39266400  0.89258900  1
  B  B19  1  0.22778000  0.60733600  0.39258900  1
  B  B20  1  0.72778000  0.89266400  0.60741100  1
  B  B21  1  0.22778000  0.89266400  0.89258900  1
  B  B22  1  0.72778000  0.60733600  0.10741100  1
  B  B23  1  0.77222000  0.39266400  0.60741100  1
  H  H24  1  0.96180500  0.31683100  0.27654400  1
  H  H25  1  0.96180500  0.18316900  0.77654400  1
  H  H26  1  0.53819500  0.81683100  0.27654400  1
  H  H27  1  0.03819500  0.68316900  0.72345600  1
  H  H28  1  0.53819500  0.68316900  0.77654400  1
  H  H29  1  0.03819500  0.81683100  0.22345600  1
  H  H30  1  0.46180500  0.18316900  0.72345600  1
  H  H31  1  0.46180500  0.31683100  0.22345600  1
  O  O32  1  0.61754000  0.03766100  0.18744700  1
  O  O33  1  0.58138800  0.39786500  0.89624700  1
  O  O34  1  0.91861200  0.60213500  0.39624700  1
  O  O35  1  0.41861200  0.89786500  0.60375300  1
  O  O36  1  0.91861200  0.89786500  0.89624700  1
  O  O37  1  0.41861200  0.60213500  0.10375300  1
  O  O38  1  0.08138800  0.39786500  0.60375300  1
  O  O39  1  0.58138800  0.10213500  0.39624700  1
  O  O40  1  0.61658100  0.18833800  0.03508400  1
  O  O41  1  0.11658100  0.31166200  0.96491600  1
  O  O42  1  0.38341900  0.68833800  0.46491600  1
  O  O43  1  0.88341900  0.81166200  0.53508400  1
  O  O44  1  0.08138800  0.10213500  0.10375300  1
  O  O45  1  0.88341900  0.68833800  0.03508400  1
  O  O46  1  0.61658100  0.31166200  0.53508400  1
  O  O47  1  0.11658100  0.18833800  0.46491600  1
  O  O48  1  0.38341900  0.81166200  0.96491600  1
  O  O49  1  0.79348300  0.15984100  0.82540300  1
  O  O50  1  0.70651700  0.84015900  0.32540300  1
  O  O51  1  0.20651700  0.65984100  0.67459700  1
  O  O52  1  0.70651700  0.65984100  0.82540300  1
  O  O53  1  0.20651700  0.84015900  0.17459700  1
  O  O54  1  0.29348300  0.15984100  0.67459700  1
  O  O55  1  0.79348300  0.34015900  0.32540300  1
  O  O56  1  0.11754000  0.03766100  0.31255300  1
  O  O57  1  0.61754000  0.46233900  0.68744700  1
  O  O58  1  0.88246000  0.53766100  0.18744700  1
  O  O59  1  0.38246000  0.96233900  0.81255300  1
  O  O60  1  0.88246000  0.96233900  0.68744700  1
  O  O61  1  0.38246000  0.53766100  0.31255300  1
  O  O62  1  0.11754000  0.46233900  0.81255300  1
  O  O63  1  0.29348300  0.34015900  0.17459700  1
