# generated using pymatgen
data_RbP(HO)2
_symmetry_space_group_name_H-M   'P 1'
_cell_length_a   6.45224800
_cell_length_b   7.72029000
_cell_length_c   8.27422300
_cell_angle_alpha   90.00000000
_cell_angle_beta   90.00000000
_cell_angle_gamma   90.00000000
_symmetry_Int_Tables_number   1
_chemical_formula_structural   RbP(HO)2
_chemical_formula_sum   'Rb4 P4 H8 O8'
_cell_volume   412.16573789
_cell_formula_units_Z   4
loop_
 _symmetry_equiv_pos_site_id
 _symmetry_equiv_pos_as_xyz
  1  'x, y, z'
loop_
 _atom_site_type_symbol
 _atom_site_label
 _atom_site_symmetry_multiplicity
 _atom_site_fract_x
 _atom_site_fract_y
 _atom_site_fract_z
 _atom_site_occupancy
  Rb  Rb0  1  0.25000000  0.36113100  0.13148400  1
  Rb  Rb1  1  0.75000000  0.63886900  0.86851600  1
  Rb  Rb2  1  0.75000000  0.86113100  0.36851600  1
  Rb  Rb3  1  0.25000000  0.13886900  0.63148400  1
  P  P4  1  0.75000000  0.17449300  0.87854700  1
  P  P5  1  0.25000000  0.82550700  0.12145300  1
  P  P6  1  0.25000000  0.67449300  0.62145300  1
  P  P7  1  0.75000000  0.32550700  0.37854700  1
  H  H8  1  0.75000000  0.05908800  0.74304300  1
  H  H9  1  0.25000000  0.94091200  0.25695700  1
  H  H10  1  0.25000000  0.55908800  0.75695700  1
  H  H11  1  0.75000000  0.44091200  0.24304300  1
  H  H12  1  0.75000000  0.05441200  0.01029500  1
  H  H13  1  0.25000000  0.94558800  0.98970500  1
  H  H14  1  0.25000000  0.55441200  0.48970500  1
  H  H15  1  0.75000000  0.44558800  0.51029500  1
  O  O16  1  0.54701100  0.22576300  0.37922900  1
  O  O17  1  0.04701100  0.77423700  0.62077100  1
  O  O18  1  0.45298900  0.72576300  0.12077100  1
  O  O19  1  0.95298900  0.27423700  0.87922900  1
  O  O20  1  0.45298900  0.77423700  0.62077100  1
  O  O21  1  0.95298900  0.22576300  0.37922900  1
  O  O22  1  0.54701100  0.27423700  0.87922900  1
  O  O23  1  0.04701100  0.72576300  0.12077100  1
