# generated using pymatgen
data_K2Mo2O7
_symmetry_space_group_name_H-M   'P 1'
_cell_length_a   7.11075900
_cell_length_b   7.42397523
_cell_length_c   7.74443418
_cell_angle_alpha   81.66315269
_cell_angle_beta   68.97003379
_cell_angle_gamma   85.90673355
_symmetry_Int_Tables_number   1
_chemical_formula_structural   K2Mo2O7
_chemical_formula_sum   'K4 Mo4 O14'
_cell_volume   377.48316781
_cell_formula_units_Z   2
loop_
 _symmetry_equiv_pos_site_id
 _symmetry_equiv_pos_as_xyz
  1  'x, y, z'
loop_
 _atom_site_type_symbol
 _atom_site_label
 _atom_site_symmetry_multiplicity
 _atom_site_fract_x
 _atom_site_fract_y
 _atom_site_fract_z
 _atom_site_occupancy
  K  K0  1  0.69425300  0.83711800  0.84053200  1
  K  K1  1  0.30574700  0.16288200  0.15946800  1
  K  K2  1  0.75438000  0.37942800  0.56500600  1
  K  K3  1  0.24562000  0.62057200  0.43499400  1
  Mo  Mo4  1  0.24088800  0.09069500  0.69868700  1
  Mo  Mo5  1  0.75911200  0.90930500  0.30131300  1
  Mo  Mo6  1  0.17018300  0.65005200  0.94595000  1
  Mo  Mo7  1  0.82981700  0.34994800  0.05405000  1
  O  O8  1  0.50311100  0.09431200  0.65579400  1
  O  O9  1  0.49688900  0.90568800  0.34420600  1
  O  O10  1  0.94009100  0.53536100  0.86054000  1
  O  O11  1  0.05990900  0.46463900  0.13946000  1
  O  O12  1  0.11747200  0.18763700  0.91044700  1
  O  O13  1  0.88252800  0.81236300  0.08955300  1
  O  O14  1  0.82610100  0.77037500  0.47828400  1
  O  O15  1  0.17389900  0.22962500  0.52171600  1
  O  O16  1  0.85145700  0.14661000  0.26525000  1
  O  O17  1  0.14854300  0.85339000  0.73475000  1
  O  O18  1  0.28809900  0.78517500  0.04772500  1
  O  O19  1  0.71190100  0.21482500  0.95227500  1
  O  O20  1  0.62298200  0.45735200  0.21062100  1
  O  O21  1  0.37701800  0.54264800  0.78937900  1
