# generated using pymatgen
data_Dy(MnGe)2
_symmetry_space_group_name_H-M   'P 1'
_cell_length_a   6.10424624
_cell_length_b   6.10424624
_cell_length_c   6.10424624
_cell_angle_alpha   142.34911450
_cell_angle_beta   142.34911450
_cell_angle_gamma   54.30326751
_symmetry_Int_Tables_number   1
_chemical_formula_structural   Dy(MnGe)2
_chemical_formula_sum   'Dy1 Mn2 Ge2'
_cell_volume   84.29654898
_cell_formula_units_Z   1
loop_
 _symmetry_equiv_pos_site_id
 _symmetry_equiv_pos_as_xyz
  1  'x, y, z'
loop_
 _atom_site_type_symbol
 _atom_site_label
 _atom_site_symmetry_multiplicity
 _atom_site_fract_x
 _atom_site_fract_y
 _atom_site_fract_z
 _atom_site_occupancy
  Dy  Dy0  1  0.00000000  0.00000000  0.00000000  1
  Mn  Mn1  1  0.75000000  0.25000000  0.50000000  1
  Mn  Mn2  1  0.25000000  0.75000000  0.50000000  1
  Ge  Ge3  1  0.61921100  0.61921100  0.00000000  1
  Ge  Ge4  1  0.38078900  0.38078900  0.00000000  1
