# generated using pymatgen
data_B(HO)3
_symmetry_space_group_name_H-M   'P 1'
_cell_length_a   6.88106500
_cell_length_b   6.96595027
_cell_length_c   6.97202322
_cell_angle_alpha   60.06222878
_cell_angle_beta   77.00626626
_cell_angle_gamma   79.51184160
_symmetry_Int_Tables_number   1
_chemical_formula_structural   B(HO)3
_chemical_formula_sum   'B4 H12 O12'
_cell_volume   281.21760133
_cell_formula_units_Z   4
loop_
 _symmetry_equiv_pos_site_id
 _symmetry_equiv_pos_as_xyz
  1  'x, y, z'
loop_
 _atom_site_type_symbol
 _atom_site_label
 _atom_site_symmetry_multiplicity
 _atom_site_fract_x
 _atom_site_fract_y
 _atom_site_fract_z
 _atom_site_occupancy
  B  B0  1  0.75678800  0.55256300  0.75760400  1
  B  B1  1  0.24321200  0.44743700  0.24239600  1
  B  B2  1  0.25644900  0.77926900  0.57381600  1
  B  B3  1  0.74355100  0.22073100  0.42618400  1
  H  H4  1  0.75770900  0.24490900  0.02382900  1
  H  H5  1  0.25529800  0.04585500  0.61594300  1
  H  H6  1  0.74470200  0.95414500  0.38405700  1
  H  H7  1  0.24847300  0.47199300  0.84208700  1
  H  H8  1  0.24229100  0.75509100  0.97617100  1
  H  H9  1  0.75371900  0.59416000  0.45001900  1
  H  H10  1  0.24628100  0.40584000  0.54998100  1
  H  H11  1  0.74476200  0.82071100  0.80084000  1
  H  H12  1  0.25523800  0.17928900  0.19916000  1
  H  H13  1  0.74884000  0.17977800  0.73266800  1
  H  H14  1  0.25116000  0.82022200  0.26733200  1
  H  H15  1  0.75152700  0.52800700  0.15791300  1
  O  O16  1  0.76412200  0.32439700  0.85668700  1
  O  O17  1  0.75347400  0.68006600  0.53064500  1
  O  O18  1  0.24652600  0.31993400  0.46935500  1
  O  O19  1  0.75136100  0.65385200  0.88552100  1
  O  O20  1  0.24863900  0.34614800  0.11447900  1
  O  O21  1  0.74048700  0.09445000  0.65402100  1
  O  O22  1  0.25951300  0.90555000  0.34597900  1
  O  O23  1  0.74973200  0.44801100  0.32442800  1
  O  O24  1  0.25026800  0.55198900  0.67557200  1
  O  O25  1  0.74194400  0.12066000  0.29902600  1
  O  O26  1  0.25805600  0.87934000  0.70097400  1
  O  O27  1  0.23587800  0.67560300  0.14331300  1
