# generated using pymatgen
data_Na4Cd3Se5
_symmetry_space_group_name_H-M   'P 1'
_cell_length_a   4.31451800
_cell_length_b   14.29013500
_cell_length_c   20.50362600
_cell_angle_alpha   90.00000000
_cell_angle_beta   90.00000000
_cell_angle_gamma   90.00000000
_symmetry_Int_Tables_number   1
_chemical_formula_structural   Na4Cd3Se5
_chemical_formula_sum   'Na16 Cd12 Se20'
_cell_volume   1264.15197713
_cell_formula_units_Z   4
loop_
 _symmetry_equiv_pos_site_id
 _symmetry_equiv_pos_as_xyz
  1  'x, y, z'
loop_
 _atom_site_type_symbol
 _atom_site_label
 _atom_site_symmetry_multiplicity
 _atom_site_fract_x
 _atom_site_fract_y
 _atom_site_fract_z
 _atom_site_occupancy
  Na  Na0  1  0.25000000  0.27601600  0.83387300  1
  Na  Na1  1  0.75000000  0.72398400  0.16612700  1
  Na  Na2  1  0.25000000  0.77601600  0.66612700  1
  Na  Na3  1  0.75000000  0.22398400  0.33387300  1
  Na  Na4  1  0.25000000  0.11160300  0.94807800  1
  Na  Na5  1  0.75000000  0.88839700  0.05192200  1
  Na  Na6  1  0.25000000  0.61160300  0.55192200  1
  Na  Na7  1  0.75000000  0.38839700  0.44807800  1
  Na  Na8  1  0.25000000  0.00695100  0.41854100  1
  Na  Na9  1  0.75000000  0.99304900  0.58145900  1
  Na  Na10  1  0.25000000  0.50695100  0.08145900  1
  Na  Na11  1  0.75000000  0.49304900  0.91854100  1
  Na  Na12  1  0.25000000  0.50114100  0.73308500  1
  Na  Na13  1  0.75000000  0.49885900  0.26691500  1
  Na  Na14  1  0.25000000  0.00114100  0.76691500  1
  Na  Na15  1  0.75000000  0.99885900  0.23308500  1
  Cd  Cd16  1  0.25000000  0.57573200  0.36997800  1
  Cd  Cd17  1  0.75000000  0.42426800  0.63002200  1
  Cd  Cd18  1  0.25000000  0.07573200  0.13002200  1
  Cd  Cd19  1  0.75000000  0.92426800  0.86997800  1
  Cd  Cd20  1  0.25000000  0.31715800  0.21696200  1
  Cd  Cd21  1  0.75000000  0.68284200  0.78303800  1
  Cd  Cd22  1  0.25000000  0.81715800  0.28303800  1
  Cd  Cd23  1  0.75000000  0.18284200  0.71696200  1
  Cd  Cd24  1  0.25000000  0.20623200  0.53539500  1
  Cd  Cd25  1  0.75000000  0.79376800  0.46460500  1
  Cd  Cd26  1  0.25000000  0.70623200  0.96460500  1
  Cd  Cd27  1  0.75000000  0.29376800  0.03539500  1
  Se  Se28  1  0.25000000  0.11529600  0.65143900  1
  Se  Se29  1  0.75000000  0.36131300  0.75275100  1
  Se  Se30  1  0.75000000  0.86131300  0.74724900  1
  Se  Se31  1  0.25000000  0.13868700  0.25275100  1
  Se  Se32  1  0.75000000  0.14626600  0.46840000  1
  Se  Se33  1  0.25000000  0.85373400  0.53160000  1
  Se  Se34  1  0.75000000  0.64626600  0.03160000  1
  Se  Se35  1  0.25000000  0.35373400  0.96840000  1
  Se  Se36  1  0.75000000  0.11440300  0.84349500  1
  Se  Se37  1  0.25000000  0.88559700  0.15650500  1
  Se  Se38  1  0.75000000  0.61440300  0.65650500  1
  Se  Se39  1  0.25000000  0.38559700  0.34349500  1
  Se  Se40  1  0.75000000  0.10720200  0.05443100  1
  Se  Se41  1  0.25000000  0.89279800  0.94556900  1
  Se  Se42  1  0.75000000  0.60720200  0.44556900  1
  Se  Se43  1  0.25000000  0.39279800  0.55443100  1
  Se  Se44  1  0.25000000  0.61529600  0.84856100  1
  Se  Se45  1  0.75000000  0.38470400  0.15143900  1
  Se  Se46  1  0.25000000  0.63868700  0.24724900  1
  Se  Se47  1  0.75000000  0.88470400  0.34856100  1
