# generated using pymatgen
data_Rb3IO
_symmetry_space_group_name_H-M   'P 1'
_cell_length_a   8.04969220
_cell_length_b   8.04969220
_cell_length_c   20.01291700
_cell_angle_alpha   90.00000000
_cell_angle_beta   90.00000000
_cell_angle_gamma   120.00000168
_symmetry_Int_Tables_number   1
_chemical_formula_structural   Rb3IO
_chemical_formula_sum   'Rb18 I6 O6'
_cell_volume   1123.05122966
_cell_formula_units_Z   6
loop_
 _symmetry_equiv_pos_site_id
 _symmetry_equiv_pos_as_xyz
  1  'x, y, z'
loop_
 _atom_site_type_symbol
 _atom_site_label
 _atom_site_symmetry_multiplicity
 _atom_site_fract_x
 _atom_site_fract_y
 _atom_site_fract_z
 _atom_site_occupancy
  Rb  Rb0  1  0.33190700  0.16595400  0.41870100  1
  Rb  Rb1  1  0.33190700  0.16595400  0.08129900  1
  Rb  Rb2  1  0.83404600  0.66809300  0.08129900  1
  Rb  Rb3  1  0.16595400  0.33190700  0.58129900  1
  Rb  Rb4  1  0.66809300  0.83404600  0.58129900  1
  Rb  Rb5  1  0.16595400  0.83404600  0.91870100  1
  Rb  Rb6  1  0.83404600  0.66809300  0.41870100  1
  Rb  Rb7  1  0.83404600  0.16595400  0.08129900  1
  Rb  Rb8  1  0.83404600  0.16595400  0.41870100  1
  Rb  Rb9  1  0.47962900  0.52037100  0.75000000  1
  Rb  Rb10  1  0.66809300  0.83404600  0.91870100  1
  Rb  Rb11  1  0.16595400  0.33190700  0.91870100  1
  Rb  Rb12  1  0.52037100  0.47962900  0.25000000  1
  Rb  Rb13  1  0.95925800  0.47962900  0.25000000  1
  Rb  Rb14  1  0.52037100  0.04074200  0.25000000  1
  Rb  Rb15  1  0.47962900  0.95925800  0.75000000  1
  Rb  Rb16  1  0.04074200  0.52037100  0.75000000  1
  Rb  Rb17  1  0.16595400  0.83404600  0.58129900  1
  I  I18  1  0.33333300  0.66666700  0.41076100  1
  I  I19  1  0.66666700  0.33333300  0.91076100  1
  I  I20  1  0.66666700  0.33333300  0.58923900  1
  I  I21  1  0.33333300  0.66666700  0.08923900  1
  I  I22  1  0.00000000  0.00000000  0.75000000  1
  I  I23  1  0.00000000  0.00000000  0.25000000  1
  O  O24  1  0.33333300  0.66666700  0.65878600  1
  O  O25  1  0.66666700  0.33333300  0.15878600  1
  O  O26  1  0.66666700  0.33333300  0.34121400  1
  O  O27  1  0.33333300  0.66666700  0.84121400  1
  O  O28  1  0.00000000  0.00000000  0.50000000  1
  O  O29  1  0.00000000  0.00000000  0.00000000  1
