# generated using pymatgen
data_EuNiO3
_symmetry_space_group_name_H-M   'P 1'
_cell_length_a   5.41771000
_cell_length_b   5.47464100
_cell_length_c   7.64989500
_cell_angle_alpha   90.00000000
_cell_angle_beta   90.00000000
_cell_angle_gamma   90.00000000
_symmetry_Int_Tables_number   1
_chemical_formula_structural   EuNiO3
_chemical_formula_sum   'Eu4 Ni4 O12'
_cell_volume   226.89601798
_cell_formula_units_Z   4
loop_
 _symmetry_equiv_pos_site_id
 _symmetry_equiv_pos_as_xyz
  1  'x, y, z'
loop_
 _atom_site_type_symbol
 _atom_site_label
 _atom_site_symmetry_multiplicity
 _atom_site_fract_x
 _atom_site_fract_y
 _atom_site_fract_z
 _atom_site_occupancy
  Eu  Eu0  1  0.00709100  0.95349800  0.75000000  1
  Eu  Eu1  1  0.50709100  0.54650200  0.25000000  1
  Eu  Eu2  1  0.49290900  0.45349800  0.75000000  1
  Eu  Eu3  1  0.99290900  0.04650200  0.25000000  1
  Ni  Ni4  1  0.50000000  0.00000000  0.50000000  1
  Ni  Ni5  1  0.00000000  0.50000000  0.50000000  1
  Ni  Ni6  1  0.00000000  0.50000000  0.00000000  1
  Ni  Ni7  1  0.50000000  0.00000000  0.00000000  1
  O  O8  1  0.70199800  0.29809500  0.46035400  1
  O  O9  1  0.20199800  0.20190500  0.53964600  1
  O  O10  1  0.79800200  0.79809500  0.03964600  1
  O  O11  1  0.29800200  0.70190500  0.96035400  1
  O  O12  1  0.29800200  0.70190500  0.53964600  1
  O  O13  1  0.79800200  0.79809500  0.46035400  1
  O  O14  1  0.20199800  0.20190500  0.96035400  1
  O  O15  1  0.70199800  0.29809500  0.03964600  1
  O  O16  1  0.07857400  0.48288800  0.25000000  1
  O  O17  1  0.57857400  0.01711200  0.75000000  1
  O  O18  1  0.42142600  0.98288800  0.25000000  1
  O  O19  1  0.92142600  0.51711200  0.75000000  1
