# generated using pymatgen
data_Ba9(AuO6)2
_symmetry_space_group_name_H-M   'P 1'
_cell_length_a   7.23924400
_cell_length_b   14.40459600
_cell_length_c   17.49547600
_cell_angle_alpha   90.00000000
_cell_angle_beta   90.00000000
_cell_angle_gamma   90.00000000
_symmetry_Int_Tables_number   1
_chemical_formula_structural   Ba9(AuO6)2
_chemical_formula_sum   'Ba36 Au8 O48'
_cell_volume   1824.39998498
_cell_formula_units_Z   4
loop_
 _symmetry_equiv_pos_site_id
 _symmetry_equiv_pos_as_xyz
  1  'x, y, z'
loop_
 _atom_site_type_symbol
 _atom_site_label
 _atom_site_symmetry_multiplicity
 _atom_site_fract_x
 _atom_site_fract_y
 _atom_site_fract_z
 _atom_site_occupancy
  Ba  Ba0  1  0.18288500  0.82203600  0.55673700  1
  Ba  Ba1  1  0.68288500  0.67796400  0.94326300  1
  Ba  Ba2  1  0.31711500  0.32203600  0.44326300  1
  Ba  Ba3  1  0.81711500  0.17796400  0.05673700  1
  Ba  Ba4  1  0.81711500  0.17796400  0.44326300  1
  Ba  Ba5  1  0.31711500  0.32203600  0.05673700  1
  Ba  Ba6  1  0.68288500  0.67796400  0.55673700  1
  Ba  Ba7  1  0.18288500  0.82203600  0.94326300  1
  Ba  Ba8  1  0.15620500  0.18228000  0.25000000  1
  Ba  Ba9  1  0.65620500  0.31772000  0.25000000  1
  Ba  Ba10  1  0.34379500  0.68228000  0.75000000  1
  Ba  Ba11  1  0.84379500  0.81772000  0.75000000  1
  Ba  Ba12  1  0.17263000  0.43650600  0.25000000  1
  Ba  Ba13  1  0.67263000  0.06349400  0.25000000  1
  Ba  Ba14  1  0.32737000  0.93650600  0.75000000  1
  Ba  Ba15  1  0.82737000  0.56349400  0.75000000  1
  Ba  Ba16  1  0.33124800  0.05121300  0.42063100  1
  Ba  Ba17  1  0.83124800  0.44878700  0.07936900  1
  Ba  Ba18  1  0.16875200  0.55121300  0.57936900  1
  Ba  Ba19  1  0.66875200  0.94878700  0.92063100  1
  Ba  Ba20  1  0.66875200  0.94878700  0.57936900  1
  Ba  Ba21  1  0.16875200  0.55121300  0.92063100  1
  Ba  Ba22  1  0.83124800  0.44878700  0.42063100  1
  Ba  Ba23  1  0.33124800  0.05121300  0.07936900  1
  Ba  Ba24  1  0.89213400  0.09951300  0.75000000  1
  Ba  Ba25  1  0.39213400  0.40048700  0.75000000  1
  Ba  Ba26  1  0.60786600  0.59951300  0.25000000  1
  Ba  Ba27  1  0.10786600  0.90048700  0.25000000  1
  Ba  Ba28  1  0.46795600  0.18689200  0.64197000  1
  Ba  Ba29  1  0.96795600  0.31310800  0.85803000  1
  Ba  Ba30  1  0.03204400  0.68689200  0.35803000  1
  Ba  Ba31  1  0.53204400  0.81310800  0.14197000  1
  Ba  Ba32  1  0.53204400  0.81310800  0.35803000  1
  Ba  Ba33  1  0.03204400  0.68689200  0.14197000  1
  Ba  Ba34  1  0.96795600  0.31310800  0.64197000  1
  Ba  Ba35  1  0.46795600  0.18689200  0.85803000  1
  Au  Au36  1  0.08059000  0.06416400  0.58380100  1
  Au  Au37  1  0.58059000  0.43583600  0.91619900  1
  Au  Au38  1  0.41941000  0.56416400  0.41619900  1
  Au  Au39  1  0.91941000  0.93583600  0.08380100  1
  Au  Au40  1  0.91941000  0.93583600  0.41619900  1
  Au  Au41  1  0.41941000  0.56416400  0.08380100  1
  Au  Au42  1  0.58059000  0.43583600  0.58380100  1
  Au  Au43  1  0.08059000  0.06416400  0.91619900  1
  O  O44  1  0.99615600  0.04800500  0.34745100  1
  O  O45  1  0.49615600  0.45199500  0.15254900  1
  O  O46  1  0.50384400  0.54800500  0.65254900  1
  O  O47  1  0.00384400  0.95199500  0.84745100  1
  O  O48  1  0.00384400  0.95199500  0.65254900  1
  O  O49  1  0.50384400  0.54800500  0.84745100  1
  O  O50  1  0.49615600  0.45199500  0.34745100  1
  O  O51  1  0.99615600  0.04800500  0.15254900  1
  O  O52  1  0.29579300  0.72783700  0.25000000  1
  O  O53  1  0.79579400  0.77216300  0.25000000  1
  O  O54  1  0.20420700  0.22783700  0.75000000  1
  O  O55  1  0.70420600  0.27216300  0.75000000  1
  O  O56  1  0.33680500  0.67617600  0.48011600  1
  O  O57  1  0.83680500  0.82382400  0.01988400  1
  O  O58  1  0.16319500  0.17617600  0.51988400  1
  O  O59  1  0.66319500  0.32382400  0.98011600  1
  O  O60  1  0.66319500  0.32382400  0.51988400  1
  O  O61  1  0.16319500  0.17617600  0.98011600  1
  O  O62  1  0.83680500  0.82382400  0.48011600  1
  O  O63  1  0.33680500  0.67617600  0.01988400  1
  O  O64  1  0.17742000  0.87684400  0.40524900  1
  O  O65  1  0.67742000  0.62315600  0.09475100  1
  O  O66  1  0.32258000  0.37684400  0.59475100  1
  O  O67  1  0.82258000  0.12315600  0.90524900  1
  O  O68  1  0.82258000  0.12315600  0.59475100  1
  O  O69  1  0.32258000  0.37684400  0.90524900  1
  O  O70  1  0.67742000  0.62315600  0.40524900  1
  O  O71  1  0.17742000  0.87684400  0.09475100  1
  O  O72  1  0.98814000  0.30029600  0.15473100  1
  O  O73  1  0.48814000  0.19970400  0.34526900  1
  O  O74  1  0.51186000  0.80029600  0.84526900  1
  O  O75  1  0.01186000  0.69970400  0.65473100  1
  O  O76  1  0.01186000  0.69970400  0.84526900  1
  O  O77  1  0.51186000  0.80029600  0.65473100  1
  O  O78  1  0.48814000  0.19970400  0.15473100  1
  O  O79  1  0.98814000  0.30029600  0.34526900  1
  O  O80  1  0.66263700  0.99181300  0.42534700  1
  O  O81  1  0.16263700  0.50818700  0.07465300  1
  O  O82  1  0.83736300  0.49181300  0.57465300  1
  O  O83  1  0.33736300  0.00818700  0.92534700  1
  O  O84  1  0.33736300  0.00818700  0.57465300  1
  O  O85  1  0.83736300  0.49181300  0.92534700  1
  O  O86  1  0.16263700  0.50818700  0.42534700  1
  O  O87  1  0.66263700  0.99181300  0.07465300  1
  O  O88  1  0.44307400  0.94619400  0.25000000  1
  O  O89  1  0.94307400  0.55380600  0.25000000  1
  O  O90  1  0.05692600  0.44619400  0.75000000  1
  O  O91  1  0.55692600  0.05380600  0.75000000  1
