# generated using pymatgen
data_Zr3(Cu2Si3)2
_symmetry_space_group_name_H-M   'P 1'
_cell_length_a   14.40049638
_cell_length_b   14.40049638
_cell_length_c   14.40049638
_cell_angle_alpha   165.08601957
_cell_angle_beta   165.08601957
_cell_angle_gamma   21.15196982
_symmetry_Int_Tables_number   1
_chemical_formula_structural   Zr3(Cu2Si3)2
_chemical_formula_sum   'Zr3 Cu4 Si6'
_cell_volume   197.77879041
_cell_formula_units_Z   1
loop_
 _symmetry_equiv_pos_site_id
 _symmetry_equiv_pos_as_xyz
  1  'x, y, z'
loop_
 _atom_site_type_symbol
 _atom_site_label
 _atom_site_symmetry_multiplicity
 _atom_site_fract_x
 _atom_site_fract_y
 _atom_site_fract_z
 _atom_site_occupancy
  Zr  Zr0  1  0.00000000  0.00000000  0.00000000  1
  Zr  Zr1  1  0.67495200  0.67495200  0.00000000  1
  Zr  Zr2  1  0.32504800  0.32504800  0.00000000  1
  Cu  Cu3  1  0.90983600  0.40983600  0.50000000  1
  Cu  Cu4  1  0.40983600  0.90983600  0.50000000  1
  Cu  Cu5  1  0.09016400  0.59016400  0.50000000  1
  Cu  Cu6  1  0.59016400  0.09016400  0.50000000  1
  Si  Si7  1  0.75000000  0.25000000  0.50000000  1
  Si  Si8  1  0.25000000  0.75000000  0.50000000  1
  Si  Si9  1  0.54065900  0.54065900  0.00000000  1
  Si  Si10  1  0.45934100  0.45934100  0.00000000  1
  Si  Si11  1  0.14582100  0.14582100  0.00000000  1
  Si  Si12  1  0.85417900  0.85417900  0.00000000  1
