# generated using pymatgen
data_Eu4Cl6O
_symmetry_space_group_name_H-M   'P 1'
_cell_length_a   9.49111055
_cell_length_b   9.49111055
_cell_length_c   7.19387000
_cell_angle_alpha   90.00000000
_cell_angle_beta   90.00000000
_cell_angle_gamma   120.00000380
_symmetry_Int_Tables_number   1
_chemical_formula_structural   Eu4Cl6O
_chemical_formula_sum   'Eu8 Cl12 O2'
_cell_volume   561.21240753
_cell_formula_units_Z   2
loop_
 _symmetry_equiv_pos_site_id
 _symmetry_equiv_pos_as_xyz
  1  'x, y, z'
loop_
 _atom_site_type_symbol
 _atom_site_label
 _atom_site_symmetry_multiplicity
 _atom_site_fract_x
 _atom_site_fract_y
 _atom_site_fract_z
 _atom_site_occupancy
  Eu  Eu0  1  0.80296200  0.19703800  0.50089200  1
  Eu  Eu1  1  0.60592400  0.80296200  0.00089200  1
  Eu  Eu2  1  0.19703800  0.39407600  0.00089200  1
  Eu  Eu3  1  0.80296200  0.60592400  0.50089200  1
  Eu  Eu4  1  0.39407600  0.19703800  0.50089200  1
  Eu  Eu5  1  0.19703800  0.80296200  0.00089200  1
  Eu  Eu6  1  0.66666700  0.33333300  0.93349600  1
  Eu  Eu7  1  0.33333300  0.66666700  0.43349600  1
  Cl  Cl8  1  0.46582900  0.93165700  0.71485100  1
  Cl  Cl9  1  0.53417100  0.06834300  0.21485100  1
  Cl  Cl10  1  0.93165700  0.46582900  0.21485100  1
  Cl  Cl11  1  0.46582900  0.53417100  0.71485100  1
  Cl  Cl12  1  0.85785800  0.14214200  0.89125900  1
  Cl  Cl13  1  0.71571600  0.85785800  0.39125900  1
  Cl  Cl14  1  0.53417100  0.46582900  0.21485100  1
  Cl  Cl15  1  0.06834300  0.53417100  0.71485100  1
  Cl  Cl16  1  0.14214200  0.85785800  0.39125900  1
  Cl  Cl17  1  0.28428400  0.14214200  0.89125900  1
  Cl  Cl18  1  0.85785800  0.71571600  0.89125900  1
  Cl  Cl19  1  0.14214200  0.28428400  0.39125900  1
  O  O20  1  0.33333300  0.66666700  0.10659700  1
  O  O21  1  0.66666700  0.33333300  0.60659700  1
