# generated using pymatgen
data_PdI2
_symmetry_space_group_name_H-M   'P 1'
_cell_length_a   8.97733900
_cell_length_b   7.08815800
_cell_length_c   7.11174171
_cell_angle_alpha   75.68371357
_cell_angle_beta   90.00000000
_cell_angle_gamma   90.00000000
_symmetry_Int_Tables_number   1
_chemical_formula_structural   PdI2
_chemical_formula_sum   'Pd4 I8'
_cell_volume   438.48660625
_cell_formula_units_Z   4
loop_
 _symmetry_equiv_pos_site_id
 _symmetry_equiv_pos_as_xyz
  1  'x, y, z'
loop_
 _atom_site_type_symbol
 _atom_site_label
 _atom_site_symmetry_multiplicity
 _atom_site_fract_x
 _atom_site_fract_y
 _atom_site_fract_z
 _atom_site_occupancy
  Pd  Pd0  1  0.36909600  0.22215300  0.00135700  1
  Pd  Pd1  1  0.86909600  0.77784700  0.49864300  1
  Pd  Pd2  1  0.63090400  0.77784700  0.99864300  1
  Pd  Pd3  1  0.13090400  0.22215300  0.50135700  1
  I  I4  1  0.92264400  0.01370300  0.72401400  1
  I  I5  1  0.42264400  0.98629700  0.77598600  1
  I  I6  1  0.07735600  0.98629700  0.27598600  1
  I  I7  1  0.57735600  0.01370300  0.22401400  1
  I  I8  1  0.67389200  0.56596600  0.74316400  1
  I  I9  1  0.17389200  0.43403400  0.75683600  1
  I  I10  1  0.32610800  0.43403400  0.25683600  1
  I  I11  1  0.82610800  0.56596600  0.24316400  1
