# generated using pymatgen
data_K2Te2O5
_symmetry_space_group_name_H-M   'P 1'
_cell_length_a   15.48572200
_cell_length_b   5.61008100
_cell_length_c   7.91057897
_cell_angle_alpha   86.20116812
_cell_angle_beta   90.00000000
_cell_angle_gamma   90.00000000
_symmetry_Int_Tables_number   1
_chemical_formula_structural   K2Te2O5
_chemical_formula_sum   'K8 Te8 O20'
_cell_volume   685.73069103
_cell_formula_units_Z   4
loop_
 _symmetry_equiv_pos_site_id
 _symmetry_equiv_pos_as_xyz
  1  'x, y, z'
loop_
 _atom_site_type_symbol
 _atom_site_label
 _atom_site_symmetry_multiplicity
 _atom_site_fract_x
 _atom_site_fract_y
 _atom_site_fract_z
 _atom_site_occupancy
  K  K0  1  0.43286600  0.26613600  0.62572800  1
  K  K1  1  0.93286600  0.23386400  0.37427200  1
  K  K2  1  0.56713400  0.73386400  0.37427200  1
  K  K3  1  0.06713400  0.76613600  0.62572800  1
  K  K4  1  0.31920000  0.73668900  0.88167600  1
  K  K5  1  0.81920000  0.76331100  0.11832400  1
  K  K6  1  0.68080000  0.26331100  0.11832400  1
  K  K7  1  0.18080000  0.23668900  0.88167600  1
  Te  Te8  1  0.31577500  0.80042700  0.41807800  1
  Te  Te9  1  0.81577500  0.69957300  0.58192200  1
  Te  Te10  1  0.68422500  0.19957300  0.58192200  1
  Te  Te11  1  0.18422500  0.30042700  0.41807800  1
  Te  Te12  1  0.43399700  0.25091900  0.11953300  1
  Te  Te13  1  0.93399700  0.24908100  0.88046700  1
  Te  Te14  1  0.56600300  0.74908100  0.88046700  1
  Te  Te15  1  0.06600300  0.75091900  0.11953300  1
  O  O16  1  0.35309700  0.22576300  0.94483600  1
  O  O17  1  0.85309700  0.27423700  0.05516400  1
  O  O18  1  0.64690300  0.77423700  0.05516400  1
  O  O19  1  0.14690300  0.72576300  0.94483600  1
  O  O20  1  0.36165700  0.15637700  0.31341400  1
  O  O21  1  0.86165700  0.34362300  0.68658600  1
  O  O22  1  0.63834300  0.84362300  0.68658600  1
  O  O23  1  0.13834300  0.65637700  0.31341400  1
  O  O24  1  0.43387400  0.58188000  0.14538300  1
  O  O25  1  0.93387400  0.91812000  0.85461700  1
  O  O26  1  0.56612600  0.41812000  0.85461700  1
  O  O27  1  0.06612600  0.08188000  0.14538300  1
  O  O28  1  0.25601100  0.49889800  0.55472200  1
  O  O29  1  0.75601100  0.00110200  0.44527800  1
  O  O30  1  0.74398900  0.50110200  0.44527800  1
  O  O31  1  0.24398900  0.99889800  0.55472200  1
  O  O32  1  0.09137300  0.26731300  0.56729800  1
  O  O33  1  0.59137300  0.23268700  0.43270200  1
  O  O34  1  0.90862700  0.73268700  0.43270200  1
  O  O35  1  0.40862700  0.76731300  0.56729800  1
