# generated using pymatgen
data_RbTe6
_symmetry_space_group_name_H-M   'P 1'
_cell_length_a   7.15635063
_cell_length_b   7.15635063
_cell_length_c   12.66172123
_cell_angle_alpha   71.25971398
_cell_angle_beta   71.25971398
_cell_angle_gamma   62.25774425
_symmetry_Int_Tables_number   1
_chemical_formula_structural   RbTe6
_chemical_formula_sum   'Rb2 Te12'
_cell_volume   531.95412505
_cell_formula_units_Z   2
loop_
 _symmetry_equiv_pos_site_id
 _symmetry_equiv_pos_as_xyz
  1  'x, y, z'
loop_
 _atom_site_type_symbol
 _atom_site_label
 _atom_site_symmetry_multiplicity
 _atom_site_fract_x
 _atom_site_fract_y
 _atom_site_fract_z
 _atom_site_occupancy
  Rb  Rb0  1  0.62629800  0.37370200  0.75000000  1
  Rb  Rb1  1  0.37370200  0.62629800  0.25000000  1
  Te  Te2  1  0.23574800  0.20054100  0.64601400  1
  Te  Te3  1  0.79945900  0.76425200  0.85398600  1
  Te  Te4  1  0.76328500  0.86970800  0.59161500  1
  Te  Te5  1  0.13029200  0.23671500  0.90838500  1
  Te  Te6  1  0.23671500  0.13029200  0.40838500  1
  Te  Te7  1  0.86970800  0.76328500  0.09161500  1
  Te  Te8  1  0.22027400  0.62336400  0.55741700  1
  Te  Te9  1  0.37663600  0.77972600  0.94258300  1
  Te  Te10  1  0.77972600  0.37663600  0.44258300  1
  Te  Te11  1  0.62336400  0.22027400  0.05741700  1
  Te  Te12  1  0.20054100  0.23574800  0.14601400  1
  Te  Te13  1  0.76425200  0.79945900  0.35398600  1
