# generated using pymatgen
data_Li5TlO4
_symmetry_space_group_name_H-M   'P 1'
_cell_length_a   13.42135700
_cell_length_b   13.42135700
_cell_length_c   4.79053800
_cell_angle_alpha   90.00000000
_cell_angle_beta   90.00000000
_cell_angle_gamma   90.00000000
_symmetry_Int_Tables_number   1
_chemical_formula_structural   Li5TlO4
_chemical_formula_sum   'Li40 Tl8 O32'
_cell_volume   862.93313708
_cell_formula_units_Z   8
loop_
 _symmetry_equiv_pos_site_id
 _symmetry_equiv_pos_as_xyz
  1  'x, y, z'
loop_
 _atom_site_type_symbol
 _atom_site_label
 _atom_site_symmetry_multiplicity
 _atom_site_fract_x
 _atom_site_fract_y
 _atom_site_fract_z
 _atom_site_occupancy
  Li  Li0  1  0.87054500  0.12945500  0.50000000  1
  Li  Li1  1  0.62945500  0.62945500  0.00000000  1
  Li  Li2  1  0.37054500  0.37054500  0.00000000  1
  Li  Li3  1  0.12945500  0.87054500  0.50000000  1
  Li  Li4  1  0.62945500  0.37054500  0.00000000  1
  Li  Li5  1  0.87054500  0.87054500  0.50000000  1
  Li  Li6  1  0.12945500  0.12945500  0.50000000  1
  Li  Li7  1  0.37054500  0.62945500  0.00000000  1
  Li  Li8  1  0.89146500  0.36004700  0.56345600  1
  Li  Li9  1  0.10853500  0.63995300  0.56345600  1
  Li  Li10  1  0.13995300  0.39146500  0.06345600  1
  Li  Li11  1  0.86004700  0.60853500  0.06345600  1
  Li  Li12  1  0.36004700  0.89146500  0.43654400  1
  Li  Li13  1  0.39146500  0.13995300  0.93654400  1
  Li  Li14  1  0.60853500  0.86004700  0.93654400  1
  Li  Li15  1  0.63995300  0.10853500  0.43654400  1
  Li  Li16  1  0.60853500  0.13995300  0.93654400  1
  Li  Li17  1  0.39146500  0.86004700  0.93654400  1
  Li  Li18  1  0.36004700  0.10853500  0.43654400  1
  Li  Li19  1  0.76153600  0.23846400  0.00000000  1
  Li  Li20  1  0.13995300  0.60853500  0.06345600  1
  Li  Li21  1  0.10853500  0.36004700  0.56345600  1
  Li  Li22  1  0.89146500  0.63995300  0.56345600  1
  Li  Li23  1  0.86004700  0.39146500  0.06345600  1
  Li  Li24  1  0.50000000  0.50000000  0.50000000  1
  Li  Li25  1  0.00000000  0.00000000  0.00000000  1
  Li  Li26  1  0.50000000  0.50000000  0.00000000  1
  Li  Li27  1  0.00000000  0.00000000  0.50000000  1
  Li  Li28  1  0.50000000  0.00000000  0.90597000  1
  Li  Li29  1  0.50000000  0.00000000  0.40597000  1
  Li  Li30  1  0.00000000  0.50000000  0.59403000  1
  Li  Li31  1  0.00000000  0.50000000  0.09403000  1
  Li  Li32  1  0.26153600  0.73846400  0.50000000  1
  Li  Li33  1  0.23846400  0.23846400  0.00000000  1
  Li  Li34  1  0.76153600  0.76153600  0.00000000  1
  Li  Li35  1  0.73846400  0.26153600  0.50000000  1
  Li  Li36  1  0.23846400  0.76153600  0.00000000  1
  Li  Li37  1  0.26153600  0.26153600  0.50000000  1
  Li  Li38  1  0.73846400  0.73846400  0.50000000  1
  Li  Li39  1  0.63995300  0.89146500  0.43654400  1
  Tl  Tl40  1  0.22753700  0.00000000  0.96314800  1
  Tl  Tl41  1  0.77246300  0.00000000  0.96314800  1
  Tl  Tl42  1  0.50000000  0.72753700  0.46314800  1
  Tl  Tl43  1  0.50000000  0.27246300  0.46314800  1
  Tl  Tl44  1  0.00000000  0.22753700  0.03685200  1
  Tl  Tl45  1  0.72753700  0.50000000  0.53685200  1
  Tl  Tl46  1  0.27246300  0.50000000  0.53685200  1
  Tl  Tl47  1  0.00000000  0.77246300  0.03685200  1
  O  O48  1  0.26004600  0.86459000  0.72188900  1
  O  O49  1  0.73995400  0.13541000  0.72188900  1
  O  O50  1  0.63541000  0.76004600  0.22188900  1
  O  O51  1  0.36459000  0.23995400  0.22188900  1
  O  O52  1  0.86459000  0.26004600  0.27811100  1
  O  O53  1  0.76004600  0.63541000  0.77811100  1
  O  O54  1  0.23995400  0.36459000  0.77811100  1
  O  O55  1  0.13541000  0.73995400  0.27811100  1
  O  O56  1  0.23995400  0.63541000  0.77811100  1
  O  O57  1  0.76004600  0.36459000  0.77811100  1
  O  O58  1  0.86459000  0.73995400  0.27811100  1
  O  O59  1  0.13541000  0.26004600  0.27811100  1
  O  O60  1  0.63541000  0.23995400  0.22188900  1
  O  O61  1  0.73995400  0.86459000  0.72188900  1
  O  O62  1  0.26004600  0.13541000  0.72188900  1
  O  O63  1  0.36459000  0.76004600  0.22188900  1
  O  O64  1  0.11452800  0.00000000  0.27295300  1
  O  O65  1  0.88547200  0.00000000  0.27295300  1
  O  O66  1  0.50000000  0.61452800  0.77295300  1
  O  O67  1  0.50000000  0.38547200  0.77295300  1
  O  O68  1  0.00000000  0.38393800  0.83721800  1
  O  O69  1  0.61452800  0.50000000  0.22704700  1
  O  O70  1  0.38547200  0.50000000  0.22704700  1
  O  O71  1  0.00000000  0.88547200  0.72704700  1
  O  O72  1  0.61606200  0.00000000  0.16278200  1
  O  O73  1  0.38393800  0.00000000  0.16278200  1
  O  O74  1  0.50000000  0.11606200  0.66278200  1
  O  O75  1  0.50000000  0.88393800  0.66278200  1
  O  O76  1  0.00000000  0.61606200  0.83721800  1
  O  O77  1  0.11606200  0.50000000  0.33721800  1
  O  O78  1  0.88393800  0.50000000  0.33721800  1
  O  O79  1  0.00000000  0.11452800  0.72704700  1
