# generated using pymatgen
data_CoH4(ClO)2
_symmetry_space_group_name_H-M   'P 1'
_cell_length_a   3.60349421
_cell_length_b   5.68606864
_cell_length_c   5.68606878
_cell_angle_alpha   97.46506298
_cell_angle_beta   96.90877735
_cell_angle_gamma   96.90877150
_symmetry_Int_Tables_number   1
_chemical_formula_structural   CoH4(ClO)2
_chemical_formula_sum   'Co1 H4 Cl2 O2'
_cell_volume   113.58113980
_cell_formula_units_Z   1
loop_
 _symmetry_equiv_pos_site_id
 _symmetry_equiv_pos_as_xyz
  1  'x, y, z'
loop_
 _atom_site_type_symbol
 _atom_site_label
 _atom_site_symmetry_multiplicity
 _atom_site_fract_x
 _atom_site_fract_y
 _atom_site_fract_z
 _atom_site_occupancy
  Co  Co0  1  0.00000000  0.00000000  0.00000000  1
  H  H1  1  0.84516200  0.21604700  0.60275500  1
  H  H2  1  0.15483800  0.39724600  0.78395300  1
  H  H3  1  0.84516100  0.60275500  0.21604800  1
  H  H4  1  0.15483900  0.78395200  0.39724500  1
  Cl  Cl5  1  0.58319000  0.23516400  0.23516300  1
  Cl  Cl6  1  0.41680800  0.76483500  0.76483500  1
  O  O7  1  0.00000000  0.76139000  0.23860900  1
  O  O8  1  0.00000000  0.23860800  0.76139200  1
