# generated using pymatgen
data_In2S3
_symmetry_space_group_name_H-M   'P 1'
_cell_length_a   17.33046508
_cell_length_b   17.33046508
_cell_length_c   17.33046508
_cell_angle_alpha   154.10381872
_cell_angle_beta   154.10381872
_cell_angle_gamma   36.94872367
_symmetry_Int_Tables_number   1
_chemical_formula_structural   In2S3
_chemical_formula_sum   'In16 S24'
_cell_volume   991.45413324
_cell_formula_units_Z   8
loop_
 _symmetry_equiv_pos_site_id
 _symmetry_equiv_pos_as_xyz
  1  'x, y, z'
loop_
 _atom_site_type_symbol
 _atom_site_label
 _atom_site_symmetry_multiplicity
 _atom_site_fract_x
 _atom_site_fract_y
 _atom_site_fract_z
 _atom_site_occupancy
  In  In0  1  0.92022800  0.42022800  0.50000000  1
  In  In1  1  0.17022800  0.17022800  0.00000000  1
  In  In2  1  0.82977200  0.82977200  0.00000000  1
  In  In3  1  0.57977200  0.07977200  0.50000000  1
  In  In4  1  0.70718900  0.93898000  0.23179100  1
  In  In5  1  0.52460100  0.29281100  0.23179100  1
  In  In6  1  0.06102000  0.29281100  0.76820900  1
  In  In7  1  0.04281100  0.77460100  0.73179100  1
  In  In8  1  0.04281100  0.31102000  0.26820900  1
  In  In9  1  0.68898000  0.95718900  0.73179100  1
  In  In10  1  0.22539900  0.95718900  0.26820900  1
  In  In11  1  0.70718900  0.47539900  0.76820900  1
  In  In12  1  0.37500000  0.62500000  0.25000000  1
  In  In13  1  0.37500000  0.62500000  0.75000000  1
  In  In14  1  0.87500000  0.62500000  0.25000000  1
  In  In15  1  0.37500000  0.12500000  0.75000000  1
  S  S16  1  0.78800400  0.06050500  0.27250100  1
  S  S17  1  0.48449700  0.21199600  0.27250100  1
  S  S18  1  0.93949500  0.21199600  0.72749900  1
  S  S19  1  0.96199600  0.73449700  0.77250100  1
  S  S20  1  0.96199600  0.18949500  0.22749900  1
  S  S21  1  0.81050500  0.03800400  0.77250100  1
  S  S22  1  0.26550300  0.03800400  0.22749900  1
  S  S23  1  0.78800400  0.51550300  0.72749900  1
  S  S24  1  0.45279600  0.71584200  0.26304500  1
  S  S25  1  0.81024900  0.54720400  0.26304500  1
  S  S26  1  0.28415800  0.54720400  0.73695500  1
  S  S27  1  0.29720400  0.06024900  0.76304500  1
  S  S28  1  0.29720400  0.53415800  0.23695500  1
  S  S29  1  0.46584200  0.70279600  0.76304500  1
  S  S30  1  0.93975100  0.70279600  0.23695500  1
  S  S31  1  0.45279600  0.18975100  0.73695500  1
  S  S32  1  0.62568900  0.38334300  0.75765500  1
  S  S33  1  0.13334300  0.87568900  0.25765500  1
  S  S34  1  0.61803400  0.87568900  0.74234500  1
  S  S35  1  0.12431100  0.38196600  0.25765500  1
  S  S36  1  0.12431100  0.86665700  0.74234500  1
  S  S37  1  0.13196600  0.37431100  0.75765500  1
  S  S38  1  0.61665700  0.37431100  0.24234500  1
  S  S39  1  0.62568900  0.86803400  0.24234500  1
