# generated using pymatgen
data_Re3(SBr)7
_symmetry_space_group_name_H-M   'P 1'
_cell_length_a   9.97513721
_cell_length_b   9.97513721
_cell_length_c   26.02257900
_cell_angle_alpha   90.00000000
_cell_angle_beta   90.00000000
_cell_angle_gamma   119.99999475
_symmetry_Int_Tables_number   1
_chemical_formula_structural   Re3(SBr)7
_chemical_formula_sum   'Re12 S28 Br28'
_cell_volume   2242.42923405
_cell_formula_units_Z   4
loop_
 _symmetry_equiv_pos_site_id
 _symmetry_equiv_pos_as_xyz
  1  'x, y, z'
loop_
 _atom_site_type_symbol
 _atom_site_label
 _atom_site_symmetry_multiplicity
 _atom_site_fract_x
 _atom_site_fract_y
 _atom_site_fract_z
 _atom_site_occupancy
  Re  Re0  1  0.63262300  0.47154100  0.66918400  1
  Re  Re1  1  0.52845900  0.16108100  0.66918400  1
  Re  Re2  1  0.83891900  0.36737700  0.66918400  1
  Re  Re3  1  0.47154100  0.63262300  0.16918400  1
  Re  Re4  1  0.16108100  0.52845900  0.16918400  1
  Re  Re5  1  0.36737700  0.83891900  0.16918400  1
  Re  Re6  1  0.85749300  0.02738900  0.42505800  1
  Re  Re7  1  0.97261100  0.83010400  0.42505800  1
  Re  Re8  1  0.16989600  0.14250700  0.42505800  1
  Re  Re9  1  0.02738900  0.85749300  0.92505800  1
  Re  Re10  1  0.83010400  0.97261100  0.92505800  1
  Re  Re11  1  0.14250700  0.16989600  0.92505800  1
  S  S12  1  0.03212200  0.19748900  0.36131100  1
  S  S13  1  0.35695100  0.27220300  0.66287200  1
  S  S14  1  0.72779700  0.08474800  0.66287200  1
  S  S15  1  0.91525200  0.64304900  0.66287200  1
  S  S16  1  0.27220300  0.35695100  0.16287200  1
  S  S17  1  0.08474800  0.72779700  0.16287200  1
  S  S18  1  0.64304900  0.91525200  0.16287200  1
  S  S19  1  0.46678600  0.29381100  0.73288200  1
  S  S20  1  0.70618900  0.17297500  0.73288200  1
  S  S21  1  0.82702500  0.53321400  0.73288200  1
  S  S22  1  0.29381100  0.46678600  0.23288200  1
  S  S23  1  0.17297500  0.70618900  0.23288200  1
  S  S24  1  0.00000000  0.00000000  0.99233700  1
  S  S25  1  0.00000000  0.00000000  0.49233700  1
  S  S26  1  0.19748900  0.03212200  0.86131100  1
  S  S27  1  0.96787800  0.16536700  0.86131100  1
  S  S28  1  0.83463300  0.80251100  0.86131100  1
  S  S29  1  0.53321400  0.82702500  0.23288200  1
  S  S30  1  0.16536700  0.96787800  0.36131100  1
  S  S31  1  0.80251100  0.83463300  0.36131100  1
  S  S32  1  0.30573300  0.04957300  0.93130600  1
  S  S33  1  0.95042700  0.25616000  0.93130600  1
  S  S34  1  0.74384000  0.69426700  0.93130600  1
  S  S35  1  0.04957300  0.30573300  0.43130600  1
  S  S36  1  0.25616000  0.95042700  0.43130600  1
  S  S37  1  0.69426700  0.74384000  0.43130600  1
  S  S38  1  0.33333300  0.66666700  0.10170100  1
  S  S39  1  0.66666700  0.33333300  0.60170100  1
  Br  Br40  1  0.98294500  0.38682600  0.09364200  1
  Br  Br41  1  0.61317400  0.59612000  0.09364200  1
  Br  Br42  1  0.01705500  0.40388000  0.59364200  1
  Br  Br43  1  0.38682600  0.98294500  0.59364200  1
  Br  Br44  1  0.59612000  0.61317400  0.59364200  1
  Br  Br45  1  0.41640200  0.07898100  0.22050200  1
  Br  Br46  1  0.92101900  0.33742100  0.22050200  1
  Br  Br47  1  0.66257900  0.58359800  0.22050200  1
  Br  Br48  1  0.07898100  0.41640200  0.72050200  1
  Br  Br49  1  0.33742100  0.92101900  0.72050200  1
  Br  Br50  1  0.58359800  0.66257900  0.72050200  1
  Br  Br51  1  0.33333300  0.66666700  0.31504800  1
  Br  Br52  1  0.33599600  0.41081500  0.87505100  1
  Br  Br53  1  0.58918500  0.92518100  0.87505100  1
  Br  Br54  1  0.07481900  0.66400400  0.87505100  1
  Br  Br55  1  0.41081500  0.33599600  0.37505100  1
  Br  Br56  1  0.92518100  0.58918500  0.37505100  1
  Br  Br57  1  0.66400400  0.07481900  0.37505100  1
  Br  Br58  1  0.29367100  0.33893400  0.00161100  1
  Br  Br59  1  0.66106600  0.95473600  0.00161100  1
  Br  Br60  1  0.04526400  0.70632900  0.00161100  1
  Br  Br61  1  0.33893400  0.29367100  0.50161100  1
  Br  Br62  1  0.95473600  0.66106600  0.50161100  1
  Br  Br63  1  0.70632900  0.04526400  0.50161100  1
  Br  Br64  1  0.00000000  0.00000000  0.77888600  1
  Br  Br65  1  0.00000000  0.00000000  0.27888600  1
  Br  Br66  1  0.40388000  0.01705500  0.09364200  1
  Br  Br67  1  0.66666700  0.33333300  0.81504800  1
