# generated using pymatgen
data_Ta2Cl5
_symmetry_space_group_name_H-M   'P 1'
_cell_length_a   17.97949105
_cell_length_b   17.97949105
_cell_length_c   17.97949105
_cell_angle_alpha   109.47122063
_cell_angle_beta   109.47122063
_cell_angle_gamma   109.47122063
_symmetry_Int_Tables_number   1
_chemical_formula_structural   Ta2Cl5
_chemical_formula_sum   'Ta48 Cl120'
_cell_volume   4474.14743564
_cell_formula_units_Z   24
loop_
 _symmetry_equiv_pos_site_id
 _symmetry_equiv_pos_as_xyz
  1  'x, y, z'
loop_
 _atom_site_type_symbol
 _atom_site_label
 _atom_site_symmetry_multiplicity
 _atom_site_fract_x
 _atom_site_fract_y
 _atom_site_fract_z
 _atom_site_occupancy
  Ta  Ta0  1  0.04204600  0.13251400  0.02492200  1
  Ta  Ta1  1  0.13251400  0.60759200  0.09046800  1
  Ta  Ta2  1  0.01712400  0.04204600  0.40953200  1
  Ta  Ta3  1  0.40953200  0.01712400  0.04204600  1
  Ta  Ta4  1  0.02492200  0.48287600  0.89240800  1
  Ta  Ta5  1  0.89240800  0.02492200  0.48287600  1
  Ta  Ta6  1  0.60759200  0.09046800  0.13251500  1
  Ta  Ta7  1  0.01712400  0.47507800  0.60759200  1
  Ta  Ta8  1  0.40953200  0.89240800  0.36748500  1
  Ta  Ta9  1  0.48287600  0.09046800  0.45795400  1
  Ta  Ta10  1  0.47507800  0.60759200  0.01712400  1
  Ta  Ta11  1  0.36748500  0.40953200  0.89240800  1
  Ta  Ta12  1  0.09046800  0.45795400  0.48287600  1
  Ta  Ta13  1  0.02492200  0.04204600  0.13251400  1
  Ta  Ta14  1  0.13251400  0.02492200  0.04204600  1
  Ta  Ta15  1  0.60759200  0.01712400  0.47507800  1
  Ta  Ta16  1  0.36748600  0.45795400  0.47507800  1
  Ta  Ta17  1  0.89240800  0.36748500  0.40953200  1
  Ta  Ta18  1  0.47507800  0.36748600  0.45795400  1
  Ta  Ta19  1  0.45795400  0.48287600  0.09046800  1
  Ta  Ta20  1  0.45795400  0.47507800  0.36748600  1
  Ta  Ta21  1  0.48287600  0.89240800  0.02492200  1
  Ta  Ta22  1  0.09046800  0.13251400  0.60759200  1
  Ta  Ta23  1  0.04204600  0.40953200  0.01712400  1
  Ta  Ta24  1  0.95795400  0.86748500  0.97507800  1
  Ta  Ta25  1  0.86748600  0.39240800  0.90953200  1
  Ta  Ta26  1  0.98287600  0.95795400  0.59046800  1
  Ta  Ta27  1  0.59046800  0.98287600  0.95795400  1
  Ta  Ta28  1  0.97507800  0.51712400  0.10759200  1
  Ta  Ta29  1  0.10759200  0.97507800  0.51712400  1
  Ta  Ta30  1  0.39240800  0.90953200  0.86748600  1
  Ta  Ta31  1  0.98287600  0.52492200  0.39240800  1
  Ta  Ta32  1  0.59046800  0.10759200  0.63251400  1
  Ta  Ta33  1  0.51712400  0.90953200  0.54204600  1
  Ta  Ta34  1  0.52492200  0.39240800  0.98287600  1
  Ta  Ta35  1  0.63251400  0.59046800  0.10759200  1
  Ta  Ta36  1  0.90953200  0.54204600  0.51712400  1
  Ta  Ta37  1  0.97507800  0.95795400  0.86748500  1
  Ta  Ta38  1  0.86748500  0.97507800  0.95795400  1
  Ta  Ta39  1  0.39240800  0.98287600  0.52492200  1
  Ta  Ta40  1  0.63251400  0.54204600  0.52492200  1
  Ta  Ta41  1  0.10759200  0.63251400  0.59046800  1
  Ta  Ta42  1  0.52492200  0.63251400  0.54204600  1
  Ta  Ta43  1  0.54204600  0.51712400  0.90953200  1
  Ta  Ta44  1  0.54204600  0.52492200  0.63251400  1
  Ta  Ta45  1  0.51712400  0.10759200  0.97507800  1
  Ta  Ta46  1  0.90953200  0.86748600  0.39240800  1
  Ta  Ta47  1  0.95795400  0.59046800  0.98287600  1
  Cl  Cl48  1  0.07866900  0.20472000  0.18438700  1
  Cl  Cl49  1  0.20472000  0.52033400  0.12605100  1
  Cl  Cl50  1  0.89428300  0.07866900  0.37394900  1
  Cl  Cl51  1  0.37394900  0.89428300  0.07866900  1
  Cl  Cl52  1  0.18438700  0.60571700  0.97966600  1
  Cl  Cl53  1  0.97966600  0.18438700  0.60571700  1
  Cl  Cl54  1  0.52033400  0.12605100  0.20472000  1
  Cl  Cl55  1  0.89428300  0.31561300  0.52033400  1
  Cl  Cl56  1  0.37394900  0.97966600  0.29528000  1
  Cl  Cl57  1  0.60571700  0.12605100  0.42133100  1
  Cl  Cl58  1  0.31561300  0.52033400  0.89428300  1
  Cl  Cl59  1  0.29528000  0.37394900  0.97966600  1
  Cl  Cl60  1  0.12605100  0.42133100  0.60571700  1
  Cl  Cl61  1  0.18438700  0.07866900  0.20472000  1
  Cl  Cl62  1  0.20472000  0.18438700  0.07866900  1
  Cl  Cl63  1  0.52033400  0.89428300  0.31561300  1
  Cl  Cl64  1  0.29528000  0.42133100  0.31561300  1
  Cl  Cl65  1  0.97966600  0.29528000  0.37394900  1
  Cl  Cl66  1  0.31561300  0.29528000  0.42133100  1
  Cl  Cl67  1  0.42133100  0.60571700  0.12605100  1
  Cl  Cl68  1  0.42133100  0.31561300  0.29528000  1
  Cl  Cl69  1  0.60571700  0.97966600  0.18438700  1
  Cl  Cl70  1  0.12605100  0.20472000  0.52033400  1
  Cl  Cl71  1  0.07866900  0.37394900  0.89428300  1
  Cl  Cl72  1  0.92133100  0.79528000  0.81561300  1
  Cl  Cl73  1  0.79528000  0.47966600  0.87394900  1
  Cl  Cl74  1  0.10571700  0.92133100  0.62605100  1
  Cl  Cl75  1  0.62605100  0.10571700  0.92133100  1
  Cl  Cl76  1  0.81561300  0.39428300  0.02033400  1
  Cl  Cl77  1  0.02033400  0.81561300  0.39428300  1
  Cl  Cl78  1  0.47966600  0.87394900  0.79528000  1
  Cl  Cl79  1  0.10571700  0.68438700  0.47966600  1
  Cl  Cl80  1  0.62605100  0.02033400  0.70472000  1
  Cl  Cl81  1  0.39428300  0.87394900  0.57866900  1
  Cl  Cl82  1  0.68438700  0.47966600  0.10571700  1
  Cl  Cl83  1  0.70472000  0.62605100  0.02033400  1
  Cl  Cl84  1  0.87394900  0.57866900  0.39428300  1
  Cl  Cl85  1  0.81561300  0.92133100  0.79528000  1
  Cl  Cl86  1  0.79528000  0.81561300  0.92133100  1
  Cl  Cl87  1  0.47966600  0.10571700  0.68438700  1
  Cl  Cl88  1  0.70472000  0.57866900  0.68438700  1
  Cl  Cl89  1  0.02033400  0.70472000  0.62605100  1
  Cl  Cl90  1  0.68438700  0.70472000  0.57866900  1
  Cl  Cl91  1  0.57866900  0.39428300  0.87394900  1
  Cl  Cl92  1  0.57866900  0.68438700  0.70472000  1
  Cl  Cl93  1  0.39428300  0.02033400  0.81561300  1
  Cl  Cl94  1  0.87394900  0.79528000  0.47966600  1
  Cl  Cl95  1  0.92133100  0.62605100  0.10571700  1
  Cl  Cl96  1  0.89545300  0.12702700  0.98536200  1
  Cl  Cl97  1  0.12702700  0.64166600  0.23157400  1
  Cl  Cl98  1  0.91009200  0.89545300  0.26842600  1
  Cl  Cl99  1  0.26842600  0.91009200  0.89545300  1
  Cl  Cl100  1  0.98536200  0.58990800  0.85833400  1
  Cl  Cl101  1  0.85833400  0.98536200  0.58990800  1
  Cl  Cl102  1  0.64166600  0.23157400  0.12702700  1
  Cl  Cl103  1  0.91009200  0.51463800  0.64166600  1
  Cl  Cl104  1  0.26842600  0.85833400  0.37297300  1
  Cl  Cl105  1  0.58990800  0.23157400  0.60454700  1
  Cl  Cl106  1  0.51463800  0.64166600  0.91009200  1
  Cl  Cl107  1  0.37297300  0.26842600  0.85833400  1
  Cl  Cl108  1  0.23157400  0.60454700  0.58990800  1
  Cl  Cl109  1  0.98536200  0.89545300  0.12702700  1
  Cl  Cl110  1  0.12702700  0.98536200  0.89545300  1
  Cl  Cl111  1  0.64166600  0.91009200  0.51463800  1
  Cl  Cl112  1  0.37297300  0.60454700  0.51463800  1
  Cl  Cl113  1  0.85833400  0.37297300  0.26842600  1
  Cl  Cl114  1  0.51463800  0.37297300  0.60454700  1
  Cl  Cl115  1  0.60454700  0.58990800  0.23157400  1
  Cl  Cl116  1  0.60454700  0.51463800  0.37297300  1
  Cl  Cl117  1  0.58990800  0.85833400  0.98536200  1
  Cl  Cl118  1  0.23157400  0.12702700  0.64166600  1
  Cl  Cl119  1  0.89545300  0.26842600  0.91009200  1
  Cl  Cl120  1  0.10454700  0.87297300  0.01463800  1
  Cl  Cl121  1  0.87297300  0.35833400  0.76842600  1
  Cl  Cl122  1  0.08990800  0.10454700  0.73157400  1
  Cl  Cl123  1  0.73157400  0.08990800  0.10454700  1
  Cl  Cl124  1  0.01463800  0.41009200  0.14166600  1
  Cl  Cl125  1  0.14166600  0.01463800  0.41009200  1
  Cl  Cl126  1  0.35833400  0.76842600  0.87297300  1
  Cl  Cl127  1  0.08990800  0.48536200  0.35833400  1
  Cl  Cl128  1  0.73157400  0.14166600  0.62702700  1
  Cl  Cl129  1  0.41009200  0.76842600  0.39545300  1
  Cl  Cl130  1  0.48536200  0.35833400  0.08990800  1
  Cl  Cl131  1  0.62702700  0.73157400  0.14166600  1
  Cl  Cl132  1  0.76842600  0.39545300  0.41009200  1
  Cl  Cl133  1  0.01463800  0.10454700  0.87297300  1
  Cl  Cl134  1  0.87297300  0.01463800  0.10454700  1
  Cl  Cl135  1  0.35833400  0.08990800  0.48536200  1
  Cl  Cl136  1  0.62702700  0.39545300  0.48536200  1
  Cl  Cl137  1  0.14166600  0.62702700  0.73157400  1
  Cl  Cl138  1  0.48536200  0.62702700  0.39545300  1
  Cl  Cl139  1  0.39545300  0.41009200  0.76842600  1
  Cl  Cl140  1  0.39545300  0.48536200  0.62702700  1
  Cl  Cl141  1  0.41009200  0.14166600  0.01463800  1
  Cl  Cl142  1  0.76842600  0.87297300  0.35833400  1
  Cl  Cl143  1  0.10454700  0.73157400  0.08990800  1
  Cl  Cl144  1  0.25000000  0.80090000  0.69910000  1
  Cl  Cl145  1  0.80090000  0.60180000  0.55090000  1
  Cl  Cl146  1  0.55090000  0.25000000  0.94910000  1
  Cl  Cl147  1  0.94910000  0.55090000  0.25000000  1
  Cl  Cl148  1  0.69910000  0.94910000  0.89820000  1
  Cl  Cl149  1  0.89820000  0.69910000  0.94910000  1
  Cl  Cl150  1  0.60180000  0.55090000  0.80090000  1
  Cl  Cl151  1  0.55090000  0.80090000  0.60180000  1
  Cl  Cl152  1  0.94910000  0.89820000  0.69910000  1
  Cl  Cl153  1  0.69910000  0.25000000  0.80090000  1
  Cl  Cl154  1  0.80090000  0.69910000  0.25000000  1
  Cl  Cl155  1  0.25000000  0.94910000  0.55090000  1
  Cl  Cl156  1  0.75000000  0.19910000  0.30090000  1
  Cl  Cl157  1  0.19910000  0.39820000  0.44910000  1
  Cl  Cl158  1  0.44910000  0.75000000  0.05090000  1
  Cl  Cl159  1  0.05090000  0.44910000  0.75000000  1
  Cl  Cl160  1  0.30090000  0.05090000  0.10180000  1
  Cl  Cl161  1  0.10180000  0.30090000  0.05090000  1
  Cl  Cl162  1  0.39820000  0.44910000  0.19910000  1
  Cl  Cl163  1  0.44910000  0.19910000  0.39820000  1
  Cl  Cl164  1  0.05090000  0.10180000  0.30090000  1
  Cl  Cl165  1  0.30090000  0.75000000  0.19910000  1
  Cl  Cl166  1  0.19910000  0.30090000  0.75000000  1
  Cl  Cl167  1  0.75000000  0.05090000  0.44910000  1
