# generated using pymatgen
data_K4MnBr6
_symmetry_space_group_name_H-M   'P 1'
_cell_length_a   9.09581820
_cell_length_b   9.09581820
_cell_length_c   9.09581858
_cell_angle_alpha   89.82815053
_cell_angle_beta   89.82815053
_cell_angle_gamma   89.82814951
_symmetry_Int_Tables_number   1
_chemical_formula_structural   K4MnBr6
_chemical_formula_sum   'K8 Mn2 Br12'
_cell_volume   752.52249054
_cell_formula_units_Z   2
loop_
 _symmetry_equiv_pos_site_id
 _symmetry_equiv_pos_as_xyz
  1  'x, y, z'
loop_
 _atom_site_type_symbol
 _atom_site_label
 _atom_site_symmetry_multiplicity
 _atom_site_fract_x
 _atom_site_fract_y
 _atom_site_fract_z
 _atom_site_occupancy
  K  K0  1  0.25000000  0.25000000  0.25000000  1
  K  K1  1  0.75000000  0.75000000  0.75000000  1
  K  K2  1  0.87178500  0.62821500  0.25000000  1
  K  K3  1  0.62821500  0.25000000  0.87178500  1
  K  K4  1  0.25000000  0.87178600  0.62821400  1
  K  K5  1  0.12821400  0.37178600  0.75000000  1
  K  K6  1  0.37178600  0.75000000  0.12821400  1
  K  K7  1  0.75000000  0.12821500  0.37178500  1
  Mn  Mn8  1  0.00000000  0.00000000  0.00000000  1
  Mn  Mn9  1  0.50000000  0.50000000  0.50000000  1
  Br  Br10  1  0.94327900  0.28696900  0.06844200  1
  Br  Br11  1  0.28696900  0.06844200  0.94327900  1
  Br  Br12  1  0.06844200  0.94327900  0.28696900  1
  Br  Br13  1  0.21303100  0.55672100  0.43155800  1
  Br  Br14  1  0.55672100  0.43155800  0.21303100  1
  Br  Br15  1  0.43155800  0.21303100  0.55672100  1
  Br  Br16  1  0.05672100  0.71303100  0.93155800  1
  Br  Br17  1  0.71303100  0.93155800  0.05672100  1
  Br  Br18  1  0.93155800  0.05672100  0.71303100  1
  Br  Br19  1  0.78696900  0.44327900  0.56844200  1
  Br  Br20  1  0.44327900  0.56844200  0.78696900  1
  Br  Br21  1  0.56844200  0.78696900  0.44327900  1
