# generated using pymatgen
data_ErNiGe
_symmetry_space_group_name_H-M   'P 1'
_cell_length_a   4.21096800
_cell_length_b   6.83712800
_cell_length_c   7.26337600
_cell_angle_alpha   90.00000000
_cell_angle_beta   90.00000000
_cell_angle_gamma   90.00000000
_symmetry_Int_Tables_number   1
_chemical_formula_structural   ErNiGe
_chemical_formula_sum   'Er4 Ni4 Ge4'
_cell_volume   209.11932979
_cell_formula_units_Z   4
loop_
 _symmetry_equiv_pos_site_id
 _symmetry_equiv_pos_as_xyz
  1  'x, y, z'
loop_
 _atom_site_type_symbol
 _atom_site_label
 _atom_site_symmetry_multiplicity
 _atom_site_fract_x
 _atom_site_fract_y
 _atom_site_fract_z
 _atom_site_occupancy
  Er  Er0  1  0.25000000  0.49249000  0.20616900  1
  Er  Er1  1  0.75000000  0.50751000  0.79383100  1
  Er  Er2  1  0.25000000  0.99249000  0.29383100  1
  Er  Er3  1  0.75000000  0.00751000  0.70616900  1
  Ni  Ni4  1  0.75000000  0.30673500  0.41715400  1
  Ni  Ni5  1  0.25000000  0.19326500  0.91715400  1
  Ni  Ni6  1  0.75000000  0.80673500  0.08284600  1
  Ni  Ni7  1  0.25000000  0.69326500  0.58284600  1
  Ge  Ge8  1  0.25000000  0.30331400  0.58818000  1
  Ge  Ge9  1  0.75000000  0.19668600  0.08818000  1
  Ge  Ge10  1  0.25000000  0.80331400  0.91182000  1
  Ge  Ge11  1  0.75000000  0.69668600  0.41182000  1
