# generated using pymatgen
data_LiCeGe2
_symmetry_space_group_name_H-M   'P 1'
_cell_length_a   3.97975900
_cell_length_b   7.87446500
_cell_length_c   10.65979500
_cell_angle_alpha   90.00000000
_cell_angle_beta   90.00000000
_cell_angle_gamma   90.00000000
_symmetry_Int_Tables_number   1
_chemical_formula_structural   LiCeGe2
_chemical_formula_sum   'Li4 Ce4 Ge8'
_cell_volume   334.06169730
_cell_formula_units_Z   4
loop_
 _symmetry_equiv_pos_site_id
 _symmetry_equiv_pos_as_xyz
  1  'x, y, z'
loop_
 _atom_site_type_symbol
 _atom_site_label
 _atom_site_symmetry_multiplicity
 _atom_site_fract_x
 _atom_site_fract_y
 _atom_site_fract_z
 _atom_site_occupancy
  Li  Li0  1  0.25000000  0.48737200  0.10590800  1
  Li  Li1  1  0.25000000  0.98737200  0.39409200  1
  Li  Li2  1  0.75000000  0.01262800  0.60590800  1
  Li  Li3  1  0.75000000  0.51262800  0.89409200  1
  Ce  Ce4  1  0.25000000  0.13474100  0.86492200  1
  Ce  Ce5  1  0.75000000  0.86525900  0.13507800  1
  Ce  Ce6  1  0.25000000  0.63474100  0.63507800  1
  Ce  Ce7  1  0.75000000  0.36525900  0.36492200  1
  Ge  Ge8  1  0.75000000  0.84261600  0.81082400  1
  Ge  Ge9  1  0.25000000  0.65738400  0.31082400  1
  Ge  Ge10  1  0.25000000  0.15738400  0.18917600  1
  Ge  Ge11  1  0.75000000  0.34261600  0.68917600  1
  Ge  Ge12  1  0.75000000  0.27050900  0.06481600  1
  Ge  Ge13  1  0.25000000  0.72949100  0.93518400  1
  Ge  Ge14  1  0.75000000  0.77050900  0.43518400  1
  Ge  Ge15  1  0.25000000  0.22949100  0.56481600  1
