# generated using pymatgen
data_Si5Pt6
_symmetry_space_group_name_H-M   'P 1'
_cell_length_a   3.53962100
_cell_length_b   6.24481300
_cell_length_c   15.60560741
_cell_angle_alpha   86.48171674
_cell_angle_beta   90.00000000
_cell_angle_gamma   90.00000000
_symmetry_Int_Tables_number   1
_chemical_formula_structural   Si5Pt6
_chemical_formula_sum   'Si10 Pt12'
_cell_volume   344.30043910
_cell_formula_units_Z   2
loop_
 _symmetry_equiv_pos_site_id
 _symmetry_equiv_pos_as_xyz
  1  'x, y, z'
loop_
 _atom_site_type_symbol
 _atom_site_label
 _atom_site_symmetry_multiplicity
 _atom_site_fract_x
 _atom_site_fract_y
 _atom_site_fract_z
 _atom_site_occupancy
  Si  Si0  1  0.75000000  0.77738000  0.42706600  1
  Si  Si1  1  0.25000000  0.22262000  0.57293400  1
  Si  Si2  1  0.25000000  0.68712500  0.27980100  1
  Si  Si3  1  0.75000000  0.31287500  0.72019900  1
  Si  Si4  1  0.25000000  0.23140400  0.33493000  1
  Si  Si5  1  0.75000000  0.76859600  0.66507000  1
  Si  Si6  1  0.25000000  0.56460000  0.06468900  1
  Si  Si7  1  0.75000000  0.43540000  0.93531100  1
  Si  Si8  1  0.75000000  0.05370900  0.11927300  1
  Si  Si9  1  0.25000000  0.94629100  0.88072700  1
  Pt  Pt10  1  0.75000000  0.47242200  0.57704900  1
  Pt  Pt11  1  0.25000000  0.52757800  0.42295100  1
  Pt  Pt12  1  0.75000000  0.14796400  0.44783100  1
  Pt  Pt13  1  0.25000000  0.85203600  0.55216900  1
  Pt  Pt14  1  0.75000000  0.99108300  0.28130000  1
  Pt  Pt15  1  0.25000000  0.00891700  0.71870000  1
  Pt  Pt16  1  0.75000000  0.65727700  0.17420300  1
  Pt  Pt17  1  0.25000000  0.34272300  0.82579700  1
  Pt  Pt18  1  0.25000000  0.27952900  0.17831300  1
  Pt  Pt19  1  0.75000000  0.72047100  0.82168700  1
  Pt  Pt20  1  0.25000000  0.19774100  0.00137200  1
  Pt  Pt21  1  0.75000000  0.80225900  0.99862800  1
