# generated using pymatgen
data_MnCl2
_symmetry_space_group_name_H-M   'P 1'
_cell_length_a   6.87768040
_cell_length_b   6.87768040
_cell_length_c   6.87768091
_cell_angle_alpha   31.35219080
_cell_angle_beta   31.35219080
_cell_angle_gamma   31.35219408
_symmetry_Int_Tables_number   1
_chemical_formula_structural   MnCl2
_chemical_formula_sum   'Mn1 Cl2'
_cell_volume   78.17083282
_cell_formula_units_Z   1
loop_
 _symmetry_equiv_pos_site_id
 _symmetry_equiv_pos_as_xyz
  1  'x, y, z'
loop_
 _atom_site_type_symbol
 _atom_site_label
 _atom_site_symmetry_multiplicity
 _atom_site_fract_x
 _atom_site_fract_y
 _atom_site_fract_z
 _atom_site_occupancy
  Mn  Mn0  1  0.00000000  0.00000000  0.00000000  1
  Cl  Cl1  1  0.73721900  0.73721900  0.73721900  1
  Cl  Cl2  1  0.26278100  0.26278100  0.26278100  1
