# generated using pymatgen
data_PtI3
_symmetry_space_group_name_H-M   'P 1'
_cell_length_a   7.11713914
_cell_length_b   7.11713914
_cell_length_c   13.56368204
_cell_angle_alpha   84.36623302
_cell_angle_beta   84.36623302
_cell_angle_gamma   120.21286328
_symmetry_Int_Tables_number   1
_chemical_formula_structural   PtI3
_chemical_formula_sum   'Pt4 I12'
_cell_volume   582.09096896
_cell_formula_units_Z   4
loop_
 _symmetry_equiv_pos_site_id
 _symmetry_equiv_pos_as_xyz
  1  'x, y, z'
loop_
 _atom_site_type_symbol
 _atom_site_label
 _atom_site_symmetry_multiplicity
 _atom_site_fract_x
 _atom_site_fract_y
 _atom_site_fract_z
 _atom_site_occupancy
  Pt  Pt0  1  0.90328400  0.09671600  0.25000000  1
  Pt  Pt1  1  0.09671600  0.90328400  0.75000000  1
  Pt  Pt2  1  0.50000000  0.00000000  0.50000000  1
  Pt  Pt3  1  0.00000000  0.50000000  0.00000000  1
  I  I4  1  0.19145600  0.06991500  0.35868500  1
  I  I5  1  0.93008500  0.80854400  0.14131500  1
  I  I6  1  0.80854400  0.93008500  0.64131500  1
  I  I7  1  0.06991500  0.19145600  0.85868500  1
  I  I8  1  0.16100200  0.65348100  0.62018800  1
  I  I9  1  0.34651900  0.83899800  0.87981200  1
  I  I10  1  0.83899800  0.34651900  0.37981200  1
  I  I11  1  0.65348100  0.16100200  0.12018800  1
  I  I12  1  0.76035000  0.55565100  0.87631200  1
  I  I13  1  0.44434900  0.23965000  0.62368800  1
  I  I14  1  0.23965000  0.44434900  0.12368800  1
  I  I15  1  0.55565100  0.76034900  0.37631200  1
