# generated using pymatgen
data_Tl2PdSe2
_symmetry_space_group_name_H-M   'P 1'
_cell_length_a   3.74679100
_cell_length_b   6.21106400
_cell_length_c   11.59350600
_cell_angle_alpha   90.00000000
_cell_angle_beta   90.00000000
_cell_angle_gamma   90.00000000
_symmetry_Int_Tables_number   1
_chemical_formula_structural   Tl2PdSe2
_chemical_formula_sum   'Tl4 Pd2 Se4'
_cell_volume   269.79895537
_cell_formula_units_Z   2
loop_
 _symmetry_equiv_pos_site_id
 _symmetry_equiv_pos_as_xyz
  1  'x, y, z'
loop_
 _atom_site_type_symbol
 _atom_site_label
 _atom_site_symmetry_multiplicity
 _atom_site_fract_x
 _atom_site_fract_y
 _atom_site_fract_z
 _atom_site_occupancy
  Tl  Tl0  1  0.00000000  0.61052400  0.15320800  1
  Tl  Tl1  1  0.00000000  0.38947600  0.84679200  1
  Tl  Tl2  1  0.00000000  0.11052400  0.34679200  1
  Tl  Tl3  1  0.00000000  0.88947600  0.65320800  1
  Pd  Pd4  1  0.00000000  0.00000000  0.00000000  1
  Pd  Pd5  1  0.00000000  0.50000000  0.50000000  1
  Se  Se6  1  0.50000000  0.67577300  0.38951600  1
  Se  Se7  1  0.50000000  0.32422700  0.61048400  1
  Se  Se8  1  0.50000000  0.17577300  0.11048400  1
  Se  Se9  1  0.50000000  0.82422700  0.88951600  1
