# generated using pymatgen
data_Cr2Se3
_symmetry_space_group_name_H-M   'P 1'
_cell_length_a   6.94430285
_cell_length_b   6.94430285
_cell_length_c   6.94430231
_cell_angle_alpha   54.49979547
_cell_angle_beta   54.49979547
_cell_angle_gamma   54.49979337
_symmetry_Int_Tables_number   1
_chemical_formula_structural   Cr2Se3
_chemical_formula_sum   'Cr4 Se6'
_cell_volume   206.43030664
_cell_formula_units_Z   2
loop_
 _symmetry_equiv_pos_site_id
 _symmetry_equiv_pos_as_xyz
  1  'x, y, z'
loop_
 _atom_site_type_symbol
 _atom_site_label
 _atom_site_symmetry_multiplicity
 _atom_site_fract_x
 _atom_site_fract_y
 _atom_site_fract_z
 _atom_site_occupancy
  Cr  Cr0  1  0.00000000  0.00000000  0.00000000  1
  Cr  Cr1  1  0.50000000  0.50000000  0.50000000  1
  Cr  Cr2  1  0.67609500  0.67609500  0.67609500  1
  Cr  Cr3  1  0.32390500  0.32390500  0.32390500  1
  Se  Se4  1  0.73792400  0.09583300  0.40375100  1
  Se  Se5  1  0.40375100  0.73792400  0.09583300  1
  Se  Se6  1  0.09583300  0.40375100  0.73792400  1
  Se  Se7  1  0.26207600  0.90416700  0.59624900  1
  Se  Se8  1  0.59624900  0.26207600  0.90416700  1
  Se  Se9  1  0.90416700  0.59624900  0.26207600  1
