# generated using pymatgen
data_K2Ge2Se5
_symmetry_space_group_name_H-M   'P 1'
_cell_length_a   11.91312300
_cell_length_b   10.07485500
_cell_length_c   10.43443056
_cell_angle_alpha   89.84832108
_cell_angle_beta   90.00000000
_cell_angle_gamma   90.00000000
_symmetry_Int_Tables_number   1
_chemical_formula_structural   K2Ge2Se5
_chemical_formula_sum   'K8 Ge8 Se20'
_cell_volume   1252.36713356
_cell_formula_units_Z   4
loop_
 _symmetry_equiv_pos_site_id
 _symmetry_equiv_pos_as_xyz
  1  'x, y, z'
loop_
 _atom_site_type_symbol
 _atom_site_label
 _atom_site_symmetry_multiplicity
 _atom_site_fract_x
 _atom_site_fract_y
 _atom_site_fract_z
 _atom_site_occupancy
  K  K0  1  0.49251900  0.63835900  0.66605100  1
  K  K1  1  0.99251900  0.36164100  0.33394900  1
  K  K2  1  0.50748100  0.36164100  0.33394900  1
  K  K3  1  0.00748100  0.63835900  0.66605100  1
  K  K4  1  0.75000000  0.04077700  0.58149800  1
  K  K5  1  0.25000000  0.95922300  0.41850200  1
  K  K6  1  0.75000000  0.40622000  0.89259500  1
  K  K7  1  0.25000000  0.59378000  0.10740500  1
  Ge  Ge8  1  0.08789100  0.23294900  0.73681200  1
  Ge  Ge9  1  0.58789100  0.76705100  0.26318800  1
  Ge  Ge10  1  0.91210900  0.76705100  0.26318800  1
  Ge  Ge11  1  0.41210900  0.23294900  0.73681200  1
  Ge  Ge12  1  0.75000000  0.08864800  0.17921300  1
  Ge  Ge13  1  0.25000000  0.91135200  0.82078700  1
  Ge  Ge14  1  0.75000000  0.79864600  0.94605100  1
  Ge  Ge15  1  0.25000000  0.20135400  0.05394900  1
  Se  Se16  1  0.57409800  0.31628900  0.64371000  1
  Se  Se17  1  0.07409800  0.68371100  0.35629000  1
  Se  Se18  1  0.42590200  0.68371100  0.35629000  1
  Se  Se19  1  0.92590200  0.31628900  0.64371000  1
  Se  Se20  1  0.08338700  0.29629000  0.95904000  1
  Se  Se21  1  0.58338700  0.70371000  0.04096000  1
  Se  Se22  1  0.91661300  0.70371000  0.04096000  1
  Se  Se23  1  0.41661300  0.29629000  0.95904000  1
  Se  Se24  1  0.08487200  0.99483900  0.71109300  1
  Se  Se25  1  0.58487200  0.00516100  0.28890700  1
  Se  Se26  1  0.91512800  0.00516100  0.28890700  1
  Se  Se27  1  0.41512800  0.99483900  0.71109300  1
  Se  Se28  1  0.75000000  0.31585000  0.19955400  1
  Se  Se29  1  0.25000000  0.68415000  0.80044600  1
  Se  Se30  1  0.75000000  0.73451600  0.73331900  1
  Se  Se31  1  0.25000000  0.26548400  0.26668100  1
  Se  Se32  1  0.75000000  0.03585800  0.95566500  1
  Se  Se33  1  0.25000000  0.96414200  0.04433500  1
  Se  Se34  1  0.75000000  0.67475600  0.37259600  1
  Se  Se35  1  0.25000000  0.32524400  0.62740400  1
