# generated using pymatgen
data_GeH3Cl
_symmetry_space_group_name_H-M   'P 1'
_cell_length_a   4.81491739
_cell_length_b   4.81491739
_cell_length_c   8.58306100
_cell_angle_alpha   90.00000000
_cell_angle_beta   90.00000000
_cell_angle_gamma   105.83343506
_symmetry_Int_Tables_number   1
_chemical_formula_structural   GeH3Cl
_chemical_formula_sum   'Ge2 H6 Cl2'
_cell_volume   191.43509567
_cell_formula_units_Z   2
loop_
 _symmetry_equiv_pos_site_id
 _symmetry_equiv_pos_as_xyz
  1  'x, y, z'
loop_
 _atom_site_type_symbol
 _atom_site_label
 _atom_site_symmetry_multiplicity
 _atom_site_fract_x
 _atom_site_fract_y
 _atom_site_fract_z
 _atom_site_occupancy
  Ge  Ge0  1  0.43742400  0.43742400  0.04954500  1
  Ge  Ge1  1  0.56257600  0.56257600  0.54954500  1
  H  H2  1  0.78272500  0.44932900  0.45964700  1
  H  H3  1  0.21727500  0.55067100  0.95964700  1
  H  H4  1  0.55067100  0.21727500  0.95964700  1
  H  H5  1  0.44932900  0.78272500  0.45964700  1
  H  H6  1  0.32834000  0.32834000  0.63030000  1
  H  H7  1  0.67166000  0.67166000  0.13030000  1
  Cl  Cl8  1  0.18511300  0.18511300  0.24369300  1
  Cl  Cl9  1  0.81488700  0.81488700  0.74369300  1
