# generated using pymatgen
data_Li2BPd3
_symmetry_space_group_name_H-M   'P 1'
_cell_length_a   6.83415300
_cell_length_b   6.83415300
_cell_length_c   6.83415300
_cell_angle_alpha   90.00000000
_cell_angle_beta   90.00000000
_cell_angle_gamma   90.00000000
_symmetry_Int_Tables_number   1
_chemical_formula_structural   Li2BPd3
_chemical_formula_sum   'Li8 B4 Pd12'
_cell_volume   319.19353912
_cell_formula_units_Z   4
loop_
 _symmetry_equiv_pos_site_id
 _symmetry_equiv_pos_as_xyz
  1  'x, y, z'
loop_
 _atom_site_type_symbol
 _atom_site_label
 _atom_site_symmetry_multiplicity
 _atom_site_fract_x
 _atom_site_fract_y
 _atom_site_fract_z
 _atom_site_occupancy
  Li  Li0  1  0.30568100  0.30568100  0.30568100  1
  Li  Li1  1  0.05568100  0.44431900  0.55568100  1
  Li  Li2  1  0.55568100  0.05568100  0.44431900  1
  Li  Li3  1  0.44431900  0.55568100  0.05568100  1
  Li  Li4  1  0.19431900  0.69431900  0.80568100  1
  Li  Li5  1  0.94431900  0.94431900  0.94431900  1
  Li  Li6  1  0.80568100  0.19431900  0.69431900  1
  Li  Li7  1  0.69431900  0.80568100  0.19431900  1
  B  B8  1  0.87500000  0.37500000  0.12500000  1
  B  B9  1  0.37500000  0.12500000  0.87500000  1
  B  B10  1  0.62500000  0.62500000  0.62500000  1
  B  B11  1  0.12500000  0.87500000  0.37500000  1
  Pd  Pd12  1  0.19505600  0.05494400  0.62500000  1
  Pd  Pd13  1  0.44505600  0.37500000  0.69505600  1
  Pd  Pd14  1  0.05494400  0.62500000  0.19505600  1
  Pd  Pd15  1  0.94505600  0.12500000  0.30494400  1
  Pd  Pd16  1  0.30494400  0.94505600  0.12500000  1
  Pd  Pd17  1  0.69505600  0.44505600  0.37500000  1
  Pd  Pd18  1  0.55494400  0.87500000  0.80494400  1
  Pd  Pd19  1  0.62500000  0.19505600  0.05494400  1
  Pd  Pd20  1  0.37500000  0.69505600  0.44505600  1
  Pd  Pd21  1  0.87500000  0.80494400  0.55494400  1
  Pd  Pd22  1  0.12500000  0.30494400  0.94505600  1
  Pd  Pd23  1  0.80494400  0.55494400  0.87500000  1
