# generated using pymatgen
data_Cs2Cu5Se4
_symmetry_space_group_name_H-M   'P 1'
_cell_length_a   10.00804085
_cell_length_b   10.00804085
_cell_length_c   13.29051100
_cell_angle_alpha   90.00000000
_cell_angle_beta   90.00000000
_cell_angle_gamma   156.86254323
_symmetry_Int_Tables_number   1
_chemical_formula_structural   Cs2Cu5Se4
_chemical_formula_sum   'Cs4 Cu10 Se8'
_cell_volume   523.07534037
_cell_formula_units_Z   2
loop_
 _symmetry_equiv_pos_site_id
 _symmetry_equiv_pos_as_xyz
  1  'x, y, z'
loop_
 _atom_site_type_symbol
 _atom_site_label
 _atom_site_symmetry_multiplicity
 _atom_site_fract_x
 _atom_site_fract_y
 _atom_site_fract_z
 _atom_site_occupancy
  Cs  Cs0  1  0.85809300  0.14190700  0.25000000  1
  Cs  Cs1  1  0.14190700  0.85809300  0.75000000  1
  Cs  Cs2  1  0.00000000  0.00000000  0.50000000  1
  Cs  Cs3  1  0.00000000  0.00000000  0.00000000  1
  Cu  Cu4  1  0.21521400  0.78478600  0.04122100  1
  Cu  Cu5  1  0.78478600  0.21521400  0.54122100  1
  Cu  Cu6  1  0.21521400  0.78478600  0.45877900  1
  Cu  Cu7  1  0.78478600  0.21521400  0.95877900  1
  Cu  Cu8  1  0.91604000  0.08396000  0.75000000  1
  Cu  Cu9  1  0.08396000  0.91604000  0.25000000  1
  Cu  Cu10  1  0.35184400  0.64815600  0.65756500  1
  Cu  Cu11  1  0.64815600  0.35184400  0.34243500  1
  Cu  Cu12  1  0.64815600  0.35184400  0.15756500  1
  Cu  Cu13  1  0.35184400  0.64815600  0.84243500  1
  Se  Se14  1  0.65745300  0.34254700  0.97914100  1
  Se  Se15  1  0.65745300  0.34254700  0.52085900  1
  Se  Se16  1  0.34254700  0.65745300  0.02085900  1
  Se  Se17  1  0.34254700  0.65745300  0.47914100  1
  Se  Se18  1  0.79337900  0.20662100  0.75000000  1
  Se  Se19  1  0.20662100  0.79337900  0.25000000  1
  Se  Se20  1  0.48110300  0.51889700  0.75000000  1
  Se  Se21  1  0.51889700  0.48110300  0.25000000  1
