# generated using pymatgen
data_YSi3Ni5
_symmetry_space_group_name_H-M   'P 1'
_cell_length_a   3.79180200
_cell_length_b   6.63138600
_cell_length_c   18.71871000
_cell_angle_alpha   90.00000000
_cell_angle_beta   90.00000000
_cell_angle_gamma   90.00000000
_symmetry_Int_Tables_number   1
_chemical_formula_structural   YSi3Ni5
_chemical_formula_sum   'Y4 Si12 Ni20'
_cell_volume   470.68014157
_cell_formula_units_Z   4
loop_
 _symmetry_equiv_pos_site_id
 _symmetry_equiv_pos_as_xyz
  1  'x, y, z'
loop_
 _atom_site_type_symbol
 _atom_site_label
 _atom_site_symmetry_multiplicity
 _atom_site_fract_x
 _atom_site_fract_y
 _atom_site_fract_z
 _atom_site_occupancy
  Y  Y0  1  0.25000000  0.62289400  0.64369900  1
  Y  Y1  1  0.75000000  0.37710600  0.35630100  1
  Y  Y2  1  0.75000000  0.12289400  0.85630100  1
  Y  Y3  1  0.25000000  0.87710600  0.14369900  1
  Si  Si4  1  0.25000000  0.84411100  0.92555400  1
  Si  Si5  1  0.75000000  0.15588900  0.07444600  1
  Si  Si6  1  0.75000000  0.34411100  0.57444600  1
  Si  Si7  1  0.25000000  0.65588900  0.42555400  1
  Si  Si8  1  0.75000000  0.62160800  0.76261700  1
  Si  Si9  1  0.25000000  0.37839200  0.23738300  1
  Si  Si10  1  0.25000000  0.41827700  0.91424200  1
  Si  Si11  1  0.75000000  0.58172300  0.08575800  1
  Si  Si12  1  0.75000000  0.91827700  0.58575800  1
  Si  Si13  1  0.25000000  0.08172300  0.41424200  1
  Si  Si14  1  0.25000000  0.12160800  0.73738300  1
  Si  Si15  1  0.75000000  0.87839200  0.26261700  1
  Ni  Ni16  1  0.25000000  0.13338600  0.99470200  1
  Ni  Ni17  1  0.75000000  0.38426200  0.98498400  1
  Ni  Ni18  1  0.75000000  0.11573800  0.48498400  1
  Ni  Ni19  1  0.25000000  0.61573800  0.01501600  1
  Ni  Ni20  1  0.25000000  0.35694600  0.11502400  1
  Ni  Ni21  1  0.75000000  0.64305400  0.88497600  1
  Ni  Ni22  1  0.75000000  0.85694600  0.38497600  1
  Ni  Ni23  1  0.25000000  0.14305400  0.61502400  1
  Ni  Ni24  1  0.25000000  0.06928500  0.29354900  1
  Ni  Ni25  1  0.75000000  0.93071500  0.70645100  1
  Ni  Ni26  1  0.75000000  0.56928500  0.20645100  1
  Ni  Ni27  1  0.25000000  0.43071500  0.79354900  1
  Ni  Ni28  1  0.75000000  0.63338600  0.50529800  1
  Ni  Ni29  1  0.25000000  0.36661400  0.49470200  1
  Ni  Ni30  1  0.25000000  0.81436400  0.80042200  1
  Ni  Ni31  1  0.75000000  0.18563600  0.19957800  1
  Ni  Ni32  1  0.75000000  0.31436400  0.69957800  1
  Ni  Ni33  1  0.25000000  0.68563600  0.30042200  1
  Ni  Ni34  1  0.25000000  0.88426200  0.51501600  1
  Ni  Ni35  1  0.75000000  0.86661400  0.00529800  1
