# generated using pymatgen
data_Na3BN2
_symmetry_space_group_name_H-M   'P 1'
_cell_length_a   7.98222800
_cell_length_b   5.74236800
_cell_length_c   7.91703498
_cell_angle_alpha   68.65507839
_cell_angle_beta   90.00000000
_cell_angle_gamma   90.00000000
_symmetry_Int_Tables_number   1
_chemical_formula_structural   Na3BN2
_chemical_formula_sum   'Na12 B4 N8'
_cell_volume   338.00008563
_cell_formula_units_Z   4
loop_
 _symmetry_equiv_pos_site_id
 _symmetry_equiv_pos_as_xyz
  1  'x, y, z'
loop_
 _atom_site_type_symbol
 _atom_site_label
 _atom_site_symmetry_multiplicity
 _atom_site_fract_x
 _atom_site_fract_y
 _atom_site_fract_z
 _atom_site_occupancy
  Na  Na0  1  0.29206400  0.25757300  0.81331600  1
  Na  Na1  1  0.79206400  0.74242700  0.68668400  1
  Na  Na2  1  0.70793600  0.74242700  0.18668400  1
  Na  Na3  1  0.20793600  0.25757300  0.31331600  1
  Na  Na4  1  0.47815100  0.75875300  0.87786200  1
  Na  Na5  1  0.97815100  0.24124700  0.62213800  1
  Na  Na6  1  0.52184900  0.24124700  0.12213800  1
  Na  Na7  1  0.02184900  0.75875300  0.37786200  1
  Na  Na8  1  0.03146000  0.74899600  0.99194900  1
  Na  Na9  1  0.53146000  0.25100400  0.50805100  1
  Na  Na10  1  0.96854000  0.25100400  0.00805100  1
  Na  Na11  1  0.46854000  0.74899600  0.49194900  1
  B  B12  1  0.32198400  0.78591900  0.17655900  1
  B  B13  1  0.67801600  0.21408100  0.82344100  1
  B  B14  1  0.17801600  0.78591900  0.67655900  1
  B  B15  1  0.82198400  0.21408100  0.32344100  1
  N  N16  1  0.92455100  0.41634900  0.27622400  1
  N  N17  1  0.22051500  0.98900600  0.12969400  1
  N  N18  1  0.07544900  0.58365100  0.72377600  1
  N  N19  1  0.42455100  0.58365100  0.22377600  1
  N  N20  1  0.72051500  0.01099400  0.37030600  1
  N  N21  1  0.77948500  0.01099400  0.87030600  1
  N  N22  1  0.57544900  0.41634900  0.77622400  1
  N  N23  1  0.27948500  0.98900600  0.62969400  1
