# generated using pymatgen
data_CoP2(H4O5)2
_symmetry_space_group_name_H-M   'P 1'
_cell_length_a   9.99482400
_cell_length_b   5.37037300
_cell_length_c   8.70312566
_cell_angle_alpha   56.18906364
_cell_angle_beta   90.00000000
_cell_angle_gamma   90.00000000
_symmetry_Int_Tables_number   1
_chemical_formula_structural   CoP2(H4O5)2
_chemical_formula_sum   'Co2 P4 H16 O20'
_cell_volume   388.14344603
_cell_formula_units_Z   2
loop_
 _symmetry_equiv_pos_site_id
 _symmetry_equiv_pos_as_xyz
  1  'x, y, z'
loop_
 _atom_site_type_symbol
 _atom_site_label
 _atom_site_symmetry_multiplicity
 _atom_site_fract_x
 _atom_site_fract_y
 _atom_site_fract_z
 _atom_site_occupancy
  Co  Co0  1  0.00000000  0.00000000  0.00000000  1
  Co  Co1  1  0.50000000  0.00000000  0.50000000  1
  P  P2  1  0.78344600  0.08709300  0.66408700  1
  P  P3  1  0.28344600  0.91290700  0.83591300  1
  P  P4  1  0.21655400  0.91290700  0.33591300  1
  P  P5  1  0.71655400  0.08709300  0.16408700  1
  H  H6  1  0.77671200  0.87380600  0.51211500  1
  H  H7  1  0.27671200  0.12619400  0.98788500  1
  H  H8  1  0.22328800  0.12619400  0.48788500  1
  H  H9  1  0.72328800  0.87380600  0.01211500  1
  H  H10  1  0.89031300  0.44080700  0.40526800  1
  H  H11  1  0.39031300  0.55919300  0.09473200  1
  H  H12  1  0.04848900  0.42147600  0.26570300  1
  H  H13  1  0.54848900  0.57852400  0.23429700  1
  H  H14  1  0.95151100  0.57852400  0.73429700  1
  H  H15  1  0.45151100  0.42147600  0.76570300  1
  H  H16  1  0.92275700  0.41182300  0.16189800  1
  H  H17  1  0.42275700  0.58817700  0.33810200  1
  H  H18  1  0.07724300  0.58817700  0.83810200  1
  H  H19  1  0.57724300  0.41182300  0.66189800  1
  H  H20  1  0.10968700  0.55919300  0.59473200  1
  H  H21  1  0.60968700  0.44080700  0.90526800  1
  O  O22  1  0.36137600  0.61152300  0.96913700  1
  O  O23  1  0.13862400  0.61152300  0.46913700  1
  O  O24  1  0.66991500  0.84776800  0.12171100  1
  O  O25  1  0.16991500  0.15223200  0.37828900  1
  O  O26  1  0.33008500  0.15223200  0.87828900  1
  O  O27  1  0.63862400  0.38847700  0.03086300  1
  O  O28  1  0.53654700  0.53143800  0.70690000  1
  O  O29  1  0.03654700  0.46856200  0.79310000  1
  O  O30  1  0.46345300  0.46856200  0.29310000  1
  O  O31  1  0.96345300  0.53143800  0.20690000  1
  O  O32  1  0.63215600  0.13569000  0.63256300  1
  O  O33  1  0.13215600  0.86431000  0.86743700  1
  O  O34  1  0.36784400  0.86431000  0.36743700  1
  O  O35  1  0.86784400  0.13569000  0.13256300  1
  O  O36  1  0.82786700  0.97758000  0.85987500  1
  O  O37  1  0.32786700  0.02242000  0.64012500  1
  O  O38  1  0.17213300  0.02242000  0.14012500  1
  O  O39  1  0.67213300  0.97758000  0.35987500  1
  O  O40  1  0.86137600  0.38847700  0.53086300  1
  O  O41  1  0.83008500  0.84776800  0.62171100  1
