# generated using pymatgen
data_CsTbF5
_symmetry_space_group_name_H-M   'P 1'
_cell_length_a   8.49010934
_cell_length_b   8.49010934
_cell_length_c   8.51891400
_cell_angle_alpha   90.00000000
_cell_angle_beta   90.00000000
_cell_angle_gamma   119.80976579
_symmetry_Int_Tables_number   1
_chemical_formula_structural   CsTbF5
_chemical_formula_sum   'Cs4 Tb4 F20'
_cell_volume   532.80802254
_cell_formula_units_Z   4
loop_
 _symmetry_equiv_pos_site_id
 _symmetry_equiv_pos_as_xyz
  1  'x, y, z'
loop_
 _atom_site_type_symbol
 _atom_site_label
 _atom_site_symmetry_multiplicity
 _atom_site_fract_x
 _atom_site_fract_y
 _atom_site_fract_z
 _atom_site_occupancy
  Cs  Cs0  1  0.70371700  0.29628300  0.50000000  1
  Cs  Cs1  1  0.20371700  0.79628300  0.00000000  1
  Cs  Cs2  1  0.29628300  0.70371700  0.50000000  1
  Cs  Cs3  1  0.79628300  0.20371700  0.00000000  1
  Tb  Tb4  1  0.33998500  0.33998500  0.84027000  1
  Tb  Tb5  1  0.66001500  0.66001500  0.15973000  1
  Tb  Tb6  1  0.16001500  0.16001500  0.34027000  1
  Tb  Tb7  1  0.83998500  0.83998500  0.65973000  1
  F  F8  1  0.29163900  0.29163900  0.57357500  1
  F  F9  1  0.70836100  0.70836100  0.42642500  1
  F  F10  1  0.20836100  0.20836100  0.07357500  1
  F  F11  1  0.79163900  0.79163900  0.92642500  1
  F  F12  1  0.07307200  0.07307200  0.79177600  1
  F  F13  1  0.92692800  0.92692800  0.20822400  1
  F  F14  1  0.42692800  0.42692800  0.29177600  1
  F  F15  1  0.57307200  0.57307200  0.70822400  1
  F  F16  1  0.59269100  0.40730900  0.00000000  1
  F  F17  1  0.09269100  0.90730900  0.50000000  1
  F  F18  1  0.40730900  0.59269100  0.00000000  1
  F  F19  1  0.90730900  0.09269100  0.50000000  1
  F  F20  1  0.44250600  0.14556000  0.79790300  1
  F  F21  1  0.85444000  0.55749400  0.20209700  1
  F  F22  1  0.35444000  0.05749400  0.29790300  1
  F  F23  1  0.94250600  0.64556000  0.70209700  1
  F  F24  1  0.55749400  0.85444000  0.20209700  1
  F  F25  1  0.14556000  0.44250600  0.79790300  1
  F  F26  1  0.64556000  0.94250600  0.70209700  1
  F  F27  1  0.05749400  0.35444000  0.29790300  1
