# generated using pymatgen
data_Pr2Au
_symmetry_space_group_name_H-M   'P 1'
_cell_length_a   5.15280700
_cell_length_b   7.40620500
_cell_length_c   9.42382600
_cell_angle_alpha   90.00000000
_cell_angle_beta   90.00000000
_cell_angle_gamma   90.00000000
_symmetry_Int_Tables_number   1
_chemical_formula_structural   Pr2Au
_chemical_formula_sum   'Pr8 Au4'
_cell_volume   359.63906826
_cell_formula_units_Z   4
loop_
 _symmetry_equiv_pos_site_id
 _symmetry_equiv_pos_as_xyz
  1  'x, y, z'
loop_
 _atom_site_type_symbol
 _atom_site_label
 _atom_site_symmetry_multiplicity
 _atom_site_fract_x
 _atom_site_fract_y
 _atom_site_fract_z
 _atom_site_occupancy
  Pr  Pr0  1  0.25000000  0.49300400  0.17448600  1
  Pr  Pr1  1  0.75000000  0.50699600  0.82551400  1
  Pr  Pr2  1  0.25000000  0.99300400  0.32551400  1
  Pr  Pr3  1  0.75000000  0.00699600  0.67448600  1
  Pr  Pr4  1  0.75000000  0.64992200  0.41371000  1
  Pr  Pr5  1  0.25000000  0.35007800  0.58629000  1
  Pr  Pr6  1  0.75000000  0.14992200  0.08629000  1
  Pr  Pr7  1  0.25000000  0.85007800  0.91371000  1
  Au  Au8  1  0.25000000  0.25914400  0.90372500  1
  Au  Au9  1  0.75000000  0.74085600  0.09627500  1
  Au  Au10  1  0.25000000  0.75914400  0.59627500  1
  Au  Au11  1  0.75000000  0.24085600  0.40372500  1
