# generated using pymatgen
data_NaCr(GeO3)2
_symmetry_space_group_name_H-M   'P 1'
_cell_length_a   5.55523971
_cell_length_b   6.75508433
_cell_length_c   6.75508512
_cell_angle_alpha   83.10021518
_cell_angle_beta   76.80982023
_cell_angle_gamma   76.80982532
_symmetry_Int_Tables_number   1
_chemical_formula_structural   NaCr(GeO3)2
_chemical_formula_sum   'Na2 Cr2 Ge4 O12'
_cell_volume   239.67302851
_cell_formula_units_Z   2
loop_
 _symmetry_equiv_pos_site_id
 _symmetry_equiv_pos_as_xyz
  1  'x, y, z'
loop_
 _atom_site_type_symbol
 _atom_site_label
 _atom_site_symmetry_multiplicity
 _atom_site_fract_x
 _atom_site_fract_y
 _atom_site_fract_z
 _atom_site_occupancy
  Na  Na0  1  0.25000000  0.69723200  0.30276800  1
  Na  Na1  1  0.75000000  0.30276800  0.69723200  1
  Cr  Cr2  1  0.75000000  0.91091500  0.08908500  1
  Cr  Cr3  1  0.25000000  0.08908500  0.91091500  1
  Ge  Ge4  1  0.77395600  0.38583300  0.19389300  1
  Ge  Ge5  1  0.72604400  0.80610700  0.61416700  1
  Ge  Ge6  1  0.22604400  0.61416700  0.80610700  1
  Ge  Ge7  1  0.27395600  0.19389300  0.38583300  1
  O  O8  1  0.49337500  0.35069400  0.37516600  1
  O  O9  1  0.00662500  0.62483400  0.64930600  1
  O  O10  1  0.50662500  0.64930600  0.62483400  1
  O  O11  1  0.99337500  0.37516600  0.35069400  1
  O  O12  1  0.19026500  0.08612200  0.63223400  1
  O  O13  1  0.30973500  0.36776600  0.91387800  1
  O  O14  1  0.80973500  0.91387800  0.36776600  1
  O  O15  1  0.69026500  0.63223400  0.08612200  1
  O  O16  1  0.87058700  0.18772700  0.02297400  1
  O  O17  1  0.62941300  0.97702600  0.81227300  1
  O  O18  1  0.12941300  0.81227300  0.97702600  1
  O  O19  1  0.37058800  0.02297400  0.18772700  1
