# generated using pymatgen
data_Tl2SnSe3
_symmetry_space_group_name_H-M   'P 1'
_cell_length_a   8.28191100
_cell_length_b   8.47778000
_cell_length_c   21.65861200
_cell_angle_alpha   90.00000000
_cell_angle_beta   90.00000000
_cell_angle_gamma   90.00000000
_symmetry_Int_Tables_number   1
_chemical_formula_structural   Tl2SnSe3
_chemical_formula_sum   'Tl16 Sn8 Se24'
_cell_volume   1520.69921846
_cell_formula_units_Z   8
loop_
 _symmetry_equiv_pos_site_id
 _symmetry_equiv_pos_as_xyz
  1  'x, y, z'
loop_
 _atom_site_type_symbol
 _atom_site_label
 _atom_site_symmetry_multiplicity
 _atom_site_fract_x
 _atom_site_fract_y
 _atom_site_fract_z
 _atom_site_occupancy
  Tl  Tl0  1  0.67564200  0.98661200  0.66680400  1
  Tl  Tl1  1  0.82435800  0.48661200  0.16680400  1
  Tl  Tl2  1  0.17564200  0.51338800  0.66680400  1
  Tl  Tl3  1  0.67564200  0.98661200  0.83319600  1
  Tl  Tl4  1  0.32435800  0.01338800  0.33319600  1
  Tl  Tl5  1  0.17564200  0.51338800  0.83319600  1
  Tl  Tl6  1  0.82435800  0.48661200  0.33319600  1
  Tl  Tl7  1  0.32435800  0.01338800  0.16680400  1
  Tl  Tl8  1  0.26524500  0.94817000  0.49460900  1
  Tl  Tl9  1  0.76524500  0.55183000  0.00539100  1
  Tl  Tl10  1  0.23475500  0.44817000  0.50539100  1
  Tl  Tl11  1  0.73475500  0.05183000  0.99460900  1
  Tl  Tl12  1  0.73475500  0.05183000  0.50539100  1
  Tl  Tl13  1  0.23475500  0.44817000  0.99460900  1
  Tl  Tl14  1  0.76524500  0.55183000  0.49460900  1
  Tl  Tl15  1  0.26524500  0.94817000  0.00539100  1
  Sn  Sn16  1  0.17622700  0.00950400  0.66666100  1
  Sn  Sn17  1  0.67622700  0.49049600  0.66666100  1
  Sn  Sn18  1  0.32377300  0.50950400  0.16666100  1
  Sn  Sn19  1  0.82377300  0.99049600  0.33333900  1
  Sn  Sn20  1  0.82377300  0.99049600  0.16666100  1
  Sn  Sn21  1  0.32377300  0.50950400  0.33333900  1
  Sn  Sn22  1  0.67622700  0.49049600  0.83333900  1
  Sn  Sn23  1  0.17622700  0.00950400  0.83333900  1
  Se  Se24  1  0.01372200  0.83554300  0.90732900  1
  Se  Se25  1  0.51372200  0.66445700  0.59267100  1
  Se  Se26  1  0.48627800  0.33554300  0.09267100  1
  Se  Se27  1  0.98627800  0.16445700  0.40732900  1
  Se  Se28  1  0.98627800  0.16445700  0.09267100  1
  Se  Se29  1  0.48627800  0.33554300  0.40732900  1
  Se  Se30  1  0.51372200  0.66445700  0.90732900  1
  Se  Se31  1  0.01372200  0.83554300  0.59267100  1
  Se  Se32  1  0.12713400  0.68086400  0.39338200  1
  Se  Se33  1  0.62713400  0.81913600  0.10661800  1
  Se  Se34  1  0.37286600  0.18086400  0.60661800  1
  Se  Se35  1  0.87286600  0.31913600  0.89338200  1
  Se  Se36  1  0.87286600  0.31913600  0.60661800  1
  Se  Se37  1  0.37286600  0.18086400  0.89338200  1
  Se  Se38  1  0.62713400  0.81913600  0.39338200  1
  Se  Se39  1  0.33358500  0.84004600  0.75000000  1
  Se  Se40  1  0.00915600  0.16480600  0.75000000  1
  Se  Se41  1  0.50915600  0.33519400  0.75000000  1
  Se  Se42  1  0.49084400  0.66480600  0.25000000  1
  Se  Se43  1  0.99084400  0.83519400  0.25000000  1
  Se  Se44  1  0.66641500  0.15995400  0.25000000  1
  Se  Se45  1  0.16641500  0.34004600  0.25000000  1
  Se  Se46  1  0.83358500  0.65995400  0.75000000  1
  Se  Se47  1  0.12713400  0.68086400  0.10661800  1
