# generated using pymatgen
data_KPb
_symmetry_space_group_name_H-M   'P 1'
_cell_length_a   12.71630237
_cell_length_b   12.71630237
_cell_length_c   12.71630237
_cell_angle_alpha   125.07238295
_cell_angle_beta   125.07238295
_cell_angle_gamma   81.41817666
_symmetry_Int_Tables_number   1
_chemical_formula_structural   KPb
_chemical_formula_sum   'K16 Pb16'
_cell_volume   1326.12928569
_cell_formula_units_Z   16
loop_
 _symmetry_equiv_pos_site_id
 _symmetry_equiv_pos_as_xyz
  1  'x, y, z'
loop_
 _atom_site_type_symbol
 _atom_site_label
 _atom_site_symmetry_multiplicity
 _atom_site_fract_x
 _atom_site_fract_y
 _atom_site_fract_z
 _atom_site_occupancy
  K  K0  1  0.62500000  0.24406300  0.11906300  1
  K  K1  1  0.99406300  0.37500000  0.11906300  1
  K  K2  1  0.25593700  0.87500000  0.88093700  1
  K  K3  1  0.12500000  0.50593700  0.88093700  1
  K  K4  1  0.12500000  0.00593700  0.38093700  1
  K  K5  1  0.75593700  0.87500000  0.38093700  1
  K  K6  1  0.49406300  0.37500000  0.61906300  1
  K  K7  1  0.62500000  0.74406300  0.61906300  1
  K  K8  1  0.62218200  0.12218200  0.74436500  1
  K  K9  1  0.87218200  0.62781800  0.00000000  1
  K  K10  1  0.62781800  0.87218200  0.00000000  1
  K  K11  1  0.37781800  0.87781800  0.25563500  1
  K  K12  1  0.12781800  0.12781800  0.75563500  1
  K  K13  1  0.87781800  0.62218200  0.50000000  1
  K  K14  1  0.12218200  0.37781800  0.50000000  1
  K  K15  1  0.37218200  0.37218200  0.24436500  1
  Pb  Pb16  1  0.07163500  0.75284200  0.44195100  1
  Pb  Pb17  1  0.87031600  0.18910900  0.44195100  1
  Pb  Pb18  1  0.74715800  0.42836500  0.55804900  1
  Pb  Pb19  1  0.17836500  0.12031600  0.18120700  1
  Pb  Pb20  1  0.93910900  0.99715800  0.81879300  1
  Pb  Pb21  1  0.50284200  0.56089100  0.18120700  1
  Pb  Pb22  1  0.37968400  0.32163500  0.81879300  1
  Pb  Pb23  1  0.31089100  0.62968400  0.55804900  1
  Pb  Pb24  1  0.67836500  0.49715800  0.05804900  1
  Pb  Pb25  1  0.87968400  0.06089100  0.05804900  1
  Pb  Pb26  1  0.00284200  0.82163500  0.94195100  1
  Pb  Pb27  1  0.57163500  0.12968400  0.31879300  1
  Pb  Pb28  1  0.81089100  0.25284200  0.68120700  1
  Pb  Pb29  1  0.24715800  0.68910900  0.31879300  1
  Pb  Pb30  1  0.37031600  0.92836500  0.68120700  1
  Pb  Pb31  1  0.43910900  0.62031600  0.94195100  1
