# generated using pymatgen
data_BaH8O5
_symmetry_space_group_name_H-M   'P 1'
_cell_length_a   6.02001600
_cell_length_b   7.62730600
_cell_length_c   11.50427000
_cell_angle_alpha   90.00000000
_cell_angle_beta   90.00000000
_cell_angle_gamma   90.00000000
_symmetry_Int_Tables_number   1
_chemical_formula_structural   BaH8O5
_chemical_formula_sum   'Ba4 H32 O20'
_cell_volume   528.23586128
_cell_formula_units_Z   4
loop_
 _symmetry_equiv_pos_site_id
 _symmetry_equiv_pos_as_xyz
  1  'x, y, z'
loop_
 _atom_site_type_symbol
 _atom_site_label
 _atom_site_symmetry_multiplicity
 _atom_site_fract_x
 _atom_site_fract_y
 _atom_site_fract_z
 _atom_site_occupancy
  Ba  Ba0  1  0.07915100  0.45581300  0.75000000  1
  Ba  Ba1  1  0.57915100  0.04418700  0.25000000  1
  Ba  Ba2  1  0.42084900  0.95581300  0.75000000  1
  Ba  Ba3  1  0.92084900  0.54418700  0.25000000  1
  H  H4  1  0.26150900  0.46568000  0.02838500  1
  H  H5  1  0.76150900  0.03432000  0.97161500  1
  H  H6  1  0.23849100  0.96568000  0.47161500  1
  H  H7  1  0.73849100  0.53432000  0.52838500  1
  H  H8  1  0.73849100  0.53432000  0.97161500  1
  H  H9  1  0.23849100  0.96568000  0.02838500  1
  H  H10  1  0.76150900  0.03432000  0.52838500  1
  H  H11  1  0.26150900  0.46568000  0.47161500  1
  H  H12  1  0.48243000  0.67376200  0.08448600  1
  H  H13  1  0.98243000  0.82623800  0.91551400  1
  H  H14  1  0.01757000  0.17376200  0.41551400  1
  H  H15  1  0.51757000  0.32623800  0.58448600  1
  H  H16  1  0.51757000  0.32623800  0.91551400  1
  H  H17  1  0.01757000  0.17376200  0.08448600  1
  H  H18  1  0.98243000  0.82623800  0.58448600  1
  H  H19  1  0.48243000  0.67376200  0.41551400  1
  H  H20  1  0.66762300  0.80386900  0.02352500  1
  H  H21  1  0.16762300  0.69613100  0.97647500  1
  H  H22  1  0.83237700  0.30386900  0.47647500  1
  H  H23  1  0.33237700  0.19613100  0.52352500  1
  H  H24  1  0.33237700  0.19613100  0.97647500  1
  H  H25  1  0.83237700  0.30386900  0.02352500  1
  H  H26  1  0.16762300  0.69613100  0.52352500  1
  H  H27  1  0.66762300  0.80386900  0.47647500  1
  H  H28  1  0.39844000  0.46118200  0.31866300  1
  H  H29  1  0.89844000  0.03881800  0.68133700  1
  H  H30  1  0.10156000  0.96118200  0.18133700  1
  H  H31  1  0.60156000  0.53881800  0.81866300  1
  H  H32  1  0.60156000  0.53881800  0.68133700  1
  H  H33  1  0.10156000  0.96118200  0.31866300  1
  H  H34  1  0.89844000  0.03881800  0.81866300  1
  H  H35  1  0.39844000  0.46118200  0.18133700  1
  O  O36  1  0.24874500  0.56482300  0.08203200  1
  O  O37  1  0.74874500  0.93517700  0.91796800  1
  O  O38  1  0.25125500  0.06482300  0.41796800  1
  O  O39  1  0.75125500  0.43517700  0.58203200  1
  O  O40  1  0.75125500  0.43517700  0.91796800  1
  O  O41  1  0.25125500  0.06482300  0.08203200  1
  O  O42  1  0.74874500  0.93517700  0.58203200  1
  O  O43  1  0.24874500  0.56482300  0.41796800  1
  O  O44  1  0.63301600  0.73280200  0.09621100  1
  O  O45  1  0.13301600  0.76719800  0.90378900  1
  O  O46  1  0.86698400  0.23280200  0.40378900  1
  O  O47  1  0.36698400  0.26719800  0.59621100  1
  O  O48  1  0.36698400  0.26719800  0.90378900  1
  O  O49  1  0.86698400  0.23280200  0.09621100  1
  O  O50  1  0.13301600  0.76719800  0.59621100  1
  O  O51  1  0.63301600  0.73280200  0.40378900  1
  O  O52  1  0.52280700  0.59488200  0.75000000  1
  O  O53  1  0.02280700  0.90511800  0.25000000  1
  O  O54  1  0.97719300  0.09488200  0.75000000  1
  O  O55  1  0.47719300  0.40511800  0.25000000  1
