# generated using pymatgen
data_Nb2NiO6
_symmetry_space_group_name_H-M   'P 1'
_cell_length_a   5.08165000
_cell_length_b   5.79452800
_cell_length_c   14.27187200
_cell_angle_alpha   90.00000000
_cell_angle_beta   90.00000000
_cell_angle_gamma   90.00000000
_symmetry_Int_Tables_number   1
_chemical_formula_structural   Nb2NiO6
_chemical_formula_sum   'Nb8 Ni4 O24'
_cell_volume   420.24616349
_cell_formula_units_Z   4
loop_
 _symmetry_equiv_pos_site_id
 _symmetry_equiv_pos_as_xyz
  1  'x, y, z'
loop_
 _atom_site_type_symbol
 _atom_site_label
 _atom_site_symmetry_multiplicity
 _atom_site_fract_x
 _atom_site_fract_y
 _atom_site_fract_z
 _atom_site_occupancy
  Nb  Nb0  1  0.75369300  0.68256300  0.65898400  1
  Nb  Nb1  1  0.25369300  0.81743700  0.84101600  1
  Nb  Nb2  1  0.74630700  0.68256300  0.34101600  1
  Nb  Nb3  1  0.24630700  0.81743700  0.15898400  1
  Nb  Nb4  1  0.75369300  0.18256300  0.84101600  1
  Nb  Nb5  1  0.25369300  0.31743700  0.65898400  1
  Nb  Nb6  1  0.74630700  0.18256300  0.15898400  1
  Nb  Nb7  1  0.24630700  0.31743700  0.34101600  1
  Ni  Ni8  1  0.75000000  0.65470900  0.00000000  1
  Ni  Ni9  1  0.25000000  0.84529100  0.50000000  1
  Ni  Ni10  1  0.25000000  0.34529100  0.00000000  1
  Ni  Ni11  1  0.75000000  0.15470900  0.50000000  1
  O  O12  1  0.92336900  0.37589200  0.74434800  1
  O  O13  1  0.42336900  0.12410800  0.75565200  1
  O  O14  1  0.57663100  0.37589200  0.25565200  1
  O  O15  1  0.07663100  0.12410800  0.24434800  1
  O  O16  1  0.07663100  0.62410800  0.25565200  1
  O  O17  1  0.57663100  0.87589200  0.24434800  1
  O  O18  1  0.42336900  0.62410800  0.74434800  1
  O  O19  1  0.92336900  0.87589200  0.75565200  1
  O  O20  1  0.91144700  0.38415800  0.07814500  1
  O  O21  1  0.41144700  0.11584200  0.42185500  1
  O  O22  1  0.58855300  0.38415800  0.92185500  1
  O  O23  1  0.08855300  0.11584200  0.57814500  1
  O  O24  1  0.92135100  0.89195800  0.09462300  1
  O  O25  1  0.42135100  0.60804200  0.40537700  1
  O  O26  1  0.57864900  0.89195800  0.90537700  1
  O  O27  1  0.07864900  0.60804200  0.59462300  1
  O  O28  1  0.07864900  0.10804200  0.90537700  1
  O  O29  1  0.57864900  0.39195800  0.59462300  1
  O  O30  1  0.42135100  0.10804200  0.09462300  1
  O  O31  1  0.92135100  0.39195800  0.40537700  1
  O  O32  1  0.91144700  0.88415800  0.42185500  1
  O  O33  1  0.41144700  0.61584200  0.07814500  1
  O  O34  1  0.58855300  0.88415800  0.57814500  1
  O  O35  1  0.08855300  0.61584200  0.92185500  1
