# generated using pymatgen
data_RbH3O2
_symmetry_space_group_name_H-M   'P 1'
_cell_length_a   6.07548721
_cell_length_b   6.07548721
_cell_length_c   6.02474600
_cell_angle_alpha   90.00000000
_cell_angle_beta   90.00000000
_cell_angle_gamma   139.27778751
_symmetry_Int_Tables_number   1
_chemical_formula_structural   RbH3O2
_chemical_formula_sum   'Rb2 H6 O4'
_cell_volume   145.08074243
_cell_formula_units_Z   2
loop_
 _symmetry_equiv_pos_site_id
 _symmetry_equiv_pos_as_xyz
  1  'x, y, z'
loop_
 _atom_site_type_symbol
 _atom_site_label
 _atom_site_symmetry_multiplicity
 _atom_site_fract_x
 _atom_site_fract_y
 _atom_site_fract_z
 _atom_site_occupancy
  Rb  Rb0  1  0.15348400  0.84651600  0.77424400  1
  Rb  Rb1  1  0.84651600  0.15348400  0.27424400  1
  H  H2  1  0.51197600  0.48802400  0.51180700  1
  H  H3  1  0.48802400  0.51197600  0.01180700  1
  H  H4  1  0.08629500  0.30233000  0.80009800  1
  H  H5  1  0.91370500  0.69767000  0.30009800  1
  H  H6  1  0.30233000  0.08629500  0.30009800  1
  H  H7  1  0.69767000  0.91370500  0.80009800  1
  O  O8  1  0.15940200  0.84059800  0.26440400  1
  O  O9  1  0.53189800  0.46810200  0.35344900  1
  O  O10  1  0.84059800  0.15940200  0.76440400  1
  O  O11  1  0.46810200  0.53189800  0.85344900  1
