# generated using pymatgen
data_TcP4
_symmetry_space_group_name_H-M   'P 1'
_cell_length_a   6.27680700
_cell_length_b   9.27181400
_cell_length_c   10.91379300
_cell_angle_alpha   90.00000000
_cell_angle_beta   90.00000000
_cell_angle_gamma   90.00000000
_symmetry_Int_Tables_number   1
_chemical_formula_structural   TcP4
_chemical_formula_sum   'Tc8 P32'
_cell_volume   635.15423505
_cell_formula_units_Z   8
loop_
 _symmetry_equiv_pos_site_id
 _symmetry_equiv_pos_as_xyz
  1  'x, y, z'
loop_
 _atom_site_type_symbol
 _atom_site_label
 _atom_site_symmetry_multiplicity
 _atom_site_fract_x
 _atom_site_fract_y
 _atom_site_fract_z
 _atom_site_occupancy
  Tc  Tc0  1  0.62120700  0.10926200  0.42459000  1
  Tc  Tc1  1  0.12120700  0.39073800  0.57541000  1
  Tc  Tc2  1  0.37879300  0.60926200  0.07541000  1
  Tc  Tc3  1  0.87879300  0.89073800  0.92459000  1
  Tc  Tc4  1  0.37879300  0.89073800  0.57541000  1
  Tc  Tc5  1  0.87879300  0.60926200  0.42459000  1
  Tc  Tc6  1  0.62120700  0.39073800  0.92459000  1
  Tc  Tc7  1  0.12120700  0.10926200  0.07541000  1
  P  P8  1  0.99947900  0.20830400  0.43102500  1
  P  P9  1  0.49947900  0.29169600  0.56897500  1
  P  P10  1  0.00052100  0.70830400  0.06897500  1
  P  P11  1  0.50052100  0.79169600  0.93102500  1
  P  P12  1  0.00052100  0.79169600  0.56897500  1
  P  P13  1  0.50052100  0.70830400  0.43102500  1
  P  P14  1  0.99947900  0.29169600  0.93102500  1
  P  P15  1  0.49947900  0.20830400  0.06897500  1
  P  P16  1  0.05952000  0.28146000  0.23581600  1
  P  P17  1  0.55952000  0.21854000  0.76418400  1
  P  P18  1  0.94048000  0.78146000  0.26418400  1
  P  P19  1  0.44048000  0.71854000  0.73581600  1
  P  P20  1  0.94048000  0.71854000  0.76418400  1
  P  P21  1  0.44048000  0.78146000  0.23581600  1
  P  P22  1  0.05952000  0.21854000  0.73581600  1
  P  P23  1  0.55952000  0.28146000  0.26418400  1
  P  P24  1  0.19022400  0.94668400  0.23829200  1
  P  P25  1  0.69022400  0.55331600  0.76170800  1
  P  P26  1  0.80977600  0.44668400  0.26170800  1
  P  P27  1  0.30977600  0.05331600  0.73829200  1
  P  P28  1  0.80977600  0.05331600  0.76170800  1
  P  P29  1  0.30977600  0.44668400  0.23829200  1
  P  P30  1  0.19022400  0.55331600  0.73829200  1
  P  P31  1  0.69022400  0.94668400  0.26170800  1
  P  P32  1  0.75639800  0.04357500  0.08124900  1
  P  P33  1  0.25639800  0.45642500  0.91875100  1
  P  P34  1  0.24360200  0.54357500  0.41875100  1
  P  P35  1  0.74360200  0.95642500  0.58124900  1
  P  P36  1  0.24360200  0.95642500  0.91875100  1
  P  P37  1  0.74360200  0.54357500  0.08124900  1
  P  P38  1  0.75639800  0.45642500  0.58124900  1
  P  P39  1  0.25639800  0.04357500  0.41875100  1
