# generated using pymatgen
data_Na8Ti5O14
_symmetry_space_group_name_H-M   'P 1'
_cell_length_a   8.44930900
_cell_length_b   8.64022227
_cell_length_c   10.64797146
_cell_angle_alpha   104.18489219
_cell_angle_beta   102.21046897
_cell_angle_gamma   112.52699121
_symmetry_Int_Tables_number   1
_chemical_formula_structural   Na8Ti5O14
_chemical_formula_sum   'Na16 Ti10 O28'
_cell_volume   654.41179116
_cell_formula_units_Z   2
loop_
 _symmetry_equiv_pos_site_id
 _symmetry_equiv_pos_as_xyz
  1  'x, y, z'
loop_
 _atom_site_type_symbol
 _atom_site_label
 _atom_site_symmetry_multiplicity
 _atom_site_fract_x
 _atom_site_fract_y
 _atom_site_fract_z
 _atom_site_occupancy
  Na  Na0  1  0.50000000  0.50000000  0.50000000  1
  Na  Na1  1  0.00000000  0.00000000  0.00000000  1
  Na  Na2  1  0.81740100  0.33394500  0.82385200  1
  Na  Na3  1  0.18259900  0.66605500  0.17614800  1
  Na  Na4  1  0.70991100  0.41833100  0.29552900  1
  Na  Na5  1  0.29008900  0.58166900  0.70447100  1
  Na  Na6  1  0.56505600  0.12762000  0.43494600  1
  Na  Na7  1  0.43494400  0.87238000  0.56505400  1
  Na  Na8  1  0.88837800  0.52292100  0.61698900  1
  Na  Na9  1  0.11162200  0.47707900  0.38301100  1
  Na  Na10  1  0.69248400  0.62323000  0.83089100  1
  Na  Na11  1  0.30751600  0.37677000  0.16910900  1
  Na  Na12  1  0.62507800  0.98794600  0.89039500  1
  Na  Na13  1  0.37492200  0.01205400  0.10960500  1
  Na  Na14  1  0.55246300  0.32353500  0.98606400  1
  Na  Na15  1  0.44753700  0.67646500  0.01393600  1
  Ti  Ti16  1  0.85380800  0.72376700  0.15110500  1
  Ti  Ti17  1  0.14619200  0.27623300  0.84889500  1
  Ti  Ti18  1  0.78459600  0.07285500  0.21011100  1
  Ti  Ti19  1  0.21540400  0.92714500  0.78988900  1
  Ti  Ti20  1  0.62250200  0.77482200  0.34533200  1
  Ti  Ti21  1  0.37749800  0.22517800  0.65466800  1
  Ti  Ti22  1  0.96550300  0.17653200  0.53057700  1
  Ti  Ti23  1  0.03449700  0.82346800  0.46942300  1
  Ti  Ti24  1  0.81237000  0.88768500  0.67351300  1
  Ti  Ti25  1  0.18763000  0.11231500  0.32648700  1
  O  O26  1  0.59560100  0.35355400  0.64312000  1
  O  O27  1  0.40439900  0.64644600  0.35688000  1
  O  O28  1  0.81967300  0.55043800  0.00535900  1
  O  O29  1  0.18032700  0.44956200  0.99464100  1
  O  O30  1  0.75345400  0.86047800  0.06439700  1
  O  O31  1  0.24654600  0.13952200  0.93560300  1
  O  O32  1  0.67945900  0.17113300  0.11663000  1
  O  O33  1  0.32054100  0.82886700  0.88337000  1
  O  O34  1  0.62527900  0.60327800  0.19110800  1
  O  O35  1  0.37472100  0.39672200  0.80889200  1
  O  O36  1  0.56282000  0.90930900  0.24266500  1
  O  O37  1  0.43718000  0.09069100  0.75733500  1
  O  O38  1  0.98124000  0.65370300  0.30310400  1
  O  O39  1  0.01876000  0.34629700  0.69689600  1
  O  O40  1  0.91829800  0.95234600  0.35594400  1
  O  O41  1  0.08170200  0.04765400  0.64405600  1
  O  O42  1  0.85313700  0.25795500  0.40873500  1
  O  O43  1  0.14686300  0.74204500  0.59126500  1
  O  O44  1  0.78686000  0.70700500  0.48423700  1
  O  O45  1  0.21314000  0.29299500  0.51576300  1
  O  O46  1  0.72868700  0.98971800  0.52986400  1
  O  O47  1  0.27131300  0.01028200  0.47013600  1
  O  O48  1  0.59544600  0.75962500  0.68877700  1
  O  O49  1  0.40455400  0.24037500  0.31122300  1
  O  O50  1  0.95731100  0.80135800  0.77220800  1
  O  O51  1  0.04268900  0.19864200  0.22779200  1
  O  O52  1  0.10586000  0.89781600  0.17539300  1
  O  O53  1  0.89414000  0.10218400  0.82460700  1
