# generated using pymatgen
data_CeCrGe3
_symmetry_space_group_name_H-M   'P 1'
_cell_length_a   6.11025384
_cell_length_b   6.11025384
_cell_length_c   5.68347000
_cell_angle_alpha   90.00000000
_cell_angle_beta   90.00000000
_cell_angle_gamma   119.99999824
_symmetry_Int_Tables_number   1
_chemical_formula_structural   CeCrGe3
_chemical_formula_sum   'Ce2 Cr2 Ge6'
_cell_volume   183.76496502
_cell_formula_units_Z   2
loop_
 _symmetry_equiv_pos_site_id
 _symmetry_equiv_pos_as_xyz
  1  'x, y, z'
loop_
 _atom_site_type_symbol
 _atom_site_label
 _atom_site_symmetry_multiplicity
 _atom_site_fract_x
 _atom_site_fract_y
 _atom_site_fract_z
 _atom_site_occupancy
  Ce  Ce0  1  0.66666700  0.33333300  0.25000000  1
  Ce  Ce1  1  0.33333300  0.66666700  0.75000000  1
  Cr  Cr2  1  0.00000000  0.00000000  0.50000000  1
  Cr  Cr3  1  0.00000000  0.00000000  0.00000000  1
  Ge  Ge4  1  0.19172000  0.38344000  0.25000000  1
  Ge  Ge5  1  0.61656000  0.80828000  0.25000000  1
  Ge  Ge6  1  0.38344000  0.19172000  0.75000000  1
  Ge  Ge7  1  0.19172000  0.80828000  0.25000000  1
  Ge  Ge8  1  0.80828000  0.61656000  0.75000000  1
  Ge  Ge9  1  0.80828000  0.19172000  0.75000000  1
