# generated using pymatgen
data_K3W2Cl9
_symmetry_space_group_name_H-M   'P 1'
_cell_length_a   7.43332810
_cell_length_b   7.43332810
_cell_length_c   16.30521000
_cell_angle_alpha   90.00000000
_cell_angle_beta   90.00000000
_cell_angle_gamma   120.00000090
_symmetry_Int_Tables_number   1
_chemical_formula_structural   K3W2Cl9
_chemical_formula_sum   'K6 W4 Cl18'
_cell_volume   780.23176898
_cell_formula_units_Z   2
loop_
 _symmetry_equiv_pos_site_id
 _symmetry_equiv_pos_as_xyz
  1  'x, y, z'
loop_
 _atom_site_type_symbol
 _atom_site_label
 _atom_site_symmetry_multiplicity
 _atom_site_fract_x
 _atom_site_fract_y
 _atom_site_fract_z
 _atom_site_occupancy
  K  K0  1  0.00000000  0.00000000  0.25000000  1
  K  K1  1  0.00000000  0.00000000  0.75000000  1
  K  K2  1  0.33333300  0.66666700  0.57109000  1
  K  K3  1  0.66666700  0.33333300  0.07109000  1
  K  K4  1  0.33333300  0.66666700  0.92891000  1
  K  K5  1  0.66666700  0.33333300  0.42891000  1
  W  W6  1  0.33333300  0.66666700  0.32289500  1
  W  W7  1  0.66666700  0.33333300  0.82289500  1
  W  W8  1  0.66666700  0.33333300  0.67710500  1
  W  W9  1  0.33333300  0.66666700  0.17710500  1
  Cl  Cl10  1  0.12139700  0.35933100  0.09638000  1
  Cl  Cl11  1  0.76206600  0.12139700  0.59638000  1
  Cl  Cl12  1  0.35933100  0.23793400  0.59638000  1
  Cl  Cl13  1  0.64066900  0.76206600  0.09638000  1
  Cl  Cl14  1  0.23793400  0.87860300  0.09638000  1
  Cl  Cl15  1  0.87860300  0.64066900  0.59638000  1
  Cl  Cl16  1  0.87860300  0.64066900  0.90362000  1
  Cl  Cl17  1  0.23793400  0.87860300  0.40362000  1
  Cl  Cl18  1  0.64066900  0.76206600  0.40362000  1
  Cl  Cl19  1  0.35933100  0.23793400  0.90362000  1
  Cl  Cl20  1  0.43906900  0.43183700  0.25000000  1
  Cl  Cl21  1  0.00723200  0.43906900  0.75000000  1
  Cl  Cl22  1  0.43183700  0.99276800  0.75000000  1
  Cl  Cl23  1  0.56816300  0.00723200  0.25000000  1
  Cl  Cl24  1  0.99276800  0.56093100  0.25000000  1
  Cl  Cl25  1  0.56093100  0.56816300  0.75000000  1
  Cl  Cl26  1  0.12139700  0.35933100  0.40362000  1
  Cl  Cl27  1  0.76206600  0.12139700  0.90362000  1
