# generated using pymatgen
data_Ba(GeP)2
_symmetry_space_group_name_H-M   'P 1'
_cell_length_a   7.72255200
_cell_length_b   7.72255200
_cell_length_c   8.61596700
_cell_angle_alpha   90.00000000
_cell_angle_beta   90.00000000
_cell_angle_gamma   90.00000000
_symmetry_Int_Tables_number   1
_chemical_formula_structural   Ba(GeP)2
_chemical_formula_sum   'Ba4 Ge8 P8'
_cell_volume   513.83739768
_cell_formula_units_Z   4
loop_
 _symmetry_equiv_pos_site_id
 _symmetry_equiv_pos_as_xyz
  1  'x, y, z'
loop_
 _atom_site_type_symbol
 _atom_site_label
 _atom_site_symmetry_multiplicity
 _atom_site_fract_x
 _atom_site_fract_y
 _atom_site_fract_z
 _atom_site_occupancy
  Ba  Ba0  1  0.00000000  0.50000000  0.52761800  1
  Ba  Ba1  1  0.50000000  0.00000000  0.02761800  1
  Ba  Ba2  1  0.00000000  0.00000000  0.49689600  1
  Ba  Ba3  1  0.00000000  0.00000000  0.99689600  1
  Ge  Ge4  1  0.50000000  0.16695900  0.61575600  1
  Ge  Ge5  1  0.83304100  0.50000000  0.11575600  1
  Ge  Ge6  1  0.16695900  0.50000000  0.11575600  1
  Ge  Ge7  1  0.50000000  0.83304100  0.61575600  1
  Ge  Ge8  1  0.50000000  0.33155500  0.36533900  1
  Ge  Ge9  1  0.33155500  0.50000000  0.86533900  1
  Ge  Ge10  1  0.66844500  0.50000000  0.86533900  1
  Ge  Ge11  1  0.50000000  0.66844500  0.36533900  1
  P  P12  1  0.24887900  0.23374600  0.75642400  1
  P  P13  1  0.75112100  0.76625400  0.75642400  1
  P  P14  1  0.23374600  0.75112100  0.25642400  1
  P  P15  1  0.76625400  0.24887900  0.25642400  1
  P  P16  1  0.75112100  0.23374600  0.75642400  1
  P  P17  1  0.23374600  0.24887900  0.25642400  1
  P  P18  1  0.76625400  0.75112100  0.25642400  1
  P  P19  1  0.24887900  0.76625400  0.75642400  1
