# generated using pymatgen
data_In4Bi2S9
_symmetry_space_group_name_H-M   'P 1'
_cell_length_a   3.97783800
_cell_length_b   11.32089400
_cell_length_c   16.53421460
_cell_angle_alpha   85.76951683
_cell_angle_beta   90.00000000
_cell_angle_gamma   90.00000000
_symmetry_Int_Tables_number   1
_chemical_formula_structural   In4Bi2S9
_chemical_formula_sum   'In8 Bi4 S18'
_cell_volume   742.55132962
_cell_formula_units_Z   2
loop_
 _symmetry_equiv_pos_site_id
 _symmetry_equiv_pos_as_xyz
  1  'x, y, z'
loop_
 _atom_site_type_symbol
 _atom_site_label
 _atom_site_symmetry_multiplicity
 _atom_site_fract_x
 _atom_site_fract_y
 _atom_site_fract_z
 _atom_site_occupancy
  In  In0  1  0.25000000  0.49350200  0.40485500  1
  In  In1  1  0.25000000  0.26579400  0.08058600  1
  In  In2  1  0.75000000  0.50649800  0.59514500  1
  In  In3  1  0.75000000  0.73420600  0.91941400  1
  In  In4  1  0.75000000  0.51018900  0.21215900  1
  In  In5  1  0.25000000  0.85843300  0.68385600  1
  In  In6  1  0.75000000  0.14156700  0.31614400  1
  In  In7  1  0.25000000  0.48981100  0.78784100  1
  Bi  Bi8  1  0.75000000  0.13158800  0.57486700  1
  Bi  Bi9  1  0.25000000  0.89586900  0.09789800  1
  Bi  Bi10  1  0.25000000  0.86841200  0.42513300  1
  Bi  Bi11  1  0.75000000  0.10413100  0.90210200  1
  S  S12  1  0.25000000  0.37377000  0.54505000  1
  S  S13  1  0.25000000  0.09286000  0.68429100  1
  S  S14  1  0.75000000  0.62623000  0.45495000  1
  S  S15  1  0.75000000  0.41225700  0.08350200  1
  S  S16  1  0.75000000  0.89825400  0.56587000  1
  S  S17  1  0.75000000  0.08700700  0.05954700  1
  S  S18  1  0.75000000  0.36685600  0.34145100  1
  S  S19  1  0.75000000  0.85343100  0.78248100  1
  S  S20  1  0.25000000  0.62091200  0.25811400  1
  S  S21  1  0.25000000  0.58774300  0.91649800  1
  S  S22  1  0.25000000  0.14656900  0.21751900  1
  S  S23  1  0.25000000  0.91299300  0.94045300  1
  S  S24  1  0.25000000  0.26579000  0.92211300  1
  S  S25  1  0.75000000  0.37908800  0.74188600  1
  S  S26  1  0.75000000  0.90714000  0.31570900  1
  S  S27  1  0.25000000  0.63314400  0.65854900  1
  S  S28  1  0.25000000  0.10174600  0.43413000  1
  S  S29  1  0.75000000  0.73421000  0.07788700  1
