# generated using pymatgen
data_KNaSe
_symmetry_space_group_name_H-M   'P 1'
_cell_length_a   4.85415500
_cell_length_b   8.14135500
_cell_length_c   8.77920700
_cell_angle_alpha   90.00000000
_cell_angle_beta   90.00000000
_cell_angle_gamma   90.00000000
_symmetry_Int_Tables_number   1
_chemical_formula_structural   KNaSe
_chemical_formula_sum   'K4 Na4 Se4'
_cell_volume   346.94898504
_cell_formula_units_Z   4
loop_
 _symmetry_equiv_pos_site_id
 _symmetry_equiv_pos_as_xyz
  1  'x, y, z'
loop_
 _atom_site_type_symbol
 _atom_site_label
 _atom_site_symmetry_multiplicity
 _atom_site_fract_x
 _atom_site_fract_y
 _atom_site_fract_z
 _atom_site_occupancy
  K  K0  1  0.75000000  0.51362800  0.68477900  1
  K  K1  1  0.75000000  0.01362800  0.81522100  1
  K  K2  1  0.25000000  0.48637200  0.31522100  1
  K  K3  1  0.25000000  0.98637200  0.18477900  1
  Na  Na4  1  0.75000000  0.14637100  0.42491300  1
  Na  Na5  1  0.25000000  0.85362900  0.57508700  1
  Na  Na6  1  0.25000000  0.35362900  0.92491300  1
  Na  Na7  1  0.75000000  0.64637100  0.07508700  1
  Se  Se8  1  0.75000000  0.77925800  0.39502900  1
  Se  Se9  1  0.25000000  0.22074200  0.60497100  1
  Se  Se10  1  0.75000000  0.27925800  0.10497100  1
  Se  Se11  1  0.25000000  0.72074200  0.89502900  1
