# generated using pymatgen
data_Ta3I7
_symmetry_space_group_name_H-M   'P 1'
_cell_length_a   11.16276819
_cell_length_b   11.16276819
_cell_length_c   12.92259800
_cell_angle_alpha   90.00000000
_cell_angle_beta   90.00000000
_cell_angle_gamma   93.81529195
_symmetry_Int_Tables_number   1
_chemical_formula_structural   Ta3I7
_chemical_formula_sum   'Ta12 I28'
_cell_volume   1606.68252945
_cell_formula_units_Z   4
loop_
 _symmetry_equiv_pos_site_id
 _symmetry_equiv_pos_as_xyz
  1  'x, y, z'
loop_
 _atom_site_type_symbol
 _atom_site_label
 _atom_site_symmetry_multiplicity
 _atom_site_fract_x
 _atom_site_fract_y
 _atom_site_fract_z
 _atom_site_occupancy
  Ta  Ta0  1  0.90534500  0.09465500  0.93206600  1
  Ta  Ta1  1  0.59465500  0.40534500  0.43206600  1
  Ta  Ta2  1  0.40534500  0.59465500  0.56793400  1
  Ta  Ta3  1  0.09465500  0.90534500  0.06793400  1
  Ta  Ta4  1  0.84986200  0.94445100  0.10529100  1
  Ta  Ta5  1  0.65013800  0.55554900  0.60529100  1
  Ta  Ta6  1  0.55554900  0.65013800  0.39470900  1
  Ta  Ta7  1  0.94445100  0.84986200  0.89470900  1
  Ta  Ta8  1  0.15013800  0.05554900  0.89470900  1
  Ta  Ta9  1  0.34986200  0.44445100  0.39470900  1
  Ta  Ta10  1  0.44445100  0.34986200  0.60529100  1
  Ta  Ta11  1  0.05554900  0.15013800  0.10529100  1
  I  I12  1  0.62619700  0.87380300  0.25000000  1
  I  I13  1  0.87380300  0.62619700  0.75000000  1
  I  I14  1  0.37380300  0.12619700  0.75000000  1
  I  I15  1  0.12619700  0.37380300  0.25000000  1
  I  I16  1  0.67104400  0.08233200  0.01919400  1
  I  I17  1  0.82895600  0.41766800  0.51919400  1
  I  I18  1  0.41766800  0.82895600  0.48080600  1
  I  I19  1  0.08233200  0.67104400  0.98080600  1
  I  I20  1  0.32895600  0.91766800  0.98080600  1
  I  I21  1  0.17104400  0.58233200  0.48080600  1
  I  I22  1  0.58233200  0.17104400  0.51919400  1
  I  I23  1  0.91766800  0.32895600  0.01919400  1
  I  I24  1  0.25624200  0.25624200  0.00000000  1
  I  I25  1  0.24375800  0.24375800  0.50000000  1
  I  I26  1  0.74375800  0.74375800  0.00000000  1
  I  I27  1  0.75624200  0.75624200  0.50000000  1
  I  I28  1  0.88113700  0.11886300  0.26273100  1
  I  I29  1  0.61886300  0.38113700  0.76273100  1
  I  I30  1  0.38113700  0.61886300  0.23726900  1
  I  I31  1  0.11886300  0.88113700  0.73726900  1
  I  I32  1  0.71312200  0.53107000  0.26652900  1
  I  I33  1  0.78687800  0.96893000  0.76652900  1
  I  I34  1  0.96893000  0.78687800  0.23347100  1
  I  I35  1  0.53107000  0.71312200  0.73347100  1
  I  I36  1  0.28687800  0.46893000  0.73347100  1
  I  I37  1  0.21312200  0.03107000  0.23347100  1
  I  I38  1  0.03107000  0.21312200  0.76652900  1
  I  I39  1  0.46893000  0.28687800  0.26652900  1
