# generated using pymatgen
data_Yb2Cu2O5
_symmetry_space_group_name_H-M   'P 1'
_cell_length_a   3.49334800
_cell_length_b   10.48215300
_cell_length_c   12.57077600
_cell_angle_alpha   90.00000000
_cell_angle_beta   90.00000000
_cell_angle_gamma   90.00000000
_symmetry_Int_Tables_number   1
_chemical_formula_structural   Yb2Cu2O5
_chemical_formula_sum   'Yb8 Cu8 O20'
_cell_volume   460.31426472
_cell_formula_units_Z   4
loop_
 _symmetry_equiv_pos_site_id
 _symmetry_equiv_pos_as_xyz
  1  'x, y, z'
loop_
 _atom_site_type_symbol
 _atom_site_label
 _atom_site_symmetry_multiplicity
 _atom_site_fract_x
 _atom_site_fract_y
 _atom_site_fract_z
 _atom_site_occupancy
  Yb  Yb0  1  0.31833800  0.54645500  0.83245800  1
  Yb  Yb1  1  0.68166200  0.45354500  0.33245800  1
  Yb  Yb2  1  0.18166200  0.04645500  0.83245800  1
  Yb  Yb3  1  0.81833800  0.95354500  0.33245800  1
  Yb  Yb4  1  0.32308000  0.70392100  0.50010000  1
  Yb  Yb5  1  0.67692000  0.29607900  0.00010000  1
  Yb  Yb6  1  0.17692000  0.20392100  0.50010000  1
  Yb  Yb7  1  0.82308000  0.79607900  0.00010000  1
  Cu  Cu8  1  0.86065200  0.76178900  0.71363600  1
  Cu  Cu9  1  0.13934800  0.23821100  0.21363600  1
  Cu  Cu10  1  0.63934800  0.26178900  0.71363600  1
  Cu  Cu11  1  0.36065200  0.73821100  0.21363600  1
  Cu  Cu12  1  0.85671500  0.48829500  0.61573800  1
  Cu  Cu13  1  0.14328500  0.51170500  0.11573800  1
  Cu  Cu14  1  0.64328500  0.98829500  0.61573800  1
  Cu  Cu15  1  0.35671500  0.01170500  0.11573800  1
  O  O16  1  0.32343700  0.93891500  0.98320200  1
  O  O17  1  0.67656300  0.06108500  0.48320200  1
  O  O18  1  0.17656300  0.43891500  0.98320200  1
  O  O19  1  0.82343700  0.56108500  0.48320200  1
  O  O20  1  0.66689600  0.91926000  0.75344100  1
  O  O21  1  0.33310400  0.08074000  0.25344100  1
  O  O22  1  0.83310400  0.41926000  0.75344100  1
  O  O23  1  0.16689600  0.58074000  0.25344100  1
  O  O24  1  0.14059100  0.62412000  0.66569600  1
  O  O25  1  0.85940900  0.37588000  0.16569600  1
  O  O26  1  0.35940900  0.12412000  0.66569600  1
  O  O27  1  0.64059100  0.87588000  0.16569600  1
  O  O28  1  0.84115600  0.83142300  0.57543000  1
  O  O29  1  0.15884400  0.16857700  0.07543000  1
  O  O30  1  0.65884400  0.33142300  0.57543000  1
  O  O31  1  0.34115600  0.66857700  0.07543000  1
  O  O32  1  0.32092800  0.81076400  0.34569900  1
  O  O33  1  0.67907200  0.18923600  0.84569900  1
  O  O34  1  0.17907200  0.31076400  0.34569900  1
  O  O35  1  0.82092800  0.68923600  0.84569900  1
