# generated using pymatgen
data_VCl3
_symmetry_space_group_name_H-M   'P 1'
_cell_length_a   7.43373340
_cell_length_b   7.43373340
_cell_length_c   7.43373380
_cell_angle_alpha   48.38196811
_cell_angle_beta   48.38196811
_cell_angle_gamma   48.38197567
_symmetry_Int_Tables_number   1
_chemical_formula_structural   VCl3
_chemical_formula_sum   'V2 Cl6'
_cell_volume   210.51016632
_cell_formula_units_Z   2
loop_
 _symmetry_equiv_pos_site_id
 _symmetry_equiv_pos_as_xyz
  1  'x, y, z'
loop_
 _atom_site_type_symbol
 _atom_site_label
 _atom_site_symmetry_multiplicity
 _atom_site_fract_x
 _atom_site_fract_y
 _atom_site_fract_z
 _atom_site_occupancy
  V  V0  1  0.33333400  0.33333400  0.33333400  1
  V  V1  1  0.66666600  0.66666600  0.66666600  1
  Cl  Cl2  1  0.71058200  0.06918100  0.42784500  1
  Cl  Cl3  1  0.06918100  0.42784500  0.71058200  1
  Cl  Cl4  1  0.57215500  0.28941800  0.93081900  1
  Cl  Cl5  1  0.93081900  0.57215500  0.28941800  1
  Cl  Cl6  1  0.28941800  0.93081900  0.57215500  1
  Cl  Cl7  1  0.42784500  0.71058200  0.06918100  1
