# generated using pymatgen
data_UF4
_symmetry_space_group_name_H-M   'P 1'
_cell_length_a   8.42078785
_cell_length_b   8.42078785
_cell_length_c   8.43062968
_cell_angle_alpha   63.12341706
_cell_angle_beta   63.12341706
_cell_angle_gamma   80.22399348
_symmetry_Int_Tables_number   1
_chemical_formula_structural   UF4
_chemical_formula_sum   'U6 F24'
_cell_volume   475.19039557
_cell_formula_units_Z   6
loop_
 _symmetry_equiv_pos_site_id
 _symmetry_equiv_pos_as_xyz
  1  'x, y, z'
loop_
 _atom_site_type_symbol
 _atom_site_label
 _atom_site_symmetry_multiplicity
 _atom_site_fract_x
 _atom_site_fract_y
 _atom_site_fract_z
 _atom_site_occupancy
  U  U0  1  0.22398900  0.36794400  0.32969700  1
  U  U1  1  0.63205600  0.77601100  0.17030300  1
  U  U2  1  0.77601100  0.63205600  0.67030300  1
  U  U3  1  0.36794400  0.22398900  0.82969700  1
  U  U4  1  0.21274600  0.78725400  0.75000000  1
  U  U5  1  0.78725400  0.21274600  0.25000000  1
  F  F6  1  0.72645300  0.02614900  0.15182300  1
  F  F7  1  0.97385100  0.27354700  0.34817700  1
  F  F8  1  0.27354700  0.97385100  0.84817700  1
  F  F9  1  0.02614900  0.72645300  0.65182300  1
  F  F10  1  0.50266300  0.25496600  0.29062800  1
  F  F11  1  0.74503400  0.49733700  0.20937200  1
  F  F12  1  0.50000000  0.00000000  0.00000000  1
  F  F13  1  0.00000000  0.50000000  0.50000000  1
  F  F14  1  0.39904200  0.60095800  0.25000000  1
  F  F15  1  0.60095800  0.39904200  0.75000000  1
  F  F16  1  0.81029800  0.39957300  0.92705700  1
  F  F17  1  0.60042700  0.18970200  0.57294300  1
  F  F18  1  0.18970200  0.60042700  0.07294300  1
  F  F19  1  0.39957300  0.81029800  0.42705700  1
  F  F20  1  0.06735600  0.17671900  0.04520700  1
  F  F21  1  0.82328100  0.93264400  0.45479300  1
  F  F22  1  0.93264400  0.82328100  0.95479300  1
  F  F23  1  0.17671900  0.06735600  0.54520700  1
  F  F24  1  0.67717300  0.73858000  0.89554100  1
  F  F25  1  0.26142000  0.32282700  0.60445900  1
  F  F26  1  0.32282700  0.26142000  0.10445900  1
  F  F27  1  0.73858000  0.67717300  0.39554100  1
  F  F28  1  0.25496600  0.50266300  0.79062800  1
  F  F29  1  0.49733700  0.74503400  0.70937200  1
