# generated using pymatgen
data_CaIn2
_symmetry_space_group_name_H-M   'P 1'
_cell_length_a   4.96313476
_cell_length_b   4.96313476
_cell_length_c   7.78400500
_cell_angle_alpha   90.00000000
_cell_angle_beta   90.00000000
_cell_angle_gamma   120.00001009
_symmetry_Int_Tables_number   1
_chemical_formula_structural   CaIn2
_chemical_formula_sum   'Ca2 In4'
_cell_volume   166.05265657
_cell_formula_units_Z   2
loop_
 _symmetry_equiv_pos_site_id
 _symmetry_equiv_pos_as_xyz
  1  'x, y, z'
loop_
 _atom_site_type_symbol
 _atom_site_label
 _atom_site_symmetry_multiplicity
 _atom_site_fract_x
 _atom_site_fract_y
 _atom_site_fract_z
 _atom_site_occupancy
  Ca  Ca0  1  0.00000000  0.00000000  0.75000000  1
  Ca  Ca1  1  0.00000000  0.00000000  0.25000000  1
  In  In2  1  0.33333300  0.66666700  0.95219600  1
  In  In3  1  0.66666700  0.33333300  0.45219600  1
  In  In4  1  0.33333300  0.66666700  0.54780400  1
  In  In5  1  0.66666700  0.33333300  0.04780400  1
