# generated using pymatgen
data_Tl8Ge5O14
_symmetry_space_group_name_H-M   'P 1'
_cell_length_a   14.88213845
_cell_length_b   14.88213845
_cell_length_c   14.88213861
_cell_angle_alpha   38.32899555
_cell_angle_beta   38.32899555
_cell_angle_gamma   38.32899123
_symmetry_Int_Tables_number   1
_chemical_formula_structural   Tl8Ge5O14
_chemical_formula_sum   'Tl16 Ge10 O28'
_cell_volume   1138.66069648
_cell_formula_units_Z   2
loop_
 _symmetry_equiv_pos_site_id
 _symmetry_equiv_pos_as_xyz
  1  'x, y, z'
loop_
 _atom_site_type_symbol
 _atom_site_label
 _atom_site_symmetry_multiplicity
 _atom_site_fract_x
 _atom_site_fract_y
 _atom_site_fract_z
 _atom_site_occupancy
  Tl  Tl0  1  0.34036600  0.87922000  0.17683600  1
  Tl  Tl1  1  0.32316400  0.62078000  0.15963400  1
  Tl  Tl2  1  0.65963400  0.12078000  0.82316400  1
  Tl  Tl3  1  0.67683600  0.37922000  0.84036600  1
  Tl  Tl4  1  0.15963400  0.32316400  0.62078000  1
  Tl  Tl5  1  0.87922000  0.17683600  0.34036600  1
  Tl  Tl6  1  0.84036600  0.67683600  0.37922000  1
  Tl  Tl7  1  0.12078000  0.82316400  0.65963400  1
  Tl  Tl8  1  0.44563200  0.44563200  0.44563200  1
  Tl  Tl9  1  0.05436800  0.05436800  0.05436800  1
  Tl  Tl10  1  0.55436800  0.55436800  0.55436800  1
  Tl  Tl11  1  0.94563200  0.94563200  0.94563200  1
  Tl  Tl12  1  0.62078000  0.15963400  0.32316400  1
  Tl  Tl13  1  0.17683600  0.34036600  0.87922000  1
  Tl  Tl14  1  0.37922000  0.84036600  0.67683600  1
  Tl  Tl15  1  0.82316400  0.65963400  0.12078000  1
  Ge  Ge16  1  0.01981800  0.75000000  0.48018200  1
  Ge  Ge17  1  0.98018200  0.25000000  0.51981800  1
  Ge  Ge18  1  0.70329000  0.70329000  0.70329000  1
  Ge  Ge19  1  0.79671000  0.79671000  0.79671000  1
  Ge  Ge20  1  0.29671000  0.29671000  0.29671000  1
  Ge  Ge21  1  0.20329000  0.20329000  0.20329000  1
  Ge  Ge22  1  0.48018200  0.01981800  0.75000000  1
  Ge  Ge23  1  0.75000000  0.48018200  0.01981800  1
  Ge  Ge24  1  0.51981800  0.98018200  0.25000000  1
  Ge  Ge25  1  0.25000000  0.51981800  0.98018200  1
  O  O26  1  0.52059700  0.84473400  0.78657500  1
  O  O27  1  0.71342500  0.65526600  0.97940300  1
  O  O28  1  0.47940300  0.15526600  0.21342500  1
  O  O29  1  0.28657500  0.34473400  0.02059700  1
  O  O30  1  0.18791600  0.57622900  0.44756900  1
  O  O31  1  0.05243100  0.92377100  0.31208400  1
  O  O32  1  0.81208400  0.42377100  0.55243100  1
  O  O33  1  0.94756900  0.07622900  0.68791600  1
  O  O34  1  0.44756900  0.18791600  0.57622900  1
  O  O35  1  0.92377100  0.31208400  0.05243100  1
  O  O36  1  0.55243100  0.81208400  0.42377100  1
  O  O37  1  0.07622900  0.68791600  0.94756900  1
  O  O38  1  0.57622900  0.44756900  0.18791600  1
  O  O39  1  0.31208400  0.05243100  0.92377100  1
  O  O40  1  0.42377100  0.55243100  0.81208400  1
  O  O41  1  0.68791600  0.94756900  0.07622900  1
  O  O42  1  0.84473400  0.78657500  0.52059700  1
  O  O43  1  0.97940300  0.71342500  0.65526600  1
  O  O44  1  0.15526600  0.21342500  0.47940300  1
  O  O45  1  0.02059700  0.28657500  0.34473400  1
  O  O46  1  0.33887700  0.33887700  0.33887700  1
  O  O47  1  0.16112300  0.16112300  0.16112300  1
  O  O48  1  0.66112300  0.66112300  0.66112300  1
  O  O49  1  0.83887700  0.83887700  0.83887700  1
  O  O50  1  0.65526600  0.97940300  0.71342500  1
  O  O51  1  0.78657500  0.52059700  0.84473400  1
  O  O52  1  0.21342500  0.47940300  0.15526600  1
  O  O53  1  0.34473400  0.02059700  0.28657500  1
