# generated using pymatgen
data_Ba7(BIr)12
_symmetry_space_group_name_H-M   'P 1'
_cell_length_a   9.35230055
_cell_length_b   9.35230055
_cell_length_c   9.35230104
_cell_angle_alpha   111.38396411
_cell_angle_beta   111.38396411
_cell_angle_gamma   111.38396541
_symmetry_Int_Tables_number   1
_chemical_formula_structural   Ba7(BIr)12
_chemical_formula_sum   'Ba7 B12 Ir12'
_cell_volume   580.85036429
_cell_formula_units_Z   1
loop_
 _symmetry_equiv_pos_site_id
 _symmetry_equiv_pos_as_xyz
  1  'x, y, z'
loop_
 _atom_site_type_symbol
 _atom_site_label
 _atom_site_symmetry_multiplicity
 _atom_site_fract_x
 _atom_site_fract_y
 _atom_site_fract_z
 _atom_site_occupancy
  Ba  Ba0  1  0.01099400  0.70739000  0.70739000  1
  Ba  Ba1  1  0.70739000  0.70739000  0.01099400  1
  Ba  Ba2  1  0.70739000  0.01099400  0.70739000  1
  Ba  Ba3  1  0.29261000  0.98900600  0.29261000  1
  Ba  Ba4  1  0.98900600  0.29261000  0.29261000  1
  Ba  Ba5  1  0.29261000  0.29261000  0.98900600  1
  Ba  Ba6  1  0.50000000  0.50000000  0.50000000  1
  B  B7  1  0.27297000  0.72703000  0.50000000  1
  B  B8  1  0.72703000  0.50000000  0.27297000  1
  B  B9  1  0.50000000  0.27297000  0.72703000  1
  B  B10  1  0.72703000  0.27297000  0.50000000  1
  B  B11  1  0.27297000  0.50000000  0.72703000  1
  B  B12  1  0.50000000  0.72703000  0.27297000  1
  B  B13  1  0.05921000  0.94079000  0.50000000  1
  B  B14  1  0.94079000  0.50000000  0.05921000  1
  B  B15  1  0.50000000  0.05921000  0.94079000  1
  B  B16  1  0.94079000  0.05921000  0.50000000  1
  B  B17  1  0.05921000  0.50000000  0.94079000  1
  B  B18  1  0.50000000  0.94079000  0.05921000  1
  Ir  Ir19  1  0.66956800  0.33043200  0.00000000  1
  Ir  Ir20  1  0.33043200  0.00000000  0.66956800  1
  Ir  Ir21  1  0.00000000  0.66956800  0.33043200  1
  Ir  Ir22  1  0.33043200  0.66956800  0.00000000  1
  Ir  Ir23  1  0.66956800  0.00000000  0.33043200  1
  Ir  Ir24  1  0.00000000  0.33043200  0.66956800  1
  Ir  Ir25  1  0.61525400  0.23590700  0.23590700  1
  Ir  Ir26  1  0.23590700  0.23590700  0.61525400  1
  Ir  Ir27  1  0.23590700  0.61525400  0.23590700  1
  Ir  Ir28  1  0.76409300  0.38474600  0.76409300  1
  Ir  Ir29  1  0.38474600  0.76409300  0.76409300  1
  Ir  Ir30  1  0.76409300  0.76409300  0.38474600  1
