# generated using pymatgen
data_Re(AgCl3)2
_symmetry_space_group_name_H-M   'P 1'
_cell_length_a   7.16688790
_cell_length_b   7.16688790
_cell_length_c   7.16688730
_cell_angle_alpha   56.06408281
_cell_angle_beta   56.06408281
_cell_angle_gamma   56.06407692
_symmetry_Int_Tables_number   1
_chemical_formula_structural   Re(AgCl3)2
_chemical_formula_sum   'Re1 Ag2 Cl6'
_cell_volume   236.57320823
_cell_formula_units_Z   1
loop_
 _symmetry_equiv_pos_site_id
 _symmetry_equiv_pos_as_xyz
  1  'x, y, z'
loop_
 _atom_site_type_symbol
 _atom_site_label
 _atom_site_symmetry_multiplicity
 _atom_site_fract_x
 _atom_site_fract_y
 _atom_site_fract_z
 _atom_site_occupancy
  Re  Re0  1  0.50000000  0.50000000  0.50000000  1
  Ag  Ag1  1  0.76570600  0.76570600  0.76570600  1
  Ag  Ag2  1  0.23429400  0.23429400  0.23429400  1
  Cl  Cl3  1  0.39246100  0.15240700  0.72519100  1
  Cl  Cl4  1  0.15240700  0.72519100  0.39246100  1
  Cl  Cl5  1  0.72519100  0.39246100  0.15240700  1
  Cl  Cl6  1  0.27480900  0.60753900  0.84759300  1
  Cl  Cl7  1  0.84759300  0.27480900  0.60753900  1
  Cl  Cl8  1  0.60753900  0.84759300  0.27480900  1
