# generated using pymatgen
data_EuSi
_symmetry_space_group_name_H-M   'P 1'
_cell_length_a   6.00538181
_cell_length_b   6.00538181
_cell_length_c   3.97353900
_cell_angle_alpha   90.00000000
_cell_angle_beta   90.00000000
_cell_angle_gamma   135.03205518
_symmetry_Int_Tables_number   1
_chemical_formula_structural   EuSi
_chemical_formula_sum   'Eu2 Si2'
_cell_volume   101.27461969
_cell_formula_units_Z   2
loop_
 _symmetry_equiv_pos_site_id
 _symmetry_equiv_pos_as_xyz
  1  'x, y, z'
loop_
 _atom_site_type_symbol
 _atom_site_label
 _atom_site_symmetry_multiplicity
 _atom_site_fract_x
 _atom_site_fract_y
 _atom_site_fract_z
 _atom_site_occupancy
  Eu  Eu0  1  0.14037900  0.85962100  0.25000000  1
  Eu  Eu1  1  0.85962100  0.14037900  0.75000000  1
  Si  Si2  1  0.43427800  0.56572200  0.25000000  1
  Si  Si3  1  0.56572200  0.43427800  0.75000000  1
