# generated using pymatgen
data_Pr(ClO4)3
_symmetry_space_group_name_H-M   'P 1'
_cell_length_a   9.55786038
_cell_length_b   9.55786038
_cell_length_c   5.90392200
_cell_angle_alpha   90.00000000
_cell_angle_beta   90.00000000
_cell_angle_gamma   120.00000260
_symmetry_Int_Tables_number   1
_chemical_formula_structural   Pr(ClO4)3
_chemical_formula_sum   'Pr2 Cl6 O24'
_cell_volume   467.08142372
_cell_formula_units_Z   2
loop_
 _symmetry_equiv_pos_site_id
 _symmetry_equiv_pos_as_xyz
  1  'x, y, z'
loop_
 _atom_site_type_symbol
 _atom_site_label
 _atom_site_symmetry_multiplicity
 _atom_site_fract_x
 _atom_site_fract_y
 _atom_site_fract_z
 _atom_site_occupancy
  Pr  Pr0  1  0.33333300  0.66666700  0.75000000  1
  Pr  Pr1  1  0.66666700  0.33333300  0.25000000  1
  Cl  Cl2  1  0.70709500  0.61458700  0.75000000  1
  Cl  Cl3  1  0.09250700  0.70709500  0.25000000  1
  Cl  Cl4  1  0.61458700  0.90749300  0.25000000  1
  Cl  Cl5  1  0.38541300  0.09250700  0.75000000  1
  Cl  Cl6  1  0.90749300  0.29290500  0.75000000  1
  Cl  Cl7  1  0.29290500  0.38541300  0.25000000  1
  O  O8  1  0.80675200  0.78519700  0.75000000  1
  O  O9  1  0.02155500  0.80675200  0.25000000  1
  O  O10  1  0.78519700  0.97844500  0.25000000  1
  O  O11  1  0.21480300  0.02155500  0.75000000  1
  O  O12  1  0.97844500  0.19324800  0.75000000  1
  O  O13  1  0.19324800  0.21480300  0.25000000  1
  O  O14  1  0.80393100  0.25943200  0.54954100  1
  O  O15  1  0.54449900  0.80393100  0.04954100  1
  O  O16  1  0.46593000  0.43741500  0.25000000  1
  O  O17  1  0.02851500  0.46593000  0.75000000  1
  O  O18  1  0.43741500  0.97148500  0.75000000  1
  O  O19  1  0.56258500  0.02851500  0.25000000  1
  O  O20  1  0.97148500  0.53407000  0.25000000  1
  O  O21  1  0.53407000  0.56258500  0.75000000  1
  O  O22  1  0.80393100  0.25943200  0.95045900  1
  O  O23  1  0.54449900  0.80393100  0.45045900  1
  O  O24  1  0.25943200  0.45550100  0.45045900  1
  O  O25  1  0.74056800  0.54449900  0.95045900  1
  O  O26  1  0.45550100  0.19606900  0.95045900  1
  O  O27  1  0.19606900  0.74056800  0.45045900  1
  O  O28  1  0.19606900  0.74056800  0.04954100  1
  O  O29  1  0.45550100  0.19606900  0.54954100  1
  O  O30  1  0.74056800  0.54449900  0.54954100  1
  O  O31  1  0.25943200  0.45550100  0.04954100  1
