# generated using pymatgen
data_HoCuAs2
_symmetry_space_group_name_H-M   'P 1'
_cell_length_a   3.89734600
_cell_length_b   3.89734600
_cell_length_c   9.81816900
_cell_angle_alpha   90.00000000
_cell_angle_beta   90.00000000
_cell_angle_gamma   90.00000000
_symmetry_Int_Tables_number   1
_chemical_formula_structural   HoCuAs2
_chemical_formula_sum   'Ho2 Cu2 As4'
_cell_volume   149.13117177
_cell_formula_units_Z   2
loop_
 _symmetry_equiv_pos_site_id
 _symmetry_equiv_pos_as_xyz
  1  'x, y, z'
loop_
 _atom_site_type_symbol
 _atom_site_label
 _atom_site_symmetry_multiplicity
 _atom_site_fract_x
 _atom_site_fract_y
 _atom_site_fract_z
 _atom_site_occupancy
  Ho  Ho0  1  0.00000000  0.50000000  0.76324800  1
  Ho  Ho1  1  0.50000000  0.00000000  0.23675200  1
  Cu  Cu2  1  0.00000000  0.00000000  0.50000000  1
  Cu  Cu3  1  0.50000000  0.50000000  0.50000000  1
  As  As4  1  0.50000000  0.50000000  0.00000000  1
  As  As5  1  0.00000000  0.00000000  0.00000000  1
  As  As6  1  0.50000000  0.00000000  0.66225600  1
  As  As7  1  0.00000000  0.50000000  0.33774400  1
