# generated using pymatgen
data_Na5OsO6
_symmetry_space_group_name_H-M   'P 1'
_cell_length_a   5.69707398
_cell_length_b   5.69707398
_cell_length_c   5.65379139
_cell_angle_alpha   79.60819527
_cell_angle_beta   79.60819527
_cell_angle_gamma   119.42921621
_symmetry_Int_Tables_number   1
_chemical_formula_structural   Na5OsO6
_chemical_formula_sum   'Na5 Os1 O6'
_cell_volume   149.25146926
_cell_formula_units_Z   1
loop_
 _symmetry_equiv_pos_site_id
 _symmetry_equiv_pos_as_xyz
  1  'x, y, z'
loop_
 _atom_site_type_symbol
 _atom_site_label
 _atom_site_symmetry_multiplicity
 _atom_site_fract_x
 _atom_site_fract_y
 _atom_site_fract_z
 _atom_site_occupancy
  Na  Na0  1  0.66702500  0.33297500  0.00000000  1
  Na  Na1  1  0.17404400  0.82595600  0.50000000  1
  Na  Na2  1  0.50000000  0.50000000  0.50000000  1
  Na  Na3  1  0.33297500  0.66702500  0.00000000  1
  Na  Na4  1  0.82595600  0.17404400  0.50000000  1
  Os  Os5  1  0.00000000  0.00000000  0.00000000  1
  O  O6  1  0.79850900  0.79850900  0.79668200  1
  O  O7  1  0.20149100  0.20149100  0.20331800  1
  O  O8  1  0.07092900  0.34947000  0.78415500  1
  O  O9  1  0.65053000  0.92907100  0.21584500  1
  O  O10  1  0.92907100  0.65053000  0.21584500  1
  O  O11  1  0.34947000  0.07092900  0.78415500  1
