# generated using pymatgen
data_LiVP2O7
_symmetry_space_group_name_H-M   'P 1'
_cell_length_a   6.39692359
_cell_length_b   6.39692359
_cell_length_c   13.34890624
_cell_angle_alpha   74.86142607
_cell_angle_beta   74.86142607
_cell_angle_gamma   80.65864345
_symmetry_Int_Tables_number   1
_chemical_formula_structural   LiVP2O7
_chemical_formula_sum   'Li4 V4 P8 O28'
_cell_volume   506.38789998
_cell_formula_units_Z   4
loop_
 _symmetry_equiv_pos_site_id
 _symmetry_equiv_pos_as_xyz
  1  'x, y, z'
loop_
 _atom_site_type_symbol
 _atom_site_label
 _atom_site_symmetry_multiplicity
 _atom_site_fract_x
 _atom_site_fract_y
 _atom_site_fract_z
 _atom_site_occupancy
  Li  Li0  1  0.23565500  0.01753200  0.84990700  1
  Li  Li1  1  0.01753200  0.23565500  0.34990700  1
  Li  Li2  1  0.98246800  0.76434500  0.65009300  1
  Li  Li3  1  0.76434500  0.98246800  0.15009300  1
  V  V4  1  0.12752700  0.59810900  0.14052900  1
  V  V5  1  0.40189100  0.87247300  0.35947100  1
  V  V6  1  0.59810900  0.12752700  0.64052900  1
  V  V7  1  0.87247300  0.40189100  0.85947100  1
  P  P8  1  0.90815000  0.75397500  0.36244300  1
  P  P9  1  0.58764000  0.66889400  0.57044800  1
  P  P10  1  0.33110600  0.41236000  0.92955200  1
  P  P11  1  0.75397500  0.90815000  0.86244300  1
  P  P12  1  0.24602500  0.09185000  0.13755700  1
  P  P13  1  0.66889400  0.58764000  0.07044800  1
  P  P14  1  0.41236000  0.33110600  0.42955200  1
  P  P15  1  0.09185000  0.24602500  0.63755700  1
  O  O16  1  0.06619500  0.88902000  0.38068100  1
  O  O17  1  0.11098000  0.93380500  0.11931900  1
  O  O18  1  0.66933400  0.81338600  0.62508000  1
  O  O19  1  0.73121500  0.90488700  0.31293400  1
  O  O20  1  0.55382900  0.45838500  0.85868600  1
  O  O21  1  0.01879600  0.57630300  0.30148700  1
  O  O22  1  0.79422600  0.61514200  0.47671300  1
  O  O23  1  0.21449600  0.60074600  0.98169100  1
  O  O24  1  0.39925400  0.78550400  0.51830900  1
  O  O25  1  0.54161500  0.44617100  0.64131400  1
  O  O26  1  0.38485800  0.20577400  0.02328700  1
  O  O27  1  0.81338600  0.66933400  0.12508000  1
  O  O28  1  0.42369700  0.98120400  0.19851300  1
  O  O29  1  0.09511300  0.26878500  0.18706600  1
  O  O30  1  0.90488700  0.73121500  0.81293400  1
  O  O31  1  0.57630300  0.01879600  0.80148700  1
  O  O32  1  0.18661400  0.33066600  0.87492000  1
  O  O33  1  0.61514200  0.79422600  0.97671300  1
  O  O34  1  0.45838500  0.55382900  0.35868600  1
  O  O35  1  0.60074600  0.21449600  0.48169100  1
  O  O36  1  0.78550400  0.39925400  0.01830900  1
  O  O37  1  0.20577400  0.38485800  0.52328700  1
  O  O38  1  0.98120400  0.42369700  0.69851300  1
  O  O39  1  0.44617100  0.54161500  0.14131400  1
  O  O40  1  0.26878500  0.09511300  0.68706600  1
  O  O41  1  0.33066600  0.18661400  0.37492000  1
  O  O42  1  0.88902000  0.06619500  0.88068100  1
  O  O43  1  0.93380500  0.11098000  0.61931900  1
