# generated using pymatgen
data_Bi2(SeO3)3
_symmetry_space_group_name_H-M   'P 1'
_cell_length_a   4.78517500
_cell_length_b   13.72754300
_cell_length_c   15.57132455
_cell_angle_alpha   62.66104111
_cell_angle_beta   90.00000000
_cell_angle_gamma   90.00000000
_symmetry_Int_Tables_number   1
_chemical_formula_structural   Bi2(SeO3)3
_chemical_formula_sum   'Bi8 Se12 O36'
_cell_volume   908.61181780
_cell_formula_units_Z   4
loop_
 _symmetry_equiv_pos_site_id
 _symmetry_equiv_pos_as_xyz
  1  'x, y, z'
loop_
 _atom_site_type_symbol
 _atom_site_label
 _atom_site_symmetry_multiplicity
 _atom_site_fract_x
 _atom_site_fract_y
 _atom_site_fract_z
 _atom_site_occupancy
  Bi  Bi0  1  0.36745400  0.65203700  0.65539800  1
  Bi  Bi1  1  0.86745400  0.34796300  0.84460200  1
  Bi  Bi2  1  0.63254600  0.34796300  0.34460200  1
  Bi  Bi3  1  0.13254600  0.65203700  0.15539800  1
  Bi  Bi4  1  0.36462600  0.83235700  0.30929400  1
  Bi  Bi5  1  0.86462600  0.16764300  0.19070600  1
  Bi  Bi6  1  0.63537400  0.16764300  0.69070600  1
  Bi  Bi7  1  0.13537400  0.83235700  0.80929400  1
  Se  Se8  1  0.28921700  0.43091900  0.62394200  1
  Se  Se9  1  0.78921700  0.56908100  0.87605800  1
  Se  Se10  1  0.71078300  0.56908100  0.37605800  1
  Se  Se11  1  0.21078300  0.43091900  0.12394200  1
  Se  Se12  1  0.38478400  0.17394100  0.01823500  1
  Se  Se13  1  0.88478400  0.82605900  0.48176500  1
  Se  Se14  1  0.61521600  0.82605900  0.98176500  1
  Se  Se15  1  0.11521600  0.17394100  0.51823500  1
  Se  Se16  1  0.40827300  0.07064400  0.36835800  1
  Se  Se17  1  0.90827300  0.92935600  0.13164200  1
  Se  Se18  1  0.59172700  0.92935600  0.63164200  1
  Se  Se19  1  0.09172700  0.07064400  0.86835800  1
  O  O20  1  0.25252900  0.81478200  0.98910400  1
  O  O21  1  0.75252900  0.18521800  0.51089600  1
  O  O22  1  0.74747100  0.18521800  0.01089600  1
  O  O23  1  0.24747100  0.81478200  0.48910400  1
  O  O24  1  0.46011600  0.79842900  0.70540900  1
  O  O25  1  0.96011600  0.20157100  0.79459100  1
  O  O26  1  0.53988400  0.20157100  0.29459100  1
  O  O27  1  0.03988400  0.79842900  0.20540900  1
  O  O28  1  0.46264900  0.98931300  0.69974800  1
  O  O29  1  0.96264900  0.01068700  0.80025200  1
  O  O30  1  0.53735100  0.01068700  0.30025200  1
  O  O31  1  0.03735100  0.98931300  0.19974800  1
  O  O32  1  0.45239100  0.55662900  0.56661500  1
  O  O33  1  0.95239100  0.44337100  0.93338500  1
  O  O34  1  0.54760900  0.44337100  0.43338500  1
  O  O35  1  0.04760900  0.55662900  0.06661500  1
  O  O36  1  0.43621600  0.65680400  0.31647000  1
  O  O37  1  0.93621600  0.34319600  0.18353000  1
  O  O38  1  0.56378400  0.34319600  0.68353000  1
  O  O39  1  0.06378400  0.65680400  0.81647000  1
  O  O40  1  0.05690900  0.08602400  0.34193300  1
  O  O41  1  0.55690900  0.91397600  0.15806700  1
  O  O42  1  0.94309100  0.91397600  0.65806700  1
  O  O43  1  0.44309100  0.08602400  0.84193300  1
  O  O44  1  0.15395900  0.45688400  0.71745500  1
  O  O45  1  0.65395900  0.54311600  0.78254500  1
  O  O46  1  0.84604100  0.54311600  0.28254500  1
  O  O47  1  0.34604100  0.45688400  0.21745500  1
  O  O48  1  0.19223900  0.29035800  0.41029100  1
  O  O49  1  0.69223900  0.70964200  0.08970900  1
  O  O50  1  0.80776100  0.70964200  0.58970900  1
  O  O51  1  0.30776100  0.29035800  0.91029100  1
  O  O52  1  0.17149800  0.21278700  0.60810200  1
  O  O53  1  0.67149800  0.78721300  0.89189800  1
  O  O54  1  0.82850200  0.78721300  0.39189800  1
  O  O55  1  0.32850200  0.21278700  0.10810200  1
