# generated using pymatgen
data_LiAg3O2
_symmetry_space_group_name_H-M   'P 1'
_cell_length_a   6.55206880
_cell_length_b   6.55206880
_cell_length_c   6.55206880
_cell_angle_alpha   127.76602693
_cell_angle_beta   124.77910929
_cell_angle_gamma   79.46404241
_symmetry_Int_Tables_number   1
_chemical_formula_structural   LiAg3O2
_chemical_formula_sum   'Li2 Ag6 O4'
_cell_volume   176.52694291
_cell_formula_units_Z   2
loop_
 _symmetry_equiv_pos_site_id
 _symmetry_equiv_pos_as_xyz
  1  'x, y, z'
loop_
 _atom_site_type_symbol
 _atom_site_label
 _atom_site_symmetry_multiplicity
 _atom_site_fract_x
 _atom_site_fract_y
 _atom_site_fract_z
 _atom_site_occupancy
  Li  Li0  1  0.50000000  0.75000000  0.25000000  1
  Li  Li1  1  0.50000000  0.25000000  0.75000000  1
  Ag  Ag2  1  0.00000000  0.50000000  0.00000000  1
  Ag  Ag3  1  0.50000000  0.00000000  0.00000000  1
  Ag  Ag4  1  0.00000000  0.00000000  0.50000000  1
  Ag  Ag5  1  0.00000000  0.50000000  0.50000000  1
  Ag  Ag6  1  0.00000000  0.00000000  0.00000000  1
  Ag  Ag7  1  0.50000000  0.50000000  0.50000000  1
  O  O8  1  0.22192200  0.90376600  0.31815600  1
  O  O9  1  0.58560900  0.40376600  0.18184400  1
  O  O10  1  0.77807800  0.09623400  0.68184400  1
  O  O11  1  0.41439100  0.59623400  0.81815600  1
