# generated using pymatgen
data_NaIn(WO4)2
_symmetry_space_group_name_H-M   'P 1'
_cell_length_a   5.92968800
_cell_length_b   5.16626500
_cell_length_c   10.24600059
_cell_angle_alpha   88.45588597
_cell_angle_beta   90.00000000
_cell_angle_gamma   90.00000000
_symmetry_Int_Tables_number   1
_chemical_formula_structural   NaIn(WO4)2
_chemical_formula_sum   'Na2 In2 W4 O16'
_cell_volume   313.76548355
_cell_formula_units_Z   2
loop_
 _symmetry_equiv_pos_site_id
 _symmetry_equiv_pos_as_xyz
  1  'x, y, z'
loop_
 _atom_site_type_symbol
 _atom_site_label
 _atom_site_symmetry_multiplicity
 _atom_site_fract_x
 _atom_site_fract_y
 _atom_site_fract_z
 _atom_site_occupancy
  Na  Na0  1  0.67992200  0.75000000  0.00000000  1
  Na  Na1  1  0.32007800  0.25000000  0.00000000  1
  In  In2  1  0.32059200  0.25000000  0.50000000  1
  In  In3  1  0.67940800  0.75000000  0.50000000  1
  W  W4  1  0.82875700  0.24936000  0.74316000  1
  W  W5  1  0.17124300  0.74936000  0.74316000  1
  W  W6  1  0.17124300  0.75064000  0.25684000  1
  W  W7  1  0.82875700  0.25064000  0.25684000  1
  O  O8  1  0.90482600  0.55991500  0.83277000  1
  O  O9  1  0.36681400  0.62218100  0.85849800  1
  O  O10  1  0.89368400  0.55591100  0.36709600  1
  O  O11  1  0.90482600  0.94008500  0.16723000  1
  O  O12  1  0.10631600  0.05591100  0.36709600  1
  O  O13  1  0.09517400  0.05991500  0.83277000  1
  O  O14  1  0.62595700  0.10452600  0.38421100  1
  O  O15  1  0.62595700  0.39547400  0.61578900  1
  O  O16  1  0.63318600  0.37781900  0.14150200  1
  O  O17  1  0.37404300  0.89547400  0.61578900  1
  O  O18  1  0.36681400  0.87781900  0.14150200  1
  O  O19  1  0.09517400  0.44008500  0.16723000  1
  O  O20  1  0.89368400  0.94408900  0.63290400  1
  O  O21  1  0.63318600  0.12218100  0.85849800  1
  O  O22  1  0.37404300  0.60452600  0.38421100  1
  O  O23  1  0.10631600  0.44408900  0.63290400  1
