# generated using pymatgen
data_In(IO3)3
_symmetry_space_group_name_H-M   'P 1'
_cell_length_a   9.72271955
_cell_length_b   9.72271955
_cell_length_c   5.42318400
_cell_angle_alpha   90.00000000
_cell_angle_beta   90.00000000
_cell_angle_gamma   119.99999697
_symmetry_Int_Tables_number   1
_chemical_formula_structural   In(IO3)3
_chemical_formula_sum   'In2 I6 O18'
_cell_volume   443.97703096
_cell_formula_units_Z   2
loop_
 _symmetry_equiv_pos_site_id
 _symmetry_equiv_pos_as_xyz
  1  'x, y, z'
loop_
 _atom_site_type_symbol
 _atom_site_label
 _atom_site_symmetry_multiplicity
 _atom_site_fract_x
 _atom_site_fract_y
 _atom_site_fract_z
 _atom_site_occupancy
  In  In0  1  0.66666700  0.33333300  0.69378500  1
  In  In1  1  0.33333300  0.66666700  0.19378500  1
  I  I2  1  0.68354500  0.01977800  0.33277800  1
  I  I3  1  0.31645500  0.98022200  0.83277800  1
  I  I4  1  0.01977800  0.33623300  0.83277800  1
  I  I5  1  0.33623300  0.31645500  0.33277800  1
  I  I6  1  0.98022200  0.66376700  0.33277800  1
  I  I7  1  0.66376700  0.68354500  0.83277800  1
  O  O8  1  0.77020900  0.83082100  0.06561700  1
  O  O9  1  0.93938800  0.77020900  0.56561700  1
  O  O10  1  0.83082100  0.06061200  0.56561700  1
  O  O11  1  0.16917900  0.93938800  0.06561700  1
  O  O12  1  0.06061200  0.22979100  0.06561700  1
  O  O13  1  0.22979100  0.16917900  0.56561700  1
  O  O14  1  0.71643200  0.53332800  0.93446000  1
  O  O15  1  0.18310400  0.71643200  0.43446000  1
  O  O16  1  0.54038200  0.42076500  0.46878300  1
  O  O17  1  0.11961700  0.54038200  0.96878300  1
  O  O18  1  0.42076500  0.88038300  0.96878300  1
  O  O19  1  0.57923500  0.11961700  0.46878300  1
  O  O20  1  0.88038300  0.45961800  0.46878300  1
  O  O21  1  0.45961800  0.57923500  0.96878300  1
  O  O22  1  0.28356800  0.46667200  0.43446000  1
  O  O23  1  0.81689600  0.28356800  0.93446000  1
  O  O24  1  0.46667200  0.18310400  0.93446000  1
  O  O25  1  0.53332800  0.81689600  0.43446000  1
