# generated using pymatgen
data_Gd(LuS2)3
_symmetry_space_group_name_H-M   'P 1'
_cell_length_a   3.89906600
_cell_length_b   10.89904600
_cell_length_c   11.14290121
_cell_angle_alpha   71.05676383
_cell_angle_beta   90.00000000
_cell_angle_gamma   90.00000000
_symmetry_Int_Tables_number   1
_chemical_formula_structural   Gd(LuS2)3
_chemical_formula_sum   'Gd2 Lu6 S12'
_cell_volume   447.88377555
_cell_formula_units_Z   2
loop_
 _symmetry_equiv_pos_site_id
 _symmetry_equiv_pos_as_xyz
  1  'x, y, z'
loop_
 _atom_site_type_symbol
 _atom_site_label
 _atom_site_symmetry_multiplicity
 _atom_site_fract_x
 _atom_site_fract_y
 _atom_site_fract_z
 _atom_site_occupancy
  Gd  Gd0  1  0.25000000  0.45308200  0.19368000  1
  Gd  Gd1  1  0.75000000  0.54691800  0.80632000  1
  Lu  Lu2  1  0.75000000  0.93780100  0.66722000  1
  Lu  Lu3  1  0.25000000  0.06219900  0.33278000  1
  Lu  Lu4  1  0.75000000  0.18128700  0.99844400  1
  Lu  Lu5  1  0.25000000  0.81871300  0.00155600  1
  Lu  Lu6  1  0.25000000  0.33934400  0.58563900  1
  Lu  Lu7  1  0.75000000  0.66065600  0.41436100  1
  S  S8  1  0.75000000  0.61552200  0.03645900  1
  S  S9  1  0.25000000  0.38447800  0.96354100  1
  S  S10  1  0.75000000  0.97707600  0.88767500  1
  S  S11  1  0.25000000  0.02292400  0.11232500  1
  S  S12  1  0.75000000  0.30471700  0.74921500  1
  S  S13  1  0.25000000  0.69528300  0.25078500  1
  S  S14  1  0.75000000  0.23852100  0.22643300  1
  S  S15  1  0.25000000  0.76147900  0.77356700  1
  S  S16  1  0.25000000  0.58173700  0.59450400  1
  S  S17  1  0.75000000  0.41826300  0.40549600  1
  S  S18  1  0.25000000  0.10457900  0.56043100  1
  S  S19  1  0.75000000  0.89542100  0.43956900  1
