# generated using pymatgen
data_K2NaInAs2
_symmetry_space_group_name_H-M   'P 1'
_cell_length_a   9.13689991
_cell_length_b   9.13689991
_cell_length_c   9.13689991
_cell_angle_alpha   136.14349355
_cell_angle_beta   135.84269566
_cell_angle_gamma   63.99132720
_symmetry_Int_Tables_number   1
_chemical_formula_structural   K2NaInAs2
_chemical_formula_sum   'K4 Na2 In2 As4'
_cell_volume   363.22242919
_cell_formula_units_Z   2
loop_
 _symmetry_equiv_pos_site_id
 _symmetry_equiv_pos_as_xyz
  1  'x, y, z'
loop_
 _atom_site_type_symbol
 _atom_site_label
 _atom_site_symmetry_multiplicity
 _atom_site_fract_x
 _atom_site_fract_y
 _atom_site_fract_z
 _atom_site_occupancy
  K  K0  1  0.67592500  0.41529100  0.73936600  1
  K  K1  1  0.82407500  0.06344100  0.23936600  1
  K  K2  1  0.17592500  0.93655900  0.76063400  1
  K  K3  1  0.32407500  0.58470900  0.26063400  1
  Na  Na4  1  0.75000000  0.00000000  0.75000000  1
  Na  Na5  1  0.25000000  0.00000000  0.25000000  1
  In  In6  1  0.25000000  0.50000000  0.75000000  1
  In  In7  1  0.75000000  0.50000000  0.25000000  1
  As  As8  1  0.39824400  0.18073200  0.78248800  1
  As  As9  1  0.60175600  0.81926800  0.21751200  1
  As  As10  1  0.10175600  0.38424400  0.28248800  1
  As  As11  1  0.89824400  0.61575600  0.71751200  1
