# generated using pymatgen
data_Rb2AgCl3
_symmetry_space_group_name_H-M   'P 1'
_cell_length_a   4.54375700
_cell_length_b   9.38475900
_cell_length_c   18.21182300
_cell_angle_alpha   90.00000000
_cell_angle_beta   90.00000000
_cell_angle_gamma   90.00000000
_symmetry_Int_Tables_number   1
_chemical_formula_structural   Rb2AgCl3
_chemical_formula_sum   'Rb8 Ag4 Cl12'
_cell_volume   776.58972920
_cell_formula_units_Z   4
loop_
 _symmetry_equiv_pos_site_id
 _symmetry_equiv_pos_as_xyz
  1  'x, y, z'
loop_
 _atom_site_type_symbol
 _atom_site_label
 _atom_site_symmetry_multiplicity
 _atom_site_fract_x
 _atom_site_fract_y
 _atom_site_fract_z
 _atom_site_occupancy
  Rb  Rb0  1  0.75000000  0.57844200  0.21349600  1
  Rb  Rb1  1  0.75000000  0.23944100  0.54322100  1
  Rb  Rb2  1  0.25000000  0.26055900  0.04322100  1
  Rb  Rb3  1  0.75000000  0.73944100  0.95677900  1
  Rb  Rb4  1  0.75000000  0.07844200  0.28650400  1
  Rb  Rb5  1  0.25000000  0.92155800  0.71349600  1
  Rb  Rb6  1  0.25000000  0.42155800  0.78650400  1
  Rb  Rb7  1  0.25000000  0.76055900  0.45677900  1
  Ag  Ag8  1  0.25000000  0.37722400  0.36853300  1
  Ag  Ag9  1  0.75000000  0.62277600  0.63146700  1
  Ag  Ag10  1  0.25000000  0.87722400  0.13146700  1
  Ag  Ag11  1  0.75000000  0.12277600  0.86853300  1
  Cl  Cl12  1  0.75000000  0.50537900  0.40152900  1
  Cl  Cl13  1  0.25000000  0.49462100  0.59847100  1
  Cl  Cl14  1  0.75000000  0.00537900  0.09847100  1
  Cl  Cl15  1  0.25000000  0.99462100  0.90152900  1
  Cl  Cl16  1  0.25000000  0.31696100  0.22751000  1
  Cl  Cl17  1  0.75000000  0.68303900  0.77249000  1
  Cl  Cl18  1  0.25000000  0.81696100  0.27249000  1
  Cl  Cl19  1  0.75000000  0.18303900  0.72751000  1
  Cl  Cl20  1  0.25000000  0.12355100  0.42718800  1
  Cl  Cl21  1  0.75000000  0.37644900  0.92718800  1
  Cl  Cl22  1  0.25000000  0.62355100  0.07281200  1
  Cl  Cl23  1  0.75000000  0.87644900  0.57281200  1
