# generated using pymatgen
data_SrSnO3
_symmetry_space_group_name_H-M   'P 1'
_cell_length_a   5.78637800
_cell_length_b   5.81747200
_cell_length_c   8.19065600
_cell_angle_alpha   90.00000000
_cell_angle_beta   90.00000000
_cell_angle_gamma   90.00000000
_symmetry_Int_Tables_number   1
_chemical_formula_structural   SrSnO3
_chemical_formula_sum   'Sr4 Sn4 O12'
_cell_volume   275.71461578
_cell_formula_units_Z   4
loop_
 _symmetry_equiv_pos_site_id
 _symmetry_equiv_pos_as_xyz
  1  'x, y, z'
loop_
 _atom_site_type_symbol
 _atom_site_label
 _atom_site_symmetry_multiplicity
 _atom_site_fract_x
 _atom_site_fract_y
 _atom_site_fract_z
 _atom_site_occupancy
  Sr  Sr0  1  0.50705200  0.53245800  0.25000000  1
  Sr  Sr1  1  0.99294800  0.03245800  0.25000000  1
  Sr  Sr2  1  0.00705200  0.96754200  0.75000000  1
  Sr  Sr3  1  0.49294800  0.46754200  0.75000000  1
  Sn  Sn4  1  0.00000000  0.50000000  0.00000000  1
  Sn  Sn5  1  0.50000000  0.00000000  0.50000000  1
  Sn  Sn6  1  0.50000000  0.00000000  0.00000000  1
  Sn  Sn7  1  0.00000000  0.50000000  0.50000000  1
  O  O8  1  0.71337400  0.28578400  0.46099100  1
  O  O9  1  0.78662600  0.78578400  0.03900900  1
  O  O10  1  0.21337400  0.21421600  0.53900900  1
  O  O11  1  0.28662600  0.71421600  0.96099100  1
  O  O12  1  0.28662600  0.71421600  0.53900900  1
  O  O13  1  0.21337400  0.21421600  0.96099100  1
  O  O14  1  0.78662600  0.78578400  0.46099100  1
  O  O15  1  0.71337400  0.28578400  0.03900900  1
  O  O16  1  0.07383300  0.48153800  0.25000000  1
  O  O17  1  0.42616700  0.98153800  0.25000000  1
  O  O18  1  0.57383300  0.01846200  0.75000000  1
  O  O19  1  0.92616700  0.51846200  0.75000000  1
