# generated using pymatgen
data_Ce(SO4)2
_symmetry_space_group_name_H-M   'P 1'
_cell_length_a   9.17119200
_cell_length_b   9.57062300
_cell_length_c   13.70778200
_cell_angle_alpha   90.00000000
_cell_angle_beta   90.00000000
_cell_angle_gamma   90.00000000
_symmetry_Int_Tables_number   1
_chemical_formula_structural   Ce(SO4)2
_chemical_formula_sum   'Ce8 S16 O64'
_cell_volume   1203.18714640
_cell_formula_units_Z   8
loop_
 _symmetry_equiv_pos_site_id
 _symmetry_equiv_pos_as_xyz
  1  'x, y, z'
loop_
 _atom_site_type_symbol
 _atom_site_label
 _atom_site_symmetry_multiplicity
 _atom_site_fract_x
 _atom_site_fract_y
 _atom_site_fract_z
 _atom_site_occupancy
  Ce  Ce0  1  0.72007100  0.96244200  0.60318600  1
  Ce  Ce1  1  0.22007100  0.53755800  0.60318600  1
  Ce  Ce2  1  0.77992900  0.46244200  0.39681400  1
  Ce  Ce3  1  0.27992900  0.03755800  0.39681400  1
  Ce  Ce4  1  0.27992900  0.53755800  0.10318600  1
  Ce  Ce5  1  0.77992900  0.96244200  0.10318600  1
  Ce  Ce6  1  0.22007100  0.03755800  0.89681400  1
  Ce  Ce7  1  0.72007100  0.46244200  0.89681400  1
  S  S8  1  0.50065600  0.27854500  0.55582600  1
  S  S9  1  0.00065600  0.22145500  0.55582600  1
  S  S10  1  0.32666200  0.89650400  0.65719300  1
  S  S11  1  0.32666200  0.39650400  0.84280700  1
  S  S12  1  0.67333800  0.10349600  0.34280700  1
  S  S13  1  0.99934400  0.27854500  0.05582600  1
  S  S14  1  0.82666200  0.10349600  0.84280700  1
  S  S15  1  0.17333800  0.39650400  0.34280700  1
  S  S16  1  0.67333800  0.60349600  0.15719300  1
  S  S17  1  0.50065600  0.77854500  0.94417400  1
  S  S18  1  0.00065600  0.72145500  0.94417400  1
  S  S19  1  0.49934400  0.22145500  0.05582600  1
  S  S20  1  0.82666200  0.60349600  0.65719300  1
  S  S21  1  0.49934400  0.72145500  0.44417400  1
  S  S22  1  0.99934400  0.77854500  0.44417400  1
  S  S23  1  0.17333800  0.89650400  0.15719300  1
  O  O24  1  0.08396500  0.87636700  0.38207800  1
  O  O25  1  0.21665700  0.93204600  0.05609400  1
  O  O26  1  0.21665700  0.43204600  0.44390600  1
  O  O27  1  0.40356000  0.80901700  0.38267900  1
  O  O28  1  0.91514000  0.36002500  0.98340000  1
  O  O29  1  0.01290200  0.91132400  0.16856800  1
  O  O30  1  0.91603500  0.12363300  0.61792200  1
  O  O31  1  0.90356000  0.19098300  0.11732100  1
  O  O32  1  0.10385500  0.18625300  0.00292500  1
  O  O33  1  0.74762400  0.00886900  0.27284000  1
  O  O34  1  0.28334300  0.93204600  0.55609400  1
  O  O35  1  0.98709800  0.08867600  0.83143200  1
  O  O36  1  0.78148700  0.24968700  0.82083800  1
  O  O37  1  0.78334300  0.06795400  0.94390600  1
  O  O38  1  0.58486000  0.86002500  0.01660000  1
  O  O39  1  0.41514000  0.63997500  0.51660000  1
  O  O40  1  0.28148700  0.75031300  0.67916200  1
  O  O41  1  0.08486000  0.13997500  0.48340000  1
  O  O42  1  0.71851300  0.74968700  0.17916200  1
  O  O43  1  0.48709800  0.91132400  0.66856800  1
  O  O44  1  0.75237600  0.00886900  0.77284000  1
  O  O45  1  0.60385500  0.31374700  0.00292500  1
  O  O46  1  0.78148700  0.74968700  0.67916200  1
  O  O47  1  0.01290200  0.41132400  0.33143200  1
  O  O48  1  0.28148700  0.25031300  0.82083800  1
  O  O49  1  0.91514000  0.86002500  0.51660000  1
  O  O50  1  0.40356000  0.30901700  0.11732100  1
  O  O51  1  0.98709800  0.58867600  0.66856800  1
  O  O52  1  0.41603500  0.37636700  0.61792200  1
  O  O53  1  0.60385500  0.81374700  0.49707500  1
  O  O54  1  0.24762400  0.49113100  0.27284000  1
  O  O55  1  0.39614500  0.68625300  0.99707500  1
  O  O56  1  0.74762400  0.50886900  0.22716000  1
  O  O57  1  0.91603500  0.62363300  0.88207800  1
  O  O58  1  0.21851300  0.25031300  0.32083800  1
  O  O59  1  0.09644000  0.80901700  0.88267900  1
  O  O60  1  0.71851300  0.24968700  0.32083800  1
  O  O61  1  0.21851300  0.75031300  0.17916200  1
  O  O62  1  0.89614500  0.81374700  0.99707500  1
  O  O63  1  0.48709800  0.41132400  0.83143200  1
  O  O64  1  0.51290200  0.58867600  0.16856800  1
  O  O65  1  0.28334300  0.43204600  0.94390600  1
  O  O66  1  0.89614500  0.31374700  0.50292500  1
  O  O67  1  0.58396500  0.12363300  0.11792200  1
  O  O68  1  0.59644000  0.19098300  0.61732100  1
  O  O69  1  0.08486000  0.63997500  0.01660000  1
  O  O70  1  0.78334300  0.56795400  0.55609400  1
  O  O71  1  0.41603500  0.87636700  0.88207800  1
  O  O72  1  0.10385500  0.68625300  0.49707500  1
  O  O73  1  0.25237600  0.49113100  0.77284000  1
  O  O74  1  0.71665700  0.06795400  0.44390600  1
  O  O75  1  0.71665700  0.56795400  0.05609400  1
  O  O76  1  0.51290200  0.08867600  0.33143200  1
  O  O77  1  0.41514000  0.13997500  0.98340000  1
  O  O78  1  0.58396500  0.62363300  0.38207800  1
  O  O79  1  0.59644000  0.69098300  0.88267900  1
  O  O80  1  0.08396500  0.37636700  0.11792200  1
  O  O81  1  0.75237600  0.50886900  0.72716000  1
  O  O82  1  0.90356000  0.69098300  0.38267900  1
  O  O83  1  0.39614500  0.18625300  0.50292500  1
  O  O84  1  0.25237600  0.99113100  0.72716000  1
  O  O85  1  0.24762400  0.99113100  0.22716000  1
  O  O86  1  0.09644000  0.30901700  0.61732100  1
  O  O87  1  0.58486000  0.36002500  0.48340000  1
