# generated using pymatgen
data_CeCrSe3
_symmetry_space_group_name_H-M   'P 1'
_cell_length_a   3.97624800
_cell_length_b   8.14979800
_cell_length_c   13.64741800
_cell_angle_alpha   90.00000000
_cell_angle_beta   90.00000000
_cell_angle_gamma   90.00000000
_symmetry_Int_Tables_number   1
_chemical_formula_structural   CeCrSe3
_chemical_formula_sum   'Ce4 Cr4 Se12'
_cell_volume   442.25301437
_cell_formula_units_Z   4
loop_
 _symmetry_equiv_pos_site_id
 _symmetry_equiv_pos_as_xyz
  1  'x, y, z'
loop_
 _atom_site_type_symbol
 _atom_site_label
 _atom_site_symmetry_multiplicity
 _atom_site_fract_x
 _atom_site_fract_y
 _atom_site_fract_z
 _atom_site_occupancy
  Ce  Ce0  1  0.25000000  0.09433700  0.17195400  1
  Ce  Ce1  1  0.75000000  0.90566300  0.82804600  1
  Ce  Ce2  1  0.25000000  0.59433700  0.32804600  1
  Ce  Ce3  1  0.75000000  0.40566300  0.67195400  1
  Cr  Cr4  1  0.25000000  0.33871200  0.94800200  1
  Cr  Cr5  1  0.75000000  0.66128800  0.05199800  1
  Cr  Cr6  1  0.25000000  0.83871200  0.55199800  1
  Cr  Cr7  1  0.75000000  0.16128800  0.44800200  1
  Se  Se8  1  0.75000000  0.01440500  0.60932300  1
  Se  Se9  1  0.25000000  0.98559500  0.39067700  1
  Se  Se10  1  0.75000000  0.51440500  0.89067700  1
  Se  Se11  1  0.25000000  0.48559500  0.10932300  1
  Se  Se12  1  0.75000000  0.31152300  0.28645100  1
  Se  Se13  1  0.25000000  0.68847700  0.71354900  1
  Se  Se14  1  0.75000000  0.81152300  0.21354900  1
  Se  Se15  1  0.25000000  0.18847700  0.78645100  1
  Se  Se16  1  0.75000000  0.15703400  0.00560300  1
  Se  Se17  1  0.25000000  0.84296600  0.99439700  1
  Se  Se18  1  0.75000000  0.65703400  0.49439700  1
  Se  Se19  1  0.25000000  0.34296600  0.50560300  1
