# generated using pymatgen
data_KSbClF3
_symmetry_space_group_name_H-M   'P 1'
_cell_length_a   8.03267900
_cell_length_b   8.25863700
_cell_length_c   15.09932600
_cell_angle_alpha   90.00000000
_cell_angle_beta   90.00000000
_cell_angle_gamma   90.00000000
_symmetry_Int_Tables_number   1
_chemical_formula_structural   KSbClF3
_chemical_formula_sum   'K8 Sb8 Cl8 F24'
_cell_volume   1001.67388551
_cell_formula_units_Z   8
loop_
 _symmetry_equiv_pos_site_id
 _symmetry_equiv_pos_as_xyz
  1  'x, y, z'
loop_
 _atom_site_type_symbol
 _atom_site_label
 _atom_site_symmetry_multiplicity
 _atom_site_fract_x
 _atom_site_fract_y
 _atom_site_fract_z
 _atom_site_occupancy
  K  K0  1  0.68158700  0.19569100  0.05742900  1
  K  K1  1  0.18158700  0.30430900  0.94257100  1
  K  K2  1  0.31841300  0.69569100  0.44257100  1
  K  K3  1  0.81841300  0.80430900  0.55742900  1
  K  K4  1  0.18158700  0.19569100  0.44257100  1
  K  K5  1  0.81841300  0.69569100  0.05742900  1
  K  K6  1  0.68158700  0.30430900  0.55742900  1
  K  K7  1  0.31841300  0.80430900  0.94257100  1
  Sb  Sb8  1  0.62999700  0.00473000  0.32453500  1
  Sb  Sb9  1  0.12999700  0.49527000  0.67546500  1
  Sb  Sb10  1  0.37000300  0.50473000  0.17546500  1
  Sb  Sb11  1  0.87000300  0.99527000  0.82453500  1
  Sb  Sb12  1  0.37000300  0.99527000  0.67546500  1
  Sb  Sb13  1  0.87000300  0.50473000  0.32453500  1
  Sb  Sb14  1  0.62999700  0.49527000  0.82453500  1
  Sb  Sb15  1  0.12999700  0.00473000  0.17546500  1
  Cl  Cl16  1  0.01839400  0.37697900  0.15059200  1
  Cl  Cl17  1  0.01839400  0.12302100  0.65059200  1
  Cl  Cl18  1  0.48160600  0.87697900  0.15059200  1
  Cl  Cl19  1  0.98160600  0.62302100  0.84940800  1
  Cl  Cl20  1  0.48160600  0.62302100  0.65059200  1
  Cl  Cl21  1  0.98160600  0.87697900  0.34940800  1
  Cl  Cl22  1  0.51839400  0.12302100  0.84940800  1
  Cl  Cl23  1  0.51839400  0.37697900  0.34940800  1
  F  F24  1  0.89257000  0.27110900  0.35421400  1
  F  F25  1  0.39257000  0.22889100  0.64578600  1
  F  F26  1  0.10743000  0.77110900  0.14578600  1
  F  F27  1  0.60743000  0.72889100  0.85421400  1
  F  F28  1  0.10743000  0.72889100  0.64578600  1
  F  F29  1  0.60743000  0.77110900  0.35421400  1
  F  F30  1  0.89257000  0.22889100  0.85421400  1
  F  F31  1  0.39257000  0.27110900  0.14578600  1
  F  F32  1  0.61476800  0.50497900  0.15103500  1
  F  F33  1  0.11476800  0.99502100  0.84896500  1
  F  F34  1  0.38523200  0.00497900  0.34896500  1
  F  F35  1  0.88523200  0.49502100  0.65103500  1
  F  F36  1  0.38523200  0.49502100  0.84896500  1
  F  F37  1  0.88523200  0.00497900  0.15103500  1
  F  F38  1  0.61476800  0.99502100  0.65103500  1
  F  F39  1  0.16438300  0.03868100  0.04611500  1
  F  F40  1  0.66438300  0.03868100  0.45388500  1
  F  F41  1  0.16438300  0.46131900  0.54611500  1
  F  F42  1  0.33561700  0.53868100  0.04611500  1
  F  F43  1  0.83561700  0.96131900  0.95388500  1
  F  F44  1  0.33561700  0.96131900  0.54611500  1
  F  F45  1  0.83561700  0.53868100  0.45388500  1
  F  F46  1  0.66438300  0.46131900  0.95388500  1
  F  F47  1  0.11476800  0.50497900  0.34896500  1
