# generated using pymatgen
data_SrSe2O5
_symmetry_space_group_name_H-M   'P 1'
_cell_length_a   7.04785200
_cell_length_b   7.11151239
_cell_length_c   11.14604469
_cell_angle_alpha   84.88915575
_cell_angle_beta   81.24533500
_cell_angle_gamma   79.81068540
_symmetry_Int_Tables_number   1
_chemical_formula_structural   SrSe2O5
_chemical_formula_sum   'Sr4 Se8 O20'
_cell_volume   542.32230979
_cell_formula_units_Z   4
loop_
 _symmetry_equiv_pos_site_id
 _symmetry_equiv_pos_as_xyz
  1  'x, y, z'
loop_
 _atom_site_type_symbol
 _atom_site_label
 _atom_site_symmetry_multiplicity
 _atom_site_fract_x
 _atom_site_fract_y
 _atom_site_fract_z
 _atom_site_occupancy
  Sr  Sr0  1  0.19402300  0.35641600  0.89212700  1
  Sr  Sr1  1  0.80597700  0.64358400  0.10787300  1
  Sr  Sr2  1  0.68577100  0.60906300  0.75678900  1
  Sr  Sr3  1  0.31422900  0.39093700  0.24321100  1
  Se  Se4  1  0.58378500  0.16452200  0.62414700  1
  Se  Se5  1  0.41621500  0.83547800  0.37585300  1
  Se  Se6  1  0.12846100  0.27187700  0.56834000  1
  Se  Se7  1  0.87153900  0.72812300  0.43166000  1
  Se  Se8  1  0.12300600  0.83253500  0.78762300  1
  Se  Se9  1  0.87699400  0.16746500  0.21237700  1
  Se  Se10  1  0.30497100  0.83562000  0.04105000  1
  Se  Se11  1  0.69502900  0.16438000  0.95895000  1
  O  O12  1  0.70081400  0.94713900  0.66471900  1
  O  O13  1  0.29918600  0.05286100  0.33528100  1
  O  O14  1  0.54042900  0.28709000  0.75423100  1
  O  O15  1  0.45957100  0.71291000  0.24576900  1
  O  O16  1  0.03413200  0.37474700  0.70084200  1
  O  O17  1  0.96586800  0.62525300  0.29915800  1
  O  O18  1  0.24165000  0.43240100  0.47798700  1
  O  O19  1  0.75835000  0.56759900  0.52201300  1
  O  O20  1  0.33842400  0.09848000  0.62494100  1
  O  O21  1  0.66157600  0.90152000  0.37505900  1
  O  O22  1  0.31837900  0.65800000  0.76850300  1
  O  O23  1  0.68162100  0.34200000  0.23149700  1
  O  O24  1  0.81319200  0.02958000  0.09489300  1
  O  O25  1  0.18680800  0.97042000  0.90510700  1
  O  O26  1  0.46475200  0.22937300  0.02741700  1
  O  O27  1  0.53524800  0.77062700  0.97258300  1
  O  O28  1  0.79371700  0.36879000  0.94395800  1
  O  O29  1  0.20628300  0.63121000  0.05604200  1
  O  O30  1  0.04857400  0.28925000  0.13113900  1
  O  O31  1  0.95142600  0.71075000  0.86886100  1
