# generated using pymatgen
data_YNi5Ge3
_symmetry_space_group_name_H-M   'P 1'
_cell_length_a   3.87165000
_cell_length_b   6.80704600
_cell_length_c   19.14346300
_cell_angle_alpha   90.00000000
_cell_angle_beta   90.00000000
_cell_angle_gamma   90.00000000
_symmetry_Int_Tables_number   1
_chemical_formula_structural   YNi5Ge3
_chemical_formula_sum   'Y4 Ni20 Ge12'
_cell_volume   504.51638885
_cell_formula_units_Z   4
loop_
 _symmetry_equiv_pos_site_id
 _symmetry_equiv_pos_as_xyz
  1  'x, y, z'
loop_
 _atom_site_type_symbol
 _atom_site_label
 _atom_site_symmetry_multiplicity
 _atom_site_fract_x
 _atom_site_fract_y
 _atom_site_fract_z
 _atom_site_occupancy
  Y  Y0  1  0.25000000  0.62150000  0.85479700  1
  Y  Y1  1  0.75000000  0.37850000  0.14520300  1
  Y  Y2  1  0.75000000  0.12150000  0.64520300  1
  Y  Y3  1  0.25000000  0.87850000  0.35479700  1
  Ni  Ni4  1  0.75000000  0.85735400  0.11287500  1
  Ni  Ni5  1  0.25000000  0.88311700  0.98604400  1
  Ni  Ni6  1  0.75000000  0.11688300  0.01395600  1
  Ni  Ni7  1  0.75000000  0.38311700  0.51395600  1
  Ni  Ni8  1  0.25000000  0.36627600  0.00393200  1
  Ni  Ni9  1  0.75000000  0.63372400  0.99606800  1
  Ni  Ni10  1  0.75000000  0.86627600  0.49606800  1
  Ni  Ni11  1  0.25000000  0.13372400  0.50393200  1
  Ni  Ni12  1  0.25000000  0.68963900  0.19992900  1
  Ni  Ni13  1  0.75000000  0.31036100  0.80007100  1
  Ni  Ni14  1  0.75000000  0.18963900  0.30007100  1
  Ni  Ni15  1  0.25000000  0.81036100  0.69992900  1
  Ni  Ni16  1  0.25000000  0.07363800  0.20767600  1
  Ni  Ni17  1  0.75000000  0.92636200  0.79232400  1
  Ni  Ni18  1  0.75000000  0.57363800  0.29232400  1
  Ni  Ni19  1  0.25000000  0.14264600  0.88712500  1
  Ni  Ni20  1  0.25000000  0.35735400  0.38712500  1
  Ni  Ni21  1  0.75000000  0.64264600  0.61287500  1
  Ni  Ni22  1  0.25000000  0.42636200  0.70767600  1
  Ni  Ni23  1  0.25000000  0.61688300  0.48604400  1
  Ge  Ge24  1  0.25000000  0.40941700  0.58645500  1
  Ge  Ge25  1  0.25000000  0.38304000  0.26327100  1
  Ge  Ge26  1  0.75000000  0.61696000  0.73672900  1
  Ge  Ge27  1  0.75000000  0.88304000  0.23672900  1
  Ge  Ge28  1  0.25000000  0.64940400  0.07556000  1
  Ge  Ge29  1  0.75000000  0.35059600  0.92444000  1
  Ge  Ge30  1  0.75000000  0.14940400  0.42444000  1
  Ge  Ge31  1  0.25000000  0.85059600  0.57556000  1
  Ge  Ge32  1  0.25000000  0.11696000  0.76327100  1
  Ge  Ge33  1  0.75000000  0.90941700  0.91354500  1
  Ge  Ge34  1  0.75000000  0.59058300  0.41354500  1
  Ge  Ge35  1  0.25000000  0.09058300  0.08645500  1
