# generated using pymatgen
data_Ba2GdNbO6
_symmetry_space_group_name_H-M   'P 1'
_cell_length_a   6.07866274
_cell_length_b   6.07866274
_cell_length_c   6.07866274
_cell_angle_alpha   120.11617042
_cell_angle_beta   120.11617042
_cell_angle_gamma   89.79890443
_symmetry_Int_Tables_number   1
_chemical_formula_structural   Ba2GdNbO6
_chemical_formula_sum   'Ba2 Gd1 Nb1 O6'
_cell_volume   158.54151125
_cell_formula_units_Z   1
loop_
 _symmetry_equiv_pos_site_id
 _symmetry_equiv_pos_as_xyz
  1  'x, y, z'
loop_
 _atom_site_type_symbol
 _atom_site_label
 _atom_site_symmetry_multiplicity
 _atom_site_fract_x
 _atom_site_fract_y
 _atom_site_fract_z
 _atom_site_occupancy
  Ba  Ba0  1  0.25000000  0.75000000  0.50000000  1
  Ba  Ba1  1  0.75000000  0.25000000  0.50000000  1
  Gd  Gd2  1  0.00000000  0.00000000  0.00000000  1
  Nb  Nb3  1  0.50000000  0.50000000  0.00000000  1
  O  O4  1  0.70453800  0.76448500  0.46902400  1
  O  O5  1  0.76448500  0.29546200  0.05994700  1
  O  O6  1  0.23551500  0.70453800  0.94005300  1
  O  O7  1  0.29546200  0.23551500  0.53097600  1
  O  O8  1  0.26375600  0.26375600  0.00000000  1
  O  O9  1  0.73624400  0.73624400  0.00000000  1
