# generated using pymatgen
data_RuXeF7
_symmetry_space_group_name_H-M   'P 1'
_cell_length_a   11.59700700
_cell_length_b   7.39862700
_cell_length_c   11.06522195
_cell_angle_alpha   48.41974449
_cell_angle_beta   90.00000000
_cell_angle_gamma   90.00000000
_symmetry_Int_Tables_number   1
_chemical_formula_structural   RuXeF7
_chemical_formula_sum   'Ru4 Xe4 F28'
_cell_volume   710.18968880
_cell_formula_units_Z   4
loop_
 _symmetry_equiv_pos_site_id
 _symmetry_equiv_pos_as_xyz
  1  'x, y, z'
loop_
 _atom_site_type_symbol
 _atom_site_label
 _atom_site_symmetry_multiplicity
 _atom_site_fract_x
 _atom_site_fract_y
 _atom_site_fract_z
 _atom_site_occupancy
  Ru  Ru0  1  0.96354900  0.46734500  0.75255600  1
  Ru  Ru1  1  0.46354900  0.53265500  0.74744400  1
  Ru  Ru2  1  0.03645100  0.53265500  0.24744400  1
  Ru  Ru3  1  0.53645100  0.46734500  0.25255600  1
  Xe  Xe4  1  0.78408800  0.91119600  0.75601000  1
  Xe  Xe5  1  0.28408800  0.08880400  0.74399000  1
  Xe  Xe6  1  0.21591200  0.08880400  0.24399000  1
  Xe  Xe7  1  0.71591200  0.91119600  0.25601000  1
  F  F8  1  0.65168700  0.52406300  0.11026400  1
  F  F9  1  0.15168700  0.47593700  0.38973600  1
  F  F10  1  0.34831300  0.47593700  0.88973600  1
  F  F11  1  0.84831300  0.52406300  0.61026400  1
  F  F12  1  0.42532500  0.42103600  0.39506000  1
  F  F13  1  0.92532500  0.57896400  0.10494000  1
  F  F14  1  0.57467500  0.57896400  0.60494000  1
  F  F15  1  0.07467500  0.42103600  0.89506000  1
  F  F16  1  0.66319100  0.04116900  0.80974500  1
  F  F17  1  0.16319100  0.95883100  0.69025500  1
  F  F18  1  0.33680900  0.95883100  0.19025500  1
  F  F19  1  0.83680900  0.04116900  0.30974500  1
  F  F20  1  0.92440900  0.79087500  0.68477800  1
  F  F21  1  0.42440900  0.20912500  0.81522200  1
  F  F22  1  0.07559100  0.20912500  0.31522200  1
  F  F23  1  0.57559100  0.79087500  0.18477800  1
  F  F24  1  0.00320600  0.17500200  0.80929400  1
  F  F25  1  0.50320600  0.82499800  0.69070600  1
  F  F26  1  0.99679400  0.82499800  0.19070600  1
  F  F27  1  0.49679400  0.17500200  0.30929400  1
  F  F28  1  0.07210300  0.63687400  0.58344500  1
  F  F29  1  0.57210300  0.36312600  0.91655500  1
  F  F30  1  0.92789700  0.36312600  0.41655500  1
  F  F31  1  0.42789700  0.63687400  0.08344500  1
  F  F32  1  0.85063500  0.32539800  0.91615000  1
  F  F33  1  0.35063500  0.67460200  0.58385000  1
  F  F34  1  0.14936500  0.67460200  0.08385000  1
  F  F35  1  0.64936500  0.32539800  0.41615000  1
