# generated using pymatgen
data_LaNi5H7
_symmetry_space_group_name_H-M   'P 1'
_cell_length_a   5.34801984
_cell_length_b   5.34801984
_cell_length_c   8.58551300
_cell_angle_alpha   90.00000000
_cell_angle_beta   90.00000000
_cell_angle_gamma   119.99999807
_symmetry_Int_Tables_number   1
_chemical_formula_structural   LaNi5H7
_chemical_formula_sum   'La2 Ni10 H14'
_cell_volume   212.65858040
_cell_formula_units_Z   2
loop_
 _symmetry_equiv_pos_site_id
 _symmetry_equiv_pos_as_xyz
  1  'x, y, z'
loop_
 _atom_site_type_symbol
 _atom_site_label
 _atom_site_symmetry_multiplicity
 _atom_site_fract_x
 _atom_site_fract_y
 _atom_site_fract_z
 _atom_site_occupancy
  La  La0  1  0.00000000  0.00000000  0.47485000  1
  La  La1  1  0.00000000  0.00000000  0.97485000  1
  Ni  Ni2  1  0.49993200  0.50006800  0.25015800  1
  Ni  Ni3  1  0.00013600  0.50006800  0.25015800  1
  Ni  Ni4  1  0.49993200  0.99986400  0.25015800  1
  Ni  Ni5  1  0.50006800  0.49993200  0.75015800  1
  Ni  Ni6  1  0.99986400  0.49993200  0.75015800  1
  Ni  Ni7  1  0.50006800  0.00013600  0.75015800  1
  Ni  Ni8  1  0.33333300  0.66666700  0.49658400  1
  Ni  Ni9  1  0.66666700  0.33333300  0.99658400  1
  Ni  Ni10  1  0.33333300  0.66666700  0.01850100  1
  Ni  Ni11  1  0.66666700  0.33333300  0.51850100  1
  H  H12  1  0.50511800  0.49488200  0.44319700  1
  H  H13  1  0.98976400  0.49488200  0.44319700  1
  H  H14  1  0.50511800  0.01023600  0.44319700  1
  H  H15  1  0.49488200  0.50511800  0.94319700  1
  H  H16  1  0.01023600  0.50511800  0.94319700  1
  H  H17  1  0.49488200  0.98976400  0.94319700  1
  H  H18  1  0.33333300  0.66666700  0.68449200  1
  H  H19  1  0.66666700  0.33333300  0.18449200  1
  H  H20  1  0.15452100  0.84547900  0.22013500  1
  H  H21  1  0.69095800  0.84547900  0.22013500  1
  H  H22  1  0.15452100  0.30904200  0.22013500  1
  H  H23  1  0.84547900  0.15452100  0.72013500  1
  H  H24  1  0.30904200  0.15452100  0.72013500  1
  H  H25  1  0.84547900  0.69095800  0.72013500  1
