# generated using pymatgen
data_H4I3N
_symmetry_space_group_name_H-M   'P 1'
_cell_length_a   6.83542600
_cell_length_b   9.89663700
_cell_length_c   10.88486700
_cell_angle_alpha   90.00000000
_cell_angle_beta   90.00000000
_cell_angle_gamma   90.00000000
_symmetry_Int_Tables_number   1
_chemical_formula_structural   H4I3N
_chemical_formula_sum   'H16 I12 N4'
_cell_volume   736.33654240
_cell_formula_units_Z   4
loop_
 _symmetry_equiv_pos_site_id
 _symmetry_equiv_pos_as_xyz
  1  'x, y, z'
loop_
 _atom_site_type_symbol
 _atom_site_label
 _atom_site_symmetry_multiplicity
 _atom_site_fract_x
 _atom_site_fract_y
 _atom_site_fract_z
 _atom_site_occupancy
  H  H0  1  0.62594200  0.46775200  0.17337900  1
  H  H1  1  0.12594200  0.53224800  0.82662100  1
  H  H2  1  0.37405800  0.96775200  0.32662100  1
  H  H3  1  0.87405800  0.03224800  0.67337900  1
  H  H4  1  0.37405800  0.53224800  0.82662100  1
  H  H5  1  0.87405800  0.46775200  0.17337900  1
  H  H6  1  0.62594200  0.03224800  0.67337900  1
  H  H7  1  0.12594200  0.96775200  0.32662100  1
  H  H8  1  0.25000000  0.39441900  0.77526700  1
  H  H9  1  0.25000000  0.06629200  0.42699300  1
  H  H10  1  0.75000000  0.89441900  0.72473300  1
  H  H11  1  0.25000000  0.10558100  0.27526700  1
  H  H12  1  0.25000000  0.43370800  0.92699300  1
  H  H13  1  0.75000000  0.56629200  0.07300700  1
  H  H14  1  0.75000000  0.93370800  0.57300700  1
  H  H15  1  0.75000000  0.60558100  0.22473300  1
  I  I16  1  0.25000000  0.94655200  0.87479400  1
  I  I17  1  0.75000000  0.23405300  0.92182200  1
  I  I18  1  0.75000000  0.26594700  0.42182200  1
  I  I19  1  0.25000000  0.73405300  0.57817800  1
  I  I20  1  0.25000000  0.76594700  0.07817800  1
  I  I21  1  0.75000000  0.05344800  0.12520600  1
  I  I22  1  0.75000000  0.44655200  0.62520600  1
  I  I23  1  0.25000000  0.55344800  0.37479400  1
  I  I24  1  0.25000000  0.15125000  0.65849000  1
  I  I25  1  0.75000000  0.84875000  0.34151000  1
  I  I26  1  0.75000000  0.65125000  0.84151000  1
  I  I27  1  0.25000000  0.34875000  0.15849000  1
  N  N28  1  0.25000000  0.02668600  0.33835600  1
  N  N29  1  0.75000000  0.52668600  0.16164400  1
  N  N30  1  0.75000000  0.97331400  0.66164400  1
  N  N31  1  0.25000000  0.47331400  0.83835600  1
