# generated using pymatgen
data_CaMgNiH4
_symmetry_space_group_name_H-M   'P 1'
_cell_length_a   6.72144100
_cell_length_b   6.72144100
_cell_length_c   6.72144100
_cell_angle_alpha   90.00000000
_cell_angle_beta   90.00000000
_cell_angle_gamma   90.00000000
_symmetry_Int_Tables_number   1
_chemical_formula_structural   CaMgNiH4
_chemical_formula_sum   'Ca4 Mg4 Ni4 H16'
_cell_volume   303.65970963
_cell_formula_units_Z   4
loop_
 _symmetry_equiv_pos_site_id
 _symmetry_equiv_pos_as_xyz
  1  'x, y, z'
loop_
 _atom_site_type_symbol
 _atom_site_label
 _atom_site_symmetry_multiplicity
 _atom_site_fract_x
 _atom_site_fract_y
 _atom_site_fract_z
 _atom_site_occupancy
  Ca  Ca0  1  0.67347000  0.82653000  0.17347000  1
  Ca  Ca1  1  0.82653000  0.17347000  0.67347000  1
  Ca  Ca2  1  0.17347000  0.67347000  0.82653000  1
  Ca  Ca3  1  0.32653000  0.32653000  0.32653000  1
  Mg  Mg4  1  0.33797500  0.16202500  0.83797500  1
  Mg  Mg5  1  0.16202500  0.83797500  0.33797500  1
  Mg  Mg6  1  0.83797500  0.33797500  0.16202500  1
  Mg  Mg7  1  0.66202500  0.66202500  0.66202500  1
  Ni  Ni8  1  0.95280900  0.54719100  0.45280900  1
  Ni  Ni9  1  0.54719100  0.45280900  0.95280900  1
  Ni  Ni10  1  0.45280900  0.95280900  0.54719100  1
  Ni  Ni11  1  0.04719100  0.04719100  0.04719100  1
  H  H12  1  0.44986800  0.43603200  0.73792100  1
  H  H13  1  0.94986800  0.06396800  0.26207900  1
  H  H14  1  0.55013200  0.93603200  0.76207900  1
  H  H15  1  0.06396800  0.26207900  0.94986800  1
  H  H16  1  0.76207900  0.55013200  0.93603200  1
  H  H17  1  0.26207900  0.94986800  0.06396800  1
  H  H18  1  0.43603200  0.73792100  0.44986800  1
  H  H19  1  0.73792100  0.44986800  0.43603200  1
  H  H20  1  0.93603200  0.76207900  0.55013200  1
  H  H21  1  0.56396800  0.23792100  0.05013200  1
  H  H22  1  0.23792100  0.05013200  0.56396800  1
  H  H23  1  0.05013200  0.56396800  0.23792100  1
  H  H24  1  0.91030400  0.91030400  0.91030400  1
  H  H25  1  0.58969600  0.08969600  0.41030400  1
  H  H26  1  0.41030400  0.58969600  0.08969600  1
  H  H27  1  0.08969600  0.41030400  0.58969600  1
