# generated using pymatgen
data_ReCl3
_symmetry_space_group_name_H-M   'P 1'
_cell_length_a   9.39364048
_cell_length_b   9.39364048
_cell_length_c   9.39364019
_cell_angle_alpha   67.63901118
_cell_angle_beta   67.63901118
_cell_angle_gamma   67.63900897
_symmetry_Int_Tables_number   1
_chemical_formula_structural   ReCl3
_chemical_formula_sum   'Re6 Cl18'
_cell_volume   681.47460733
_cell_formula_units_Z   6
loop_
 _symmetry_equiv_pos_site_id
 _symmetry_equiv_pos_as_xyz
  1  'x, y, z'
loop_
 _atom_site_type_symbol
 _atom_site_label
 _atom_site_symmetry_multiplicity
 _atom_site_fract_x
 _atom_site_fract_y
 _atom_site_fract_z
 _atom_site_occupancy
  Re  Re0  1  0.35534300  0.35534300  0.12093900  1
  Re  Re1  1  0.12093900  0.35534300  0.35534300  1
  Re  Re2  1  0.35534300  0.12093900  0.35534300  1
  Re  Re3  1  0.64465700  0.87906100  0.64465700  1
  Re  Re4  1  0.64465700  0.64465700  0.87906100  1
  Re  Re5  1  0.87906100  0.64465700  0.64465700  1
  Cl  Cl6  1  0.12403500  0.12403500  0.58671800  1
  Cl  Cl7  1  0.58671800  0.12403500  0.12403500  1
  Cl  Cl8  1  0.12403500  0.58671800  0.12403500  1
  Cl  Cl9  1  0.87596500  0.41328200  0.87596500  1
  Cl  Cl10  1  0.87596500  0.87596500  0.41328200  1
  Cl  Cl11  1  0.41328200  0.87596500  0.87596500  1
  Cl  Cl12  1  0.82830900  0.50762900  0.50762900  1
  Cl  Cl13  1  0.50762900  0.50762900  0.82830900  1
  Cl  Cl14  1  0.50762900  0.82830900  0.50762900  1
  Cl  Cl15  1  0.49237100  0.17169100  0.49237100  1
  Cl  Cl16  1  0.17169100  0.49237100  0.49237100  1
  Cl  Cl17  1  0.49237100  0.49237100  0.17169100  1
  Cl  Cl18  1  0.03205100  0.72213900  0.72213900  1
  Cl  Cl19  1  0.72213900  0.72213900  0.03205100  1
  Cl  Cl20  1  0.72213900  0.03205100  0.72213900  1
  Cl  Cl21  1  0.27786100  0.96794900  0.27786100  1
  Cl  Cl22  1  0.96794900  0.27786100  0.27786100  1
  Cl  Cl23  1  0.27786100  0.27786100  0.96794900  1
