# generated using pymatgen
data_CaCuGe
_symmetry_space_group_name_H-M   'P 1'
_cell_length_a   4.36850600
_cell_length_b   7.49943000
_cell_length_c   21.35803700
_cell_angle_alpha   90.00000000
_cell_angle_beta   90.00000000
_cell_angle_gamma   90.00000000
_symmetry_Int_Tables_number   1
_chemical_formula_structural   CaCuGe
_chemical_formula_sum   'Ca12 Cu12 Ge12'
_cell_volume   699.71716332
_cell_formula_units_Z   12
loop_
 _symmetry_equiv_pos_site_id
 _symmetry_equiv_pos_as_xyz
  1  'x, y, z'
loop_
 _atom_site_type_symbol
 _atom_site_label
 _atom_site_symmetry_multiplicity
 _atom_site_fract_x
 _atom_site_fract_y
 _atom_site_fract_z
 _atom_site_occupancy
  Ca  Ca0  1  0.25000000  0.71434200  0.00155200  1
  Ca  Ca1  1  0.75000000  0.28565800  0.99844800  1
  Ca  Ca2  1  0.75000000  0.21434200  0.49844800  1
  Ca  Ca3  1  0.25000000  0.78565800  0.50155200  1
  Ca  Ca4  1  0.25000000  0.79207000  0.16628900  1
  Ca  Ca5  1  0.75000000  0.20793000  0.83371100  1
  Ca  Ca6  1  0.75000000  0.29207000  0.33371100  1
  Ca  Ca7  1  0.25000000  0.70793000  0.66628900  1
  Ca  Ca8  1  0.25000000  0.70617200  0.33316800  1
  Ca  Ca9  1  0.75000000  0.29382800  0.66683200  1
  Ca  Ca10  1  0.75000000  0.20617200  0.16683200  1
  Ca  Ca11  1  0.25000000  0.79382800  0.83316800  1
  Cu  Cu12  1  0.25000000  0.41451700  0.09737300  1
  Cu  Cu13  1  0.75000000  0.58548300  0.90262700  1
  Cu  Cu14  1  0.75000000  0.91451700  0.40262700  1
  Cu  Cu15  1  0.25000000  0.08548300  0.59737300  1
  Cu  Cu16  1  0.25000000  0.41308200  0.23512400  1
  Cu  Cu17  1  0.75000000  0.58691800  0.76487600  1
  Cu  Cu18  1  0.75000000  0.91308200  0.26487600  1
  Cu  Cu19  1  0.25000000  0.08691800  0.73512400  1
  Cu  Cu20  1  0.25000000  0.41903500  0.43616900  1
  Cu  Cu21  1  0.75000000  0.58096500  0.56383100  1
  Cu  Cu22  1  0.75000000  0.91903500  0.06383100  1
  Cu  Cu23  1  0.25000000  0.08096500  0.93616900  1
  Ge  Ge24  1  0.25000000  0.09033800  0.06882200  1
  Ge  Ge25  1  0.75000000  0.90966200  0.93117800  1
  Ge  Ge26  1  0.75000000  0.59033800  0.43117800  1
  Ge  Ge27  1  0.25000000  0.40966200  0.56882200  1
  Ge  Ge28  1  0.25000000  0.08219700  0.26907700  1
  Ge  Ge29  1  0.75000000  0.91780300  0.73092300  1
  Ge  Ge30  1  0.75000000  0.58219700  0.23092300  1
  Ge  Ge31  1  0.25000000  0.41780300  0.76907700  1
  Ge  Ge32  1  0.25000000  0.08490300  0.39832600  1
  Ge  Ge33  1  0.75000000  0.91509700  0.60167400  1
  Ge  Ge34  1  0.75000000  0.58490300  0.10167400  1
  Ge  Ge35  1  0.25000000  0.41509700  0.89832600  1
