# generated using pymatgen
data_Gd2B5
_symmetry_space_group_name_H-M   'P 1'
_cell_length_a   7.14988600
_cell_length_b   7.14948200
_cell_length_c   7.17729644
_cell_angle_alpha   77.41882711
_cell_angle_beta   90.00000000
_cell_angle_gamma   90.00000000
_symmetry_Int_Tables_number   1
_chemical_formula_structural   Gd2B5
_chemical_formula_sum   'Gd8 B20'
_cell_volume   358.07931176
_cell_formula_units_Z   4
loop_
 _symmetry_equiv_pos_site_id
 _symmetry_equiv_pos_as_xyz
  1  'x, y, z'
loop_
 _atom_site_type_symbol
 _atom_site_label
 _atom_site_symmetry_multiplicity
 _atom_site_fract_x
 _atom_site_fract_y
 _atom_site_fract_z
 _atom_site_occupancy
  Gd  Gd0  1  0.31555400  0.75850400  0.25556200  1
  Gd  Gd1  1  0.81555400  0.24149600  0.24443800  1
  Gd  Gd2  1  0.68444600  0.24149600  0.74443800  1
  Gd  Gd3  1  0.18444600  0.75850400  0.75556200  1
  Gd  Gd4  1  0.69140100  0.76692200  0.62845200  1
  Gd  Gd5  1  0.19140100  0.23307800  0.87154800  1
  Gd  Gd6  1  0.30859900  0.23307800  0.37154800  1
  Gd  Gd7  1  0.80859900  0.76692200  0.12845200  1
  B  B8  1  0.50171500  0.31516800  0.03919400  1
  B  B9  1  0.00171500  0.68483200  0.46080600  1
  B  B10  1  0.49828500  0.68483200  0.96080600  1
  B  B11  1  0.99828500  0.31516800  0.53919400  1
  B  B12  1  0.49168400  0.92320000  0.92896400  1
  B  B13  1  0.99168400  0.07680000  0.57103600  1
  B  B14  1  0.50831600  0.07680000  0.07103600  1
  B  B15  1  0.00831600  0.92320000  0.42896400  1
  B  B16  1  0.32664000  0.49699800  0.04000500  1
  B  B17  1  0.82664000  0.50300200  0.45999500  1
  B  B18  1  0.67336000  0.50300200  0.95999500  1
  B  B19  1  0.17336000  0.49699800  0.54000500  1
  B  B20  1  0.91011600  0.49984900  0.90997600  1
  B  B21  1  0.41011600  0.50015100  0.59002400  1
  B  B22  1  0.08988400  0.50015100  0.09002400  1
  B  B23  1  0.58988400  0.49984900  0.40997600  1
  B  B24  1  0.96116200  0.49691800  0.67389400  1
  B  B25  1  0.46116200  0.50308200  0.82610600  1
  B  B26  1  0.03883800  0.50308200  0.32610600  1
  B  B27  1  0.53883800  0.49691800  0.17389400  1
