# generated using pymatgen
data_Ce(Sn3Ru2)2
_symmetry_space_group_name_H-M   'P 1'
_cell_length_a   6.96259481
_cell_length_b   6.96259481
_cell_length_c   6.96259481
_cell_angle_alpha   120.24926319
_cell_angle_beta   120.24926319
_cell_angle_gamma   89.56880298
_symmetry_Int_Tables_number   1
_chemical_formula_structural   Ce(Sn3Ru2)2
_chemical_formula_sum   'Ce1 Sn6 Ru4'
_cell_volume   237.76377938
_cell_formula_units_Z   1
loop_
 _symmetry_equiv_pos_site_id
 _symmetry_equiv_pos_as_xyz
  1  'x, y, z'
loop_
 _atom_site_type_symbol
 _atom_site_label
 _atom_site_symmetry_multiplicity
 _atom_site_fract_x
 _atom_site_fract_y
 _atom_site_fract_z
 _atom_site_occupancy
  Ce  Ce0  1  0.00000000  0.00000000  0.00000000  1
  Sn  Sn1  1  0.50000000  0.00000000  0.50000000  1
  Sn  Sn2  1  0.53017300  0.87966400  0.00000000  1
  Sn  Sn3  1  0.12033600  0.12033600  0.65050800  1
  Sn  Sn4  1  0.46982700  0.46982700  0.34949200  1
  Sn  Sn5  1  0.87966400  0.53017300  0.00000000  1
  Sn  Sn6  1  0.00000000  0.50000000  0.50000000  1
  Ru  Ru7  1  0.59950700  0.24737000  0.00000000  1
  Ru  Ru8  1  0.24737000  0.59950700  0.00000000  1
  Ru  Ru9  1  0.40049300  0.40049300  0.64786200  1
  Ru  Ru10  1  0.75263000  0.75263000  0.35213800  1
