# generated using pymatgen
data_Ce5Sn4
_symmetry_space_group_name_H-M   'P 1'
_cell_length_a   8.34729300
_cell_length_b   8.45925200
_cell_length_c   15.96394700
_cell_angle_alpha   90.00000000
_cell_angle_beta   90.00000000
_cell_angle_gamma   90.00000000
_symmetry_Int_Tables_number   1
_chemical_formula_structural   Ce5Sn4
_chemical_formula_sum   'Ce20 Sn16'
_cell_volume   1127.24391087
_cell_formula_units_Z   4
loop_
 _symmetry_equiv_pos_site_id
 _symmetry_equiv_pos_as_xyz
  1  'x, y, z'
loop_
 _atom_site_type_symbol
 _atom_site_label
 _atom_site_symmetry_multiplicity
 _atom_site_fract_x
 _atom_site_fract_y
 _atom_site_fract_z
 _atom_site_occupancy
  Ce  Ce0  1  0.12353400  0.33708600  0.87769100  1
  Ce  Ce1  1  0.62353400  0.16291400  0.62230900  1
  Ce  Ce2  1  0.37646600  0.83708600  0.12230900  1
  Ce  Ce3  1  0.87646600  0.66291400  0.37769100  1
  Ce  Ce4  1  0.12353400  0.33708600  0.62230900  1
  Ce  Ce5  1  0.62353400  0.16291400  0.87769100  1
  Ce  Ce6  1  0.37646600  0.83708600  0.37769100  1
  Ce  Ce7  1  0.87646600  0.66291400  0.12230900  1
  Ce  Ce8  1  0.01505700  0.20013100  0.40543700  1
  Ce  Ce9  1  0.51505700  0.29986900  0.09456300  1
  Ce  Ce10  1  0.48494300  0.70013100  0.59456300  1
  Ce  Ce11  1  0.98494300  0.79986900  0.90543700  1
  Ce  Ce12  1  0.98494300  0.79986900  0.59456300  1
  Ce  Ce13  1  0.48494300  0.70013100  0.90543700  1
  Ce  Ce14  1  0.51505700  0.29986900  0.40543700  1
  Ce  Ce15  1  0.01505700  0.20013100  0.09456300  1
  Ce  Ce16  1  0.30661200  0.01163400  0.75000000  1
  Ce  Ce17  1  0.80661200  0.48836600  0.75000000  1
  Ce  Ce18  1  0.19338800  0.51163400  0.25000000  1
  Ce  Ce19  1  0.69338800  0.98836600  0.25000000  1
  Sn  Sn20  1  0.78195600  0.46782800  0.54130900  1
  Sn  Sn21  1  0.28195600  0.03217200  0.95869100  1
  Sn  Sn22  1  0.71804400  0.96782800  0.45869100  1
  Sn  Sn23  1  0.21804400  0.53217200  0.04130900  1
  Sn  Sn24  1  0.21804400  0.53217200  0.45869100  1
  Sn  Sn25  1  0.71804400  0.96782800  0.04130900  1
  Sn  Sn26  1  0.28195600  0.03217200  0.54130900  1
  Sn  Sn27  1  0.78195600  0.46782800  0.95869100  1
  Sn  Sn28  1  0.93163700  0.09501700  0.75000000  1
  Sn  Sn29  1  0.43163700  0.40498300  0.75000000  1
  Sn  Sn30  1  0.56836300  0.59501700  0.25000000  1
  Sn  Sn31  1  0.06836300  0.90498300  0.25000000  1
  Sn  Sn32  1  0.17703300  0.64864300  0.75000000  1
  Sn  Sn33  1  0.67703300  0.85135700  0.75000000  1
  Sn  Sn34  1  0.32296700  0.14864300  0.25000000  1
  Sn  Sn35  1  0.82296700  0.35135700  0.25000000  1
