# generated using pymatgen
data_SiPd3
_symmetry_space_group_name_H-M   'P 1'
_cell_length_a   5.34204300
_cell_length_b   5.85991300
_cell_length_c   7.63112400
_cell_angle_alpha   90.00000000
_cell_angle_beta   90.00000000
_cell_angle_gamma   90.00000000
_symmetry_Int_Tables_number   1
_chemical_formula_structural   SiPd3
_chemical_formula_sum   'Si4 Pd12'
_cell_volume   238.88399770
_cell_formula_units_Z   4
loop_
 _symmetry_equiv_pos_site_id
 _symmetry_equiv_pos_as_xyz
  1  'x, y, z'
loop_
 _atom_site_type_symbol
 _atom_site_label
 _atom_site_symmetry_multiplicity
 _atom_site_fract_x
 _atom_site_fract_y
 _atom_site_fract_z
 _atom_site_occupancy
  Si  Si0  1  0.53028700  0.10405200  0.75000000  1
  Si  Si1  1  0.03028700  0.39594800  0.25000000  1
  Si  Si2  1  0.96971300  0.60405200  0.75000000  1
  Si  Si3  1  0.46971300  0.89594800  0.25000000  1
  Pd  Pd4  1  0.67809400  0.82035000  0.94823700  1
  Pd  Pd5  1  0.17809400  0.67965000  0.05176300  1
  Pd  Pd6  1  0.82190600  0.32035000  0.55176300  1
  Pd  Pd7  1  0.32190600  0.17965000  0.44823700  1
  Pd  Pd8  1  0.90257300  0.00673100  0.25000000  1
  Pd  Pd9  1  0.40257300  0.49326900  0.75000000  1
  Pd  Pd10  1  0.59742700  0.50673100  0.25000000  1
  Pd  Pd11  1  0.09742700  0.99326900  0.75000000  1
  Pd  Pd12  1  0.67809400  0.82035000  0.55176300  1
  Pd  Pd13  1  0.17809400  0.67965000  0.44823700  1
  Pd  Pd14  1  0.82190600  0.32035000  0.94823700  1
  Pd  Pd15  1  0.32190600  0.17965000  0.05176300  1
