# generated using pymatgen
data_TiNb3O6
_symmetry_space_group_name_H-M   'P 1'
_cell_length_a   6.70675782
_cell_length_b   6.70675782
_cell_length_c   6.70675833
_cell_angle_alpha   73.36737243
_cell_angle_beta   73.36737243
_cell_angle_gamma   73.36737485
_symmetry_Int_Tables_number   1
_chemical_formula_structural   TiNb3O6
_chemical_formula_sum   'Ti2 Nb6 O12'
_cell_volume   270.01299130
_cell_formula_units_Z   2
loop_
 _symmetry_equiv_pos_site_id
 _symmetry_equiv_pos_as_xyz
  1  'x, y, z'
loop_
 _atom_site_type_symbol
 _atom_site_label
 _atom_site_symmetry_multiplicity
 _atom_site_fract_x
 _atom_site_fract_y
 _atom_site_fract_z
 _atom_site_occupancy
  Ti  Ti0  1  0.27380900  0.27380900  0.27380900  1
  Ti  Ti1  1  0.72619100  0.72619100  0.72619100  1
  Nb  Nb2  1  0.94399000  0.11791700  0.70470000  1
  Nb  Nb3  1  0.70470000  0.94399000  0.11791700  1
  Nb  Nb4  1  0.11791700  0.70470000  0.94399000  1
  Nb  Nb5  1  0.05601000  0.88208300  0.29530000  1
  Nb  Nb6  1  0.29530000  0.05601000  0.88208300  1
  Nb  Nb7  1  0.88208300  0.29530000  0.05601000  1
  O  O8  1  0.17305100  0.57033400  0.25847100  1
  O  O9  1  0.25847100  0.17305100  0.57033400  1
  O  O10  1  0.57033400  0.25847100  0.17305100  1
  O  O11  1  0.82694900  0.42966600  0.74152900  1
  O  O12  1  0.74152900  0.82694900  0.42966600  1
  O  O13  1  0.42966600  0.74152900  0.82694900  1
  O  O14  1  0.64788500  0.03373200  0.79904200  1
  O  O15  1  0.79904200  0.64788500  0.03373200  1
  O  O16  1  0.96626800  0.20095800  0.35211500  1
  O  O17  1  0.20095800  0.35211500  0.96626800  1
  O  O18  1  0.35211500  0.96626800  0.20095800  1
  O  O19  1  0.03373200  0.79904200  0.64788500  1
