# generated using pymatgen
data_RbFeBP2HO9
_symmetry_space_group_name_H-M   'P 1'
_cell_length_a   8.49806300
_cell_length_b   9.52238800
_cell_length_c   9.83680211
_cell_angle_alpha   78.01835289
_cell_angle_beta   90.00000000
_cell_angle_gamma   90.00000000
_symmetry_Int_Tables_number   1
_chemical_formula_structural   RbFeBP2HO9
_chemical_formula_sum   'Rb4 Fe4 B4 P8 H4 O36'
_cell_volume   778.67045086
_cell_formula_units_Z   4
loop_
 _symmetry_equiv_pos_site_id
 _symmetry_equiv_pos_as_xyz
  1  'x, y, z'
loop_
 _atom_site_type_symbol
 _atom_site_label
 _atom_site_symmetry_multiplicity
 _atom_site_fract_x
 _atom_site_fract_y
 _atom_site_fract_z
 _atom_site_occupancy
  Rb  Rb0  1  0.89951700  0.80521500  0.06449900  1
  Rb  Rb1  1  0.39951700  0.19478500  0.43550100  1
  Rb  Rb2  1  0.10048300  0.19478500  0.93550100  1
  Rb  Rb3  1  0.60048300  0.80521500  0.56449900  1
  Fe  Fe4  1  0.34276000  0.79382000  0.93091400  1
  Fe  Fe5  1  0.84276000  0.20618000  0.56908600  1
  Fe  Fe6  1  0.65724000  0.20618000  0.06908600  1
  Fe  Fe7  1  0.15724000  0.79382000  0.43091400  1
  B  B8  1  0.94250200  0.66359900  0.69377200  1
  B  B9  1  0.44250200  0.33640100  0.80622800  1
  B  B10  1  0.05749800  0.33640100  0.30622800  1
  B  B11  1  0.55749800  0.66359900  0.19377200  1
  P  P12  1  0.25920300  0.57927000  0.71667300  1
  P  P13  1  0.75920300  0.42073000  0.78332700  1
  P  P14  1  0.74079700  0.42073000  0.28332700  1
  P  P15  1  0.24079700  0.57927000  0.21667300  1
  P  P16  1  0.06214700  0.92380100  0.70716500  1
  P  P17  1  0.56214700  0.07619900  0.79283500  1
  P  P18  1  0.93785300  0.07619900  0.29283500  1
  P  P19  1  0.43785300  0.92380100  0.20716500  1
  H  H20  1  0.92129200  0.59921400  0.50587700  1
  H  H21  1  0.42129200  0.40078600  0.99412300  1
  H  H22  1  0.07870800  0.40078600  0.49412300  1
  H  H23  1  0.57870800  0.59921400  0.00587700  1
  O  O24  1  0.20272300  0.41375400  0.25292500  1
  O  O25  1  0.70272300  0.58624600  0.24707500  1
  O  O26  1  0.79727700  0.58624600  0.74707500  1
  O  O27  1  0.29727700  0.41375400  0.75292500  1
  O  O28  1  0.08247600  0.58583600  0.76134600  1
  O  O29  1  0.58247600  0.41416400  0.73865400  1
  O  O30  1  0.91752400  0.41416400  0.23865400  1
  O  O31  1  0.72015000  0.36510100  0.43965500  1
  O  O32  1  0.27985000  0.63489900  0.56034500  1
  O  O33  1  0.77985000  0.36510100  0.93965500  1
  O  O34  1  0.36689400  0.65615100  0.80296000  1
  O  O35  1  0.22015000  0.63489900  0.06034500  1
  O  O36  1  0.01155100  0.92709700  0.30802400  1
  O  O37  1  0.51155100  0.07290300  0.19197600  1
  O  O38  1  0.98844900  0.07290300  0.69197600  1
  O  O39  1  0.48844900  0.92709700  0.80802400  1
  O  O40  1  0.33582000  0.90874500  0.08191300  1
  O  O41  1  0.83582000  0.09125500  0.41808700  1
  O  O42  1  0.66418000  0.09125500  0.91808700  1
  O  O43  1  0.16418000  0.90874500  0.58191300  1
  O  O44  1  0.34585500  0.89471000  0.34628900  1
  O  O45  1  0.84585500  0.10529000  0.15371100  1
  O  O46  1  0.65414500  0.10529000  0.65371100  1
  O  O47  1  0.15414500  0.89471000  0.84628900  1
  O  O48  1  0.57510200  0.80791100  0.22558600  1
  O  O49  1  0.07510200  0.19208900  0.27441400  1
  O  O50  1  0.42489800  0.19208900  0.77441400  1
  O  O51  1  0.92489800  0.80791100  0.72558600  1
  O  O52  1  0.55175100  0.68553000  0.03942800  1
  O  O53  1  0.05175100  0.31447000  0.46057200  1
  O  O54  1  0.44824900  0.31447000  0.96057200  1
  O  O55  1  0.94824900  0.68553000  0.53942800  1
  O  O56  1  0.13310600  0.65615100  0.30296000  1
  O  O57  1  0.63310600  0.34384900  0.19704000  1
  O  O58  1  0.86689400  0.34384900  0.69704000  1
  O  O59  1  0.41752400  0.58583600  0.26134600  1
