# generated using pymatgen
data_SbClF10
_symmetry_space_group_name_H-M   'P 1'
_cell_length_a   5.99957500
_cell_length_b   8.37174500
_cell_length_c   15.43880500
_cell_angle_alpha   90.00000000
_cell_angle_beta   90.00000000
_cell_angle_gamma   90.00000000
_symmetry_Int_Tables_number   1
_chemical_formula_structural   SbClF10
_chemical_formula_sum   'Sb4 Cl4 F40'
_cell_volume   775.44350025
_cell_formula_units_Z   4
loop_
 _symmetry_equiv_pos_site_id
 _symmetry_equiv_pos_as_xyz
  1  'x, y, z'
loop_
 _atom_site_type_symbol
 _atom_site_label
 _atom_site_symmetry_multiplicity
 _atom_site_fract_x
 _atom_site_fract_y
 _atom_site_fract_z
 _atom_site_occupancy
  Sb  Sb0  1  0.09193800  0.75000000  0.64215900  1
  Sb  Sb1  1  0.09193800  0.25000000  0.85784100  1
  Sb  Sb2  1  0.90806200  0.25000000  0.35784100  1
  Sb  Sb3  1  0.90806200  0.75000000  0.14215900  1
  Cl  Cl4  1  0.58902500  0.75000000  0.83925100  1
  Cl  Cl5  1  0.58902500  0.25000000  0.66074900  1
  Cl  Cl6  1  0.41097500  0.25000000  0.16074900  1
  Cl  Cl7  1  0.41097500  0.75000000  0.33925100  1
  F  F8  1  0.41029500  0.44992800  0.15682600  1
  F  F9  1  0.41029500  0.55007200  0.34317400  1
  F  F10  1  0.58970500  0.94992800  0.84317400  1
  F  F11  1  0.58970500  0.05007200  0.65682600  1
  F  F12  1  0.16537400  0.75000000  0.22100100  1
  F  F13  1  0.16537400  0.25000000  0.27899900  1
  F  F14  1  0.83462600  0.25000000  0.77899900  1
  F  F15  1  0.83462600  0.75000000  0.72100100  1
  F  F16  1  0.10467000  0.75000000  0.04524400  1
  F  F17  1  0.10467000  0.25000000  0.45475600  1
  F  F18  1  0.89533000  0.25000000  0.95475600  1
  F  F19  1  0.89533000  0.75000000  0.54524400  1
  F  F20  1  0.71628100  0.75000000  0.24524500  1
  F  F21  1  0.71628100  0.25000000  0.25475500  1
  F  F22  1  0.28371900  0.25000000  0.75475500  1
  F  F23  1  0.28371900  0.75000000  0.74524500  1
  F  F24  1  0.91084600  0.97709100  0.14644600  1
  F  F25  1  0.91084600  0.02290900  0.35355400  1
  F  F26  1  0.08915400  0.47709100  0.85355400  1
  F  F27  1  0.08915400  0.52290900  0.64644600  1
  F  F28  1  0.08915400  0.02290900  0.85355400  1
  F  F29  1  0.08915400  0.97709100  0.64644600  1
  F  F30  1  0.91084600  0.52290900  0.14644600  1
  F  F31  1  0.91084600  0.47709100  0.35355400  1
  F  F32  1  0.64864000  0.75000000  0.07104300  1
  F  F33  1  0.64864000  0.25000000  0.42895700  1
  F  F34  1  0.35136000  0.25000000  0.92895700  1
  F  F35  1  0.35136000  0.75000000  0.57104300  1
  F  F36  1  0.58970500  0.55007200  0.84317400  1
  F  F37  1  0.58970500  0.44992800  0.65682600  1
  F  F38  1  0.41029500  0.05007200  0.15682600  1
  F  F39  1  0.41029500  0.94992800  0.34317400  1
  F  F40  1  0.59511300  0.75000000  0.41365400  1
  F  F41  1  0.59511300  0.25000000  0.08634600  1
  F  F42  1  0.40488700  0.25000000  0.58634600  1
  F  F43  1  0.40488700  0.75000000  0.91365400  1
  F  F44  1  0.19517700  0.75000000  0.39960100  1
  F  F45  1  0.19517700  0.25000000  0.10039900  1
  F  F46  1  0.80482300  0.25000000  0.60039900  1
  F  F47  1  0.80482300  0.75000000  0.89960100  1
