# generated using pymatgen
data_SbI5F6
_symmetry_space_group_name_H-M   'P 1'
_cell_length_a   8.69107700
_cell_length_b   8.86240695
_cell_length_c   15.80004199
_cell_angle_alpha   101.57974253
_cell_angle_beta   92.60220664
_cell_angle_gamma   111.68352245
_symmetry_Int_Tables_number   1
_chemical_formula_structural   SbI5F6
_chemical_formula_sum   'Sb3 I15 F18'
_cell_volume   1098.25027046
_cell_formula_units_Z   3
loop_
 _symmetry_equiv_pos_site_id
 _symmetry_equiv_pos_as_xyz
  1  'x, y, z'
loop_
 _atom_site_type_symbol
 _atom_site_label
 _atom_site_symmetry_multiplicity
 _atom_site_fract_x
 _atom_site_fract_y
 _atom_site_fract_z
 _atom_site_occupancy
  Sb  Sb0  1  0.48298200  0.14370900  0.34684300  1
  Sb  Sb1  1  0.51701800  0.85629100  0.65315700  1
  Sb  Sb2  1  0.00000000  0.00000000  0.00000000  1
  I  I3  1  0.05216600  0.34074000  0.26030200  1
  I  I4  1  0.66094200  0.41945800  0.09245200  1
  I  I5  1  0.44091500  0.81545000  0.06697100  1
  I  I6  1  0.55908500  0.18455000  0.93302900  1
  I  I7  1  0.24369000  0.58223800  0.16307300  1
  I  I8  1  0.75631000  0.41776200  0.83692700  1
  I  I9  1  0.33905800  0.58054200  0.90754800  1
  I  I10  1  0.94783400  0.65926000  0.73969800  1
  I  I11  1  0.17455000  0.54131300  0.42090800  1
  I  I12  1  0.82545000  0.45868700  0.57909200  1
  I  I13  1  0.00000000  0.00000000  0.50000000  1
  I  I14  1  0.29318200  0.26377400  0.60792500  1
  I  I15  1  0.70681800  0.73622600  0.39207500  1
  I  I16  1  0.16938700  0.25972200  0.76445900  1
  I  I17  1  0.83061300  0.74027800  0.23554100  1
  F  F18  1  0.73651300  0.95373100  0.71669800  1
  F  F19  1  0.29474900  0.75262400  0.58741300  1
  F  F20  1  0.70525100  0.24737600  0.41258700  1
  F  F21  1  0.02582000  0.16069400  0.93001000  1
  F  F22  1  0.97418000  0.83930600  0.06999000  1
  F  F23  1  0.08227500  0.87398900  0.91185100  1
  F  F24  1  0.91772500  0.12601100  0.08814900  1
  F  F25  1  0.22335800  0.12613000  0.05671100  1
  F  F26  1  0.77664200  0.87387000  0.94328900  1
  F  F27  1  0.40422100  0.25588400  0.44372800  1
  F  F28  1  0.26348700  0.04626900  0.28330200  1
  F  F29  1  0.57119700  0.03935200  0.25310500  1
  F  F30  1  0.42880300  0.96064800  0.74689500  1
  F  F31  1  0.43646900  0.95634300  0.39786800  1
  F  F32  1  0.56353100  0.04365700  0.60213200  1
  F  F33  1  0.53312600  0.33583600  0.29830800  1
  F  F34  1  0.46687400  0.66416400  0.70169200  1
  F  F35  1  0.59577900  0.74411600  0.55627200  1
