# generated using pymatgen
data_CsHSeO4
_symmetry_space_group_name_H-M   'P 1'
_cell_length_a   8.68615900
_cell_length_b   7.96398000
_cell_length_c   8.15634815
_cell_angle_alpha   69.51604330
_cell_angle_beta   90.00000000
_cell_angle_gamma   90.00000000
_symmetry_Int_Tables_number   1
_chemical_formula_structural   CsHSeO4
_chemical_formula_sum   'Cs4 H4 Se4 O16'
_cell_volume   528.55083573
_cell_formula_units_Z   4
loop_
 _symmetry_equiv_pos_site_id
 _symmetry_equiv_pos_as_xyz
  1  'x, y, z'
loop_
 _atom_site_type_symbol
 _atom_site_label
 _atom_site_symmetry_multiplicity
 _atom_site_fract_x
 _atom_site_fract_y
 _atom_site_fract_z
 _atom_site_occupancy
  Cs  Cs0  1  0.62516400  0.29374100  0.70607600  1
  Cs  Cs1  1  0.12516400  0.20625900  0.29392400  1
  Cs  Cs2  1  0.37483600  0.70625900  0.29392400  1
  Cs  Cs3  1  0.87483600  0.79374100  0.70607600  1
  H  H4  1  0.29242300  0.03841100  0.88963500  1
  H  H5  1  0.79242300  0.46158900  0.11036500  1
  H  H6  1  0.70757700  0.96158900  0.11036500  1
  H  H7  1  0.20757700  0.53841100  0.88963500  1
  Se  Se8  1  0.12762300  0.27932900  0.75581000  1
  Se  Se9  1  0.62762300  0.22067100  0.24419000  1
  Se  Se10  1  0.87237700  0.72067100  0.24419000  1
  Se  Se11  1  0.37237700  0.77932900  0.75581000  1
  O  O12  1  0.21205500  0.10698600  0.93482900  1
  O  O13  1  0.71205500  0.39301400  0.06517100  1
  O  O14  1  0.78794500  0.89301400  0.06517100  1
  O  O15  1  0.28794500  0.60698600  0.93482900  1
  O  O16  1  0.42759800  0.92352300  0.85217000  1
  O  O17  1  0.92759800  0.57647700  0.14783000  1
  O  O18  1  0.57240200  0.07647700  0.14783000  1
  O  O19  1  0.07240200  0.42352300  0.85217000  1
  O  O20  1  0.52050300  0.69531200  0.68433300  1
  O  O21  1  0.02050300  0.80468800  0.31566700  1
  O  O22  1  0.47949700  0.30468800  0.31566700  1
  O  O23  1  0.97949700  0.19531200  0.68433300  1
  O  O24  1  0.23637300  0.85843400  0.60707500  1
  O  O25  1  0.73637300  0.64156600  0.39292500  1
  O  O26  1  0.76362700  0.14156600  0.39292500  1
  O  O27  1  0.26362700  0.35843400  0.60707500  1
