# generated using pymatgen
data_LiSnPO4
_symmetry_space_group_name_H-M   'P 1'
_cell_length_a   5.01330300
_cell_length_b   8.28783500
_cell_length_c   18.72252100
_cell_angle_alpha   90.00000000
_cell_angle_beta   90.00000000
_cell_angle_gamma   90.00000000
_symmetry_Int_Tables_number   1
_chemical_formula_structural   LiSnPO4
_chemical_formula_sum   'Li8 Sn8 P8 O32'
_cell_volume   777.91003956
_cell_formula_units_Z   8
loop_
 _symmetry_equiv_pos_site_id
 _symmetry_equiv_pos_as_xyz
  1  'x, y, z'
loop_
 _atom_site_type_symbol
 _atom_site_label
 _atom_site_symmetry_multiplicity
 _atom_site_fract_x
 _atom_site_fract_y
 _atom_site_fract_z
 _atom_site_occupancy
  Li  Li0  1  0.94713400  0.01119600  0.94387000  1
  Li  Li1  1  0.43834400  0.17433100  0.34613200  1
  Li  Li2  1  0.93834400  0.32566900  0.84613200  1
  Li  Li3  1  0.44713400  0.48880400  0.44387000  1
  Li  Li4  1  0.94713400  0.51119600  0.55613000  1
  Li  Li5  1  0.43834400  0.67433100  0.15386800  1
  Li  Li6  1  0.93834400  0.82566900  0.65386800  1
  Li  Li7  1  0.44713400  0.98880400  0.05613000  1
  Sn  Sn8  1  0.46708200  0.06140100  0.77609300  1
  Sn  Sn9  1  0.54017200  0.15933800  0.55511900  1
  Sn  Sn10  1  0.04017200  0.34066200  0.05511900  1
  Sn  Sn11  1  0.96708200  0.43859900  0.27609300  1
  Sn  Sn12  1  0.46708200  0.56140100  0.72390700  1
  Sn  Sn13  1  0.54017200  0.65933800  0.94488100  1
  Sn  Sn14  1  0.04017200  0.84066200  0.44488100  1
  Sn  Sn15  1  0.96708200  0.93859900  0.22390700  1
  P  P16  1  0.94407800  0.20751000  0.67863200  1
  P  P17  1  0.44298700  0.23537800  0.92897600  1
  P  P18  1  0.94298700  0.26462200  0.42897600  1
  P  P19  1  0.44407800  0.29249000  0.17863200  1
  P  P20  1  0.94407800  0.70751000  0.82136800  1
  P  P21  1  0.44298700  0.73537800  0.57102400  1
  P  P22  1  0.94298700  0.76462200  0.07102400  1
  P  P23  1  0.44407800  0.79249000  0.32136800  1
  O  O24  1  0.81443000  0.05509400  0.64166100  1
  O  O25  1  0.30562500  0.09725000  0.96966200  1
  O  O26  1  0.87617200  0.10202100  0.47073300  1
  O  O27  1  0.38584400  0.14476800  0.13249700  1
  O  O28  1  0.24928900  0.17982200  0.68810900  1
  O  O29  1  0.74613200  0.21335500  0.92250900  1
  O  O30  1  0.81408700  0.22200900  0.75496300  1
  O  O31  1  0.31979600  0.25294900  0.85180300  1
  O  O32  1  0.81979600  0.24705100  0.35180300  1
  O  O33  1  0.31408700  0.27799100  0.25496300  1
  O  O34  1  0.24613200  0.28664500  0.42250900  1
  O  O35  1  0.74928900  0.32017800  0.18810900  1
  O  O36  1  0.88584400  0.35523200  0.63249700  1
  O  O37  1  0.37617200  0.39797900  0.97073300  1
  O  O38  1  0.80562500  0.40275000  0.46966300  1
  O  O39  1  0.31443000  0.44490600  0.14166100  1
  O  O40  1  0.81443000  0.55509400  0.85833900  1
  O  O41  1  0.30562500  0.59725000  0.53033800  1
  O  O42  1  0.87617200  0.60202100  0.02926700  1
  O  O43  1  0.38584400  0.64476800  0.36750300  1
  O  O44  1  0.24928900  0.67982200  0.81189100  1
  O  O45  1  0.74613200  0.71335500  0.57749100  1
  O  O46  1  0.81408700  0.72200900  0.74503700  1
  O  O47  1  0.31979600  0.75294900  0.64819700  1
  O  O48  1  0.81979600  0.74705100  0.14819700  1
  O  O49  1  0.31408700  0.77799100  0.24503700  1
  O  O50  1  0.24613200  0.78664500  0.07749100  1
  O  O51  1  0.74928900  0.82017800  0.31189100  1
  O  O52  1  0.88584400  0.85523200  0.86750300  1
  O  O53  1  0.37617200  0.89797900  0.52926700  1
  O  O54  1  0.80562500  0.90275000  0.03033800  1
  O  O55  1  0.31443000  0.94490600  0.35833900  1
