# generated using pymatgen
data_SO2
_symmetry_space_group_name_H-M   'P 1'
_cell_length_a   4.77129367
_cell_length_b   4.77129367
_cell_length_c   6.69126600
_cell_angle_alpha   90.00000000
_cell_angle_beta   90.00000000
_cell_angle_gamma   94.14845582
_symmetry_Int_Tables_number   1
_chemical_formula_structural   SO2
_chemical_formula_sum   'S2 O4'
_cell_volume   151.92919187
_cell_formula_units_Z   2
loop_
 _symmetry_equiv_pos_site_id
 _symmetry_equiv_pos_as_xyz
  1  'x, y, z'
loop_
 _atom_site_type_symbol
 _atom_site_label
 _atom_site_symmetry_multiplicity
 _atom_site_fract_x
 _atom_site_fract_y
 _atom_site_fract_z
 _atom_site_occupancy
  S  S0  1  0.35990200  0.64009800  0.50000000  1
  S  S1  1  0.85990200  0.14009800  0.00000000  1
  O  O2  1  0.60645300  0.67154500  0.37352100  1
  O  O3  1  0.32845500  0.39354700  0.62647900  1
  O  O4  1  0.10645300  0.17154500  0.12647900  1
  O  O5  1  0.82845500  0.89354700  0.87352100  1
