# generated using pymatgen
data_Cs(SO2)2
_symmetry_space_group_name_H-M   'P 1'
_cell_length_a   16.00406500
_cell_length_b   7.84812700
_cell_length_c   9.85507865
_cell_angle_alpha   81.59289324
_cell_angle_beta   90.00000000
_cell_angle_gamma   90.00000000
_symmetry_Int_Tables_number   1
_chemical_formula_structural   Cs(SO2)2
_chemical_formula_sum   'Cs8 S16 O32'
_cell_volume   1224.51561791
_cell_formula_units_Z   8
loop_
 _symmetry_equiv_pos_site_id
 _symmetry_equiv_pos_as_xyz
  1  'x, y, z'
loop_
 _atom_site_type_symbol
 _atom_site_label
 _atom_site_symmetry_multiplicity
 _atom_site_fract_x
 _atom_site_fract_y
 _atom_site_fract_z
 _atom_site_occupancy
  Cs  Cs0  1  0.39942300  0.83802900  0.40950400  1
  Cs  Cs1  1  0.89942300  0.66197100  0.59049600  1
  Cs  Cs2  1  0.60057700  0.16197100  0.59049600  1
  Cs  Cs3  1  0.10057700  0.33802900  0.40950400  1
  Cs  Cs4  1  0.60005200  0.28541200  0.08000500  1
  Cs  Cs5  1  0.10005200  0.21458800  0.91999500  1
  Cs  Cs6  1  0.39994800  0.71458800  0.91999500  1
  Cs  Cs7  1  0.89994800  0.78541200  0.08000500  1
  S  S8  1  0.82609100  0.26838700  0.32139800  1
  S  S9  1  0.32609100  0.23161300  0.67860200  1
  S  S10  1  0.17390900  0.73161300  0.67860200  1
  S  S11  1  0.67390900  0.76838700  0.32139800  1
  S  S12  1  0.39807800  0.37288600  0.32097100  1
  S  S13  1  0.89807800  0.12711400  0.67902900  1
  S  S14  1  0.60192200  0.62711400  0.67902900  1
  S  S15  1  0.10192200  0.87288600  0.32097100  1
  S  S16  1  0.30169800  0.25176400  0.21831800  1
  S  S17  1  0.80169800  0.24823600  0.78168200  1
  S  S18  1  0.69830200  0.74823600  0.78168200  1
  S  S19  1  0.19830200  0.75176400  0.21831800  1
  S  S20  1  0.36573700  0.16569900  0.04729900  1
  S  S21  1  0.86573700  0.33430100  0.95270100  1
  S  S22  1  0.63426300  0.83430100  0.95270100  1
  S  S23  1  0.13426300  0.66569900  0.04729900  1
  O  O24  1  0.88405200  0.40770500  0.33657200  1
  O  O25  1  0.38405200  0.09229500  0.66342800  1
  O  O26  1  0.11594800  0.59229500  0.66342800  1
  O  O27  1  0.61594800  0.90770500  0.33657200  1
  O  O28  1  0.73833500  0.30233700  0.34566800  1
  O  O29  1  0.23833500  0.19766300  0.65433200  1
  O  O30  1  0.26166500  0.69766300  0.65433200  1
  O  O31  1  0.76166500  0.80233700  0.34566800  1
  O  O32  1  0.42673100  0.52559200  0.22988800  1
  O  O33  1  0.92673100  0.97440800  0.77011200  1
  O  O34  1  0.57326900  0.47440800  0.77011200  1
  O  O35  1  0.07326900  0.02559200  0.22988800  1
  O  O36  1  0.34973000  0.41642300  0.43915800  1
  O  O37  1  0.84973000  0.08357700  0.56084200  1
  O  O38  1  0.65027000  0.58357700  0.56084200  1
  O  O39  1  0.15027000  0.91642300  0.43915800  1
  O  O40  1  0.46364400  0.24355200  0.35775300  1
  O  O41  1  0.96364400  0.25644800  0.64224700  1
  O  O42  1  0.53635600  0.75644800  0.64224700  1
  O  O43  1  0.03635600  0.74355200  0.35775300  1
  O  O44  1  0.41336200  0.31310500  0.97984800  1
  O  O45  1  0.91336200  0.18689500  0.02015200  1
  O  O46  1  0.58663800  0.68689500  0.02015200  1
  O  O47  1  0.08663800  0.81310500  0.97984800  1
  O  O48  1  0.08226700  0.51979900  0.10637400  1
  O  O49  1  0.58226700  0.98020100  0.89362600  1
  O  O50  1  0.91773300  0.48020100  0.89362600  1
  O  O51  1  0.41773300  0.01979900  0.10637400  1
  O  O52  1  0.20542100  0.61707000  0.96686900  1
  O  O53  1  0.70542100  0.88293000  0.03313100  1
  O  O54  1  0.79457900  0.38293000  0.03313100  1
  O  O55  1  0.29457900  0.11707000  0.96686900  1
