# generated using pymatgen
data_Fe4P3(HO5)3
_symmetry_space_group_name_H-M   'P 1'
_cell_length_a   10.62396206
_cell_length_b   10.62396206
_cell_length_c   7.56410368
_cell_angle_alpha   78.35073554
_cell_angle_beta   78.35073554
_cell_angle_gamma   41.36760873
_symmetry_Int_Tables_number   1
_chemical_formula_structural   Fe4P3(HO5)3
_chemical_formula_sum   'Fe8 P6 H6 O30'
_cell_volume   550.93393775
_cell_formula_units_Z   2
loop_
 _symmetry_equiv_pos_site_id
 _symmetry_equiv_pos_as_xyz
  1  'x, y, z'
loop_
 _atom_site_type_symbol
 _atom_site_label
 _atom_site_symmetry_multiplicity
 _atom_site_fract_x
 _atom_site_fract_y
 _atom_site_fract_z
 _atom_site_occupancy
  Fe  Fe0  1  0.17953600  0.15841400  0.64817000  1
  Fe  Fe1  1  0.84158600  0.82046400  0.85183000  1
  Fe  Fe2  1  0.82046400  0.84158600  0.35183000  1
  Fe  Fe3  1  0.15841400  0.17953600  0.14817000  1
  Fe  Fe4  1  0.64823000  0.19976300  0.65571300  1
  Fe  Fe5  1  0.80023700  0.35177000  0.84428700  1
  Fe  Fe6  1  0.35177000  0.80023700  0.34428700  1
  Fe  Fe7  1  0.19976300  0.64823000  0.15571300  1
  P  P8  1  0.88682300  0.11317700  0.25000000  1
  P  P9  1  0.11317700  0.88682300  0.75000000  1
  P  P10  1  0.46705700  0.19527100  0.08653200  1
  P  P11  1  0.80472900  0.53294300  0.41346800  1
  P  P12  1  0.53294300  0.80472900  0.91346800  1
  P  P13  1  0.19527100  0.46705700  0.58653200  1
  H  H14  1  0.49176900  0.50823100  0.75000000  1
  H  H15  1  0.50823100  0.49176900  0.25000000  1
  H  H16  1  0.41169300  0.99537500  0.37627900  1
  H  H17  1  0.00462500  0.58830700  0.12372100  1
  H  H18  1  0.58830700  0.00462500  0.62372100  1
  H  H19  1  0.99537500  0.41169300  0.87627900  1
  O  O20  1  0.22893700  0.30262400  0.56364500  1
  O  O21  1  0.69737600  0.77106300  0.93635500  1
  O  O22  1  0.77106300  0.69737600  0.43635500  1
  O  O23  1  0.30262400  0.22893700  0.06364500  1
  O  O24  1  0.05311900  0.07225800  0.76022800  1
  O  O25  1  0.92774200  0.94688100  0.73977200  1
  O  O26  1  0.94688100  0.92774200  0.23977200  1
  O  O27  1  0.07225800  0.05311900  0.26022800  1
  O  O28  1  0.37756800  0.62243200  0.25000000  1
  O  O29  1  0.62243200  0.37756800  0.75000000  1
  O  O30  1  0.29114000  0.03555600  0.40079400  1
  O  O31  1  0.96444400  0.70886000  0.09920600  1
  O  O32  1  0.70886000  0.96444400  0.59920600  1
  O  O33  1  0.03555600  0.29114000  0.90079400  1
  O  O34  1  0.74747800  0.21307000  0.41653300  1
  O  O35  1  0.78693000  0.25252200  0.08346700  1
  O  O36  1  0.25252200  0.78693000  0.58346700  1
  O  O37  1  0.21307000  0.74747800  0.91653300  1
  O  O38  1  0.38911000  0.38524900  0.10500900  1
  O  O39  1  0.61475100  0.61089000  0.39499100  1
  O  O40  1  0.61089000  0.61475100  0.89499100  1
  O  O41  1  0.38524900  0.38911000  0.60500900  1
  O  O42  1  0.94601100  0.42644200  0.24670000  1
  O  O43  1  0.57355800  0.05398900  0.25330000  1
  O  O44  1  0.05398900  0.57355800  0.75330000  1
  O  O45  1  0.42644200  0.94601100  0.74670000  1
  O  O46  1  0.10371000  0.61247400  0.41494900  1
  O  O47  1  0.38752600  0.89629000  0.08505100  1
  O  O48  1  0.89629000  0.38752600  0.58505100  1
  O  O49  1  0.61247400  0.10371000  0.91494900  1
