# generated using pymatgen
data_Si2H6Se
_symmetry_space_group_name_H-M   'P 1'
_cell_length_a   9.00699400
_cell_length_b   9.00699400
_cell_length_c   15.88946700
_cell_angle_alpha   90.00000000
_cell_angle_beta   90.00000000
_cell_angle_gamma   90.00000000
_symmetry_Int_Tables_number   1
_chemical_formula_structural   Si2H6Se
_chemical_formula_sum   'Si16 H48 Se8'
_cell_volume   1289.04796103
_cell_formula_units_Z   8
loop_
 _symmetry_equiv_pos_site_id
 _symmetry_equiv_pos_as_xyz
  1  'x, y, z'
loop_
 _atom_site_type_symbol
 _atom_site_label
 _atom_site_symmetry_multiplicity
 _atom_site_fract_x
 _atom_site_fract_y
 _atom_site_fract_z
 _atom_site_occupancy
  Si  Si0  1  0.76300400  0.61575100  0.35062700  1
  Si  Si1  1  0.23699600  0.38424900  0.85062700  1
  Si  Si2  1  0.61575100  0.76300400  0.64937300  1
  Si  Si3  1  0.11575100  0.73699600  0.60062700  1
  Si  Si4  1  0.88424900  0.26300400  0.10062700  1
  Si  Si5  1  0.73699600  0.11575100  0.39937300  1
  Si  Si6  1  0.26300400  0.88424900  0.89937300  1
  Si  Si7  1  0.38424900  0.23699600  0.14937300  1
  Si  Si8  1  0.17189500  0.72101400  0.08504100  1
  Si  Si9  1  0.82810500  0.27898600  0.58504100  1
  Si  Si10  1  0.72101400  0.17189500  0.91495900  1
  Si  Si11  1  0.27898600  0.82810500  0.41495900  1
  Si  Si12  1  0.22101400  0.32810500  0.33504100  1
  Si  Si13  1  0.77898600  0.67189500  0.83504100  1
  Si  Si14  1  0.32810500  0.22101400  0.66495900  1
  Si  Si15  1  0.67189500  0.77898600  0.16495900  1
  H  H16  1  0.85003700  0.62670800  0.42999700  1
  H  H17  1  0.14996300  0.37329200  0.92999700  1
  H  H18  1  0.62670800  0.85003700  0.57000300  1
  H  H19  1  0.12670800  0.64996300  0.67999700  1
  H  H20  1  0.87329200  0.35003700  0.17999700  1
  H  H21  1  0.64996300  0.12670800  0.32000300  1
  H  H22  1  0.35003700  0.87329200  0.82000300  1
  H  H23  1  0.37329200  0.14996300  0.07000300  1
  H  H24  1  0.60289700  0.64720500  0.36650800  1
  H  H25  1  0.39710300  0.35279500  0.86650800  1
  H  H26  1  0.64720500  0.60289700  0.63349200  1
  H  H27  1  0.14720500  0.89710300  0.61650800  1
  H  H28  1  0.85279500  0.10289700  0.11650800  1
  H  H29  1  0.89710300  0.14720500  0.38349200  1
  H  H30  1  0.10289700  0.85279500  0.88349200  1
  H  H31  1  0.35279500  0.39710300  0.13349200  1
  H  H32  1  0.77951600  0.46649700  0.31143600  1
  H  H33  1  0.73319000  0.83907200  0.08492100  1
  H  H34  1  0.22048400  0.53350300  0.81143600  1
  H  H35  1  0.96649700  0.72048400  0.56143600  1
  H  H36  1  0.03350300  0.27951600  0.06143600  1
  H  H37  1  0.72048400  0.96649700  0.43856400  1
  H  H38  1  0.27951600  0.03350300  0.93856400  1
  H  H39  1  0.53350300  0.22048400  0.18856400  1
  H  H40  1  0.37925800  0.37337200  0.34548000  1
  H  H41  1  0.12662800  0.87925800  0.09548000  1
  H  H42  1  0.87337200  0.12074200  0.59548000  1
  H  H43  1  0.87925800  0.12662800  0.90452000  1
  H  H44  1  0.12074200  0.87337200  0.40452000  1
  H  H45  1  0.62074200  0.62662800  0.84548000  1
  H  H46  1  0.37337200  0.37925800  0.65452000  1
  H  H47  1  0.62662800  0.62074200  0.15452000  1
  H  H48  1  0.13136300  0.45849600  0.30734800  1
  H  H49  1  0.04150400  0.63136300  0.05734800  1
  H  H50  1  0.95849600  0.36863700  0.55734800  1
  H  H51  1  0.63136300  0.04150400  0.94265200  1
  H  H52  1  0.36863700  0.95849600  0.44265200  1
  H  H53  1  0.86863700  0.54150400  0.80734800  1
  H  H54  1  0.45849600  0.13136300  0.69265200  1
  H  H55  1  0.54150400  0.86863700  0.19265200  1
  H  H56  1  0.16092800  0.26681000  0.41507900  1
  H  H57  1  0.23319000  0.66092800  0.16507900  1
  H  H58  1  0.76681000  0.33907200  0.66507900  1
  H  H59  1  0.66092800  0.23319000  0.83492100  1
  H  H60  1  0.33907200  0.76681000  0.33492100  1
  H  H61  1  0.83907200  0.73319000  0.91507900  1
  H  H62  1  0.26681000  0.16092800  0.58492100  1
  H  H63  1  0.46649700  0.77951600  0.68856400  1
  Se  Se64  1  0.20549200  0.13879900  0.23774400  1
  Se  Se65  1  0.36120100  0.70549200  0.98774400  1
  Se  Se66  1  0.63879900  0.29450800  0.48774400  1
  Se  Se67  1  0.29450800  0.63879900  0.51225600  1
  Se  Se68  1  0.79450800  0.86120100  0.73774400  1
  Se  Se69  1  0.13879900  0.20549200  0.76225600  1
  Se  Se70  1  0.86120100  0.79450800  0.26225600  1
  Se  Se71  1  0.70549200  0.36120100  0.01225600  1
