# generated using pymatgen
data_Ni3Sn4
_symmetry_space_group_name_H-M   'P 1'
_cell_length_a   6.47249458
_cell_length_b   6.47249458
_cell_length_c   5.27045436
_cell_angle_alpha   75.60505407
_cell_angle_beta   75.60505407
_cell_angle_gamma   36.87322882
_symmetry_Int_Tables_number   1
_chemical_formula_structural   Ni3Sn4
_chemical_formula_sum   'Ni3 Sn4'
_cell_volume   127.85789357
_cell_formula_units_Z   1
loop_
 _symmetry_equiv_pos_site_id
 _symmetry_equiv_pos_as_xyz
  1  'x, y, z'
loop_
 _atom_site_type_symbol
 _atom_site_label
 _atom_site_symmetry_multiplicity
 _atom_site_fract_x
 _atom_site_fract_y
 _atom_site_fract_z
 _atom_site_occupancy
  Ni  Ni0  1  0.00000000  0.00000000  0.00000000  1
  Ni  Ni1  1  0.78413600  0.78413600  0.33650000  1
  Ni  Ni2  1  0.21586400  0.21586400  0.66350000  1
  Sn  Sn3  1  0.57172900  0.57172900  0.68744300  1
  Sn  Sn4  1  0.42827100  0.42827100  0.31255700  1
  Sn  Sn5  1  0.82817200  0.82817200  0.81221600  1
  Sn  Sn6  1  0.17182800  0.17182800  0.18778400  1
