# generated using pymatgen
data_KPbO2
_symmetry_space_group_name_H-M   'P 1'
_cell_length_a   7.12282695
_cell_length_b   7.62265704
_cell_length_c   13.08402269
_cell_angle_alpha   105.45226489
_cell_angle_beta   90.93764800
_cell_angle_gamma   117.53873411
_symmetry_Int_Tables_number   1
_chemical_formula_structural   KPbO2
_chemical_formula_sum   'K8 Pb8 O16'
_cell_volume   598.98869249
_cell_formula_units_Z   8
loop_
 _symmetry_equiv_pos_site_id
 _symmetry_equiv_pos_as_xyz
  1  'x, y, z'
loop_
 _atom_site_type_symbol
 _atom_site_label
 _atom_site_symmetry_multiplicity
 _atom_site_fract_x
 _atom_site_fract_y
 _atom_site_fract_z
 _atom_site_occupancy
  O  O0  1  0.85514624  0.94288277  0.34299120  1
  O  O1  1  0.14485376  0.05711723  0.65700880  1
  O  O2  1  0.11084904  0.94038073  0.13812079  1
  O  O3  1  0.88915096  0.05961927  0.86187921  1
  O  O4  1  0.16671921  0.57425707  0.14300749  1
  O  O5  1  0.83328079  0.42574293  0.85699251  1
  O  O6  1  0.39172654  0.56021207  0.36108084  1
  O  O7  1  0.60827346  0.43978793  0.63891916  1
  O  O8  1  0.92432309  0.56130125  0.35457346  1
  O  O9  1  0.07567691  0.43869875  0.64542654  1
  O  O10  1  0.57770027  0.93948691  0.14469902  1
  O  O11  1  0.64674223  0.55702519  0.15580907  1
  O  O12  1  0.33505582  0.92603851  0.35626581  1
  O  O13  1  0.66494418  0.07396149  0.64373419  1
  O  O14  1  0.35325777  0.44297481  0.84419093  1
  O  O15  1  0.42229973  0.06051309  0.85530098  1
  K  K16  1  0.48440544  0.73922945  0.73486585  1
  K  K17  1  0.26394338  0.26418265  0.00806353  1
  K  K18  1  0.01188606  0.75973064  0.76502883  1
  K  K19  1  0.98811394  0.24026936  0.23497117  1
  K  K20  1  0.23354112  0.23361118  0.49167557  1
  K  K21  1  0.76645888  0.76638882  0.50832443  1
  K  K22  1  0.51559456  0.26077055  0.26513415  1
  K  K23  1  0.73605662  0.73581735  0.99193647  1
  Pb  Pb24  1  0.23840248  0.72571416  0.46570459  1
  Pb  Pb25  1  0.76159752  0.27428584  0.53429541  1
  Pb  Pb26  1  0.73649533  0.22578542  0.96679303  1
  Pb  Pb27  1  0.26350467  0.77421458  0.03320697  1
  Pb  Pb28  1  0.51537350  0.75325720  0.25331895  1
  Pb  Pb29  1  0.48462650  0.24674280  0.74668105  1
  Pb  Pb30  1  0.01302103  0.25316220  0.75442534  1
  Pb  Pb31  1  0.98697897  0.74683780  0.24557466  1
