# generated using pymatgen
data_Na4MoO5
_symmetry_space_group_name_H-M   'P 1'
_cell_length_a   5.72892800
_cell_length_b   10.12541612
_cell_length_c   10.15651185
_cell_angle_alpha   113.34433719
_cell_angle_beta   96.54183120
_cell_angle_gamma   96.29815796
_symmetry_Int_Tables_number   1
_chemical_formula_structural   Na4MoO5
_chemical_formula_sum   'Na16 Mo4 O20'
_cell_volume   529.60625251
_cell_formula_units_Z   4
loop_
 _symmetry_equiv_pos_site_id
 _symmetry_equiv_pos_as_xyz
  1  'x, y, z'
loop_
 _atom_site_type_symbol
 _atom_site_label
 _atom_site_symmetry_multiplicity
 _atom_site_fract_x
 _atom_site_fract_y
 _atom_site_fract_z
 _atom_site_occupancy
  Na  Na0  1  0.73411600  0.64364000  0.84196800  1
  Na  Na1  1  0.78192700  0.45150300  0.06689200  1
  Na  Na2  1  0.21807300  0.54849700  0.93310800  1
  Na  Na3  1  0.75582200  0.05438900  0.46243800  1
  Na  Na4  1  0.00000000  0.00000000  0.00000000  1
  Na  Na5  1  0.50000000  0.50000000  0.50000000  1
  Na  Na6  1  0.50955600  0.10276200  0.91089900  1
  Na  Na7  1  0.49044400  0.89723800  0.08910100  1
  Na  Na8  1  0.00207100  0.39801400  0.59843300  1
  Na  Na9  1  0.99792900  0.60198600  0.40156700  1
  Na  Na10  1  0.28467400  0.15561400  0.36044700  1
  Na  Na11  1  0.71532600  0.84438600  0.63955300  1
  Na  Na12  1  0.98333400  0.19465700  0.80467300  1
  Na  Na13  1  0.01666600  0.80534300  0.19532700  1
  Na  Na14  1  0.26588400  0.35636000  0.15803200  1
  Na  Na15  1  0.24417800  0.94561100  0.53756200  1
  Mo  Mo16  1  0.52052300  0.70178200  0.26196900  1
  Mo  Mo17  1  0.47947700  0.29821800  0.73803100  1
  Mo  Mo18  1  0.21301600  0.78474900  0.75351900  1
  Mo  Mo19  1  0.78698400  0.21525100  0.24648100  1
  O  O20  1  0.80554600  0.39716100  0.81151300  1
  O  O21  1  0.93676600  0.64402300  0.65118800  1
  O  O22  1  0.06323400  0.35597700  0.34881200  1
  O  O23  1  0.19445400  0.60283900  0.18848700  1
  O  O24  1  0.88674300  0.04238400  0.22657400  1
  O  O25  1  0.11325700  0.95761600  0.77342600  1
  O  O26  1  0.86456000  0.22804200  0.06903700  1
  O  O27  1  0.13544000  0.77195800  0.93096300  1
  O  O28  1  0.40547300  0.46440500  0.71111000  1
  O  O29  1  0.59452700  0.53559500  0.28889000  1
  O  O30  1  0.19740900  0.18826300  0.59720300  1
  O  O31  1  0.80259100  0.81173700  0.40279700  1
  O  O32  1  0.37526800  0.32045800  0.90841500  1
  O  O33  1  0.62473200  0.67954200  0.09158500  1
  O  O34  1  0.66796600  0.27079200  0.42406600  1
  O  O35  1  0.33203400  0.72920800  0.57593400  1
  O  O36  1  0.60073400  0.11658700  0.68242500  1
  O  O37  1  0.53984400  0.84860700  0.85121800  1
  O  O38  1  0.46015600  0.15139300  0.14878200  1
  O  O39  1  0.39926600  0.88341300  0.31757500  1
