# generated using pymatgen
data_K2MgH4
_symmetry_space_group_name_H-M   'P 1'
_cell_length_a   7.41465369
_cell_length_b   7.41465369
_cell_length_c   7.41465369
_cell_angle_alpha   148.38876860
_cell_angle_beta   148.38876860
_cell_angle_gamma   45.31179134
_symmetry_Int_Tables_number   1
_chemical_formula_structural   K2MgH4
_chemical_formula_sum   'K2 Mg1 H4'
_cell_volume   111.63224835
_cell_formula_units_Z   1
loop_
 _symmetry_equiv_pos_site_id
 _symmetry_equiv_pos_as_xyz
  1  'x, y, z'
loop_
 _atom_site_type_symbol
 _atom_site_label
 _atom_site_symmetry_multiplicity
 _atom_site_fract_x
 _atom_site_fract_y
 _atom_site_fract_z
 _atom_site_occupancy
  K  K0  1  0.64374100  0.64374100  0.00000000  1
  K  K1  1  0.35625900  0.35625900  0.00000000  1
  Mg  Mg2  1  0.00000000  0.00000000  0.00000000  1
  H  H3  1  0.00000000  0.50000000  0.50000000  1
  H  H4  1  0.50000000  0.00000000  0.50000000  1
  H  H5  1  0.85302400  0.85302400  0.00000000  1
  H  H6  1  0.14697600  0.14697600  0.00000000  1
