# generated using pymatgen
data_P2PdO6
_symmetry_space_group_name_H-M   'P 1'
_cell_length_a   4.39417800
_cell_length_b   4.70774700
_cell_length_c   12.57111300
_cell_angle_alpha   90.00000000
_cell_angle_beta   90.00000000
_cell_angle_gamma   90.00000000
_symmetry_Int_Tables_number   1
_chemical_formula_structural   P2PdO6
_chemical_formula_sum   'P4 Pd2 O12'
_cell_volume   260.05457047
_cell_formula_units_Z   2
loop_
 _symmetry_equiv_pos_site_id
 _symmetry_equiv_pos_as_xyz
  1  'x, y, z'
loop_
 _atom_site_type_symbol
 _atom_site_label
 _atom_site_symmetry_multiplicity
 _atom_site_fract_x
 _atom_site_fract_y
 _atom_site_fract_z
 _atom_site_occupancy
  P  P0  1  0.50000000  0.50000000  0.32774200  1
  P  P1  1  0.00000000  0.50000000  0.17225800  1
  P  P2  1  0.50000000  0.50000000  0.67225800  1
  P  P3  1  0.00000000  0.50000000  0.82774200  1
  Pd  Pd4  1  0.50000000  0.00000000  0.50000000  1
  Pd  Pd5  1  0.00000000  0.00000000  0.00000000  1
  O  O6  1  0.75000000  0.63951800  0.25000000  1
  O  O7  1  0.25000000  0.36048200  0.25000000  1
  O  O8  1  0.25000000  0.36048200  0.75000000  1
  O  O9  1  0.75000000  0.63951800  0.75000000  1
  O  O10  1  0.83777800  0.26404600  0.11398800  1
  O  O11  1  0.33777800  0.73595400  0.38601200  1
  O  O12  1  0.83777800  0.26404600  0.88601200  1
  O  O13  1  0.33777800  0.73595400  0.61398800  1
  O  O14  1  0.66222200  0.26404600  0.61398800  1
  O  O15  1  0.16222200  0.73595400  0.88601200  1
  O  O16  1  0.16222200  0.73595400  0.11398800  1
  O  O17  1  0.66222200  0.26404600  0.38601200  1
