# generated using pymatgen
data_HgCl2
_symmetry_space_group_name_H-M   'P 1'
_cell_length_a   4.36734000
_cell_length_b   6.60372200
_cell_length_c   13.58439700
_cell_angle_alpha   90.00000000
_cell_angle_beta   90.00000000
_cell_angle_gamma   90.00000000
_symmetry_Int_Tables_number   1
_chemical_formula_structural   HgCl2
_chemical_formula_sum   'Hg4 Cl8'
_cell_volume   391.78350823
_cell_formula_units_Z   4
loop_
 _symmetry_equiv_pos_site_id
 _symmetry_equiv_pos_as_xyz
  1  'x, y, z'
loop_
 _atom_site_type_symbol
 _atom_site_label
 _atom_site_symmetry_multiplicity
 _atom_site_fract_x
 _atom_site_fract_y
 _atom_site_fract_z
 _atom_site_occupancy
  Hg  Hg0  1  0.55748200  0.75000000  0.62606700  1
  Hg  Hg1  1  0.05748200  0.25000000  0.87393300  1
  Hg  Hg2  1  0.44251800  0.25000000  0.37393300  1
  Hg  Hg3  1  0.94251800  0.75000000  0.12606700  1
  Cl  Cl4  1  0.27546600  0.75000000  0.99331900  1
  Cl  Cl5  1  0.77546600  0.25000000  0.50668100  1
  Cl  Cl6  1  0.72453400  0.25000000  0.00668100  1
  Cl  Cl7  1  0.22453400  0.75000000  0.49331900  1
  Cl  Cl8  1  0.61074700  0.75000000  0.25925400  1
  Cl  Cl9  1  0.11074700  0.25000000  0.24074600  1
  Cl  Cl10  1  0.38925300  0.25000000  0.74074600  1
  Cl  Cl11  1  0.88925300  0.75000000  0.75925400  1
