# generated using pymatgen
data_SrGe
_symmetry_space_group_name_H-M   'P 1'
_cell_length_a   6.23106330
_cell_length_b   6.23106330
_cell_length_c   4.22178000
_cell_angle_alpha   90.00000000
_cell_angle_beta   90.00000000
_cell_angle_gamma   134.15717353
_symmetry_Int_Tables_number   1
_chemical_formula_structural   SrGe
_chemical_formula_sum   'Sr2 Ge2'
_cell_volume   117.59811838
_cell_formula_units_Z   2
loop_
 _symmetry_equiv_pos_site_id
 _symmetry_equiv_pos_as_xyz
  1  'x, y, z'
loop_
 _atom_site_type_symbol
 _atom_site_label
 _atom_site_symmetry_multiplicity
 _atom_site_fract_x
 _atom_site_fract_y
 _atom_site_fract_z
 _atom_site_occupancy
  Sr  Sr0  1  0.86315300  0.13684700  0.75000000  1
  Sr  Sr1  1  0.13684700  0.86315300  0.25000000  1
  Ge  Ge2  1  0.57079400  0.42920600  0.75000000  1
  Ge  Ge3  1  0.42920600  0.57079400  0.25000000  1
