# generated using pymatgen
data_RbCdBr3
_symmetry_space_group_name_H-M   'P 1'
_cell_length_a   4.31338900
_cell_length_b   9.73771500
_cell_length_c   16.07411400
_cell_angle_alpha   90.00000000
_cell_angle_beta   90.00000000
_cell_angle_gamma   90.00000000
_symmetry_Int_Tables_number   1
_chemical_formula_structural   RbCdBr3
_chemical_formula_sum   'Rb4 Cd4 Br12'
_cell_volume   675.15382145
_cell_formula_units_Z   4
loop_
 _symmetry_equiv_pos_site_id
 _symmetry_equiv_pos_as_xyz
  1  'x, y, z'
loop_
 _atom_site_type_symbol
 _atom_site_label
 _atom_site_symmetry_multiplicity
 _atom_site_fract_x
 _atom_site_fract_y
 _atom_site_fract_z
 _atom_site_occupancy
  Rb  Rb0  1  0.75000000  0.06737200  0.67407200  1
  Rb  Rb1  1  0.25000000  0.93262800  0.32592800  1
  Rb  Rb2  1  0.75000000  0.56737200  0.82592800  1
  Rb  Rb3  1  0.25000000  0.43262800  0.17407200  1
  Cd  Cd4  1  0.75000000  0.33586200  0.44484500  1
  Cd  Cd5  1  0.25000000  0.66413800  0.55515500  1
  Cd  Cd6  1  0.75000000  0.83586200  0.05515500  1
  Cd  Cd7  1  0.25000000  0.16413800  0.94484500  1
  Br  Br8  1  0.25000000  0.02467400  0.09920600  1
  Br  Br9  1  0.75000000  0.97532600  0.90079400  1
  Br  Br10  1  0.25000000  0.52467400  0.40079400  1
  Br  Br11  1  0.75000000  0.47532600  0.59920600  1
  Br  Br12  1  0.25000000  0.17116500  0.50437600  1
  Br  Br13  1  0.75000000  0.82883500  0.49562400  1
  Br  Br14  1  0.25000000  0.67116500  0.99562400  1
  Br  Br15  1  0.75000000  0.32883500  0.00437600  1
  Br  Br16  1  0.75000000  0.21975400  0.29266000  1
  Br  Br17  1  0.25000000  0.78024600  0.70734000  1
  Br  Br18  1  0.75000000  0.71975400  0.20734000  1
  Br  Br19  1  0.25000000  0.28024600  0.79266000  1
