# generated using pymatgen
data_CuMo3I7
_symmetry_space_group_name_H-M   'P 1'
_cell_length_a   11.42842300
_cell_length_b   16.60480300
_cell_length_c   17.28185100
_cell_angle_alpha   90.00000000
_cell_angle_beta   90.00000000
_cell_angle_gamma   90.00000000
_symmetry_Int_Tables_number   1
_chemical_formula_structural   CuMo3I7
_chemical_formula_sum   'Cu8 Mo24 I56'
_cell_volume   3279.52005046
_cell_formula_units_Z   8
loop_
 _symmetry_equiv_pos_site_id
 _symmetry_equiv_pos_as_xyz
  1  'x, y, z'
loop_
 _atom_site_type_symbol
 _atom_site_label
 _atom_site_symmetry_multiplicity
 _atom_site_fract_x
 _atom_site_fract_y
 _atom_site_fract_z
 _atom_site_occupancy
  Cu  Cu0  1  0.36070200  0.71805000  0.20858000  1
  Cu  Cu1  1  0.86070200  0.28195000  0.29142000  1
  Cu  Cu2  1  0.13929800  0.21805000  0.79142000  1
  Cu  Cu3  1  0.63929800  0.78195000  0.70858000  1
  Cu  Cu4  1  0.63929800  0.28195000  0.79142000  1
  Cu  Cu5  1  0.13929800  0.71805000  0.70858000  1
  Cu  Cu6  1  0.86070200  0.78195000  0.20858000  1
  Cu  Cu7  1  0.36070200  0.21805000  0.29142000  1
  Mo  Mo8  1  0.63737000  0.96153300  0.05054600  1
  Mo  Mo9  1  0.13737000  0.03846700  0.44945400  1
  Mo  Mo10  1  0.86263000  0.46153300  0.94945400  1
  Mo  Mo11  1  0.36263000  0.53846700  0.55054600  1
  Mo  Mo12  1  0.36263000  0.03846700  0.94945400  1
  Mo  Mo13  1  0.86263000  0.96153300  0.55054600  1
  Mo  Mo14  1  0.13737000  0.53846700  0.05054600  1
  Mo  Mo15  1  0.63737000  0.46153300  0.44945400  1
  Mo  Mo16  1  0.40568300  0.93915100  0.06915700  1
  Mo  Mo17  1  0.90568300  0.06084900  0.43084300  1
  Mo  Mo18  1  0.09431700  0.43915100  0.93084300  1
  Mo  Mo19  1  0.59431700  0.56084900  0.56915700  1
  Mo  Mo20  1  0.59431700  0.06084900  0.93084300  1
  Mo  Mo21  1  0.09431700  0.93915100  0.56915700  1
  Mo  Mo22  1  0.90568300  0.56084900  0.06915700  1
  Mo  Mo23  1  0.40568300  0.43915100  0.43084300  1
  Mo  Mo24  1  0.49443300  0.08912600  0.06894900  1
  Mo  Mo25  1  0.99443300  0.91087400  0.43105100  1
  Mo  Mo26  1  0.00556700  0.58912600  0.93105100  1
  Mo  Mo27  1  0.50556700  0.41087400  0.56894900  1
  Mo  Mo28  1  0.50556700  0.91087400  0.93105100  1
  Mo  Mo29  1  0.00556700  0.08912600  0.56894900  1
  Mo  Mo30  1  0.99443300  0.41087400  0.06894900  1
  Mo  Mo31  1  0.49443300  0.58912600  0.43105100  1
  I  I32  1  0.55044800  0.80457600  0.05374500  1
  I  I33  1  0.05044800  0.19542400  0.44625500  1
  I  I34  1  0.94955200  0.30457600  0.94625500  1
  I  I35  1  0.44955200  0.69542400  0.55374500  1
  I  I36  1  0.44955200  0.19542400  0.94625500  1
  I  I37  1  0.94955200  0.80457600  0.55374500  1
  I  I38  1  0.05044800  0.69542400  0.05374500  1
  I  I39  1  0.55044800  0.30457600  0.44625500  1
  I  I40  1  0.53917300  0.98958700  0.19576800  1
  I  I41  1  0.03917300  0.01041300  0.30423200  1
  I  I42  1  0.96082700  0.48958700  0.80423200  1
  I  I43  1  0.46082700  0.51041300  0.69576800  1
  I  I44  1  0.46082700  0.01041300  0.80423200  1
  I  I45  1  0.96082700  0.98958700  0.69576800  1
  I  I46  1  0.03917300  0.51041300  0.19576800  1
  I  I47  1  0.53917300  0.48958700  0.30423200  1
  I  I48  1  0.25346700  0.06938600  0.09155200  1
  I  I49  1  0.75346700  0.93061400  0.40844800  1
  I  I50  1  0.24653300  0.56938600  0.90844800  1
  I  I51  1  0.74653300  0.43061400  0.59155200  1
  I  I52  1  0.74653300  0.93061400  0.90844800  1
  I  I53  1  0.24653300  0.06938600  0.59155200  1
  I  I54  1  0.75346700  0.43061400  0.09155200  1
  I  I55  1  0.25346700  0.56938600  0.40844800  1
  I  I56  1  0.26523100  0.88391600  0.94715800  1
  I  I57  1  0.76523100  0.11608400  0.55284200  1
  I  I58  1  0.23476900  0.38391600  0.05284200  1
  I  I59  1  0.73476900  0.61608400  0.44715800  1
  I  I60  1  0.73476900  0.11608400  0.05284200  1
  I  I61  1  0.23476900  0.88391600  0.44715800  1
  I  I62  1  0.76523100  0.61608400  0.94715800  1
  I  I63  1  0.26523100  0.38391600  0.55284200  1
  I  I64  1  0.48616700  0.22896500  0.17015900  1
  I  I65  1  0.98616700  0.77103500  0.32984100  1
  I  I66  1  0.01383300  0.72896500  0.82984100  1
  I  I67  1  0.51383300  0.27103500  0.67015900  1
  I  I68  1  0.51383300  0.77103500  0.82984100  1
  I  I69  1  0.01383300  0.22896500  0.67015900  1
  I  I70  1  0.98616700  0.27103500  0.17015900  1
  I  I71  1  0.48616700  0.72896500  0.32984100  1
  I  I72  1  0.85274400  0.90806600  0.12643500  1
  I  I73  1  0.35274400  0.09193400  0.37356500  1
  I  I74  1  0.64725600  0.40806600  0.87356500  1
  I  I75  1  0.14725600  0.59193400  0.62643500  1
  I  I76  1  0.14725600  0.09193400  0.87356500  1
  I  I77  1  0.64725600  0.90806600  0.62643500  1
  I  I78  1  0.35274400  0.59193400  0.12643500  1
  I  I79  1  0.85274400  0.40806600  0.37356500  1
  I  I80  1  0.25819900  0.85033500  0.17526400  1
  I  I81  1  0.75819900  0.14966500  0.32473600  1
  I  I82  1  0.24180100  0.35033500  0.82473600  1
  I  I83  1  0.74180100  0.64966500  0.67526400  1
  I  I84  1  0.74180100  0.14966500  0.82473600  1
  I  I85  1  0.24180100  0.85033500  0.67526400  1
  I  I86  1  0.75819900  0.64966500  0.17526400  1
  I  I87  1  0.25819900  0.35033500  0.32473600  1
