# generated using pymatgen
data_Ge3(BiO3)4
_symmetry_space_group_name_H-M   'P 1'
_cell_length_a   9.23446699
_cell_length_b   9.23446699
_cell_length_c   9.23446699
_cell_angle_alpha   109.47122063
_cell_angle_beta   109.47122063
_cell_angle_gamma   109.47122063
_symmetry_Int_Tables_number   1
_chemical_formula_structural   Ge3(BiO3)4
_chemical_formula_sum   'Ge6 Bi8 O24'
_cell_volume   606.19675633
_cell_formula_units_Z   2
loop_
 _symmetry_equiv_pos_site_id
 _symmetry_equiv_pos_as_xyz
  1  'x, y, z'
loop_
 _atom_site_type_symbol
 _atom_site_label
 _atom_site_symmetry_multiplicity
 _atom_site_fract_x
 _atom_site_fract_y
 _atom_site_fract_z
 _atom_site_occupancy
  Ge  Ge0  1  0.87500000  0.25000000  0.12500000  1
  Ge  Ge1  1  0.12500000  0.87500000  0.25000000  1
  Ge  Ge2  1  0.37500000  0.62500000  0.75000000  1
  Ge  Ge3  1  0.25000000  0.12500000  0.87500000  1
  Ge  Ge4  1  0.75000000  0.37500000  0.62500000  1
  Ge  Ge5  1  0.62500000  0.75000000  0.37500000  1
  Bi  Bi6  1  0.50000000  0.00000000  0.67352100  1
  Bi  Bi7  1  0.17352100  0.50000000  0.00000000  1
  Bi  Bi8  1  0.32647900  0.32647900  0.32647900  1
  Bi  Bi9  1  0.00000000  0.17352100  0.50000000  1
  Bi  Bi10  1  0.82647900  0.82647900  0.82647900  1
  Bi  Bi11  1  0.00000000  0.67352100  0.50000000  1
  Bi  Bi12  1  0.67352100  0.50000000  0.00000000  1
  Bi  Bi13  1  0.50000000  0.00000000  0.17352100  1
  O  O14  1  0.69479400  0.33441600  0.77960800  1
  O  O15  1  0.77960800  0.69479500  0.33441600  1
  O  O16  1  0.58481300  0.63962200  0.80520600  1
  O  O17  1  0.44519200  0.16558400  0.86037800  1
  O  O18  1  0.72039200  0.05480800  0.91518700  1
  O  O19  1  0.33441600  0.77960800  0.69479500  1
  O  O20  1  0.36037800  0.66558400  0.94519200  1
  O  O21  1  0.22039200  0.41518700  0.55480800  1
  O  O22  1  0.13962200  0.08481300  0.30520500  1
  O  O23  1  0.55480800  0.22039200  0.41518700  1
  O  O24  1  0.66558400  0.94519200  0.36037800  1
  O  O25  1  0.83441600  0.19479500  0.27960800  1
  O  O26  1  0.19479500  0.27960800  0.83441600  1
  O  O27  1  0.41518700  0.55480800  0.22039200  1
  O  O28  1  0.27960800  0.83441600  0.19479500  1
  O  O29  1  0.91518700  0.72039200  0.05480800  1
  O  O30  1  0.16558400  0.86037800  0.44519200  1
  O  O31  1  0.63962200  0.80520600  0.58481300  1
  O  O32  1  0.86037800  0.44519200  0.16558400  1
  O  O33  1  0.05480800  0.91518700  0.72039200  1
  O  O34  1  0.80520500  0.58481300  0.63962200  1
  O  O35  1  0.94519200  0.36037800  0.66558400  1
  O  O36  1  0.08481300  0.30520600  0.13962200  1
  O  O37  1  0.30520600  0.13962200  0.08481300  1
