# generated using pymatgen
data_Sm3InS6
_symmetry_space_group_name_H-M   'P 1'
_cell_length_a   3.93522100
_cell_length_b   13.73468400
_cell_length_c   16.71713500
_cell_angle_alpha   90.00000000
_cell_angle_beta   90.00000000
_cell_angle_gamma   90.00000000
_symmetry_Int_Tables_number   1
_chemical_formula_structural   Sm3InS6
_chemical_formula_sum   'Sm12 In4 S24'
_cell_volume   903.54471222
_cell_formula_units_Z   4
loop_
 _symmetry_equiv_pos_site_id
 _symmetry_equiv_pos_as_xyz
  1  'x, y, z'
loop_
 _atom_site_type_symbol
 _atom_site_label
 _atom_site_symmetry_multiplicity
 _atom_site_fract_x
 _atom_site_fract_y
 _atom_site_fract_z
 _atom_site_occupancy
  Sm  Sm0  1  0.50000000  0.68817000  0.35384200  1
  Sm  Sm1  1  0.50000000  0.31183000  0.64615800  1
  Sm  Sm2  1  0.00000000  0.18817000  0.14615800  1
  Sm  Sm3  1  0.00000000  0.81183000  0.85384200  1
  Sm  Sm4  1  0.00000000  0.74840300  0.10647200  1
  Sm  Sm5  1  0.00000000  0.25159700  0.89352800  1
  Sm  Sm6  1  0.50000000  0.24840300  0.39352800  1
  Sm  Sm7  1  0.50000000  0.75159700  0.60647200  1
  Sm  Sm8  1  0.00000000  0.95934600  0.27679300  1
  Sm  Sm9  1  0.00000000  0.04065400  0.72320700  1
  Sm  Sm10  1  0.50000000  0.45934600  0.22320700  1
  Sm  Sm11  1  0.50000000  0.54065400  0.77679300  1
  In  In12  1  0.00000000  0.50000000  0.00000000  1
  In  In13  1  0.50000000  0.00000000  0.50000000  1
  In  In14  1  0.00000000  0.50000000  0.50000000  1
  In  In15  1  0.50000000  0.00000000  0.00000000  1
  S  S16  1  0.00000000  0.97859900  0.10402500  1
  S  S17  1  0.00000000  0.02140100  0.89597500  1
  S  S18  1  0.50000000  0.47859900  0.39597500  1
  S  S19  1  0.50000000  0.52140100  0.60402500  1
  S  S20  1  0.00000000  0.69041300  0.48008900  1
  S  S21  1  0.00000000  0.30958700  0.51991100  1
  S  S22  1  0.50000000  0.19041300  0.01991100  1
  S  S23  1  0.50000000  0.80958700  0.98008900  1
  S  S24  1  0.50000000  0.88775700  0.38407100  1
  S  S25  1  0.50000000  0.11224300  0.61592900  1
  S  S26  1  0.00000000  0.38775700  0.11592900  1
  S  S27  1  0.00000000  0.61224300  0.88407100  1
  S  S28  1  0.00000000  0.61137800  0.25274300  1
  S  S29  1  0.00000000  0.38862200  0.74725700  1
  S  S30  1  0.50000000  0.11137800  0.24725700  1
  S  S31  1  0.50000000  0.88862200  0.75274300  1
  S  S32  1  0.00000000  0.90507900  0.58527500  1
  S  S33  1  0.00000000  0.09492100  0.41472500  1
  S  S34  1  0.50000000  0.40507900  0.91472500  1
  S  S35  1  0.50000000  0.59492100  0.08527500  1
  S  S36  1  0.00000000  0.68224300  0.71410700  1
  S  S37  1  0.00000000  0.31775700  0.28589300  1
  S  S38  1  0.50000000  0.18224300  0.78589300  1
  S  S39  1  0.50000000  0.81775700  0.21410700  1
