# generated using pymatgen
data_K2HBrO
_symmetry_space_group_name_H-M   'P 1'
_cell_length_a   4.31704500
_cell_length_b   6.83197000
_cell_length_c   8.59334752
_cell_angle_alpha   71.85496436
_cell_angle_beta   90.00000000
_cell_angle_gamma   90.00000000
_symmetry_Int_Tables_number   1
_chemical_formula_structural   K2HBrO
_chemical_formula_sum   'K4 H2 Br2 O2'
_cell_volume   240.84769090
_cell_formula_units_Z   2
loop_
 _symmetry_equiv_pos_site_id
 _symmetry_equiv_pos_as_xyz
  1  'x, y, z'
loop_
 _atom_site_type_symbol
 _atom_site_label
 _atom_site_symmetry_multiplicity
 _atom_site_fract_x
 _atom_site_fract_y
 _atom_site_fract_z
 _atom_site_occupancy
  K  K0  1  0.75000000  0.70910900  0.03544600  1
  K  K1  1  0.25000000  0.29089100  0.96455400  1
  K  K2  1  0.25000000  0.29423400  0.38376900  1
  K  K3  1  0.75000000  0.70576600  0.61623100  1
  H  H4  1  0.25000000  0.83618300  0.78866900  1
  H  H5  1  0.75000000  0.16381700  0.21133100  1
  Br  Br6  1  0.25000000  0.81942100  0.30009200  1
  Br  Br7  1  0.75000000  0.18057900  0.69990800  1
  O  O8  1  0.25000000  0.68581300  0.82719100  1
  O  O9  1  0.75000000  0.31418700  0.17280900  1
