# generated using pymatgen
data_BeCl2
_symmetry_space_group_name_H-M   'P 1'
_cell_length_a   6.58585999
_cell_length_b   6.58585999
_cell_length_c   6.58585999
_cell_angle_alpha   133.04884295
_cell_angle_beta   128.35003846
_cell_angle_gamma   72.35696567
_symmetry_Int_Tables_number   1
_chemical_formula_structural   BeCl2
_chemical_formula_sum   'Be2 Cl4'
_cell_volume   160.04940767
_cell_formula_units_Z   2
loop_
 _symmetry_equiv_pos_site_id
 _symmetry_equiv_pos_as_xyz
  1  'x, y, z'
loop_
 _atom_site_type_symbol
 _atom_site_label
 _atom_site_symmetry_multiplicity
 _atom_site_fract_x
 _atom_site_fract_y
 _atom_site_fract_z
 _atom_site_occupancy
  Be  Be0  1  0.00000000  0.75000000  0.75000000  1
  Be  Be1  1  0.00000000  0.25000000  0.25000000  1
  Cl  Cl2  1  0.29542200  0.60348200  0.69194000  1
  Cl  Cl3  1  0.70457800  0.39651800  0.30806000  1
  Cl  Cl4  1  0.91154200  0.10348200  0.80806000  1
  Cl  Cl5  1  0.08845800  0.89651800  0.19194000  1
