# generated using pymatgen
data_KNi4(PO4)3
_symmetry_space_group_name_H-M   'P 1'
_cell_length_a   6.21225800
_cell_length_b   9.58833500
_cell_length_c   16.40349600
_cell_angle_alpha   90.00000000
_cell_angle_beta   90.00000000
_cell_angle_gamma   90.00000000
_symmetry_Int_Tables_number   1
_chemical_formula_structural   KNi4(PO4)3
_chemical_formula_sum   'K4 Ni16 P12 O48'
_cell_volume   977.07769727
_cell_formula_units_Z   4
loop_
 _symmetry_equiv_pos_site_id
 _symmetry_equiv_pos_as_xyz
  1  'x, y, z'
loop_
 _atom_site_type_symbol
 _atom_site_label
 _atom_site_symmetry_multiplicity
 _atom_site_fract_x
 _atom_site_fract_y
 _atom_site_fract_z
 _atom_site_occupancy
  K  K0  1  0.50000000  0.70319500  0.03149300  1
  K  K1  1  0.50000000  0.29680500  0.96850700  1
  K  K2  1  0.00000000  0.20319500  0.46850700  1
  K  K3  1  0.00000000  0.79680500  0.53149300  1
  Ni  Ni4  1  0.50000000  0.53344800  0.59252200  1
  Ni  Ni5  1  0.50000000  0.46655200  0.40747800  1
  Ni  Ni6  1  0.00000000  0.03344800  0.90747800  1
  Ni  Ni7  1  0.00000000  0.96655200  0.09252200  1
  Ni  Ni8  1  0.50000000  0.01229200  0.35774700  1
  Ni  Ni9  1  0.50000000  0.98770800  0.64225300  1
  Ni  Ni10  1  0.00000000  0.51229200  0.14225300  1
  Ni  Ni11  1  0.00000000  0.48770800  0.85774700  1
  Ni  Ni12  1  0.75044500  0.75220000  0.29632100  1
  Ni  Ni13  1  0.75044500  0.24780000  0.70367900  1
  Ni  Ni14  1  0.74955500  0.25220000  0.20367900  1
  Ni  Ni15  1  0.74955500  0.74780000  0.79632100  1
  Ni  Ni16  1  0.24955500  0.24780000  0.70367900  1
  Ni  Ni17  1  0.24955500  0.75220000  0.29632100  1
  Ni  Ni18  1  0.25044500  0.74780000  0.79632100  1
  Ni  Ni19  1  0.25044500  0.25220000  0.20367900  1
  P  P20  1  0.50000000  0.96066100  0.16289900  1
  P  P21  1  0.50000000  0.03933900  0.83710100  1
  P  P22  1  0.00000000  0.46066100  0.33710100  1
  P  P23  1  0.00000000  0.53933900  0.66289900  1
  P  P24  1  0.50000000  0.54698000  0.22005800  1
  P  P25  1  0.50000000  0.45302000  0.77994200  1
  P  P26  1  0.00000000  0.04698000  0.27994200  1
  P  P27  1  0.00000000  0.95302000  0.72005800  1
  P  P28  1  0.50000000  0.79399700  0.46367500  1
  P  P29  1  0.50000000  0.20600300  0.53632500  1
  P  P30  1  0.00000000  0.29399700  0.03632500  1
  P  P31  1  0.00000000  0.70600300  0.96367500  1
  O  O32  1  0.50000000  0.12263400  0.17498500  1
  O  O33  1  0.50000000  0.87736600  0.82501500  1
  O  O34  1  0.00000000  0.62263400  0.32501500  1
  O  O35  1  0.00000000  0.37736600  0.67498500  1
  O  O36  1  0.50000000  0.61441200  0.77462900  1
  O  O37  1  0.50000000  0.38558800  0.22537100  1
  O  O38  1  0.00000000  0.11441200  0.72537100  1
  O  O39  1  0.00000000  0.88558800  0.27462900  1
  O  O40  1  0.70085500  0.91284900  0.11772300  1
  O  O41  1  0.70085500  0.08715100  0.88227700  1
  O  O42  1  0.79914500  0.41284900  0.38227700  1
  O  O43  1  0.79914500  0.58715100  0.61772300  1
  O  O44  1  0.29914500  0.08715100  0.88227700  1
  O  O45  1  0.29914500  0.91284900  0.11772300  1
  O  O46  1  0.20085500  0.58715100  0.61772300  1
  O  O47  1  0.20085500  0.41284900  0.38227700  1
  O  O48  1  0.50000000  0.60966000  0.31030500  1
  O  O49  1  0.50000000  0.39034000  0.68969500  1
  O  O50  1  0.00000000  0.10966000  0.18969500  1
  O  O51  1  0.00000000  0.89034000  0.81030500  1
  O  O52  1  0.50000000  0.88865000  0.25247100  1
  O  O53  1  0.50000000  0.11135000  0.74752900  1
  O  O54  1  0.00000000  0.38865000  0.24752900  1
  O  O55  1  0.00000000  0.61135000  0.75247100  1
  O  O56  1  0.50000000  0.13510900  0.45415900  1
  O  O57  1  0.50000000  0.86489100  0.54584100  1
  O  O58  1  0.00000000  0.63510900  0.04584100  1
  O  O59  1  0.00000000  0.36489100  0.95415900  1
  O  O60  1  0.69793500  0.84017000  0.40981800  1
  O  O61  1  0.69793500  0.15983000  0.59018200  1
  O  O62  1  0.80206500  0.34017000  0.09018200  1
  O  O63  1  0.80206500  0.65983000  0.90981800  1
  O  O64  1  0.30206500  0.15983000  0.59018200  1
  O  O65  1  0.30206500  0.84017000  0.40981800  1
  O  O66  1  0.19793500  0.65983000  0.90981800  1
  O  O67  1  0.19793500  0.34017000  0.09018200  1
  O  O68  1  0.70803800  0.60663100  0.18225200  1
  O  O69  1  0.70803800  0.39336900  0.81774800  1
  O  O70  1  0.79196200  0.10663100  0.31774800  1
  O  O71  1  0.79196200  0.89336900  0.68225200  1
  O  O72  1  0.29196200  0.39336900  0.81774800  1
  O  O73  1  0.29196200  0.60663100  0.18225200  1
  O  O74  1  0.20803800  0.89336900  0.68225200  1
  O  O75  1  0.20803800  0.10663100  0.31774800  1
  O  O76  1  0.50000000  0.63434700  0.47998300  1
  O  O77  1  0.50000000  0.36565300  0.52001700  1
  O  O78  1  0.00000000  0.13434700  0.02001700  1
  O  O79  1  0.00000000  0.86565300  0.97998300  1
