# generated using pymatgen
data_BiSbO4
_symmetry_space_group_name_H-M   'P 1'
_cell_length_a   6.55981669
_cell_length_b   6.55981669
_cell_length_c   5.60701742
_cell_angle_alpha   76.61897852
_cell_angle_beta   76.61897852
_cell_angle_gamma   44.68730253
_symmetry_Int_Tables_number   1
_chemical_formula_structural   BiSbO4
_chemical_formula_sum   'Bi2 Sb2 O8'
_cell_volume   164.27756713
_cell_formula_units_Z   2
loop_
 _symmetry_equiv_pos_site_id
 _symmetry_equiv_pos_as_xyz
  1  'x, y, z'
loop_
 _atom_site_type_symbol
 _atom_site_label
 _atom_site_symmetry_multiplicity
 _atom_site_fract_x
 _atom_site_fract_y
 _atom_site_fract_z
 _atom_site_occupancy
  Bi  Bi0  1  0.73940300  0.26059700  0.75000000  1
  Bi  Bi1  1  0.26059700  0.73940300  0.25000000  1
  Sb  Sb2  1  0.00000000  0.50000000  0.00000000  1
  Sb  Sb3  1  0.50000000  0.00000000  0.50000000  1
  O  O4  1  0.49453200  0.31270400  0.46338400  1
  O  O5  1  0.68729600  0.50546800  0.03661600  1
  O  O6  1  0.50546800  0.68729600  0.53661600  1
  O  O7  1  0.31270400  0.49453200  0.96338400  1
  O  O8  1  0.78206300  0.84811600  0.18837000  1
  O  O9  1  0.15188400  0.21793700  0.31163000  1
  O  O10  1  0.21793700  0.15188400  0.81163000  1
  O  O11  1  0.84811600  0.78206300  0.68837000  1
