# generated using pymatgen
data_CeInPd
_symmetry_space_group_name_H-M   'P 1'
_cell_length_a   7.67672760
_cell_length_b   7.67672760
_cell_length_c   4.06430600
_cell_angle_alpha   90.00000000
_cell_angle_beta   90.00000000
_cell_angle_gamma   119.99999652
_symmetry_Int_Tables_number   1
_chemical_formula_structural   CeInPd
_chemical_formula_sum   'Ce3 In3 Pd3'
_cell_volume   207.42891981
_cell_formula_units_Z   3
loop_
 _symmetry_equiv_pos_site_id
 _symmetry_equiv_pos_as_xyz
  1  'x, y, z'
loop_
 _atom_site_type_symbol
 _atom_site_label
 _atom_site_symmetry_multiplicity
 _atom_site_fract_x
 _atom_site_fract_y
 _atom_site_fract_z
 _atom_site_occupancy
  Ce  Ce0  1  0.41609200  0.41609200  0.00000000  1
  Ce  Ce1  1  0.58390800  0.00000000  0.00000000  1
  Ce  Ce2  1  0.00000000  0.58390800  0.00000000  1
  In  In3  1  0.75058300  0.75058300  0.50000000  1
  In  In4  1  0.24941700  0.00000000  0.50000000  1
  In  In5  1  0.00000000  0.24941700  0.50000000  1
  Pd  Pd6  1  0.00000000  0.00000000  0.00000000  1
  Pd  Pd7  1  0.66666700  0.33333300  0.50000000  1
  Pd  Pd8  1  0.33333300  0.66666700  0.50000000  1
