# generated using pymatgen
data_Na3InS3
_symmetry_space_group_name_H-M   'P 1'
_cell_length_a   10.53703707
_cell_length_b   10.53703707
_cell_length_c   7.46700516
_cell_angle_alpha   69.35361024
_cell_angle_beta   69.35361024
_cell_angle_gamma   79.82874362
_symmetry_Int_Tables_number   1
_chemical_formula_structural   Na3InS3
_chemical_formula_sum   'Na12 In4 S12'
_cell_volume   724.68758921
_cell_formula_units_Z   4
loop_
 _symmetry_equiv_pos_site_id
 _symmetry_equiv_pos_as_xyz
  1  'x, y, z'
loop_
 _atom_site_type_symbol
 _atom_site_label
 _atom_site_symmetry_multiplicity
 _atom_site_fract_x
 _atom_site_fract_y
 _atom_site_fract_z
 _atom_site_occupancy
  Na  Na0  1  0.00905200  0.17301000  0.45719800  1
  Na  Na1  1  0.82699000  0.99094800  0.04280200  1
  Na  Na2  1  0.99094800  0.82699000  0.54280200  1
  Na  Na3  1  0.17301000  0.00905200  0.95719800  1
  Na  Na4  1  0.23009000  0.36318000  0.58738400  1
  Na  Na5  1  0.63682000  0.76991000  0.91261600  1
  Na  Na6  1  0.76991000  0.63682000  0.41261600  1
  Na  Na7  1  0.36318000  0.23009000  0.08738400  1
  Na  Na8  1  0.72220400  0.27779600  0.75000000  1
  Na  Na9  1  0.27779600  0.72220400  0.25000000  1
  Na  Na10  1  0.43595600  0.56404400  0.75000000  1
  Na  Na11  1  0.56404400  0.43595600  0.25000000  1
  In  In12  1  0.42793500  0.91729000  0.40353300  1
  In  In13  1  0.57206500  0.08271000  0.59646700  1
  In  In14  1  0.91729000  0.42793500  0.90353300  1
  In  In15  1  0.08271000  0.57206500  0.09646700  1
  S  S16  1  0.88703800  0.41350200  0.26239400  1
  S  S17  1  0.41350200  0.88703800  0.76239400  1
  S  S18  1  0.58649800  0.11296200  0.23760600  1
  S  S19  1  0.11296200  0.58649800  0.73760600  1
  S  S20  1  0.99645900  0.21725500  0.81443200  1
  S  S21  1  0.78274500  0.00354100  0.68556800  1
  S  S22  1  0.00354100  0.78274500  0.18556800  1
  S  S23  1  0.21725500  0.99645900  0.31443200  1
  S  S24  1  0.70468600  0.52632500  0.82906000  1
  S  S25  1  0.47367500  0.29531400  0.67094000  1
  S  S26  1  0.29531400  0.47367500  0.17094000  1
  S  S27  1  0.52632500  0.70468600  0.32906000  1
