# generated using pymatgen
data_Cu3Se2
_symmetry_space_group_name_H-M   'P 1'
_cell_length_a   6.39491900
_cell_length_b   6.39491900
_cell_length_c   4.34932000
_cell_angle_alpha   90.00000000
_cell_angle_beta   90.00000000
_cell_angle_gamma   90.00000000
_symmetry_Int_Tables_number   1
_chemical_formula_structural   Cu3Se2
_chemical_formula_sum   'Cu6 Se4'
_cell_volume   177.86539363
_cell_formula_units_Z   2
loop_
 _symmetry_equiv_pos_site_id
 _symmetry_equiv_pos_as_xyz
  1  'x, y, z'
loop_
 _atom_site_type_symbol
 _atom_site_label
 _atom_site_symmetry_multiplicity
 _atom_site_fract_x
 _atom_site_fract_y
 _atom_site_fract_z
 _atom_site_occupancy
  Cu  Cu0  1  0.00000000  0.00000000  0.00000000  1
  Cu  Cu1  1  0.50000000  0.50000000  0.00000000  1
  Cu  Cu2  1  0.14580900  0.64580900  0.75495100  1
  Cu  Cu3  1  0.35419100  0.14580900  0.24504900  1
  Cu  Cu4  1  0.64580900  0.85419100  0.24504900  1
  Cu  Cu5  1  0.85419100  0.35419100  0.75495100  1
  Se  Se6  1  0.27092200  0.77092200  0.26168600  1
  Se  Se7  1  0.22907800  0.27092200  0.73831400  1
  Se  Se8  1  0.77092200  0.72907800  0.73831400  1
  Se  Se9  1  0.72907800  0.22907800  0.26168600  1
