# generated using pymatgen
data_Ca3Ga4O9
_symmetry_space_group_name_H-M   'P 1'
_cell_length_a   11.17379288
_cell_length_b   11.17379288
_cell_length_c   5.37284300
_cell_angle_alpha   90.00000000
_cell_angle_beta   90.00000000
_cell_angle_gamma   99.00450422
_symmetry_Int_Tables_number   1
_chemical_formula_structural   Ca3Ga4O9
_chemical_formula_sum   'Ca9 Ga12 O27'
_cell_volume   662.55189801
_cell_formula_units_Z   3
loop_
 _symmetry_equiv_pos_site_id
 _symmetry_equiv_pos_as_xyz
  1  'x, y, z'
loop_
 _atom_site_type_symbol
 _atom_site_label
 _atom_site_symmetry_multiplicity
 _atom_site_fract_x
 _atom_site_fract_y
 _atom_site_fract_z
 _atom_site_occupancy
  Ca  Ca0  1  0.00000000  0.00000000  0.99781300  1
  Ca  Ca1  1  0.59764600  0.40235400  0.09181700  1
  Ca  Ca2  1  0.40235400  0.59764600  0.09181700  1
  Ca  Ca3  1  0.66134700  0.07966600  0.03205900  1
  Ca  Ca4  1  0.33865300  0.92033400  0.03205900  1
  Ca  Ca5  1  0.92033400  0.33865300  0.03205900  1
  Ca  Ca6  1  0.07966600  0.66134700  0.03205900  1
  Ca  Ca7  1  0.75968500  0.75968500  0.04607200  1
  Ca  Ca8  1  0.24031500  0.24031500  0.04607200  1
  Ga  Ga9  1  0.01536300  0.20288300  0.51293600  1
  Ga  Ga10  1  0.20288300  0.01536300  0.51293600  1
  Ga  Ga11  1  0.79711700  0.98463700  0.51293600  1
  Ga  Ga12  1  0.98463700  0.79711700  0.51293600  1
  Ga  Ga13  1  0.46496200  0.13413400  0.55929800  1
  Ga  Ga14  1  0.53503800  0.86586600  0.55929800  1
  Ga  Ga15  1  0.86586600  0.53503800  0.55929800  1
  Ga  Ga16  1  0.13413400  0.46496200  0.55929800  1
  Ga  Ga17  1  0.61185200  0.61185200  0.60651100  1
  Ga  Ga18  1  0.38814800  0.38814800  0.60651100  1
  Ga  Ga19  1  0.73769500  0.26230500  0.52815200  1
  Ga  Ga20  1  0.26230500  0.73769500  0.52815200  1
  O  O21  1  0.00000000  0.50000000  0.75759700  1
  O  O22  1  0.50000000  0.00000000  0.75759700  1
  O  O23  1  0.24511000  0.41513100  0.77241200  1
  O  O24  1  0.75489000  0.58486900  0.77241200  1
  O  O25  1  0.58486900  0.75489000  0.77241200  1
  O  O26  1  0.41513100  0.24511000  0.77241200  1
  O  O27  1  0.27139400  0.72860600  0.86491600  1
  O  O28  1  0.72860600  0.27139400  0.86491600  1
  O  O29  1  0.97604400  0.79711500  0.84806900  1
  O  O30  1  0.02395600  0.20288500  0.84806900  1
  O  O31  1  0.20288500  0.02395600  0.84806900  1
  O  O32  1  0.79711500  0.97604400  0.84806900  1
  O  O33  1  0.50000000  0.50000000  0.77801800  1
  O  O34  1  0.06700100  0.34609900  0.33673900  1
  O  O35  1  0.93299900  0.65390100  0.33673900  1
  O  O36  1  0.65390100  0.93299900  0.33673900  1
  O  O37  1  0.34609900  0.06700100  0.33673900  1
  O  O38  1  0.15385200  0.84614800  0.40196500  1
  O  O39  1  0.84614800  0.15385200  0.40196500  1
  O  O40  1  0.20382700  0.59502700  0.35848900  1
  O  O41  1  0.79617300  0.40497300  0.35848900  1
  O  O42  1  0.60809000  0.60809000  0.26771700  1
  O  O43  1  0.39191000  0.39191000  0.26771700  1
  O  O44  1  0.89716000  0.89716000  0.33887300  1
  O  O45  1  0.10284000  0.10284000  0.33887300  1
  O  O46  1  0.59502700  0.20382700  0.35848900  1
  O  O47  1  0.40497300  0.79617300  0.35848900  1
