# generated using pymatgen
data_Li4P2O7
_symmetry_space_group_name_H-M   'P 1'
_cell_length_a   5.26054200
_cell_length_b   7.21548039
_cell_length_c   8.66200598
_cell_angle_alpha   102.67262048
_cell_angle_beta   89.98018263
_cell_angle_gamma   111.11651365
_symmetry_Int_Tables_number   1
_chemical_formula_structural   Li4P2O7
_chemical_formula_sum   'Li8 P4 O14'
_cell_volume   298.11645609
_cell_formula_units_Z   2
loop_
 _symmetry_equiv_pos_site_id
 _symmetry_equiv_pos_as_xyz
  1  'x, y, z'
loop_
 _atom_site_type_symbol
 _atom_site_label
 _atom_site_symmetry_multiplicity
 _atom_site_fract_x
 _atom_site_fract_y
 _atom_site_fract_z
 _atom_site_occupancy
  Li  Li0  1  0.25553700  0.14497700  0.01202900  1
  Li  Li1  1  0.74446300  0.85502300  0.98797100  1
  Li  Li2  1  0.60432300  0.58872700  0.24834700  1
  Li  Li3  1  0.39567700  0.41127300  0.75165300  1
  Li  Li4  1  0.97223100  0.32773800  0.20872400  1
  Li  Li5  1  0.02776900  0.67226200  0.79127600  1
  Li  Li6  1  0.94304800  0.24188600  0.54920400  1
  Li  Li7  1  0.05695200  0.75811400  0.45079600  1
  P  P8  1  0.42601000  0.21329800  0.36804400  1
  P  P9  1  0.57399000  0.78670200  0.63195600  1
  P  P10  1  0.21572800  0.77924100  0.15449800  1
  P  P11  1  0.78427200  0.22075900  0.84550200  1
  O  O12  1  0.48008800  0.74175900  0.12566000  1
  O  O13  1  0.99387000  0.60572000  0.20931600  1
  O  O14  1  0.00613000  0.39428000  0.79068400  1
  O  O15  1  0.11708900  0.84859100  0.01802400  1
  O  O16  1  0.26743900  0.74335000  0.62354500  1
  O  O17  1  0.73256100  0.25665000  0.37645500  1
  O  O18  1  0.68515600  0.73218900  0.47381000  1
  O  O19  1  0.31484400  0.26781100  0.52619000  1
  O  O20  1  0.66177800  0.70240300  0.76349600  1
  O  O21  1  0.33822200  0.29759700  0.23650400  1
  O  O22  1  0.26693100  0.96238400  0.31610600  1
  O  O23  1  0.73306900  0.03761600  0.68389400  1
  O  O24  1  0.88291100  0.15140900  0.98197600  1
  O  O25  1  0.51991200  0.25824100  0.87434000  1
