# generated using pymatgen
data_K2BeO2
_symmetry_space_group_name_H-M   'P 1'
_cell_length_a   5.82623100
_cell_length_b   7.13114200
_cell_length_c   10.70361429
_cell_angle_alpha   48.57068596
_cell_angle_beta   90.00000000
_cell_angle_gamma   90.00000000
_symmetry_Int_Tables_number   1
_chemical_formula_structural   K2BeO2
_chemical_formula_sum   'K8 Be4 O8'
_cell_volume   333.43164541
_cell_formula_units_Z   4
loop_
 _symmetry_equiv_pos_site_id
 _symmetry_equiv_pos_as_xyz
  1  'x, y, z'
loop_
 _atom_site_type_symbol
 _atom_site_label
 _atom_site_symmetry_multiplicity
 _atom_site_fract_x
 _atom_site_fract_y
 _atom_site_fract_z
 _atom_site_occupancy
  K  K0  1  0.65635600  0.74495700  0.11370500  1
  K  K1  1  0.15635600  0.25504300  0.38629500  1
  K  K2  1  0.34364400  0.25504300  0.88629500  1
  K  K3  1  0.84364400  0.74495700  0.61370500  1
  K  K4  1  0.56151800  0.15709600  0.24381100  1
  K  K5  1  0.06151800  0.84290400  0.25618900  1
  K  K6  1  0.43848200  0.84290400  0.75618900  1
  K  K7  1  0.93848200  0.15709600  0.74381100  1
  Be  Be8  1  0.08510000  0.60082400  0.02370300  1
  Be  Be9  1  0.41490000  0.60082400  0.52370300  1
  Be  Be10  1  0.91490000  0.39917600  0.97629700  1
  Be  Be11  1  0.58510000  0.39917600  0.47629700  1
  O  O12  1  0.79446500  0.25043700  0.94274500  1
  O  O13  1  0.63806900  0.67157500  0.41107100  1
  O  O14  1  0.36193100  0.32842500  0.58892900  1
  O  O15  1  0.86193100  0.67157500  0.91107100  1
  O  O16  1  0.29446500  0.74956300  0.55725500  1
  O  O17  1  0.20553500  0.74956300  0.05725500  1
  O  O18  1  0.70553500  0.25043700  0.44274500  1
  O  O19  1  0.13806900  0.32842500  0.08892900  1
