# generated using pymatgen
data_TiI3
_symmetry_space_group_name_H-M   'P 1'
_cell_length_a   6.47709000
_cell_length_b   7.63943500
_cell_length_c   13.19622100
_cell_angle_alpha   90.00000000
_cell_angle_beta   90.00000000
_cell_angle_gamma   90.00000000
_symmetry_Int_Tables_number   1
_chemical_formula_structural   TiI3
_chemical_formula_sum   'Ti4 I12'
_cell_volume   652.96627632
_cell_formula_units_Z   4
loop_
 _symmetry_equiv_pos_site_id
 _symmetry_equiv_pos_as_xyz
  1  'x, y, z'
loop_
 _atom_site_type_symbol
 _atom_site_label
 _atom_site_symmetry_multiplicity
 _atom_site_fract_x
 _atom_site_fract_y
 _atom_site_fract_z
 _atom_site_occupancy
  Ti  Ti0  1  0.27643000  0.24942800  0.50000000  1
  Ti  Ti1  1  0.72357000  0.24942800  0.50000000  1
  Ti  Ti2  1  0.77643000  0.75057200  0.00000000  1
  Ti  Ti3  1  0.22357000  0.75057200  0.00000000  1
  I  I4  1  0.50000000  0.40237500  0.34629500  1
  I  I5  1  0.00000000  0.59762500  0.84629500  1
  I  I6  1  0.00000000  0.59762500  0.15370500  1
  I  I7  1  0.50000000  0.40237500  0.65370500  1
  I  I8  1  0.50000000  0.89649300  0.85422400  1
  I  I9  1  0.00000000  0.10350700  0.35422400  1
  I  I10  1  0.00000000  0.10350700  0.64577600  1
  I  I11  1  0.50000000  0.89649300  0.14577600  1
  I  I12  1  0.50000000  0.94337700  0.50000000  1
  I  I13  1  0.00000000  0.05662300  0.00000000  1
  I  I14  1  0.50000000  0.45754200  0.00000000  1
  I  I15  1  0.00000000  0.54245800  0.50000000  1
