# generated using pymatgen
data_Np(SiAu)2
_symmetry_space_group_name_H-M   'P 1'
_cell_length_a   6.01827904
_cell_length_b   6.01827904
_cell_length_c   6.01827904
_cell_angle_alpha   139.13660852
_cell_angle_beta   139.13660852
_cell_angle_gamma   59.16661275
_symmetry_Int_Tables_number   1
_chemical_formula_structural   Np(SiAu)2
_chemical_formula_sum   'Np1 Si2 Au2'
_cell_volume   92.40424166
_cell_formula_units_Z   1
loop_
 _symmetry_equiv_pos_site_id
 _symmetry_equiv_pos_as_xyz
  1  'x, y, z'
loop_
 _atom_site_type_symbol
 _atom_site_label
 _atom_site_symmetry_multiplicity
 _atom_site_fract_x
 _atom_site_fract_y
 _atom_site_fract_z
 _atom_site_occupancy
  Np  Np0  1  0.00000000  0.00000000  0.00000000  1
  Si  Si1  1  0.60852300  0.60852300  0.00000000  1
  Si  Si2  1  0.39147700  0.39147700  0.00000000  1
  Au  Au3  1  0.25000000  0.75000000  0.50000000  1
  Au  Au4  1  0.75000000  0.25000000  0.50000000  1
