# generated using pymatgen
data_K3Ce(PS4)2
_symmetry_space_group_name_H-M   'P 1'
_cell_length_a   17.32757700
_cell_length_b   9.20157200
_cell_length_c   9.67046185
_cell_angle_alpha   89.86499092
_cell_angle_beta   90.00000000
_cell_angle_gamma   90.00000000
_symmetry_Int_Tables_number   1
_chemical_formula_structural   K3Ce(PS4)2
_chemical_formula_sum   'K12 Ce4 P8 S32'
_cell_volume   1541.86331770
_cell_formula_units_Z   4
loop_
 _symmetry_equiv_pos_site_id
 _symmetry_equiv_pos_as_xyz
  1  'x, y, z'
loop_
 _atom_site_type_symbol
 _atom_site_label
 _atom_site_symmetry_multiplicity
 _atom_site_fract_x
 _atom_site_fract_y
 _atom_site_fract_z
 _atom_site_occupancy
  K  K0  1  0.29398700  0.87839600  0.12505700  1
  K  K1  1  0.21170700  0.38397100  0.13089100  1
  K  K2  1  0.71170700  0.61602900  0.36910900  1
  K  K3  1  0.78829300  0.61602900  0.86910900  1
  K  K4  1  0.02808800  0.26914600  0.51355100  1
  K  K5  1  0.52808800  0.73085400  0.98644900  1
  K  K6  1  0.97191200  0.73085400  0.48644900  1
  K  K7  1  0.47191200  0.26914600  0.01355100  1
  K  K8  1  0.28829300  0.38397100  0.63089100  1
  K  K9  1  0.70601300  0.12160400  0.87494300  1
  K  K10  1  0.79398700  0.12160400  0.37494300  1
  K  K11  1  0.20601300  0.87839600  0.62505700  1
  Ce  Ce12  1  0.48672900  0.77572300  0.52821900  1
  Ce  Ce13  1  0.98672900  0.22427700  0.97178100  1
  Ce  Ce14  1  0.51327100  0.22427700  0.47178100  1
  Ce  Ce15  1  0.01327100  0.77572300  0.02821900  1
  P  P16  1  0.09824200  0.52445800  0.78071200  1
  P  P17  1  0.39820100  0.00499800  0.74261100  1
  P  P18  1  0.89820100  0.99500200  0.75738900  1
  P  P19  1  0.60179900  0.99500200  0.25738900  1
  P  P20  1  0.10179900  0.00499800  0.24261100  1
  P  P21  1  0.59824200  0.47554200  0.71928800  1
  P  P22  1  0.90175800  0.47554200  0.21928800  1
  P  P23  1  0.40175800  0.52445800  0.28071200  1
  S  S24  1  0.11533100  0.78664400  0.27461700  1
  S  S25  1  0.62820300  0.68609700  0.66997600  1
  S  S26  1  0.87179700  0.68609700  0.16997600  1
  S  S27  1  0.37179700  0.31390300  0.33002400  1
  S  S28  1  0.01527900  0.95106800  0.75071300  1
  S  S29  1  0.51527900  0.04893200  0.74928700  1
  S  S30  1  0.98472100  0.04893200  0.24928700  1
  S  S31  1  0.48472100  0.95106800  0.25071300  1
  S  S32  1  0.17239000  0.12343400  0.36414100  1
  S  S33  1  0.67239000  0.87656600  0.13585900  1
  S  S34  1  0.82761000  0.87656600  0.63585900  1
  S  S35  1  0.32761000  0.12343400  0.86414100  1
  S  S36  1  0.01927200  0.45962600  0.17916800  1
  S  S37  1  0.51927200  0.54037400  0.32083200  1
  S  S38  1  0.98072800  0.54037400  0.82083200  1
  S  S39  1  0.48072800  0.45962600  0.67916800  1
  S  S40  1  0.15496300  0.66571800  0.91003300  1
  S  S41  1  0.37418100  0.56494600  0.08095300  1
  S  S42  1  0.84503700  0.33428200  0.08996700  1
  S  S43  1  0.34503700  0.66571800  0.41003300  1
  S  S44  1  0.65496300  0.33428200  0.58996700  1
  S  S45  1  0.61533100  0.21335600  0.22538300  1
  S  S46  1  0.88466900  0.21335600  0.72538300  1
  S  S47  1  0.38466900  0.78664400  0.77461700  1
  S  S48  1  0.12456000  0.03743600  0.03444500  1
  S  S49  1  0.62456000  0.96256400  0.46555500  1
  S  S50  1  0.87544000  0.96256400  0.96555500  1
  S  S51  1  0.37544000  0.03743600  0.53444500  1
  S  S52  1  0.12581900  0.56494600  0.58095300  1
  S  S53  1  0.62581900  0.43505400  0.91904700  1
  S  S54  1  0.87418100  0.43505400  0.41904700  1
  S  S55  1  0.12820300  0.31390300  0.83002400  1
