# generated using pymatgen
data_NbCrSe5
_symmetry_space_group_name_H-M   'P 1'
_cell_length_a   3.54995900
_cell_length_b   9.50288000
_cell_length_c   10.51093115
_cell_angle_alpha   63.84351872
_cell_angle_beta   90.00000000
_cell_angle_gamma   90.00000000
_symmetry_Int_Tables_number   1
_chemical_formula_structural   NbCrSe5
_chemical_formula_sum   'Nb2 Cr2 Se10'
_cell_volume   318.27274557
_cell_formula_units_Z   2
loop_
 _symmetry_equiv_pos_site_id
 _symmetry_equiv_pos_as_xyz
  1  'x, y, z'
loop_
 _atom_site_type_symbol
 _atom_site_label
 _atom_site_symmetry_multiplicity
 _atom_site_fract_x
 _atom_site_fract_y
 _atom_site_fract_z
 _atom_site_occupancy
  Nb  Nb0  1  0.75000000  0.27230000  0.63644800  1
  Nb  Nb1  1  0.25000000  0.72770000  0.36355200  1
  Cr  Cr2  1  0.25000000  0.43079700  0.89550400  1
  Cr  Cr3  1  0.75000000  0.56920300  0.10449600  1
  Se  Se4  1  0.75000000  0.51735700  0.36533000  1
  Se  Se5  1  0.25000000  0.36418900  0.15075600  1
  Se  Se6  1  0.25000000  0.48264300  0.63467000  1
  Se  Se7  1  0.75000000  0.83020500  0.49562800  1
  Se  Se8  1  0.25000000  0.16979500  0.50437200  1
  Se  Se9  1  0.25000000  0.03903100  0.75771900  1
  Se  Se10  1  0.25000000  0.76617500  0.08832200  1
  Se  Se11  1  0.75000000  0.96096900  0.24228100  1
  Se  Se12  1  0.75000000  0.23382500  0.91167800  1
  Se  Se13  1  0.75000000  0.63581100  0.84924400  1
