# generated using pymatgen
data_Rb4CdBr6
_symmetry_space_group_name_H-M   'P 1'
_cell_length_a   9.48221227
_cell_length_b   9.48221227
_cell_length_c   9.48221230
_cell_angle_alpha   89.35993520
_cell_angle_beta   89.35993520
_cell_angle_gamma   89.35993566
_symmetry_Int_Tables_number   1
_chemical_formula_structural   Rb4CdBr6
_chemical_formula_sum   'Rb8 Cd2 Br12'
_cell_volume   852.40956988
_cell_formula_units_Z   2
loop_
 _symmetry_equiv_pos_site_id
 _symmetry_equiv_pos_as_xyz
  1  'x, y, z'
loop_
 _atom_site_type_symbol
 _atom_site_label
 _atom_site_symmetry_multiplicity
 _atom_site_fract_x
 _atom_site_fract_y
 _atom_site_fract_z
 _atom_site_occupancy
  Rb  Rb0  1  0.75000000  0.36756000  0.13244000  1
  Rb  Rb1  1  0.13244000  0.75000000  0.36756000  1
  Rb  Rb2  1  0.36756000  0.13244000  0.75000000  1
  Rb  Rb3  1  0.25000000  0.63244000  0.86756000  1
  Rb  Rb4  1  0.86756000  0.25000000  0.63244000  1
  Rb  Rb5  1  0.63244000  0.86756000  0.25000000  1
  Rb  Rb6  1  0.75000000  0.75000000  0.75000000  1
  Rb  Rb7  1  0.25000000  0.25000000  0.25000000  1
  Cd  Cd8  1  0.50000000  0.50000000  0.50000000  1
  Cd  Cd9  1  0.00000000  0.00000000  0.00000000  1
  Br  Br10  1  0.21244600  0.43257100  0.55773600  1
  Br  Br11  1  0.55773600  0.21244600  0.43257100  1
  Br  Br12  1  0.43257100  0.55773600  0.21244600  1
  Br  Br13  1  0.28755400  0.94226400  0.06742900  1
  Br  Br14  1  0.06742900  0.28755400  0.94226400  1
  Br  Br15  1  0.94226400  0.06742900  0.28755400  1
  Br  Br16  1  0.78755400  0.56742900  0.44226400  1
  Br  Br17  1  0.44226400  0.78755400  0.56742900  1
  Br  Br18  1  0.56742900  0.44226400  0.78755400  1
  Br  Br19  1  0.71244600  0.05773600  0.93257100  1
  Br  Br20  1  0.05773600  0.93257100  0.71244600  1
  Br  Br21  1  0.93257100  0.71244600  0.05773600  1
