# generated using pymatgen
data_KNb8O14
_symmetry_space_group_name_H-M   'P 1'
_cell_length_a   5.98952300
_cell_length_b   9.48672200
_cell_length_c   10.39335800
_cell_angle_alpha   90.00000000
_cell_angle_beta   90.00000000
_cell_angle_gamma   90.00000000
_symmetry_Int_Tables_number   1
_chemical_formula_structural   KNb8O14
_chemical_formula_sum   'K2 Nb16 O28'
_cell_volume   590.56036730
_cell_formula_units_Z   2
loop_
 _symmetry_equiv_pos_site_id
 _symmetry_equiv_pos_as_xyz
  1  'x, y, z'
loop_
 _atom_site_type_symbol
 _atom_site_label
 _atom_site_symmetry_multiplicity
 _atom_site_fract_x
 _atom_site_fract_y
 _atom_site_fract_z
 _atom_site_occupancy
  K  K0  1  0.50000000  0.00000000  0.50000000  1
  K  K1  1  0.50000000  0.50000000  0.00000000  1
  Nb  Nb2  1  0.50000000  0.62054300  0.33374800  1
  Nb  Nb3  1  0.50000000  0.12054300  0.16625200  1
  Nb  Nb4  1  0.00000000  0.38691200  0.16209100  1
  Nb  Nb5  1  0.50000000  0.37945700  0.66625200  1
  Nb  Nb6  1  0.50000000  0.87945700  0.83374800  1
  Nb  Nb7  1  0.26491100  0.12686300  0.92388000  1
  Nb  Nb8  1  0.26491100  0.37313700  0.42388000  1
  Nb  Nb9  1  0.73508900  0.12686300  0.92388000  1
  Nb  Nb10  1  0.26491100  0.62686300  0.57612000  1
  Nb  Nb11  1  0.73508900  0.62686300  0.57612000  1
  Nb  Nb12  1  0.73508900  0.37313700  0.42388000  1
  Nb  Nb13  1  0.26491100  0.87313700  0.07612000  1
  Nb  Nb14  1  0.00000000  0.88691200  0.33790900  1
  Nb  Nb15  1  0.73508900  0.87313700  0.07612000  1
  Nb  Nb16  1  0.00000000  0.11308800  0.66209100  1
  Nb  Nb17  1  0.00000000  0.61308800  0.83790900  1
  O  O18  1  0.74950100  0.49493400  0.24834000  1
  O  O19  1  0.74950100  0.99493400  0.25166000  1
  O  O20  1  0.00000000  0.00000000  0.50000000  1
  O  O21  1  0.25049900  0.00506600  0.74834000  1
  O  O22  1  0.50000000  0.25361600  0.84270200  1
  O  O23  1  0.74950100  0.00506600  0.74834000  1
  O  O24  1  0.24650800  0.25291500  0.08946000  1
  O  O25  1  0.50000000  0.75361600  0.65729800  1
  O  O26  1  0.25049900  0.99493400  0.25166000  1
  O  O27  1  0.24650800  0.74708500  0.91054000  1
  O  O28  1  0.74950100  0.50506600  0.75166000  1
  O  O29  1  0.50000000  0.74638400  0.15729800  1
  O  O30  1  0.24650800  0.75291500  0.41054000  1
  O  O31  1  0.24650800  0.24708500  0.58946000  1
  O  O32  1  0.00000000  0.76688300  0.17683500  1
  O  O33  1  0.50000000  0.24638400  0.34270200  1
  O  O34  1  0.00000000  0.50000000  0.00000000  1
  O  O35  1  0.75349200  0.25291500  0.08946000  1
  O  O36  1  0.75349200  0.74708500  0.91054000  1
  O  O37  1  0.75349200  0.24708500  0.58946000  1
  O  O38  1  0.25049900  0.49493400  0.24834000  1
  O  O39  1  0.25049900  0.50506600  0.75166000  1
  O  O40  1  0.00000000  0.23311700  0.82316500  1
  O  O41  1  0.00000000  0.73311700  0.67683500  1
  O  O42  1  0.75349200  0.75291500  0.41054000  1
  O  O43  1  0.00000000  0.50000000  0.50000000  1
  O  O44  1  0.00000000  0.00000000  0.00000000  1
  O  O45  1  0.00000000  0.26688300  0.32316500  1
