# generated using pymatgen
data_AlICl6
_symmetry_space_group_name_H-M   'P 1'
_cell_length_a   11.86251800
_cell_length_b   6.35432700
_cell_length_c   7.43599922
_cell_angle_alpha   81.50254497
_cell_angle_beta   90.00000000
_cell_angle_gamma   90.00000000
_symmetry_Int_Tables_number   1
_chemical_formula_structural   AlICl6
_chemical_formula_sum   'Al2 I2 Cl12'
_cell_volume   554.36004360
_cell_formula_units_Z   2
loop_
 _symmetry_equiv_pos_site_id
 _symmetry_equiv_pos_as_xyz
  1  'x, y, z'
loop_
 _atom_site_type_symbol
 _atom_site_label
 _atom_site_symmetry_multiplicity
 _atom_site_fract_x
 _atom_site_fract_y
 _atom_site_fract_z
 _atom_site_occupancy
  Al  Al0  1  0.09175000  0.41202600  0.51056700  1
  Al  Al1  1  0.59175000  0.58797400  0.48943300  1
  I  I2  1  0.74230800  0.00690400  0.79898700  1
  I  I3  1  0.24230800  0.99309600  0.20101300  1
  Cl  Cl4  1  0.76145100  0.70841500  0.54818700  1
  Cl  Cl5  1  0.26145100  0.29158500  0.45181300  1
  Cl  Cl6  1  0.21107600  0.73414200  0.00945100  1
  Cl  Cl7  1  0.71107600  0.26585800  0.99054900  1
  Cl  Cl8  1  0.36320600  0.20816200  0.99979400  1
  Cl  Cl9  1  0.86320600  0.79183800  0.00020600  1
  Cl  Cl10  1  0.05356200  0.31813700  0.78969300  1
  Cl  Cl11  1  0.55356200  0.68186300  0.21030700  1
  Cl  Cl12  1  0.10403300  0.76409300  0.47608100  1
  Cl  Cl13  1  0.60403300  0.23590700  0.52391900  1
  Cl  Cl14  1  0.47361600  0.68103800  0.67627500  1
  Cl  Cl15  1  0.97361600  0.31896200  0.32372500  1
