# generated using pymatgen
data_GdGa
_symmetry_space_group_name_H-M   'P 1'
_cell_length_a   5.95426693
_cell_length_b   5.95426693
_cell_length_c   4.14271200
_cell_angle_alpha   90.00000000
_cell_angle_beta   90.00000000
_cell_angle_gamma   137.04583615
_symmetry_Int_Tables_number   1
_chemical_formula_structural   GdGa
_chemical_formula_sum   'Gd2 Ga2'
_cell_volume   100.08103744
_cell_formula_units_Z   2
loop_
 _symmetry_equiv_pos_site_id
 _symmetry_equiv_pos_as_xyz
  1  'x, y, z'
loop_
 _atom_site_type_symbol
 _atom_site_label
 _atom_site_symmetry_multiplicity
 _atom_site_fract_x
 _atom_site_fract_y
 _atom_site_fract_z
 _atom_site_occupancy
  Gd  Gd0  1  0.85936300  0.14063700  0.75000000  1
  Gd  Gd1  1  0.14063700  0.85936300  0.25000000  1
  Ga  Ga2  1  0.57302100  0.42697900  0.75000000  1
  Ga  Ga3  1  0.42697900  0.57302100  0.25000000  1
