# generated using pymatgen
data_HfFeGe
_symmetry_space_group_name_H-M   'P 1'
_cell_length_a   6.52274982
_cell_length_b   6.52274982
_cell_length_c   3.73187300
_cell_angle_alpha   90.00000000
_cell_angle_beta   90.00000000
_cell_angle_gamma   119.99999822
_symmetry_Int_Tables_number   1
_chemical_formula_structural   HfFeGe
_chemical_formula_sum   'Hf3 Fe3 Ge3'
_cell_volume   137.50514198
_cell_formula_units_Z   3
loop_
 _symmetry_equiv_pos_site_id
 _symmetry_equiv_pos_as_xyz
  1  'x, y, z'
loop_
 _atom_site_type_symbol
 _atom_site_label
 _atom_site_symmetry_multiplicity
 _atom_site_fract_x
 _atom_site_fract_y
 _atom_site_fract_z
 _atom_site_occupancy
  Hf  Hf0  1  0.58265400  0.00000000  0.50000000  1
  Hf  Hf1  1  0.41734600  0.41734600  0.50000000  1
  Hf  Hf2  1  0.00000000  0.58265400  0.50000000  1
  Fe  Fe3  1  0.23976700  0.00000000  0.00000000  1
  Fe  Fe4  1  0.76023300  0.76023300  0.00000000  1
  Fe  Fe5  1  0.00000000  0.23976700  0.00000000  1
  Ge  Ge6  1  0.00000000  0.00000000  0.50000000  1
  Ge  Ge7  1  0.33333300  0.66666700  0.00000000  1
  Ge  Ge8  1  0.66666700  0.33333300  0.00000000  1
