# generated using pymatgen
data_La6Si7Br3
_symmetry_space_group_name_H-M   'P 1'
_cell_length_a   4.14878000
_cell_length_b   11.88718800
_cell_length_c   16.92462700
_cell_angle_alpha   90.00000000
_cell_angle_beta   90.00000000
_cell_angle_gamma   90.00000000
_symmetry_Int_Tables_number   1
_chemical_formula_structural   La6Si7Br3
_chemical_formula_sum   'La12 Si14 Br6'
_cell_volume   834.67737817
_cell_formula_units_Z   2
loop_
 _symmetry_equiv_pos_site_id
 _symmetry_equiv_pos_as_xyz
  1  'x, y, z'
loop_
 _atom_site_type_symbol
 _atom_site_label
 _atom_site_symmetry_multiplicity
 _atom_site_fract_x
 _atom_site_fract_y
 _atom_site_fract_z
 _atom_site_occupancy
  La  La0  1  0.50000000  0.34240200  0.50000000  1
  La  La1  1  0.00000000  0.65759800  0.00000000  1
  La  La2  1  0.50000000  0.35756700  0.75583300  1
  La  La3  1  0.00000000  0.64243300  0.74416700  1
  La  La4  1  0.50000000  0.35756700  0.24416700  1
  La  La5  1  0.00000000  0.64243300  0.25583300  1
  La  La6  1  0.50000000  0.06471400  0.88019600  1
  La  La7  1  0.00000000  0.93528600  0.61980400  1
  La  La8  1  0.50000000  0.06471400  0.11980400  1
  La  La9  1  0.00000000  0.93528600  0.38019600  1
  La  La10  1  0.50000000  0.35771800  0.00000000  1
  La  La11  1  0.00000000  0.64228200  0.50000000  1
  Si  Si12  1  0.00000000  0.15296800  0.00000000  1
  Si  Si13  1  0.50000000  0.84703200  0.50000000  1
  Si  Si14  1  0.50000000  0.56636200  0.87664400  1
  Si  Si15  1  0.00000000  0.43363800  0.62335600  1
  Si  Si16  1  0.50000000  0.56636200  0.12335600  1
  Si  Si17  1  0.00000000  0.43363800  0.37664400  1
  Si  Si18  1  0.00000000  0.25448000  0.87553000  1
  Si  Si19  1  0.50000000  0.74552000  0.62447000  1
  Si  Si20  1  0.00000000  0.25448000  0.12447000  1
  Si  Si21  1  0.50000000  0.74552000  0.37553000  1
  Si  Si22  1  0.00000000  0.45849200  0.87631500  1
  Si  Si23  1  0.50000000  0.54150800  0.62368500  1
  Si  Si24  1  0.50000000  0.54150800  0.37631500  1
  Si  Si25  1  0.00000000  0.45849200  0.12368500  1
  Br  Br26  1  0.50000000  0.10837700  0.69213400  1
  Br  Br27  1  0.00000000  0.89162300  0.80786600  1
  Br  Br28  1  0.00000000  0.13786100  0.50000000  1
  Br  Br29  1  0.50000000  0.86213900  0.00000000  1
  Br  Br30  1  0.50000000  0.10837700  0.30786600  1
  Br  Br31  1  0.00000000  0.89162300  0.19213400  1
