# generated using pymatgen
data_RbPaF6
_symmetry_space_group_name_H-M   'P 1'
_cell_length_a   7.24075461
_cell_length_b   7.24075461
_cell_length_c   7.20330400
_cell_angle_alpha   90.00000000
_cell_angle_beta   90.00000000
_cell_angle_gamma   112.45200417
_symmetry_Int_Tables_number   1
_chemical_formula_structural   RbPaF6
_chemical_formula_sum   'Rb2 Pa2 F12'
_cell_volume   349.03201252
_cell_formula_units_Z   2
loop_
 _symmetry_equiv_pos_site_id
 _symmetry_equiv_pos_as_xyz
  1  'x, y, z'
loop_
 _atom_site_type_symbol
 _atom_site_label
 _atom_site_symmetry_multiplicity
 _atom_site_fract_x
 _atom_site_fract_y
 _atom_site_fract_z
 _atom_site_occupancy
  Rb  Rb0  1  0.75000000  0.25000000  0.50652700  1
  Rb  Rb1  1  0.25000000  0.75000000  0.49347300  1
  Pa  Pa2  1  0.50000000  0.00000000  0.00000000  1
  Pa  Pa3  1  0.00000000  0.50000000  0.00000000  1
  F  F4  1  0.59368800  0.88245000  0.76246400  1
  F  F5  1  0.90631200  0.61755000  0.76246400  1
  F  F6  1  0.88245000  0.59368800  0.23753600  1
  F  F7  1  0.61755000  0.90631200  0.23753600  1
  F  F8  1  0.65086100  0.34913900  0.98287700  1
  F  F9  1  0.84913900  0.15086100  0.98287700  1
  F  F10  1  0.34913900  0.65086100  0.01712300  1
  F  F11  1  0.15086100  0.84913900  0.01712300  1
  F  F12  1  0.38245000  0.09368800  0.76246400  1
  F  F13  1  0.11755000  0.40631200  0.76246400  1
  F  F14  1  0.09368800  0.38245000  0.23753600  1
  F  F15  1  0.40631200  0.11755000  0.23753600  1
