# generated using pymatgen
data_NaClO4
_symmetry_space_group_name_H-M   'P 1'
_cell_length_a   4.87425148
_cell_length_b   4.87425148
_cell_length_c   7.17920400
_cell_angle_alpha   90.00000000
_cell_angle_beta   90.00000000
_cell_angle_gamma   94.95125336
_symmetry_Int_Tables_number   1
_chemical_formula_structural   NaClO4
_chemical_formula_sum   'Na2 Cl2 O8'
_cell_volume   169.92941108
_cell_formula_units_Z   2
loop_
 _symmetry_equiv_pos_site_id
 _symmetry_equiv_pos_as_xyz
  1  'x, y, z'
loop_
 _atom_site_type_symbol
 _atom_site_label
 _atom_site_symmetry_multiplicity
 _atom_site_fract_x
 _atom_site_fract_y
 _atom_site_fract_z
 _atom_site_occupancy
  Na  Na0  1  0.66365300  0.66365300  0.25000000  1
  Na  Na1  1  0.33634700  0.33634700  0.75000000  1
  Cl  Cl2  1  0.16813100  0.16813100  0.25000000  1
  Cl  Cl3  1  0.83186900  0.83186900  0.75000000  1
  O  O4  1  0.79708000  0.12666200  0.75000000  1
  O  O5  1  0.20292000  0.87333800  0.25000000  1
  O  O6  1  0.12666200  0.79708000  0.75000000  1
  O  O7  1  0.87333800  0.20292000  0.25000000  1
  O  O8  1  0.29899400  0.29899400  0.08598800  1
  O  O9  1  0.70100600  0.70100600  0.58598800  1
  O  O10  1  0.29899400  0.29899400  0.41401200  1
  O  O11  1  0.70100600  0.70100600  0.91401200  1
