# generated using pymatgen
data_YbEuSi4N7
_symmetry_space_group_name_H-M   'P 1'
_cell_length_a   6.03530796
_cell_length_b   6.03530796
_cell_length_c   9.90045800
_cell_angle_alpha   90.00000000
_cell_angle_beta   90.00000000
_cell_angle_gamma   119.99999955
_symmetry_Int_Tables_number   1
_chemical_formula_structural   YbEuSi4N7
_chemical_formula_sum   'Yb2 Eu2 Si8 N14'
_cell_volume   312.30920887
_cell_formula_units_Z   2
loop_
 _symmetry_equiv_pos_site_id
 _symmetry_equiv_pos_as_xyz
  1  'x, y, z'
loop_
 _atom_site_type_symbol
 _atom_site_label
 _atom_site_symmetry_multiplicity
 _atom_site_fract_x
 _atom_site_fract_y
 _atom_site_fract_z
 _atom_site_occupancy
  Yb  Yb0  1  0.66666700  0.33333300  0.23661100  1
  Yb  Yb1  1  0.33333300  0.66666700  0.73661100  1
  Eu  Eu2  1  0.33333300  0.66666700  0.38127700  1
  Eu  Eu3  1  0.66666700  0.33333300  0.88127700  1
  Si  Si4  1  0.82637700  0.65275300  0.54610200  1
  Si  Si5  1  0.17362300  0.82637700  0.04610200  1
  Si  Si6  1  0.65275300  0.82637700  0.04610200  1
  Si  Si7  1  0.34724700  0.17362300  0.54610200  1
  Si  Si8  1  0.82637700  0.17362300  0.54610200  1
  Si  Si9  1  0.17362300  0.34724700  0.04610200  1
  Si  Si10  1  0.00000000  0.00000000  0.81186900  1
  Si  Si11  1  0.00000000  0.00000000  0.31186900  1
  N  N12  1  0.15158900  0.30317800  0.87409800  1
  N  N13  1  0.84841100  0.15158900  0.37409800  1
  N  N14  1  0.30317800  0.15158900  0.37409800  1
  N  N15  1  0.69682200  0.84841100  0.87409800  1
  N  N16  1  0.15158900  0.84841100  0.87409800  1
  N  N17  1  0.84841100  0.69682200  0.37409800  1
  N  N18  1  0.98081400  0.49040700  0.59289600  1
  N  N19  1  0.49040700  0.98081400  0.09289600  1
  N  N20  1  0.49040700  0.50959300  0.09289600  1
  N  N21  1  0.50959300  0.49040700  0.59289600  1
  N  N22  1  0.50959300  0.01918600  0.59289600  1
  N  N23  1  0.01918600  0.50959300  0.09289600  1
  N  N24  1  0.00000000  0.00000000  0.12346000  1
  N  N25  1  0.00000000  0.00000000  0.62346000  1
