# generated using pymatgen
data_SiCl4
_symmetry_space_group_name_H-M   'P 1'
_cell_length_a   6.85595000
_cell_length_b   10.39911800
_cell_length_c   10.48666332
_cell_angle_alpha   77.11022248
_cell_angle_beta   90.00000000
_cell_angle_gamma   90.00000000
_symmetry_Int_Tables_number   1
_chemical_formula_structural   SiCl4
_chemical_formula_sum   'Si4 Cl16'
_cell_volume   728.81523675
_cell_formula_units_Z   4
loop_
 _symmetry_equiv_pos_site_id
 _symmetry_equiv_pos_as_xyz
  1  'x, y, z'
loop_
 _atom_site_type_symbol
 _atom_site_label
 _atom_site_symmetry_multiplicity
 _atom_site_fract_x
 _atom_site_fract_y
 _atom_site_fract_z
 _atom_site_occupancy
  Si  Si0  1  0.92832300  0.24968100  0.64308900  1
  Si  Si1  1  0.42832300  0.75031900  0.85691100  1
  Si  Si2  1  0.07167700  0.75031900  0.35691100  1
  Si  Si3  1  0.57167700  0.24968100  0.14308900  1
  Cl  Cl4  1  0.06905900  0.40210900  0.69592100  1
  Cl  Cl5  1  0.56905900  0.59789100  0.80407900  1
  Cl  Cl6  1  0.93094100  0.59789100  0.30407900  1
  Cl  Cl7  1  0.43094100  0.40210900  0.19592100  1
  Cl  Cl8  1  0.93085100  0.08985800  0.79567300  1
  Cl  Cl9  1  0.43085100  0.91014200  0.70432700  1
  Cl  Cl10  1  0.06914900  0.91014200  0.20432700  1
  Cl  Cl11  1  0.56914900  0.08985800  0.29567300  1
  Cl  Cl12  1  0.06603900  0.20422700  0.48704300  1
  Cl  Cl13  1  0.56603900  0.79577300  0.01295700  1
  Cl  Cl14  1  0.93396100  0.79577300  0.51295700  1
  Cl  Cl15  1  0.43396100  0.20422700  0.98704300  1
  Cl  Cl16  1  0.64783200  0.30286500  0.59397400  1
  Cl  Cl17  1  0.14783200  0.69713500  0.90602600  1
  Cl  Cl18  1  0.35216800  0.69713500  0.40602600  1
  Cl  Cl19  1  0.85216800  0.30286500  0.09397400  1
