# generated using pymatgen
data_GaPt2
_symmetry_space_group_name_H-M   'P 1'
_cell_length_a   3.96706000
_cell_length_b   5.57588000
_cell_length_c   16.68876800
_cell_angle_alpha   90.00000000
_cell_angle_beta   90.00000000
_cell_angle_gamma   90.00000000
_symmetry_Int_Tables_number   1
_chemical_formula_structural   GaPt2
_chemical_formula_sum   'Ga8 Pt16'
_cell_volume   369.15305340
_cell_formula_units_Z   8
loop_
 _symmetry_equiv_pos_site_id
 _symmetry_equiv_pos_as_xyz
  1  'x, y, z'
loop_
 _atom_site_type_symbol
 _atom_site_label
 _atom_site_symmetry_multiplicity
 _atom_site_fract_x
 _atom_site_fract_y
 _atom_site_fract_z
 _atom_site_occupancy
  Ga  Ga0  1  0.50000000  0.00000000  0.00000000  1
  Ga  Ga1  1  0.50000000  0.00000000  0.50000000  1
  Ga  Ga2  1  0.00000000  0.79428800  0.25000000  1
  Ga  Ga3  1  0.00000000  0.20571200  0.75000000  1
  Ga  Ga4  1  0.00000000  0.31656800  0.09314600  1
  Ga  Ga5  1  0.00000000  0.68343200  0.90685400  1
  Ga  Ga6  1  0.00000000  0.31656800  0.40685400  1
  Ga  Ga7  1  0.00000000  0.68343200  0.59314600  1
  Pt  Pt8  1  0.50000000  0.50000000  0.00000000  1
  Pt  Pt9  1  0.50000000  0.50000000  0.50000000  1
  Pt  Pt10  1  0.00000000  0.26821700  0.25000000  1
  Pt  Pt11  1  0.00000000  0.73178300  0.75000000  1
  Pt  Pt12  1  0.00000000  0.79577100  0.06914500  1
  Pt  Pt13  1  0.00000000  0.20422900  0.93085500  1
  Pt  Pt14  1  0.00000000  0.79577100  0.43085500  1
  Pt  Pt15  1  0.00000000  0.20422900  0.56914500  1
  Pt  Pt16  1  0.50000000  0.05136200  0.15595300  1
  Pt  Pt17  1  0.50000000  0.94863800  0.84404700  1
  Pt  Pt18  1  0.50000000  0.05136200  0.34404700  1
  Pt  Pt19  1  0.50000000  0.94863800  0.65595300  1
  Pt  Pt20  1  0.50000000  0.55787100  0.16799700  1
  Pt  Pt21  1  0.50000000  0.44212900  0.83200300  1
  Pt  Pt22  1  0.50000000  0.55787100  0.33200300  1
  Pt  Pt23  1  0.50000000  0.44212900  0.66799700  1
