# generated using pymatgen
data_Na3(CuS)4
_symmetry_space_group_name_H-M   'P 1'
_cell_length_a   3.75576600
_cell_length_b   7.17788300
_cell_length_c   14.58476400
_cell_angle_alpha   90.00000000
_cell_angle_beta   90.00000000
_cell_angle_gamma   90.00000000
_symmetry_Int_Tables_number   1
_chemical_formula_structural   Na3(CuS)4
_chemical_formula_sum   'Na6 Cu8 S8'
_cell_volume   393.18261535
_cell_formula_units_Z   2
loop_
 _symmetry_equiv_pos_site_id
 _symmetry_equiv_pos_as_xyz
  1  'x, y, z'
loop_
 _atom_site_type_symbol
 _atom_site_label
 _atom_site_symmetry_multiplicity
 _atom_site_fract_x
 _atom_site_fract_y
 _atom_site_fract_z
 _atom_site_occupancy
  Na  Na0  1  0.00000000  0.48438000  0.73352900  1
  Na  Na1  1  0.00000000  0.51562000  0.26647100  1
  Na  Na2  1  0.00000000  0.01562000  0.23352900  1
  Na  Na3  1  0.50000000  0.50000000  0.50000000  1
  Na  Na4  1  0.50000000  0.00000000  0.00000000  1
  Na  Na5  1  0.00000000  0.98438000  0.76647100  1
  Cu  Cu6  1  0.50000000  0.92114700  0.59287600  1
  Cu  Cu7  1  0.00000000  0.33209300  0.06450200  1
  Cu  Cu8  1  0.50000000  0.42114700  0.90712400  1
  Cu  Cu9  1  0.00000000  0.83209300  0.43549800  1
  Cu  Cu10  1  0.50000000  0.07885300  0.40712400  1
  Cu  Cu11  1  0.00000000  0.16790700  0.56450200  1
  Cu  Cu12  1  0.00000000  0.66790700  0.93549800  1
  Cu  Cu13  1  0.50000000  0.57885300  0.09287600  1
  S  S14  1  0.50000000  0.78334800  0.34689700  1
  S  S15  1  0.50000000  0.71665200  0.84689700  1
  S  S16  1  0.50000000  0.28334800  0.15310300  1
  S  S17  1  0.00000000  0.74818000  0.58811800  1
  S  S18  1  0.00000000  0.24818000  0.91188200  1
  S  S19  1  0.00000000  0.25182000  0.41188200  1
  S  S20  1  0.00000000  0.75182000  0.08811800  1
  S  S21  1  0.50000000  0.21665200  0.65310300  1
