# generated using pymatgen
data_Na2Te2O5
_symmetry_space_group_name_H-M   'P 1'
_cell_length_a   12.21044102
_cell_length_b   12.21044102
_cell_length_c   9.97121012
_cell_angle_alpha   77.41619008
_cell_angle_beta   77.41619008
_cell_angle_gamma   23.51557113
_symmetry_Int_Tables_number   1
_chemical_formula_structural   Na2Te2O5
_chemical_formula_sum   'Na8 Te8 O20'
_cell_volume   578.29905990
_cell_formula_units_Z   4
loop_
 _symmetry_equiv_pos_site_id
 _symmetry_equiv_pos_as_xyz
  1  'x, y, z'
loop_
 _atom_site_type_symbol
 _atom_site_label
 _atom_site_symmetry_multiplicity
 _atom_site_fract_x
 _atom_site_fract_y
 _atom_site_fract_z
 _atom_site_occupancy
  Na  Na0  1  0.83897300  0.81858500  0.20564700  1
  Na  Na1  1  0.18141500  0.16102700  0.29435300  1
  Na  Na2  1  0.16102700  0.18141500  0.79435300  1
  Na  Na3  1  0.81858500  0.83897300  0.70564700  1
  Na  Na4  1  0.93637400  0.96048700  0.41182300  1
  Na  Na5  1  0.03951300  0.06362600  0.08817700  1
  Na  Na6  1  0.06362600  0.03951300  0.58817700  1
  Na  Na7  1  0.96048700  0.93637400  0.91182300  1
  Te  Te8  1  0.45190800  0.42982900  0.18046000  1
  Te  Te9  1  0.57017100  0.54809200  0.31954000  1
  Te  Te10  1  0.54809200  0.57017100  0.81954000  1
  Te  Te11  1  0.42982900  0.45190800  0.68046000  1
  Te  Te12  1  0.40614300  0.21539600  0.45273400  1
  Te  Te13  1  0.78460400  0.59385700  0.04726600  1
  Te  Te14  1  0.59385700  0.78460400  0.54726600  1
  Te  Te15  1  0.21539600  0.40614300  0.95273400  1
  O  O16  1  0.50539800  0.00188300  0.36575300  1
  O  O17  1  0.99811700  0.49460200  0.13424700  1
  O  O18  1  0.49460200  0.99811700  0.63424700  1
  O  O19  1  0.00188300  0.50539800  0.86575300  1
  O  O20  1  0.36228100  0.34749700  0.25004600  1
  O  O21  1  0.65250300  0.63771900  0.24995400  1
  O  O22  1  0.63771900  0.65250300  0.74995400  1
  O  O23  1  0.34749700  0.36228100  0.75004600  1
  O  O24  1  0.43291900  0.47746500  0.36196900  1
  O  O25  1  0.52253500  0.56708100  0.13803100  1
  O  O26  1  0.56708100  0.52253500  0.63803100  1
  O  O27  1  0.47746500  0.43291900  0.86196900  1
  O  O28  1  0.83289800  0.06279600  0.15503700  1
  O  O29  1  0.93720400  0.16710200  0.34496300  1
  O  O30  1  0.16710200  0.93720400  0.84496300  1
  O  O31  1  0.06279600  0.83289800  0.65503700  1
  O  O32  1  0.94414200  0.75982800  0.96341500  1
  O  O33  1  0.24017200  0.05585800  0.53658500  1
  O  O34  1  0.05585800  0.24017200  0.03658500  1
  O  O35  1  0.75982800  0.94414200  0.46341500  1
