# generated using pymatgen
data_Pt5Se4
_symmetry_space_group_name_H-M   'P 1'
_cell_length_a   4.69871400
_cell_length_b   6.67046500
_cell_length_c   11.27895249
_cell_angle_alpha   78.60336707
_cell_angle_beta   90.00000000
_cell_angle_gamma   90.00000000
_symmetry_Int_Tables_number   1
_chemical_formula_structural   Pt5Se4
_chemical_formula_sum   'Pt10 Se8'
_cell_volume   346.54151200
_cell_formula_units_Z   2
loop_
 _symmetry_equiv_pos_site_id
 _symmetry_equiv_pos_as_xyz
  1  'x, y, z'
loop_
 _atom_site_type_symbol
 _atom_site_label
 _atom_site_symmetry_multiplicity
 _atom_site_fract_x
 _atom_site_fract_y
 _atom_site_fract_z
 _atom_site_occupancy
  Pt  Pt0  1  0.66791500  0.33150000  0.99795700  1
  Pt  Pt1  1  0.16791500  0.66850000  0.50204300  1
  Pt  Pt2  1  0.33208500  0.66850000  0.00204300  1
  Pt  Pt3  1  0.83208500  0.33150000  0.49795700  1
  Pt  Pt4  1  0.33643600  0.22314100  0.82637800  1
  Pt  Pt5  1  0.83643600  0.77685900  0.67362200  1
  Pt  Pt6  1  0.66356400  0.77685900  0.17362200  1
  Pt  Pt7  1  0.16356400  0.22314100  0.32637800  1
  Pt  Pt8  1  0.00000000  0.00000000  0.00000000  1
  Pt  Pt9  1  0.50000000  0.00000000  0.50000000  1
  Se  Se10  1  0.63501800  0.91156400  0.86221400  1
  Se  Se11  1  0.13501800  0.08843600  0.63778600  1
  Se  Se12  1  0.36498200  0.08843600  0.13778600  1
  Se  Se13  1  0.86498200  0.91156400  0.36221400  1
  Se  Se14  1  0.03752900  0.51422100  0.85599700  1
  Se  Se15  1  0.53752900  0.48577900  0.64400300  1
  Se  Se16  1  0.96247100  0.48577900  0.14400300  1
  Se  Se17  1  0.46247100  0.51422100  0.35599700  1
