# generated using pymatgen
data_YCrB4
_symmetry_space_group_name_H-M   'P 1'
_cell_length_a   3.45005200
_cell_length_b   5.93353500
_cell_length_c   11.46220400
_cell_angle_alpha   90.00000000
_cell_angle_beta   90.00000000
_cell_angle_gamma   90.00000000
_symmetry_Int_Tables_number   1
_chemical_formula_structural   YCrB4
_chemical_formula_sum   'Y4 Cr4 B16'
_cell_volume   234.64282730
_cell_formula_units_Z   4
loop_
 _symmetry_equiv_pos_site_id
 _symmetry_equiv_pos_as_xyz
  1  'x, y, z'
loop_
 _atom_site_type_symbol
 _atom_site_label
 _atom_site_symmetry_multiplicity
 _atom_site_fract_x
 _atom_site_fract_y
 _atom_site_fract_z
 _atom_site_occupancy
  Y  Y0  1  0.00000000  0.37543400  0.65065000  1
  Y  Y1  1  0.00000000  0.62456600  0.34935000  1
  Y  Y2  1  0.00000000  0.87543400  0.84935000  1
  Y  Y3  1  0.00000000  0.12456600  0.15065000  1
  Cr  Cr4  1  0.00000000  0.37803200  0.92072700  1
  Cr  Cr5  1  0.00000000  0.62196800  0.07927300  1
  Cr  Cr6  1  0.00000000  0.87803200  0.57927300  1
  Cr  Cr7  1  0.00000000  0.12196800  0.42072700  1
  B  B8  1  0.50000000  0.02460300  0.69158100  1
  B  B9  1  0.50000000  0.97539700  0.30841900  1
  B  B10  1  0.50000000  0.52460300  0.80841900  1
  B  B11  1  0.50000000  0.47539700  0.19158100  1
  B  B12  1  0.50000000  0.11295000  0.54671900  1
  B  B13  1  0.50000000  0.88705000  0.45328100  1
  B  B14  1  0.50000000  0.61295000  0.95328100  1
  B  B15  1  0.50000000  0.38705000  0.04671900  1
  B  B16  1  0.50000000  0.28045400  0.31612900  1
  B  B17  1  0.50000000  0.71954600  0.68387100  1
  B  B18  1  0.50000000  0.78045400  0.18387100  1
  B  B19  1  0.50000000  0.21954600  0.81612900  1
  B  B20  1  0.50000000  0.36267100  0.46746900  1
  B  B21  1  0.50000000  0.63732900  0.53253100  1
  B  B22  1  0.50000000  0.86267100  0.03253100  1
  B  B23  1  0.50000000  0.13732900  0.96746900  1
