# generated using pymatgen
data_Ca11Bi10
_symmetry_space_group_name_H-M   'P 1'
_cell_length_a   12.50909887
_cell_length_b   12.50909887
_cell_length_c   12.50909887
_cell_angle_alpha   120.71853958
_cell_angle_beta   120.71853958
_cell_angle_gamma   88.75989425
_symmetry_Int_Tables_number   1
_chemical_formula_structural   Ca11Bi10
_chemical_formula_sum   'Ca22 Bi20'
_cell_volume   1368.70606731
_cell_formula_units_Z   2
loop_
 _symmetry_equiv_pos_site_id
 _symmetry_equiv_pos_as_xyz
  1  'x, y, z'
loop_
 _atom_site_type_symbol
 _atom_site_label
 _atom_site_symmetry_multiplicity
 _atom_site_fract_x
 _atom_site_fract_y
 _atom_site_fract_z
 _atom_site_occupancy
  Ca  Ca0  1  0.44141400  0.19075000  0.25066300  1
  Ca  Ca1  1  0.19075000  0.94008700  0.74933700  1
  Ca  Ca2  1  0.19075000  0.44141400  0.25066300  1
  Ca  Ca3  1  0.55858600  0.80925000  0.74933700  1
  Ca  Ca4  1  0.05991300  0.80925000  0.25066300  1
  Ca  Ca5  1  0.80925000  0.05991300  0.25066300  1
  Ca  Ca6  1  0.80925000  0.55858600  0.74933700  1
  Ca  Ca7  1  0.94008700  0.19075000  0.74933700  1
  Ca  Ca8  1  0.16007900  0.16007900  0.32015800  1
  Ca  Ca9  1  0.16007900  0.83992100  0.00000000  1
  Ca  Ca10  1  0.83992100  0.16007900  0.00000000  1
  Ca  Ca11  1  0.83992100  0.83992100  0.67984200  1
  Ca  Ca12  1  0.33564100  0.33564100  0.00000000  1
  Ca  Ca13  1  0.66435900  0.66435900  0.00000000  1
  Ca  Ca14  1  0.73791300  0.39646400  0.34144800  1
  Ca  Ca15  1  0.39646400  0.05501600  0.65855200  1
  Ca  Ca16  1  0.39646400  0.73791300  0.34144800  1
  Ca  Ca17  1  0.26208700  0.60353600  0.65855200  1
  Ca  Ca18  1  0.94498400  0.60353600  0.34144800  1
  Ca  Ca19  1  0.60353600  0.94498400  0.34144800  1
  Ca  Ca20  1  0.60353600  0.26208700  0.65855200  1
  Ca  Ca21  1  0.05501600  0.39646400  0.65855200  1
  Bi  Bi22  1  0.00000000  0.34775400  0.34775400  1
  Bi  Bi23  1  0.34775400  0.00000000  0.34775400  1
  Bi  Bi24  1  0.65224600  0.00000000  0.65224600  1
  Bi  Bi25  1  0.00000000  0.65224600  0.65224600  1
  Bi  Bi26  1  0.12802300  0.12802300  0.00000000  1
  Bi  Bi27  1  0.87197700  0.87197700  0.00000000  1
  Bi  Bi28  1  0.36911900  0.36911900  0.73823800  1
  Bi  Bi29  1  0.36911900  0.63088100  0.00000000  1
  Bi  Bi30  1  0.63088100  0.36911900  0.00000000  1
  Bi  Bi31  1  0.63088100  0.63088100  0.26176200  1
  Bi  Bi32  1  0.75000000  0.25000000  0.50000000  1
  Bi  Bi33  1  0.25000000  0.75000000  0.50000000  1
  Bi  Bi34  1  0.53195800  0.53195800  0.40899400  1
  Bi  Bi35  1  0.53195800  0.12296400  0.00000000  1
  Bi  Bi36  1  0.12296400  0.53195800  0.00000000  1
  Bi  Bi37  1  0.46804200  0.87703600  0.00000000  1
  Bi  Bi38  1  0.87703600  0.46804200  0.00000000  1
  Bi  Bi39  1  0.87703600  0.87703600  0.40899400  1
  Bi  Bi40  1  0.46804200  0.46804200  0.59100600  1
  Bi  Bi41  1  0.12296400  0.12296400  0.59100600  1
