# generated using pymatgen
data_Pu(SiRh)2
_symmetry_space_group_name_H-M   'P 1'
_cell_length_a   5.79084281
_cell_length_b   5.79084281
_cell_length_c   5.79084281
_cell_angle_alpha   139.35739468
_cell_angle_beta   139.35739468
_cell_angle_gamma   58.83031547
_symmetry_Int_Tables_number   1
_chemical_formula_structural   Pu(SiRh)2
_chemical_formula_sum   'Pu1 Si2 Rh2'
_cell_volume   81.60479965
_cell_formula_units_Z   1
loop_
 _symmetry_equiv_pos_site_id
 _symmetry_equiv_pos_as_xyz
  1  'x, y, z'
loop_
 _atom_site_type_symbol
 _atom_site_label
 _atom_site_symmetry_multiplicity
 _atom_site_fract_x
 _atom_site_fract_y
 _atom_site_fract_z
 _atom_site_occupancy
  Pu  Pu0  1  0.00000000  0.00000000  0.00000000  1
  Si  Si1  1  0.61778700  0.61778700  0.00000000  1
  Si  Si2  1  0.38221300  0.38221300  0.00000000  1
  Rh  Rh3  1  0.75000000  0.25000000  0.50000000  1
  Rh  Rh4  1  0.25000000  0.75000000  0.50000000  1
