# generated using pymatgen
data_Tl3BS3
_symmetry_space_group_name_H-M   'P 1'
_cell_length_a   9.99077500
_cell_length_b   5.78985100
_cell_length_c   6.73770184
_cell_angle_alpha   81.83967598
_cell_angle_beta   90.00000000
_cell_angle_gamma   90.00000000
_symmetry_Int_Tables_number   1
_chemical_formula_structural   Tl3BS3
_chemical_formula_sum   'Tl6 B2 S6'
_cell_volume   385.79678622
_cell_formula_units_Z   2
loop_
 _symmetry_equiv_pos_site_id
 _symmetry_equiv_pos_as_xyz
  1  'x, y, z'
loop_
 _atom_site_type_symbol
 _atom_site_label
 _atom_site_symmetry_multiplicity
 _atom_site_fract_x
 _atom_site_fract_y
 _atom_site_fract_z
 _atom_site_occupancy
  Tl  Tl0  1  0.04849000  0.71410600  0.67125000  1
  Tl  Tl1  1  0.54849000  0.28589400  0.32875000  1
  Tl  Tl2  1  0.95151000  0.28589400  0.32875000  1
  Tl  Tl3  1  0.45151000  0.71410600  0.67125000  1
  Tl  Tl4  1  0.25000000  0.15958300  0.99126300  1
  Tl  Tl5  1  0.75000000  0.84041700  0.00873700  1
  B  B6  1  0.25000000  0.61225300  0.26073700  1
  B  B7  1  0.75000000  0.38774700  0.73926300  1
  S  S8  1  0.59053300  0.25081500  0.81977700  1
  S  S9  1  0.09053300  0.74918500  0.18022300  1
  S  S10  1  0.40946700  0.74918500  0.18022300  1
  S  S11  1  0.90946700  0.25081500  0.81977700  1
  S  S12  1  0.75000000  0.66540800  0.57196800  1
  S  S13  1  0.25000000  0.33459200  0.42803200  1
