# generated using pymatgen
data_BaPbO3
_symmetry_space_group_name_H-M   'P 1'
_cell_length_a   6.15036645
_cell_length_b   6.15036645
_cell_length_c   6.13110795
_cell_angle_alpha   60.23374128
_cell_angle_beta   60.23374128
_cell_angle_gamma   89.75035477
_symmetry_Int_Tables_number   1
_chemical_formula_structural   BaPbO3
_chemical_formula_sum   'Ba2 Pb2 O6'
_cell_volume   165.49154870
_cell_formula_units_Z   2
loop_
 _symmetry_equiv_pos_site_id
 _symmetry_equiv_pos_as_xyz
  1  'x, y, z'
loop_
 _atom_site_type_symbol
 _atom_site_label
 _atom_site_symmetry_multiplicity
 _atom_site_fract_x
 _atom_site_fract_y
 _atom_site_fract_z
 _atom_site_occupancy
  Ba  Ba0  1  0.25649400  0.25649400  0.99458300  1
  Ba  Ba1  1  0.74350600  0.74350600  0.00541700  1
  Pb  Pb2  1  0.50000000  0.00000000  0.50000000  1
  Pb  Pb3  1  0.00000000  0.50000000  0.50000000  1
  O  O4  1  0.81957000  0.81957000  0.43897000  1
  O  O5  1  0.18043000  0.18043000  0.56103000  1
  O  O6  1  0.28757000  0.71243000  0.00000000  1
  O  O7  1  0.71243000  0.28757000  0.00000000  1
  O  O8  1  0.29312700  0.70687300  0.50000000  1
  O  O9  1  0.70687300  0.29312700  0.50000000  1
