# generated using pymatgen
data_AsClF8
_symmetry_space_group_name_H-M   'P 1'
_cell_length_a   5.75131501
_cell_length_b   5.75131501
_cell_length_c   10.49150114
_cell_angle_alpha   74.64325287
_cell_angle_beta   74.64325287
_cell_angle_gamma   86.81237604
_symmetry_Int_Tables_number   1
_chemical_formula_structural   AsClF8
_chemical_formula_sum   'As2 Cl2 F16'
_cell_volume   322.65566763
_cell_formula_units_Z   2
loop_
 _symmetry_equiv_pos_site_id
 _symmetry_equiv_pos_as_xyz
  1  'x, y, z'
loop_
 _atom_site_type_symbol
 _atom_site_label
 _atom_site_symmetry_multiplicity
 _atom_site_fract_x
 _atom_site_fract_y
 _atom_site_fract_z
 _atom_site_occupancy
  As  As0  1  0.00000000  0.00000000  0.50000000  1
  As  As1  1  0.00000000  0.00000000  0.00000000  1
  Cl  Cl2  1  0.33407400  0.66592600  0.25000000  1
  Cl  Cl3  1  0.66592600  0.33407400  0.75000000  1
  F  F4  1  0.59608700  0.53878900  0.83277300  1
  F  F5  1  0.46121100  0.40391300  0.66722700  1
  F  F6  1  0.40391300  0.46121100  0.16722700  1
  F  F7  1  0.53878900  0.59608700  0.33277300  1
  F  F8  1  0.18145800  0.21083300  0.52499400  1
  F  F9  1  0.78916700  0.81854200  0.97500600  1
  F  F10  1  0.81854200  0.78916700  0.47500600  1
  F  F11  1  0.21083300  0.18145800  0.02499400  1
  F  F12  1  0.24334700  0.96249900  0.35345700  1
  F  F13  1  0.03750100  0.75665300  0.14654300  1
  F  F14  1  0.75665300  0.03750100  0.64654300  1
  F  F15  1  0.96249900  0.24334700  0.85345700  1
  F  F16  1  0.88455700  0.23383900  0.39001000  1
  F  F17  1  0.76616100  0.11544300  0.10999000  1
  F  F18  1  0.11544300  0.76616100  0.60999000  1
  F  F19  1  0.23383900  0.88455700  0.89001000  1
