# generated using pymatgen
data_Y4BBr6
_symmetry_space_group_name_H-M   'P 1'
_cell_length_a   10.76418418
_cell_length_b   10.76418418
_cell_length_c   12.64700941
_cell_angle_alpha   84.52605471
_cell_angle_beta   84.52605471
_cell_angle_gamma   63.38102436
_symmetry_Int_Tables_number   1
_chemical_formula_structural   Y4BBr6
_chemical_formula_sum   'Y16 B4 Br24'
_cell_volume   1301.79914900
_cell_formula_units_Z   4
loop_
 _symmetry_equiv_pos_site_id
 _symmetry_equiv_pos_as_xyz
  1  'x, y, z'
loop_
 _atom_site_type_symbol
 _atom_site_label
 _atom_site_symmetry_multiplicity
 _atom_site_fract_x
 _atom_site_fract_y
 _atom_site_fract_z
 _atom_site_occupancy
  Y  Y0  1  0.71120000  0.47008800  0.19157800  1
  Y  Y1  1  0.52991200  0.28880000  0.30842200  1
  Y  Y2  1  0.28880000  0.52991200  0.80842200  1
  Y  Y3  1  0.47008800  0.71120000  0.69157800  1
  Y  Y4  1  0.78376100  0.54322800  0.45351700  1
  Y  Y5  1  0.45677200  0.21623900  0.04648300  1
  Y  Y6  1  0.21623900  0.45677200  0.54648300  1
  Y  Y7  1  0.54322800  0.78376100  0.95351700  1
  Y  Y8  1  0.58100800  0.35948600  0.58767200  1
  Y  Y9  1  0.64051400  0.41899200  0.91232800  1
  Y  Y10  1  0.41899200  0.64051400  0.41232800  1
  Y  Y11  1  0.35948600  0.58100800  0.08767200  1
  Y  Y12  1  0.11662200  0.81117000  0.60458900  1
  Y  Y13  1  0.18883000  0.88337800  0.89541100  1
  Y  Y14  1  0.88337800  0.18883000  0.39541100  1
  Y  Y15  1  0.81117000  0.11662200  0.10458900  1
  B  B16  1  0.66040300  0.41222600  0.39435000  1
  B  B17  1  0.58777400  0.33959700  0.10565000  1
  B  B18  1  0.33959700  0.58777400  0.60565000  1
  B  B19  1  0.41222600  0.66040300  0.89435000  1
  Br  Br20  1  0.14298100  0.37953300  0.74825500  1
  Br  Br21  1  0.62046700  0.85701900  0.75174500  1
  Br  Br22  1  0.85701900  0.62046700  0.25174500  1
  Br  Br23  1  0.37953300  0.14298100  0.24825500  1
  Br  Br24  1  0.15869500  0.91383600  0.39658300  1
  Br  Br25  1  0.08616400  0.84130500  0.10341700  1
  Br  Br26  1  0.84130500  0.08616400  0.60341700  1
  Br  Br27  1  0.91383600  0.15869500  0.89658300  1
  Br  Br28  1  0.05276500  0.30823900  0.46638000  1
  Br  Br29  1  0.69176100  0.94723500  0.03362000  1
  Br  Br30  1  0.94723500  0.69176100  0.53362000  1
  Br  Br31  1  0.30823900  0.05276500  0.96638000  1
  Br  Br32  1  0.98406000  0.22522400  0.18089300  1
  Br  Br33  1  0.77477600  0.01594000  0.31910700  1
  Br  Br34  1  0.01594000  0.77477600  0.81910700  1
  Br  Br35  1  0.22522400  0.98406000  0.68089300  1
  Br  Br36  1  0.46935500  0.74702200  0.18474900  1
  Br  Br37  1  0.25297800  0.53064500  0.31525100  1
  Br  Br38  1  0.53064500  0.25297800  0.81525100  1
  Br  Br39  1  0.74702200  0.46935500  0.68474900  1
  Br  Br40  1  0.80609000  0.54645300  0.97435400  1
  Br  Br41  1  0.45354700  0.19391000  0.52564600  1
  Br  Br42  1  0.19391000  0.45354700  0.02564600  1
  Br  Br43  1  0.54645300  0.80609000  0.47435400  1
