# generated using pymatgen
data_PrMn2O5
_symmetry_space_group_name_H-M   'P 1'
_cell_length_a   5.83811300
_cell_length_b   7.64750700
_cell_length_c   8.76660800
_cell_angle_alpha   90.00000000
_cell_angle_beta   90.00000000
_cell_angle_gamma   90.00000000
_symmetry_Int_Tables_number   1
_chemical_formula_structural   PrMn2O5
_chemical_formula_sum   'Pr4 Mn8 O20'
_cell_volume   391.40283534
_cell_formula_units_Z   4
loop_
 _symmetry_equiv_pos_site_id
 _symmetry_equiv_pos_as_xyz
  1  'x, y, z'
loop_
 _atom_site_type_symbol
 _atom_site_label
 _atom_site_symmetry_multiplicity
 _atom_site_fract_x
 _atom_site_fract_y
 _atom_site_fract_z
 _atom_site_occupancy
  Pr  Pr0  1  0.00000000  0.35775200  0.67228700  1
  Pr  Pr1  1  0.00000000  0.64224800  0.32771300  1
  Pr  Pr2  1  0.00000000  0.85775200  0.82771300  1
  Pr  Pr3  1  0.00000000  0.14224800  0.17228700  1
  Mn  Mn4  1  0.50000000  0.09019200  0.85087600  1
  Mn  Mn5  1  0.50000000  0.90980800  0.14912400  1
  Mn  Mn6  1  0.50000000  0.59019200  0.64912400  1
  Mn  Mn7  1  0.50000000  0.40980800  0.35087600  1
  Mn  Mn8  1  0.25729100  0.50000000  0.00000000  1
  Mn  Mn9  1  0.74270900  0.00000000  0.50000000  1
  Mn  Mn10  1  0.74270900  0.50000000  0.00000000  1
  Mn  Mn11  1  0.25729100  0.00000000  0.50000000  1
  O  O12  1  0.24831100  0.90225800  0.29313900  1
  O  O13  1  0.24831100  0.09774200  0.70686100  1
  O  O14  1  0.75168900  0.40225800  0.20686100  1
  O  O15  1  0.75168900  0.59774200  0.79313900  1
  O  O16  1  0.75168900  0.09774200  0.70686100  1
  O  O17  1  0.75168900  0.90225800  0.29313900  1
  O  O18  1  0.24831100  0.59774200  0.79313900  1
  O  O19  1  0.24831100  0.40225800  0.20686100  1
  O  O20  1  0.50000000  0.34765700  0.93684900  1
  O  O21  1  0.50000000  0.65234300  0.06315100  1
  O  O22  1  0.50000000  0.84765700  0.56315100  1
  O  O23  1  0.50000000  0.15234300  0.43684900  1
  O  O24  1  0.27747500  0.00000000  0.00000000  1
  O  O25  1  0.72252500  0.50000000  0.50000000  1
  O  O26  1  0.72252500  0.00000000  0.00000000  1
  O  O27  1  0.27747500  0.50000000  0.50000000  1
  O  O28  1  0.00000000  0.15698500  0.44821800  1
  O  O29  1  0.00000000  0.84301500  0.55178200  1
  O  O30  1  0.00000000  0.65698500  0.05178200  1
  O  O31  1  0.00000000  0.34301500  0.94821800  1
