# generated using pymatgen
data_K2O2
_symmetry_space_group_name_H-M   'P 1'
_cell_length_a   4.91158791
_cell_length_b   4.91158791
_cell_length_c   6.56506000
_cell_angle_alpha   90.00000000
_cell_angle_beta   90.00000000
_cell_angle_gamma   91.95441067
_symmetry_Int_Tables_number   1
_chemical_formula_structural   K2O2
_chemical_formula_sum   'K4 O4'
_cell_volume   158.28138127
_cell_formula_units_Z   2
loop_
 _symmetry_equiv_pos_site_id
 _symmetry_equiv_pos_as_xyz
  1  'x, y, z'
loop_
 _atom_site_type_symbol
 _atom_site_label
 _atom_site_symmetry_multiplicity
 _atom_site_fract_x
 _atom_site_fract_y
 _atom_site_fract_z
 _atom_site_occupancy
  K  K0  1  0.90899600  0.59100400  0.75000000  1
  K  K1  1  0.59100400  0.90899600  0.25000000  1
  K  K2  1  0.09100400  0.40899600  0.25000000  1
  K  K3  1  0.40899600  0.09100400  0.75000000  1
  O  O4  1  0.58688000  0.41312000  0.43090100  1
  O  O5  1  0.91312000  0.08688000  0.93090100  1
  O  O6  1  0.41312000  0.58688000  0.56909900  1
  O  O7  1  0.08688000  0.91312000  0.06909900  1
