# generated using pymatgen
data_CdCoH18N6Cl5
_symmetry_space_group_name_H-M   'P 1'
_cell_length_a   16.04982289
_cell_length_b   16.04982286
_cell_length_c   16.04982318
_cell_angle_alpha   60.00000149
_cell_angle_beta   60.00000154
_cell_angle_gamma   60.00000220
_symmetry_Int_Tables_number   1
_chemical_formula_structural   CdCoH18N6Cl5
_chemical_formula_sum   'Cd8 Co8 H144 N48 Cl40'
_cell_volume   2923.45059884
_cell_formula_units_Z   8
loop_
 _symmetry_equiv_pos_site_id
 _symmetry_equiv_pos_as_xyz
  1  'x, y, z'
loop_
 _atom_site_type_symbol
 _atom_site_label
 _atom_site_symmetry_multiplicity
 _atom_site_fract_x
 _atom_site_fract_y
 _atom_site_fract_z
 _atom_site_occupancy
  H  H0  1  0.95373254  0.05192819  0.15038552  1
  H  H1  1  0.44807181  0.34961448  0.15604625  1
  H  H2  1  0.15604625  0.54626746  0.44807181  1
  H  H3  1  0.44807181  0.15604625  0.54626746  1
  H  H4  1  0.34961448  0.54626746  0.15604625  1
  H  H5  1  0.34961448  0.15604625  0.44807181  1
  H  H6  1  0.15604625  0.34961448  0.54626746  1
  H  H7  1  0.15038552  0.95373254  0.05192819  1
  H  H8  1  0.05192819  0.15038552  0.95373254  1
  H  H9  1  0.34395375  0.95373254  0.15038552  1
  H  H10  1  0.05192819  0.34395375  0.15038552  1
  H  H11  1  0.34395375  0.05192819  0.95373254  1
  H  H12  1  0.15038552  0.05192819  0.34395375  1
  H  H13  1  0.95373254  0.15038552  0.34395375  1
  H  H14  1  0.95373254  0.34395375  0.05192819  1
  H  H15  1  0.15604625  0.44807181  0.34961448  1
  H  H16  1  0.54626746  0.15604625  0.34961448  1
  H  H17  1  0.54626746  0.44807181  0.15604625  1
  H  H18  1  0.44807181  0.54626746  0.34961448  1
  H  H19  1  0.34961448  0.44807181  0.54626746  1
  H  H20  1  0.54626746  0.34961448  0.44807181  1
  H  H21  1  0.15038552  0.34395375  0.95373254  1
  H  H22  1  0.34395375  0.15038552  0.05192819  1
  H  H23  1  0.05192819  0.95373254  0.34395375  1
  H  H24  1  0.04626746  0.94807181  0.84961448  1
  H  H25  1  0.55192819  0.65038552  0.84395375  1
  H  H26  1  0.84395375  0.45373254  0.55192819  1
  H  H27  1  0.55192819  0.84395375  0.45373254  1
  H  H28  1  0.65038552  0.45373254  0.84395375  1
  H  H29  1  0.65038552  0.84395375  0.55192819  1
  H  H30  1  0.84395375  0.65038552  0.45373254  1
  H  H31  1  0.84961448  0.04626746  0.94807181  1
  H  H32  1  0.94807181  0.84961448  0.04626746  1
  H  H33  1  0.65604625  0.04626746  0.84961448  1
  H  H34  1  0.94807181  0.65604625  0.84961448  1
  H  H35  1  0.65604625  0.94807181  0.04626746  1
  H  H36  1  0.84961448  0.94807181  0.65604625  1
  H  H37  1  0.04626746  0.84961448  0.65604625  1
  H  H38  1  0.04626746  0.65604625  0.94807181  1
  H  H39  1  0.84395375  0.55192819  0.65038552  1
  H  H40  1  0.45373254  0.84395375  0.65038552  1
  H  H41  1  0.45373254  0.55192819  0.84395375  1
  H  H42  1  0.55192819  0.45373254  0.65038552  1
  H  H43  1  0.65038552  0.55192819  0.45373254  1
  H  H44  1  0.45373254  0.65038552  0.55192819  1
  H  H45  1  0.84961448  0.65604625  0.04626746  1
  H  H46  1  0.65604625  0.84961448  0.94807181  1
  H  H47  1  0.94807181  0.04626746  0.65604625  1
  H  H48  1  0.87975589  0.98878489  0.18197448  1
  H  H49  1  0.51121511  0.31802552  0.05051526  1
  H  H50  1  0.05051526  0.62024411  0.51121511  1
  H  H51  1  0.51121511  0.05051526  0.62024411  1
  H  H52  1  0.31802552  0.62024411  0.05051526  1
  H  H53  1  0.31802552  0.05051526  0.51121511  1
  H  H54  1  0.05051526  0.31802552  0.62024411  1
  H  H55  1  0.18197448  0.87975589  0.98878489  1
  H  H56  1  0.98878489  0.18197448  0.87975589  1
  H  H57  1  0.44948474  0.87975589  0.18197448  1
  H  H58  1  0.98878489  0.44948474  0.18197448  1
  H  H59  1  0.44948474  0.98878489  0.87975589  1
  H  H60  1  0.18197448  0.98878489  0.44948474  1
  H  H61  1  0.87975589  0.18197448  0.44948474  1
  H  H62  1  0.87975589  0.44948474  0.98878489  1
  H  H63  1  0.05051526  0.51121511  0.31802552  1
  H  H64  1  0.62024411  0.05051526  0.31802552  1
  H  H65  1  0.62024411  0.51121511  0.05051526  1
  H  H66  1  0.51121511  0.62024411  0.31802552  1
  H  H67  1  0.31802552  0.51121511  0.62024411  1
  H  H68  1  0.62024411  0.31802552  0.51121511  1
  H  H69  1  0.18197448  0.44948474  0.87975589  1
  H  H70  1  0.44948474  0.18197448  0.98878489  1
  H  H71  1  0.98878489  0.87975589  0.44948474  1
  H  H72  1  0.12024411  0.01121511  0.81802552  1
  H  H73  1  0.48878489  0.68197448  0.94948474  1
  H  H74  1  0.94948474  0.37975589  0.48878489  1
  H  H75  1  0.48878489  0.94948474  0.37975589  1
  H  H76  1  0.68197448  0.37975589  0.94948474  1
  H  H77  1  0.68197448  0.94948474  0.48878489  1
  H  H78  1  0.94948474  0.68197448  0.37975589  1
  H  H79  1  0.81802552  0.12024411  0.01121511  1
  H  H80  1  0.01121511  0.81802552  0.12024411  1
  H  H81  1  0.55051526  0.12024411  0.81802552  1
  H  H82  1  0.01121511  0.55051526  0.81802552  1
  H  H83  1  0.55051526  0.01121511  0.12024411  1
  H  H84  1  0.81802552  0.01121511  0.55051526  1
  H  H85  1  0.12024411  0.81802552  0.55051526  1
  H  H86  1  0.12024411  0.55051526  0.01121511  1
  H  H87  1  0.94948474  0.48878489  0.68197448  1
  H  H88  1  0.37975589  0.94948474  0.68197448  1
  H  H89  1  0.37975589  0.48878489  0.94948474  1
  H  H90  1  0.48878489  0.37975589  0.68197448  1
  H  H91  1  0.68197448  0.48878489  0.37975589  1
  H  H92  1  0.37975589  0.68197448  0.48878489  1
  H  H93  1  0.81802552  0.55051526  0.12024411  1
  H  H94  1  0.55051526  0.81802552  0.01121511  1
  H  H95  1  0.01121511  0.12024411  0.55051526  1
  H  H96  1  0.99784920  0.92561918  0.18225312  1
  H  H97  1  0.57438082  0.31774688  0.10572150  1
  H  H98  1  0.10572150  0.50215080  0.57438082  1
  H  H99  1  0.57438082  0.10572150  0.50215080  1
  H  H100  1  0.31774688  0.50215080  0.10572150  1
  H  H101  1  0.31774688  0.10572150  0.57438082  1
  H  H102  1  0.10572150  0.31774688  0.50215080  1
  H  H103  1  0.18225312  0.99784920  0.92561918  1
  H  H104  1  0.92561918  0.18225312  0.99784920  1
  H  H105  1  0.39427850  0.99784920  0.18225312  1
  H  H106  1  0.92561918  0.39427850  0.18225312  1
  H  H107  1  0.39427850  0.92561918  0.99784920  1
  H  H108  1  0.18225312  0.92561918  0.39427850  1
  H  H109  1  0.99784920  0.18225312  0.39427850  1
  H  H110  1  0.99784920  0.39427850  0.92561918  1
  H  H111  1  0.10572150  0.57438082  0.31774688  1
  H  H112  1  0.50215080  0.10572150  0.31774688  1
  H  H113  1  0.50215080  0.57438082  0.10572150  1
  H  H114  1  0.57438082  0.50215080  0.31774688  1
  H  H115  1  0.31774688  0.57438082  0.50215080  1
  H  H116  1  0.50215080  0.31774688  0.57438082  1
  H  H117  1  0.18225312  0.39427850  0.99784920  1
  H  H118  1  0.39427850  0.18225312  0.92561918  1
  H  H119  1  0.92561918  0.99784920  0.39427850  1
  H  H120  1  0.00215080  0.07438082  0.81774688  1
  H  H121  1  0.42561918  0.68225312  0.89427850  1
  H  H122  1  0.89427850  0.49784920  0.42561918  1
  H  H123  1  0.42561918  0.89427850  0.49784920  1
  H  H124  1  0.68225312  0.49784920  0.89427850  1
  H  H125  1  0.68225312  0.89427850  0.42561918  1
  H  H126  1  0.89427850  0.68225312  0.49784920  1
  H  H127  1  0.81774688  0.00215080  0.07438082  1
  H  H128  1  0.07438082  0.81774688  0.00215080  1
  H  H129  1  0.60572150  0.00215080  0.81774688  1
  H  H130  1  0.07438082  0.60572150  0.81774688  1
  H  H131  1  0.60572150  0.07438082  0.00215080  1
  H  H132  1  0.81774688  0.07438082  0.60572150  1
  H  H133  1  0.00215080  0.81774688  0.60572150  1
  H  H134  1  0.00215080  0.60572150  0.07438082  1
  H  H135  1  0.89427850  0.42561918  0.68225312  1
  H  H136  1  0.49784920  0.89427850  0.68225312  1
  H  H137  1  0.49784920  0.42561918  0.89427850  1
  H  H138  1  0.42561918  0.49784920  0.68225312  1
  H  H139  1  0.68225312  0.42561918  0.49784920  1
  H  H140  1  0.49784920  0.68225312  0.42561918  1
  H  H141  1  0.81774688  0.60572150  0.00215080  1
  H  H142  1  0.60572150  0.81774688  0.07438082  1
  H  H143  1  0.07438082  0.00215080  0.60572150  1
  N  N144  1  0.95274760  0.99195496  0.14317280  1
  N  N145  1  0.50804504  0.35682720  0.08787535  1
  N  N146  1  0.08787535  0.54725240  0.50804504  1
  N  N147  1  0.50804504  0.08787535  0.54725240  1
  N  N148  1  0.35682720  0.54725240  0.08787535  1
  N  N149  1  0.35682720  0.08787535  0.50804504  1
  N  N150  1  0.08787535  0.35682720  0.54725240  1
  N  N151  1  0.14317280  0.95274760  0.99195496  1
  N  N152  1  0.99195496  0.14317280  0.95274760  1
  N  N153  1  0.41212465  0.95274760  0.14317280  1
  N  N154  1  0.99195496  0.41212465  0.14317280  1
  N  N155  1  0.41212465  0.99195496  0.95274760  1
  N  N156  1  0.14317280  0.99195496  0.41212465  1
  N  N157  1  0.95274760  0.14317280  0.41212465  1
  N  N158  1  0.95274760  0.41212465  0.99195496  1
  N  N159  1  0.08787535  0.50804504  0.35682720  1
  N  N160  1  0.54725240  0.08787535  0.35682720  1
  N  N161  1  0.54725240  0.50804504  0.08787535  1
  N  N162  1  0.50804504  0.54725240  0.35682720  1
  N  N163  1  0.35682720  0.50804504  0.54725240  1
  N  N164  1  0.54725240  0.35682720  0.50804504  1
  N  N165  1  0.14317280  0.41212465  0.95274760  1
  N  N166  1  0.41212465  0.14317280  0.99195496  1
  N  N167  1  0.99195496  0.95274760  0.41212465  1
  N  N168  1  0.04725240  0.00804504  0.85682720  1
  N  N169  1  0.49195496  0.64317280  0.91212465  1
  N  N170  1  0.91212465  0.45274760  0.49195496  1
  N  N171  1  0.49195496  0.91212465  0.45274760  1
  N  N172  1  0.64317280  0.45274760  0.91212465  1
  N  N173  1  0.64317280  0.91212465  0.49195496  1
  N  N174  1  0.91212465  0.64317280  0.45274760  1
  N  N175  1  0.85682720  0.04725240  0.00804504  1
  N  N176  1  0.00804504  0.85682720  0.04725240  1
  N  N177  1  0.58787535  0.04725240  0.85682720  1
  N  N178  1  0.00804504  0.58787535  0.85682720  1
  N  N179  1  0.58787535  0.00804504  0.04725240  1
  N  N180  1  0.85682720  0.00804504  0.58787535  1
  N  N181  1  0.04725240  0.85682720  0.58787535  1
  N  N182  1  0.04725240  0.58787535  0.00804504  1
  N  N183  1  0.91212465  0.49195496  0.64317280  1
  N  N184  1  0.45274760  0.91212465  0.64317280  1
  N  N185  1  0.45274760  0.49195496  0.91212465  1
  N  N186  1  0.49195496  0.45274760  0.64317280  1
  N  N187  1  0.64317280  0.49195496  0.45274760  1
  N  N188  1  0.45274760  0.64317280  0.49195496  1
  N  N189  1  0.85682720  0.58787535  0.04725240  1
  N  N190  1  0.58787535  0.85682720  0.00804504  1
  N  N191  1  0.00804504  0.04725240  0.58787535  1
  Cl  Cl192  1  0.18528407  0.18528407  0.18528407  1
  Cl  Cl193  1  0.31471593  0.31471593  0.55585221  1
  Cl  Cl194  1  0.55585221  0.31471593  0.31471593  1
  Cl  Cl195  1  0.31471593  0.55585221  0.31471593  1
  Cl  Cl196  1  0.94414779  0.18528407  0.18528407  1
  Cl  Cl197  1  0.18528407  0.94414779  0.18528407  1
  Cl  Cl198  1  0.18528407  0.18528407  0.94414779  1
  Cl  Cl199  1  0.31471593  0.31471593  0.31471593  1
  Cl  Cl200  1  0.81471593  0.81471593  0.81471593  1
  Cl  Cl201  1  0.68528407  0.68528407  0.44414779  1
  Cl  Cl202  1  0.44414779  0.68528407  0.68528407  1
  Cl  Cl203  1  0.68528407  0.44414779  0.68528407  1
  Cl  Cl204  1  0.05585221  0.81471593  0.81471593  1
  Cl  Cl205  1  0.81471593  0.05585221  0.81471593  1
  Cl  Cl206  1  0.81471593  0.81471593  0.05585221  1
  Cl  Cl207  1  0.68528407  0.68528407  0.68528407  1
  Cl  Cl208  1  0.75000000  0.08514587  0.41485413  1
  Cl  Cl209  1  0.41485413  0.08514587  0.25000000  1
  Cl  Cl210  1  0.25000000  0.75000000  0.41485413  1
  Cl  Cl211  1  0.41485413  0.25000000  0.75000000  1
  Cl  Cl212  1  0.08514587  0.75000000  0.25000000  1
  Cl  Cl213  1  0.08514587  0.25000000  0.41485413  1
  Cl  Cl214  1  0.25000000  0.08514587  0.75000000  1
  Cl  Cl215  1  0.41485413  0.75000000  0.08514587  1
  Cl  Cl216  1  0.08514587  0.41485413  0.75000000  1
  Cl  Cl217  1  0.75000000  0.41485413  0.25000000  1
  Cl  Cl218  1  0.75000000  0.25000000  0.08514587  1
  Cl  Cl219  1  0.25000000  0.41485413  0.08514587  1
  Cl  Cl220  1  0.25000000  0.91485413  0.58514587  1
  Cl  Cl221  1  0.58514587  0.91485413  0.75000000  1
  Cl  Cl222  1  0.75000000  0.25000000  0.58514587  1
  Cl  Cl223  1  0.58514587  0.75000000  0.25000000  1
  Cl  Cl224  1  0.91485413  0.25000000  0.75000000  1
  Cl  Cl225  1  0.91485413  0.75000000  0.58514587  1
  Cl  Cl226  1  0.75000000  0.91485413  0.25000000  1
  Cl  Cl227  1  0.58514587  0.25000000  0.91485413  1
  Cl  Cl228  1  0.91485413  0.58514587  0.25000000  1
  Cl  Cl229  1  0.25000000  0.58514587  0.75000000  1
  Cl  Cl230  1  0.25000000  0.75000000  0.91485413  1
  Cl  Cl231  1  0.75000000  0.58514587  0.91485413  1
  Co  Co232  1  0.00000000  0.00000000  0.00000000  1
  Co  Co233  1  0.50000000  0.50000000  0.00000000  1
  Co  Co234  1  0.00000000  0.50000000  0.50000000  1
  Co  Co235  1  0.50000000  0.00000000  0.50000000  1
  Co  Co236  1  0.50000000  0.00000000  0.00000000  1
  Co  Co237  1  0.00000000  0.50000000  0.00000000  1
  Co  Co238  1  0.00000000  0.00000000  0.50000000  1
  Co  Co239  1  0.50000000  0.50000000  0.50000000  1
  Cd  Cd240  1  0.25000000  0.25000000  0.25000000  1
  Cd  Cd241  1  0.25000000  0.25000000  0.75000000  1
  Cd  Cd242  1  0.75000000  0.25000000  0.25000000  1
  Cd  Cd243  1  0.25000000  0.75000000  0.25000000  1
  Cd  Cd244  1  0.75000000  0.75000000  0.75000000  1
  Cd  Cd245  1  0.75000000  0.75000000  0.25000000  1
  Cd  Cd246  1  0.25000000  0.75000000  0.75000000  1
  Cd  Cd247  1  0.75000000  0.25000000  0.75000000  1
