# generated using pymatgen
data_Na5InTe4
_symmetry_space_group_name_H-M   'P 1'
_cell_length_a   7.49257900
_cell_length_b   17.79727900
_cell_length_c   20.43844800
_cell_angle_alpha   90.00000000
_cell_angle_beta   90.00000000
_cell_angle_gamma   90.00000000
_symmetry_Int_Tables_number   1
_chemical_formula_structural   Na5InTe4
_chemical_formula_sum   'Na40 In8 Te32'
_cell_volume   2725.41633081
_cell_formula_units_Z   8
loop_
 _symmetry_equiv_pos_site_id
 _symmetry_equiv_pos_as_xyz
  1  'x, y, z'
loop_
 _atom_site_type_symbol
 _atom_site_label
 _atom_site_symmetry_multiplicity
 _atom_site_fract_x
 _atom_site_fract_y
 _atom_site_fract_z
 _atom_site_occupancy
  Na  Na0  1  0.67487200  0.33115700  0.00326200  1
  Na  Na1  1  0.00000000  0.75000000  0.12752000  1
  Na  Na2  1  0.83461400  0.08563800  0.61761600  1
  Na  Na3  1  0.97722300  0.99184600  0.23473400  1
  Na  Na4  1  0.32657800  0.67682100  0.25747600  1
  Na  Na5  1  0.32512800  0.16884300  0.00326200  1
  Na  Na6  1  0.67487200  0.83115700  0.99673800  1
  Na  Na7  1  0.66538600  0.08563800  0.11761600  1
  Na  Na8  1  0.17487200  0.66884300  0.49673800  1
  Na  Na9  1  0.17342200  0.67682100  0.75747600  1
  Na  Na10  1  0.16538600  0.41436200  0.61761600  1
  Na  Na11  1  0.17342200  0.17682100  0.24252400  1
  Na  Na12  1  0.50000000  0.75000000  0.62752000  1
  Na  Na13  1  0.16538600  0.91436200  0.38238400  1
  Na  Na14  1  0.32657800  0.17682100  0.74252400  1
  Na  Na15  1  0.83461400  0.58563800  0.38238400  1
  Na  Na16  1  0.33461400  0.41436200  0.11761600  1
  Na  Na17  1  0.02277700  0.00815400  0.76526600  1
  Na  Na18  1  0.52277700  0.99184600  0.73473400  1
  Na  Na19  1  0.52277700  0.49184600  0.26526600  1
  Na  Na20  1  0.66538600  0.58563800  0.88238400  1
  Na  Na21  1  0.47722300  0.00815400  0.26526600  1
  Na  Na22  1  0.00000000  0.25000000  0.87248000  1
  Na  Na23  1  0.82512800  0.33115700  0.50326200  1
  Na  Na24  1  0.02277700  0.50815400  0.23473400  1
  Na  Na25  1  0.50000000  0.00000000  0.50000000  1
  Na  Na26  1  0.32512800  0.66884300  0.99673800  1
  Na  Na27  1  0.97722300  0.49184600  0.76526600  1
  Na  Na28  1  0.33461400  0.91436200  0.88238400  1
  Na  Na29  1  0.67342200  0.32317900  0.74252400  1
  Na  Na30  1  0.82512800  0.83115700  0.49673800  1
  Na  Na31  1  0.67342200  0.82317900  0.25747600  1
  Na  Na32  1  0.82657800  0.82317900  0.75747600  1
  Na  Na33  1  0.00000000  0.00000000  0.00000000  1
  Na  Na34  1  0.50000000  0.25000000  0.37248000  1
  Na  Na35  1  0.82657800  0.32317900  0.24252400  1
  Na  Na36  1  0.17487200  0.16884300  0.50326200  1
  Na  Na37  1  0.50000000  0.50000000  0.50000000  1
  Na  Na38  1  0.47722300  0.50815400  0.73473400  1
  Na  Na39  1  0.00000000  0.50000000  0.00000000  1
  In  In40  1  0.63706100  0.08809500  0.87863400  1
  In  In41  1  0.86293900  0.08809500  0.37863400  1
  In  In42  1  0.13706100  0.91190500  0.62136600  1
  In  In43  1  0.13706100  0.41190500  0.37863400  1
  In  In44  1  0.36293900  0.91190500  0.12136600  1
  In  In45  1  0.86293900  0.58809500  0.62136600  1
  In  In46  1  0.36293900  0.41190500  0.87863400  1
  In  In47  1  0.63706100  0.58809500  0.12136600  1
  Te  Te48  1  0.26096000  0.34675300  0.25896700  1
  Te  Te49  1  0.77522800  0.66145200  0.01126200  1
  Te  Te50  1  0.22477200  0.83854800  0.01126200  1
  Te  Te51  1  0.24004700  0.56422100  0.87458700  1
  Te  Te52  1  0.75995300  0.93577900  0.87458700  1
  Te  Te53  1  0.23904000  0.84675300  0.24103300  1
  Te  Te54  1  0.72477200  0.66145200  0.51126200  1
  Te  Te55  1  0.75886100  0.91331600  0.62757300  1
  Te  Te56  1  0.74004700  0.43577900  0.62541300  1
  Te  Te57  1  0.75886100  0.41331600  0.37242700  1
  Te  Te58  1  0.24004700  0.06422100  0.12541300  1
  Te  Te59  1  0.76096000  0.65324700  0.24103300  1
  Te  Te60  1  0.73904000  0.65324700  0.74103300  1
  Te  Te61  1  0.23904000  0.34675300  0.75896700  1
  Te  Te62  1  0.75995300  0.43577900  0.12541300  1
  Te  Te63  1  0.74004700  0.93577900  0.37458700  1
  Te  Te64  1  0.27522800  0.83854800  0.51126200  1
  Te  Te65  1  0.25886100  0.58668400  0.12757300  1
  Te  Te66  1  0.25995300  0.06422100  0.62541300  1
  Te  Te67  1  0.25995300  0.56422100  0.37458700  1
  Te  Te68  1  0.77522800  0.16145200  0.98873800  1
  Te  Te69  1  0.25886100  0.08668400  0.87242700  1
  Te  Te70  1  0.72477200  0.16145200  0.48873800  1
  Te  Te71  1  0.73904000  0.15324700  0.25896700  1
  Te  Te72  1  0.24113900  0.58668400  0.62757300  1
  Te  Te73  1  0.24113900  0.08668400  0.37242700  1
  Te  Te74  1  0.26096000  0.84675300  0.74103300  1
  Te  Te75  1  0.76096000  0.15324700  0.75896700  1
  Te  Te76  1  0.74113900  0.91331600  0.12757300  1
  Te  Te77  1  0.22477200  0.33854800  0.98873800  1
  Te  Te78  1  0.74113900  0.41331600  0.87242700  1
  Te  Te79  1  0.27522800  0.33854800  0.48873800  1
