# generated using pymatgen
data_K4CdP2
_symmetry_space_group_name_H-M   'P 1'
_cell_length_a   9.69488143
_cell_length_b   9.69488143
_cell_length_c   9.69488129
_cell_angle_alpha   34.34649856
_cell_angle_beta   34.34649856
_cell_angle_gamma   34.34649639
_symmetry_Int_Tables_number   1
_chemical_formula_structural   K4CdP2
_chemical_formula_sum   'K4 Cd1 P2'
_cell_volume   258.70244478
_cell_formula_units_Z   1
loop_
 _symmetry_equiv_pos_site_id
 _symmetry_equiv_pos_as_xyz
  1  'x, y, z'
loop_
 _atom_site_type_symbol
 _atom_site_label
 _atom_site_symmetry_multiplicity
 _atom_site_fract_x
 _atom_site_fract_y
 _atom_site_fract_z
 _atom_site_occupancy
  K  K0  1  0.89263600  0.89263600  0.89263600  1
  K  K1  1  0.70788400  0.70788400  0.70788400  1
  K  K2  1  0.29211600  0.29211600  0.29211600  1
  K  K3  1  0.10736400  0.10736400  0.10736400  1
  Cd  Cd4  1  0.50000000  0.50000000  0.50000000  1
  P  P5  1  0.41138100  0.41138100  0.41138100  1
  P  P6  1  0.58861900  0.58861900  0.58861900  1
