# generated using pymatgen
data_Na3InSb2
_symmetry_space_group_name_H-M   'P 1'
_cell_length_a   8.03851800
_cell_length_b   10.46186200
_cell_length_c   16.83728461
_cell_angle_alpha   87.19671389
_cell_angle_beta   90.00000000
_cell_angle_gamma   90.00000000
_symmetry_Int_Tables_number   1
_chemical_formula_structural   Na3InSb2
_chemical_formula_sum   'Na24 In8 Sb16'
_cell_volume   1414.28524984
_cell_formula_units_Z   8
loop_
 _symmetry_equiv_pos_site_id
 _symmetry_equiv_pos_as_xyz
  1  'x, y, z'
loop_
 _atom_site_type_symbol
 _atom_site_label
 _atom_site_symmetry_multiplicity
 _atom_site_fract_x
 _atom_site_fract_y
 _atom_site_fract_z
 _atom_site_occupancy
  Na  Na0  1  0.15513200  0.87183800  0.70201000  1
  Na  Na1  1  0.65513200  0.12816200  0.79799000  1
  Na  Na2  1  0.84486800  0.12816200  0.29799000  1
  Na  Na3  1  0.34486800  0.87183800  0.20201000  1
  Na  Na4  1  0.49029100  0.56157600  0.10650900  1
  Na  Na5  1  0.99029100  0.43842400  0.39349100  1
  Na  Na6  1  0.50970900  0.43842400  0.89349100  1
  Na  Na7  1  0.00970900  0.56157600  0.60650900  1
  Na  Na8  1  0.97028200  0.18792400  0.64737400  1
  Na  Na9  1  0.47028200  0.81207600  0.85262600  1
  Na  Na10  1  0.02971800  0.81207600  0.35262600  1
  Na  Na11  1  0.52971800  0.18792400  0.14737400  1
  Na  Na12  1  0.84723100  0.38334600  0.04694800  1
  Na  Na13  1  0.34723100  0.61665400  0.45305200  1
  Na  Na14  1  0.15276900  0.61665400  0.95305200  1
  Na  Na15  1  0.65276900  0.38334600  0.54694800  1
  Na  Na16  1  0.96911700  0.92961600  0.89202500  1
  Na  Na17  1  0.46911700  0.07038400  0.60797500  1
  Na  Na18  1  0.03088300  0.07038400  0.10797500  1
  Na  Na19  1  0.53088300  0.92961600  0.39202500  1
  Na  Na20  1  0.01226100  0.32266000  0.86228500  1
  Na  Na21  1  0.51226100  0.67734000  0.63771500  1
  Na  Na22  1  0.98773900  0.67734000  0.13771500  1
  Na  Na23  1  0.48773900  0.32266000  0.36228600  1
  In  In24  1  0.85105900  0.63944900  0.79143400  1
  In  In25  1  0.35105900  0.36055100  0.70856600  1
  In  In26  1  0.14894100  0.36055100  0.20856600  1
  In  In27  1  0.64894100  0.63944900  0.29143400  1
  In  In28  1  0.86237400  0.87415700  0.54218300  1
  In  In29  1  0.36237400  0.12584300  0.95781700  1
  In  In30  1  0.13762600  0.12584300  0.45781700  1
  In  In31  1  0.63762600  0.87415700  0.04218300  1
  Sb  Sb32  1  0.76137800  0.64909700  0.96185900  1
  Sb  Sb33  1  0.26137800  0.35090300  0.53814100  1
  Sb  Sb34  1  0.23862200  0.35090300  0.03814100  1
  Sb  Sb35  1  0.73862200  0.64909700  0.46185900  1
  Sb  Sb36  1  0.75849500  0.87957500  0.70878600  1
  Sb  Sb37  1  0.25849500  0.12042500  0.79121400  1
  Sb  Sb38  1  0.24150500  0.12042500  0.29121400  1
  Sb  Sb39  1  0.74150500  0.87957500  0.20878600  1
  Sb  Sb40  1  0.78194200  0.40658000  0.22651100  1
  Sb  Sb41  1  0.28194200  0.59342000  0.27348900  1
  Sb  Sb42  1  0.21805800  0.59342000  0.77348900  1
  Sb  Sb43  1  0.71805800  0.40658000  0.72651100  1
  Sb  Sb44  1  0.27153300  0.87276800  0.02185600  1
  Sb  Sb45  1  0.77153300  0.12723200  0.47814400  1
  Sb  Sb46  1  0.72846700  0.12723200  0.97814400  1
  Sb  Sb47  1  0.22846700  0.87276800  0.52185600  1
