# generated using pymatgen
data_U(SiIr)2
_symmetry_space_group_name_H-M   'P 1'
_cell_length_a   4.10490700
_cell_length_b   4.10490700
_cell_length_c   9.90075300
_cell_angle_alpha   90.00000000
_cell_angle_beta   90.00000000
_cell_angle_gamma   90.00000000
_symmetry_Int_Tables_number   1
_chemical_formula_structural   U(SiIr)2
_chemical_formula_sum   'U2 Si4 Ir4'
_cell_volume   166.83027689
_cell_formula_units_Z   2
loop_
 _symmetry_equiv_pos_site_id
 _symmetry_equiv_pos_as_xyz
  1  'x, y, z'
loop_
 _atom_site_type_symbol
 _atom_site_label
 _atom_site_symmetry_multiplicity
 _atom_site_fract_x
 _atom_site_fract_y
 _atom_site_fract_z
 _atom_site_occupancy
  U  U0  1  0.00000000  0.50000000  0.25526800  1
  U  U1  1  0.50000000  0.00000000  0.74473200  1
  Si  Si2  1  0.00000000  0.50000000  0.86730800  1
  Si  Si3  1  0.50000000  0.00000000  0.13269200  1
  Si  Si4  1  0.50000000  0.50000000  0.50000000  1
  Si  Si5  1  0.00000000  0.00000000  0.50000000  1
  Ir  Ir6  1  0.50000000  0.00000000  0.37136500  1
  Ir  Ir7  1  0.00000000  0.50000000  0.62863500  1
  Ir  Ir8  1  0.50000000  0.50000000  0.00000000  1
  Ir  Ir9  1  0.00000000  0.00000000  0.00000000  1
