# generated using pymatgen
data_K3InP2
_symmetry_space_group_name_H-M   'P 1'
_cell_length_a   8.94718919
_cell_length_b   8.94718919
_cell_length_c   8.94718919
_cell_angle_alpha   134.74941436
_cell_angle_beta   128.96566139
_cell_angle_gamma   70.55742144
_symmetry_Int_Tables_number   1
_chemical_formula_structural   K3InP2
_chemical_formula_sum   'K6 In2 P4'
_cell_volume   387.59656383
_cell_formula_units_Z   2
loop_
 _symmetry_equiv_pos_site_id
 _symmetry_equiv_pos_as_xyz
  1  'x, y, z'
loop_
 _atom_site_type_symbol
 _atom_site_label
 _atom_site_symmetry_multiplicity
 _atom_site_fract_x
 _atom_site_fract_y
 _atom_site_fract_z
 _atom_site_occupancy
  K  K0  1  0.01656000  0.81558500  0.20097500  1
  K  K1  1  0.50000000  0.75000000  0.25000000  1
  K  K2  1  0.61461000  0.31558500  0.29902500  1
  K  K3  1  0.38539000  0.68441500  0.70097500  1
  K  K4  1  0.50000000  0.25000000  0.75000000  1
  K  K5  1  0.98344000  0.18441500  0.79902500  1
  In  In6  1  0.00000000  0.25000000  0.25000000  1
  In  In7  1  0.00000000  0.75000000  0.75000000  1
  P  P8  1  0.09270200  0.40288600  0.68981700  1
  P  P9  1  0.90729800  0.59711400  0.31018300  1
  P  P10  1  0.28693100  0.09711400  0.18981700  1
  P  P11  1  0.71306900  0.90288600  0.81018300  1
