# generated using pymatgen
data_BaZnCl4
_symmetry_space_group_name_H-M   'P 1'
_cell_length_a   7.31973200
_cell_length_b   9.73245500
_cell_length_c   10.14219700
_cell_angle_alpha   90.00000000
_cell_angle_beta   90.00000000
_cell_angle_gamma   90.00000000
_symmetry_Int_Tables_number   1
_chemical_formula_structural   BaZnCl4
_chemical_formula_sum   'Ba4 Zn4 Cl16'
_cell_volume   722.51958974
_cell_formula_units_Z   4
loop_
 _symmetry_equiv_pos_site_id
 _symmetry_equiv_pos_as_xyz
  1  'x, y, z'
loop_
 _atom_site_type_symbol
 _atom_site_label
 _atom_site_symmetry_multiplicity
 _atom_site_fract_x
 _atom_site_fract_y
 _atom_site_fract_z
 _atom_site_occupancy
  Ba  Ba0  1  0.31811500  0.75000000  0.75000000  1
  Ba  Ba1  1  0.18188500  0.75000000  0.25000000  1
  Ba  Ba2  1  0.68188500  0.25000000  0.25000000  1
  Ba  Ba3  1  0.81811500  0.25000000  0.75000000  1
  Zn  Zn4  1  0.25000000  0.17450300  0.00000000  1
  Zn  Zn5  1  0.25000000  0.32549700  0.50000000  1
  Zn  Zn6  1  0.75000000  0.82549700  0.00000000  1
  Zn  Zn7  1  0.75000000  0.67450300  0.50000000  1
  Cl  Cl8  1  0.50614400  0.19250600  0.53439500  1
  Cl  Cl9  1  0.50614400  0.30749400  0.96560500  1
  Cl  Cl10  1  0.99385600  0.19250600  0.46560500  1
  Cl  Cl11  1  0.99385600  0.30749400  0.03439500  1
  Cl  Cl12  1  0.49385600  0.80749400  0.46560500  1
  Cl  Cl13  1  0.49385600  0.69250600  0.03439500  1
  Cl  Cl14  1  0.00614400  0.80749400  0.53439500  1
  Cl  Cl15  1  0.00614400  0.69250600  0.96560500  1
  Cl  Cl16  1  0.83526100  0.55206100  0.31722100  1
  Cl  Cl17  1  0.83526100  0.94793900  0.18277900  1
  Cl  Cl18  1  0.66473900  0.55206100  0.68277900  1
  Cl  Cl19  1  0.66473900  0.94793900  0.81722100  1
  Cl  Cl20  1  0.16473900  0.44793900  0.68277900  1
  Cl  Cl21  1  0.16473900  0.05206100  0.81722100  1
  Cl  Cl22  1  0.33526100  0.44793900  0.31722100  1
  Cl  Cl23  1  0.33526100  0.05206100  0.18277900  1
