# generated using pymatgen
data_U3S5
_symmetry_space_group_name_H-M   'P 1'
_cell_length_a   7.30757700
_cell_length_b   7.82895600
_cell_length_c   11.56330700
_cell_angle_alpha   90.00000000
_cell_angle_beta   90.00000000
_cell_angle_gamma   90.00000000
_symmetry_Int_Tables_number   1
_chemical_formula_structural   U3S5
_chemical_formula_sum   'U12 S20'
_cell_volume   661.54487390
_cell_formula_units_Z   4
loop_
 _symmetry_equiv_pos_site_id
 _symmetry_equiv_pos_as_xyz
  1  'x, y, z'
loop_
 _atom_site_type_symbol
 _atom_site_label
 _atom_site_symmetry_multiplicity
 _atom_site_fract_x
 _atom_site_fract_y
 _atom_site_fract_z
 _atom_site_occupancy
  U  U0  1  0.92083700  0.75000000  0.49289600  1
  U  U1  1  0.42083700  0.25000000  0.00710400  1
  U  U2  1  0.07916300  0.25000000  0.50710400  1
  U  U3  1  0.57916300  0.75000000  0.99289600  1
  U  U4  1  0.47828100  0.99802300  0.32039500  1
  U  U5  1  0.97828100  0.00197700  0.17960500  1
  U  U6  1  0.52171900  0.49802300  0.67960500  1
  U  U7  1  0.02171900  0.50197700  0.82039500  1
  U  U8  1  0.52171900  0.00197700  0.67960500  1
  U  U9  1  0.02171900  0.99802300  0.82039500  1
  U  U10  1  0.47828100  0.50197700  0.32039500  1
  U  U11  1  0.97828100  0.49802300  0.17960500  1
  S  S12  1  0.17011200  0.75000000  0.31268800  1
  S  S13  1  0.67011200  0.25000000  0.18731200  1
  S  S14  1  0.82988800  0.25000000  0.68731200  1
  S  S15  1  0.32988800  0.75000000  0.81268800  1
  S  S16  1  0.53537900  0.75000000  0.49986600  1
  S  S17  1  0.03537900  0.25000000  0.00013400  1
  S  S18  1  0.46462100  0.25000000  0.50013400  1
  S  S19  1  0.96462100  0.75000000  0.99986600  1
  S  S20  1  0.79703700  0.75000000  0.71845600  1
  S  S21  1  0.29703700  0.25000000  0.78154400  1
  S  S22  1  0.20296300  0.25000000  0.28154400  1
  S  S23  1  0.70296300  0.75000000  0.21845600  1
  S  S24  1  0.16875100  0.54799800  0.59792300  1
  S  S25  1  0.66875100  0.45200200  0.90207700  1
  S  S26  1  0.83124900  0.04799800  0.40207700  1
  S  S27  1  0.33124900  0.95200200  0.09792300  1
  S  S28  1  0.83124900  0.45200200  0.40207700  1
  S  S29  1  0.33124900  0.54799800  0.09792300  1
  S  S30  1  0.16875100  0.95200200  0.59792300  1
  S  S31  1  0.66875100  0.04799800  0.90207700  1
