# generated using pymatgen
data_Na3InP2
_symmetry_space_group_name_H-M   'P 1'
_cell_length_a   7.40029700
_cell_length_b   9.48477700
_cell_length_c   15.44965475
_cell_angle_alpha   87.36641933
_cell_angle_beta   90.00000000
_cell_angle_gamma   90.00000000
_symmetry_Int_Tables_number   1
_chemical_formula_structural   Na3InP2
_chemical_formula_sum   'Na24 In8 P16'
_cell_volume   1083.26849798
_cell_formula_units_Z   8
loop_
 _symmetry_equiv_pos_site_id
 _symmetry_equiv_pos_as_xyz
  1  'x, y, z'
loop_
 _atom_site_type_symbol
 _atom_site_label
 _atom_site_symmetry_multiplicity
 _atom_site_fract_x
 _atom_site_fract_y
 _atom_site_fract_z
 _atom_site_occupancy
  Na  Na0  1  0.15202900  0.87589400  0.70351700  1
  Na  Na1  1  0.65202900  0.12410600  0.79648300  1
  Na  Na2  1  0.84797100  0.12410600  0.29648300  1
  Na  Na3  1  0.34797100  0.87589400  0.20351700  1
  Na  Na4  1  0.48910900  0.56006300  0.10433000  1
  Na  Na5  1  0.98910900  0.43993700  0.39567000  1
  Na  Na6  1  0.51089100  0.43993700  0.89567000  1
  Na  Na7  1  0.01089100  0.56006300  0.60433000  1
  Na  Na8  1  0.96554400  0.18827400  0.65049400  1
  Na  Na9  1  0.46554400  0.81172600  0.84950600  1
  Na  Na10  1  0.03445600  0.81172600  0.34950600  1
  Na  Na11  1  0.53445600  0.18827400  0.15049400  1
  Na  Na12  1  0.84705100  0.38290400  0.04629000  1
  Na  Na13  1  0.34705100  0.61709600  0.45371000  1
  Na  Na14  1  0.15294900  0.61709600  0.95371000  1
  Na  Na15  1  0.65294900  0.38290400  0.54629000  1
  Na  Na16  1  0.97671100  0.93463200  0.89461100  1
  Na  Na17  1  0.47671100  0.06536800  0.60538900  1
  Na  Na18  1  0.02328900  0.06536800  0.10538900  1
  Na  Na19  1  0.52328900  0.93463200  0.39461100  1
  Na  Na20  1  0.00425500  0.31979500  0.86325300  1
  Na  Na21  1  0.50425500  0.68020500  0.63674700  1
  Na  Na22  1  0.99574500  0.68020500  0.13674700  1
  Na  Na23  1  0.49574500  0.31979500  0.36325300  1
  In  In24  1  0.64139200  0.87372600  0.04095900  1
  In  In25  1  0.14139200  0.12627400  0.45904100  1
  In  In26  1  0.35860800  0.12627400  0.95904100  1
  In  In27  1  0.85860800  0.87372600  0.54095900  1
  In  In28  1  0.65563700  0.63652300  0.28962200  1
  In  In29  1  0.15563700  0.36347700  0.21037800  1
  In  In30  1  0.34436300  0.36347700  0.71037800  1
  In  In31  1  0.84436300  0.63652300  0.78962200  1
  P  P32  1  0.21808900  0.87353000  0.52313700  1
  P  P33  1  0.71808900  0.12647000  0.97686300  1
  P  P34  1  0.78191100  0.12647000  0.47686300  1
  P  P35  1  0.28191100  0.87353000  0.02313700  1
  P  P36  1  0.70507100  0.40704700  0.72607300  1
  P  P37  1  0.20507100  0.59295300  0.77392700  1
  P  P38  1  0.29492900  0.59295300  0.27392700  1
  P  P39  1  0.79492900  0.40704700  0.22607300  1
  P  P40  1  0.76276200  0.65244700  0.95813400  1
  P  P41  1  0.26276200  0.34755300  0.54186600  1
  P  P42  1  0.23723800  0.34755300  0.04186600  1
  P  P43  1  0.73723800  0.65244700  0.45813400  1
  P  P44  1  0.75933900  0.87488600  0.70575700  1
  P  P45  1  0.25933900  0.12511400  0.79424300  1
  P  P46  1  0.24066100  0.12511400  0.29424300  1
  P  P47  1  0.74066100  0.87488600  0.20575700  1
