# generated using pymatgen
data_Si12Ni31
_symmetry_space_group_name_H-M   'P 1'
_cell_length_a   6.64932357
_cell_length_b   6.64932357
_cell_length_c   12.27913600
_cell_angle_alpha   90.00000000
_cell_angle_beta   90.00000000
_cell_angle_gamma   119.99999567
_symmetry_Int_Tables_number   1
_chemical_formula_structural   Si12Ni31
_chemical_formula_sum   'Si12 Ni31'
_cell_volume   470.16835339
_cell_formula_units_Z   1
loop_
 _symmetry_equiv_pos_site_id
 _symmetry_equiv_pos_as_xyz
  1  'x, y, z'
loop_
 _atom_site_type_symbol
 _atom_site_label
 _atom_site_symmetry_multiplicity
 _atom_site_fract_x
 _atom_site_fract_y
 _atom_site_fract_z
 _atom_site_occupancy
  Si  Si0  1  0.00000000  0.00000000  0.70959400  1
  Si  Si1  1  0.00000000  0.00000000  0.29040600  1
  Si  Si2  1  0.66666700  0.33333300  0.72460300  1
  Si  Si3  1  0.33333300  0.66666700  0.27539700  1
  Si  Si4  1  0.66666700  0.33333300  0.22672100  1
  Si  Si5  1  0.33333300  0.66666700  0.77327900  1
  Si  Si6  1  0.68071900  0.00000000  0.00000000  1
  Si  Si7  1  0.31928100  0.31928100  0.00000000  1
  Si  Si8  1  0.00000000  0.68071900  0.00000000  1
  Si  Si9  1  0.35052400  0.00000000  0.50000000  1
  Si  Si10  1  0.64947600  0.64947600  0.50000000  1
  Si  Si11  1  0.00000000  0.35052400  0.50000000  1
  Ni  Ni12  1  0.00000000  0.00000000  0.50000000  1
  Ni  Ni13  1  0.00000000  0.00000000  0.90345900  1
  Ni  Ni14  1  0.00000000  0.00000000  0.09654100  1
  Ni  Ni15  1  0.66666700  0.33333300  0.92714900  1
  Ni  Ni16  1  0.33333300  0.66666700  0.07285100  1
  Ni  Ni17  1  0.66666700  0.33333300  0.43315400  1
  Ni  Ni18  1  0.33333300  0.66666700  0.56684600  1
  Ni  Ni19  1  0.33295900  0.92028400  0.90461500  1
  Ni  Ni20  1  0.58732400  0.66704100  0.90461500  1
  Ni  Ni21  1  0.07971600  0.41267600  0.90461500  1
  Ni  Ni22  1  0.66704100  0.58732400  0.09538500  1
  Ni  Ni23  1  0.92028400  0.33295900  0.09538500  1
  Ni  Ni24  1  0.41267600  0.07971600  0.09538500  1
  Ni  Ni25  1  0.70195500  0.03738500  0.80214400  1
  Ni  Ni26  1  0.33543000  0.29804500  0.80214400  1
  Ni  Ni27  1  0.96261500  0.66457000  0.80214400  1
  Ni  Ni28  1  0.29804500  0.33543000  0.19785600  1
  Ni  Ni29  1  0.03738500  0.70195500  0.19785600  1
  Ni  Ni30  1  0.66457000  0.96261500  0.19785600  1
  Ni  Ni31  1  0.32200300  0.96497900  0.69453100  1
  Ni  Ni32  1  0.64297600  0.67799700  0.69453100  1
  Ni  Ni33  1  0.03502100  0.35702400  0.69453100  1
  Ni  Ni34  1  0.67799700  0.64297600  0.30546900  1
  Ni  Ni35  1  0.96497900  0.32200300  0.30546900  1
  Ni  Ni36  1  0.35702400  0.03502100  0.30546900  1
  Ni  Ni37  1  0.69129000  0.06307700  0.59604900  1
  Ni  Ni38  1  0.37178600  0.30871000  0.59604900  1
  Ni  Ni39  1  0.93692300  0.62821400  0.59604900  1
  Ni  Ni40  1  0.30871000  0.37178600  0.40395100  1
  Ni  Ni41  1  0.06307700  0.69129000  0.40395100  1
  Ni  Ni42  1  0.62821400  0.93692300  0.40395100  1
