# generated using pymatgen
data_Ag2PdCl4
_symmetry_space_group_name_H-M   'P 1'
_cell_length_a   6.55283660
_cell_length_b   6.55283660
_cell_length_c   8.24756600
_cell_angle_alpha   90.00000000
_cell_angle_beta   90.00000000
_cell_angle_gamma   100.90586320
_symmetry_Int_Tables_number   1
_chemical_formula_structural   Ag2PdCl4
_chemical_formula_sum   'Ag4 Pd2 Cl8'
_cell_volume   347.75160533
_cell_formula_units_Z   2
loop_
 _symmetry_equiv_pos_site_id
 _symmetry_equiv_pos_as_xyz
  1  'x, y, z'
loop_
 _atom_site_type_symbol
 _atom_site_label
 _atom_site_symmetry_multiplicity
 _atom_site_fract_x
 _atom_site_fract_y
 _atom_site_fract_z
 _atom_site_occupancy
  Ag  Ag0  1  0.02880800  0.52880800  0.75000000  1
  Ag  Ag1  1  0.47119200  0.97119200  0.25000000  1
  Ag  Ag2  1  0.52880800  0.02880800  0.75000000  1
  Ag  Ag3  1  0.97119200  0.47119200  0.25000000  1
  Pd  Pd4  1  0.00000000  0.00000000  0.00000000  1
  Pd  Pd5  1  0.50000000  0.50000000  0.50000000  1
  Cl  Cl6  1  0.19269300  0.19269300  0.79469800  1
  Cl  Cl7  1  0.30730700  0.30730700  0.29469800  1
  Cl  Cl8  1  0.69269300  0.69269300  0.70530200  1
  Cl  Cl9  1  0.80730700  0.80730700  0.20530200  1
  Cl  Cl10  1  0.73023100  0.26976900  0.50000000  1
  Cl  Cl11  1  0.76976900  0.23023100  0.00000000  1
  Cl  Cl12  1  0.23023100  0.76976900  0.00000000  1
  Cl  Cl13  1  0.26976900  0.73023100  0.50000000  1
