# generated using pymatgen
data_CdAs2HF13
_symmetry_space_group_name_H-M   'P 1'
_cell_length_a   9.55856900
_cell_length_b   9.63407700
_cell_length_c   10.79596958
_cell_angle_alpha   75.44707233
_cell_angle_beta   90.00000000
_cell_angle_gamma   90.00000000
_symmetry_Int_Tables_number   1
_chemical_formula_structural   CdAs2HF13
_chemical_formula_sum   'Cd4 As8 H4 F52'
_cell_volume   962.28182896
_cell_formula_units_Z   4
loop_
 _symmetry_equiv_pos_site_id
 _symmetry_equiv_pos_as_xyz
  1  'x, y, z'
loop_
 _atom_site_type_symbol
 _atom_site_label
 _atom_site_symmetry_multiplicity
 _atom_site_fract_x
 _atom_site_fract_y
 _atom_site_fract_z
 _atom_site_occupancy
  Cd  Cd0  1  0.17110900  0.24924700  0.48605600  1
  Cd  Cd1  1  0.67110900  0.75075300  0.01394400  1
  Cd  Cd2  1  0.82889100  0.75075300  0.51394400  1
  Cd  Cd3  1  0.32889100  0.24924700  0.98605600  1
  As  As4  1  0.86154400  0.00699500  0.69832400  1
  As  As5  1  0.36154400  0.99300500  0.80167600  1
  As  As6  1  0.13845600  0.99300500  0.30167600  1
  As  As7  1  0.63845600  0.00699500  0.19832400  1
  As  As8  1  0.16009800  0.50954200  0.67980500  1
  As  As9  1  0.66009800  0.49045800  0.82019500  1
  As  As10  1  0.83990200  0.49045800  0.32019500  1
  As  As11  1  0.33990200  0.50954200  0.17980500  1
  H  H12  1  0.47647300  0.20936400  0.41454900  1
  H  H13  1  0.97647300  0.79063600  0.08545100  1
  H  H14  1  0.52352700  0.79063600  0.58545100  1
  H  H15  1  0.02352700  0.20936400  0.91454900  1
  F  F16  1  0.95732700  0.04755500  0.82327300  1
  F  F17  1  0.45732700  0.95244500  0.67672700  1
  F  F18  1  0.04267300  0.95244500  0.17672700  1
  F  F19  1  0.54267300  0.04755500  0.32327300  1
  F  F20  1  0.75111400  0.15213500  0.68379700  1
  F  F21  1  0.25111400  0.84786500  0.81620300  1
  F  F22  1  0.24888600  0.84786500  0.31620300  1
  F  F23  1  0.74888600  0.15213500  0.18379700  1
  F  F24  1  0.76525200  0.95915800  0.56896900  1
  F  F25  1  0.26525200  0.04084200  0.93103100  1
  F  F26  1  0.23474800  0.04084200  0.43103100  1
  F  F27  1  0.73474800  0.95915800  0.06896900  1
  F  F28  1  0.96464100  0.85457500  0.70024800  1
  F  F29  1  0.46464100  0.14542500  0.79975200  1
  F  F30  1  0.03535900  0.14542500  0.29975200  1
  F  F31  1  0.53535900  0.85457500  0.20024800  1
  F  F32  1  0.74360800  0.89387200  0.80964700  1
  F  F33  1  0.24360800  0.10612800  0.69035300  1
  F  F34  1  0.25639200  0.10612800  0.19035300  1
  F  F35  1  0.75639200  0.89387200  0.30964700  1
  F  F36  1  0.97710200  0.11164600  0.57939300  1
  F  F37  1  0.47710200  0.88835400  0.92060700  1
  F  F38  1  0.02289800  0.88835400  0.42060700  1
  F  F39  1  0.52289800  0.11164600  0.07939300  1
  F  F40  1  0.08486800  0.55975600  0.80769100  1
  F  F41  1  0.58486800  0.44024400  0.69230900  1
  F  F42  1  0.91513200  0.44024400  0.19230900  1
  F  F43  1  0.41513200  0.55975600  0.30769100  1
  F  F44  1  0.27741600  0.65152100  0.64602800  1
  F  F45  1  0.77741600  0.34847900  0.85397200  1
  F  F46  1  0.72258400  0.34847900  0.35397200  1
  F  F47  1  0.22258400  0.65152100  0.14602800  1
  F  F48  1  0.23768200  0.44922100  0.54788500  1
  F  F49  1  0.73768200  0.55077900  0.95211500  1
  F  F50  1  0.76231800  0.55077900  0.45211500  1
  F  F51  1  0.26231800  0.44922100  0.04788500  1
  F  F52  1  0.05041100  0.35710500  0.70055300  1
  F  F53  1  0.55041100  0.64289500  0.79944700  1
  F  F54  1  0.94958900  0.64289500  0.29944700  1
  F  F55  1  0.44958900  0.35710500  0.20055300  1
  F  F56  1  0.03636200  0.61211700  0.56815700  1
  F  F57  1  0.53636200  0.38788300  0.93184300  1
  F  F58  1  0.96363800  0.38788300  0.43184300  1
  F  F59  1  0.46363800  0.61211700  0.06815700  1
  F  F60  1  0.28727600  0.39808300  0.78352400  1
  F  F61  1  0.78727600  0.60191700  0.71647600  1
  F  F62  1  0.71272400  0.60191700  0.21647600  1
  F  F63  1  0.21272400  0.39808300  0.28352400  1
  F  F64  1  0.42551900  0.24258300  0.47712800  1
  F  F65  1  0.92551900  0.75741700  0.02287200  1
  F  F66  1  0.57448100  0.75741700  0.52287200  1
  F  F67  1  0.07448100  0.24258300  0.97712800  1
