# generated using pymatgen
data_BiI3
_symmetry_space_group_name_H-M   'P 1'
_cell_length_a   8.92633861
_cell_length_b   8.92633861
_cell_length_c   8.92633880
_cell_angle_alpha   52.06330062
_cell_angle_beta   52.06330062
_cell_angle_gamma   52.06330652
_symmetry_Int_Tables_number   1
_chemical_formula_structural   BiI3
_chemical_formula_sum   'Bi2 I6'
_cell_volume   409.09928560
_cell_formula_units_Z   2
loop_
 _symmetry_equiv_pos_site_id
 _symmetry_equiv_pos_as_xyz
  1  'x, y, z'
loop_
 _atom_site_type_symbol
 _atom_site_label
 _atom_site_symmetry_multiplicity
 _atom_site_fract_x
 _atom_site_fract_y
 _atom_site_fract_z
 _atom_site_occupancy
  Bi  Bi0  1  0.33324100  0.33324100  0.33324100  1
  Bi  Bi1  1  0.66675900  0.66675900  0.66675900  1
  I  I2  1  0.72503500  0.43556500  0.07632700  1
  I  I3  1  0.43556500  0.07632700  0.72503500  1
  I  I4  1  0.92367300  0.27496500  0.56443500  1
  I  I5  1  0.56443500  0.92367300  0.27496500  1
  I  I6  1  0.27496500  0.56443500  0.92367300  1
  I  I7  1  0.07632700  0.72503500  0.43556500  1
