# generated using pymatgen
data_V2Ni2O7
_symmetry_space_group_name_H-M   'P 1'
_cell_length_a   8.42605500
_cell_length_b   6.63181000
_cell_length_c   9.51050316
_cell_angle_alpha   79.90685234
_cell_angle_beta   90.00000000
_cell_angle_gamma   90.00000000
_symmetry_Int_Tables_number   1
_chemical_formula_structural   V2Ni2O7
_chemical_formula_sum   'V8 Ni8 O28'
_cell_volume   523.22228236
_cell_formula_units_Z   4
loop_
 _symmetry_equiv_pos_site_id
 _symmetry_equiv_pos_as_xyz
  1  'x, y, z'
loop_
 _atom_site_type_symbol
 _atom_site_label
 _atom_site_symmetry_multiplicity
 _atom_site_fract_x
 _atom_site_fract_y
 _atom_site_fract_z
 _atom_site_occupancy
  V  V0  1  0.51936500  0.80496900  0.31189900  1
  V  V1  1  0.01936500  0.19503100  0.18810100  1
  V  V2  1  0.48063500  0.19503100  0.68810100  1
  V  V3  1  0.98063500  0.80496900  0.81189900  1
  V  V4  1  0.25973000  0.63749000  0.03127800  1
  V  V5  1  0.75973000  0.36251000  0.46872200  1
  V  V6  1  0.74027000  0.36251000  0.96872200  1
  V  V7  1  0.24027000  0.63749000  0.53127800  1
  Ni  Ni8  1  0.88717600  0.69706200  0.17856500  1
  Ni  Ni9  1  0.38717600  0.30293800  0.32143500  1
  Ni  Ni10  1  0.11282400  0.30293800  0.82143500  1
  Ni  Ni11  1  0.61282400  0.69706200  0.67856500  1
  Ni  Ni12  1  0.62112400  0.85370500  0.96256800  1
  Ni  Ni13  1  0.12112400  0.14629500  0.53743200  1
  Ni  Ni14  1  0.37887600  0.14629500  0.03743200  1
  Ni  Ni15  1  0.87887600  0.85370500  0.46256800  1
  O  O16  1  0.88029600  0.14649000  0.50531500  1
  O  O17  1  0.38029600  0.85351000  0.99468500  1
  O  O18  1  0.11970400  0.85351000  0.49468500  1
  O  O19  1  0.61970400  0.14649000  0.00531500  1
  O  O20  1  0.58271800  0.97059900  0.74776400  1
  O  O21  1  0.08271800  0.02940100  0.75223600  1
  O  O22  1  0.41728200  0.02940100  0.25223600  1
  O  O23  1  0.91728200  0.97059900  0.24776400  1
  O  O24  1  0.87601700  0.32078400  0.84891600  1
  O  O25  1  0.37601700  0.67921600  0.65108400  1
  O  O26  1  0.12398300  0.67921600  0.15108400  1
  O  O27  1  0.62398300  0.32078400  0.34891600  1
  O  O28  1  0.85713900  0.74515900  0.67972200  1
  O  O29  1  0.35713900  0.25484100  0.82027800  1
  O  O30  1  0.14286100  0.25484100  0.32027800  1
  O  O31  1  0.64286100  0.74515900  0.17972200  1
  O  O32  1  0.86849800  0.39580600  0.12458200  1
  O  O33  1  0.36849800  0.60419400  0.37541800  1
  O  O34  1  0.13150200  0.60419400  0.87541800  1
  O  O35  1  0.63150200  0.39580600  0.62458200  1
  O  O36  1  0.87382700  0.57395800  0.39374800  1
  O  O37  1  0.37382700  0.42604200  0.10625200  1
  O  O38  1  0.12617300  0.42604200  0.60625200  1
  O  O39  1  0.62617300  0.57395800  0.89374800  1
  O  O40  1  0.63193900  0.82938900  0.45925300  1
  O  O41  1  0.13193900  0.17061100  0.04074700  1
  O  O42  1  0.36806100  0.17061100  0.54074700  1
  O  O43  1  0.86806100  0.82938900  0.95925300  1
