# generated using pymatgen
data_Tb3(MnC3)2
_symmetry_space_group_name_H-M   'P 1'
_cell_length_a   8.12064177
_cell_length_b   8.12064177
_cell_length_c   4.99825300
_cell_angle_alpha   90.00000000
_cell_angle_beta   90.00000000
_cell_angle_gamma   119.99999812
_symmetry_Int_Tables_number   1
_chemical_formula_structural   Tb3(MnC3)2
_chemical_formula_sum   'Tb6 Mn4 C12'
_cell_volume   285.44969313
_cell_formula_units_Z   2
loop_
 _symmetry_equiv_pos_site_id
 _symmetry_equiv_pos_as_xyz
  1  'x, y, z'
loop_
 _atom_site_type_symbol
 _atom_site_label
 _atom_site_symmetry_multiplicity
 _atom_site_fract_x
 _atom_site_fract_y
 _atom_site_fract_z
 _atom_site_occupancy
  Tb  Tb0  1  0.62050600  0.68497900  0.75000000  1
  Tb  Tb1  1  0.93552700  0.62050600  0.25000000  1
  Tb  Tb2  1  0.68497900  0.06447300  0.25000000  1
  Tb  Tb3  1  0.31502100  0.93552700  0.75000000  1
  Tb  Tb4  1  0.06447300  0.37949400  0.75000000  1
  Tb  Tb5  1  0.37949400  0.31502100  0.25000000  1
  Mn  Mn6  1  0.00000000  0.00000000  0.50000000  1
  Mn  Mn7  1  0.00000000  0.00000000  0.00000000  1
  Mn  Mn8  1  0.66666700  0.33333300  0.75000000  1
  Mn  Mn9  1  0.33333300  0.66666700  0.25000000  1
  C  C10  1  0.96403700  0.77295700  0.75000000  1
  C  C11  1  0.19108100  0.96403700  0.25000000  1
  C  C12  1  0.77295700  0.80891900  0.25000000  1
  C  C13  1  0.22704300  0.19108100  0.75000000  1
  C  C14  1  0.80891900  0.03596300  0.75000000  1
  C  C15  1  0.03596300  0.22704300  0.25000000  1
  C  C16  1  0.86430000  0.57871500  0.75000000  1
  C  C17  1  0.28558500  0.86430000  0.25000000  1
  C  C18  1  0.57871500  0.71441500  0.25000000  1
  C  C19  1  0.42128500  0.28558500  0.75000000  1
  C  C20  1  0.13570000  0.42128500  0.25000000  1
  C  C21  1  0.71441500  0.13570000  0.75000000  1
