# generated using pymatgen
data_Ta2Bi4O11
_symmetry_space_group_name_H-M   'P 1'
_cell_length_a   6.65870100
_cell_length_b   7.73185072
_cell_length_c   10.05372972
_cell_angle_alpha   101.03008950
_cell_angle_beta   90.38265365
_cell_angle_gamma   89.95195865
_symmetry_Int_Tables_number   1
_chemical_formula_structural   Ta2Bi4O11
_chemical_formula_sum   'Ta4 Bi8 O22'
_cell_volume   508.03382902
_cell_formula_units_Z   2
loop_
 _symmetry_equiv_pos_site_id
 _symmetry_equiv_pos_as_xyz
  1  'x, y, z'
loop_
 _atom_site_type_symbol
 _atom_site_label
 _atom_site_symmetry_multiplicity
 _atom_site_fract_x
 _atom_site_fract_y
 _atom_site_fract_z
 _atom_site_occupancy
  Ta  Ta0  1  0.91470000  0.70355300  0.81372900  1
  Ta  Ta1  1  0.08530000  0.29644700  0.18627100  1
  Ta  Ta2  1  0.91090800  0.20268700  0.80985800  1
  Ta  Ta3  1  0.08909200  0.79731300  0.19014200  1
  Bi  Bi4  1  0.76116400  0.37251900  0.47883500  1
  Bi  Bi5  1  0.23883600  0.62748100  0.52116500  1
  Bi  Bi6  1  0.75258500  0.87173000  0.47842100  1
  Bi  Bi7  1  0.24741500  0.12827000  0.52157900  1
  Bi  Bi8  1  0.43814800  0.95243200  0.81569900  1
  Bi  Bi9  1  0.56185200  0.04756800  0.18430100  1
  Bi  Bi10  1  0.38686400  0.45467800  0.82943600  1
  Bi  Bi11  1  0.61313600  0.54532200  0.17056400  1
  O  O12  1  0.21790300  0.72839300  0.76338100  1
  O  O13  1  0.78209700  0.27160700  0.23661900  1
  O  O14  1  0.63134500  0.66004800  0.83389900  1
  O  O15  1  0.36865500  0.33995200  0.16610100  1
  O  O16  1  0.63061200  0.25603400  0.84776500  1
  O  O17  1  0.36938800  0.74396600  0.15223500  1
  O  O18  1  0.88977600  0.16892800  0.60434200  1
  O  O19  1  0.11022400  0.83107200  0.39565800  1
  O  O20  1  0.21526200  0.14903300  0.76290700  1
  O  O21  1  0.78473800  0.85096700  0.23709300  1
  O  O22  1  0.90750500  0.63753100  0.60010300  1
  O  O23  1  0.09249500  0.36246900  0.39989700  1
  O  O24  1  0.02048400  0.54680700  0.18630800  1
  O  O25  1  0.97951600  0.45319300  0.81369200  1
  O  O26  1  0.99640900  0.78077900  0.00036400  1
  O  O27  1  0.00359100  0.21922100  0.99963600  1
  O  O28  1  0.58881700  0.60762100  0.38604900  1
  O  O29  1  0.41118300  0.39237900  0.61395100  1
  O  O30  1  0.15964400  0.05311500  0.21045200  1
  O  O31  1  0.84035600  0.94688500  0.78954800  1
  O  O32  1  0.54365600  0.09354700  0.39790300  1
  O  O33  1  0.45634400  0.90645300  0.60209700  1
