# generated using pymatgen
data_Ho2Mo4O15
_symmetry_space_group_name_H-M   'P 1'
_cell_length_a   9.68757700
_cell_length_b   6.92362200
_cell_length_c   10.76083637
_cell_angle_alpha   75.13119888
_cell_angle_beta   90.00000000
_cell_angle_gamma   90.00000000
_symmetry_Int_Tables_number   1
_chemical_formula_structural   Ho2Mo4O15
_chemical_formula_sum   'Ho4 Mo8 O30'
_cell_volume   697.59533896
_cell_formula_units_Z   2
loop_
 _symmetry_equiv_pos_site_id
 _symmetry_equiv_pos_as_xyz
  1  'x, y, z'
loop_
 _atom_site_type_symbol
 _atom_site_label
 _atom_site_symmetry_multiplicity
 _atom_site_fract_x
 _atom_site_fract_y
 _atom_site_fract_z
 _atom_site_occupancy
  Ho  Ho0  1  0.97681800  0.79290400  0.27468500  1
  Ho  Ho1  1  0.47681800  0.20709600  0.22531500  1
  Ho  Ho2  1  0.02318200  0.20709600  0.72531500  1
  Ho  Ho3  1  0.52318200  0.79290400  0.77468500  1
  Mo  Mo4  1  0.09450000  0.38225700  0.15639900  1
  Mo  Mo5  1  0.59450000  0.61774300  0.34360100  1
  Mo  Mo6  1  0.90550000  0.61774300  0.84360100  1
  Mo  Mo7  1  0.40550000  0.38225700  0.65639900  1
  Mo  Mo8  1  0.25725300  0.92068200  0.00962900  1
  Mo  Mo9  1  0.75725300  0.07931800  0.49037100  1
  Mo  Mo10  1  0.74274700  0.07931800  0.99037100  1
  Mo  Mo11  1  0.24274700  0.92068200  0.50962900  1
  O  O12  1  0.00000000  0.50000000  0.00000000  1
  O  O13  1  0.50000000  0.50000000  0.50000000  1
  O  O14  1  0.02714000  0.45696500  0.29060200  1
  O  O15  1  0.52714000  0.54303500  0.20939800  1
  O  O16  1  0.97286000  0.54303500  0.70939800  1
  O  O17  1  0.47286000  0.45696500  0.79060200  1
  O  O18  1  0.27736100  0.38488300  0.15075900  1
  O  O19  1  0.77736100  0.61511700  0.34924100  1
  O  O20  1  0.72263900  0.61511700  0.84924100  1
  O  O21  1  0.22263900  0.38488300  0.65075900  1
  O  O22  1  0.05158100  0.12533200  0.18612300  1
  O  O23  1  0.55158100  0.87466800  0.31387700  1
  O  O24  1  0.12653600  0.02945900  0.60071700  1
  O  O25  1  0.62653600  0.97054100  0.89928300  1
  O  O26  1  0.87346400  0.97054100  0.39928300  1
  O  O27  1  0.37346400  0.02945900  0.10071700  1
  O  O28  1  0.33453400  0.11569100  0.39864600  1
  O  O29  1  0.83453400  0.88430900  0.10135400  1
  O  O30  1  0.66546600  0.88430900  0.60135400  1
  O  O31  1  0.16546600  0.11569100  0.89864600  1
  O  O32  1  0.14952800  0.78121900  0.41804200  1
  O  O33  1  0.64952800  0.21878100  0.08195800  1
  O  O34  1  0.85047200  0.21878100  0.58195800  1
  O  O35  1  0.35047200  0.78121900  0.91804200  1
  O  O36  1  0.36371800  0.75968900  0.61749400  1
  O  O37  1  0.86371800  0.24031100  0.88250600  1
  O  O38  1  0.63628200  0.24031100  0.38250600  1
  O  O39  1  0.13628200  0.75968900  0.11749400  1
  O  O40  1  0.44841900  0.12533200  0.68612300  1
  O  O41  1  0.94841900  0.87466800  0.81387700  1
