# generated using pymatgen
data_V2Pb2O7
_symmetry_space_group_name_H-M   'P 1'
_cell_length_a   7.36218900
_cell_length_b   7.24462000
_cell_length_c   13.75794793
_cell_angle_alpha   72.66324321
_cell_angle_beta   90.00000000
_cell_angle_gamma   90.00000000
_symmetry_Int_Tables_number   1
_chemical_formula_structural   V2Pb2O7
_chemical_formula_sum   'V8 Pb8 O28'
_cell_volume   700.46096433
_cell_formula_units_Z   4
loop_
 _symmetry_equiv_pos_site_id
 _symmetry_equiv_pos_as_xyz
  1  'x, y, z'
loop_
 _atom_site_type_symbol
 _atom_site_label
 _atom_site_symmetry_multiplicity
 _atom_site_fract_x
 _atom_site_fract_y
 _atom_site_fract_z
 _atom_site_occupancy
  V  V0  1  0.17512600  0.61500000  0.58460400  1
  V  V1  1  0.67512600  0.38500000  0.91539600  1
  V  V2  1  0.82487400  0.38500000  0.41539600  1
  V  V3  1  0.32487400  0.61500000  0.08460400  1
  V  V4  1  0.43352500  0.79363200  0.38881300  1
  V  V5  1  0.93352500  0.20636800  0.11118700  1
  V  V6  1  0.56647500  0.20636800  0.61118700  1
  V  V7  1  0.06647500  0.79363200  0.88881300  1
  Pb  Pb8  1  0.33190800  0.32534300  0.34357600  1
  Pb  Pb9  1  0.83190800  0.67465700  0.15642400  1
  Pb  Pb10  1  0.66809200  0.67465700  0.65642400  1
  Pb  Pb11  1  0.16809200  0.32534300  0.84357600  1
  Pb  Pb12  1  0.10372700  0.04873700  0.63054500  1
  Pb  Pb13  1  0.60372700  0.95126300  0.86945500  1
  Pb  Pb14  1  0.89627300  0.95126300  0.36945500  1
  Pb  Pb15  1  0.39627300  0.04873700  0.13054500  1
  O  O16  1  0.40463800  0.39232800  0.15714000  1
  O  O17  1  0.90463800  0.60767200  0.34286000  1
  O  O18  1  0.59536200  0.60767200  0.84286000  1
  O  O19  1  0.09536200  0.39232800  0.65714000  1
  O  O20  1  0.67607700  0.28836800  0.34814300  1
  O  O21  1  0.17607700  0.71163200  0.15185700  1
  O  O22  1  0.32392300  0.71163200  0.65185700  1
  O  O23  1  0.82392300  0.28836800  0.84814300  1
  O  O24  1  0.00377700  0.21956300  0.45058200  1
  O  O25  1  0.50377700  0.78043700  0.04941800  1
  O  O26  1  0.99622300  0.78043700  0.54941800  1
  O  O27  1  0.49622300  0.21956300  0.95058200  1
  O  O28  1  0.79025300  0.39864800  0.03025200  1
  O  O29  1  0.29025300  0.60135200  0.46974800  1
  O  O30  1  0.20974700  0.60135200  0.96974800  1
  O  O31  1  0.70974700  0.39864800  0.53025200  1
  O  O32  1  0.38422000  0.15744600  0.54309500  1
  O  O33  1  0.88422000  0.84255400  0.95690500  1
  O  O34  1  0.61578000  0.84255400  0.45690500  1
  O  O35  1  0.11578000  0.15744600  0.04309500  1
  O  O36  1  0.19268600  0.00392100  0.83432100  1
  O  O37  1  0.69268600  0.99607900  0.66567900  1
  O  O38  1  0.80731400  0.99607900  0.16567900  1
  O  O39  1  0.30731400  0.00392100  0.33432100  1
  O  O40  1  0.49121300  0.28241500  0.70867000  1
  O  O41  1  0.99121300  0.71758500  0.79133000  1
  O  O42  1  0.50878700  0.71758500  0.29133000  1
  O  O43  1  0.00878700  0.28241500  0.20867000  1
