# generated using pymatgen
data_PbF3
_symmetry_space_group_name_H-M   'P 1'
_cell_length_a   5.37133200
_cell_length_b   5.37133200
_cell_length_c   9.24195800
_cell_angle_alpha   90.00000000
_cell_angle_beta   90.00000000
_cell_angle_gamma   90.00000000
_symmetry_Int_Tables_number   1
_chemical_formula_structural   PbF3
_chemical_formula_sum   'Pb4 F12'
_cell_volume   266.64164754
_cell_formula_units_Z   4
loop_
 _symmetry_equiv_pos_site_id
 _symmetry_equiv_pos_as_xyz
  1  'x, y, z'
loop_
 _atom_site_type_symbol
 _atom_site_label
 _atom_site_symmetry_multiplicity
 _atom_site_fract_x
 _atom_site_fract_y
 _atom_site_fract_z
 _atom_site_occupancy
  Pb  Pb0  1  0.50000000  0.50000000  0.25000000  1
  Pb  Pb1  1  0.50000000  0.50000000  0.75000000  1
  Pb  Pb2  1  0.00000000  0.00000000  0.50000000  1
  Pb  Pb3  1  0.00000000  0.00000000  0.00000000  1
  F  F4  1  0.20488200  0.79511800  0.34581800  1
  F  F5  1  0.79511800  0.20488200  0.34581800  1
  F  F6  1  0.79511800  0.79511800  0.15418200  1
  F  F7  1  0.20488200  0.20488200  0.15418200  1
  F  F8  1  0.27993000  0.72007000  0.00000000  1
  F  F9  1  0.72007000  0.72007000  0.50000000  1
  F  F10  1  0.27993000  0.27993000  0.50000000  1
  F  F11  1  0.72007000  0.27993000  0.00000000  1
  F  F12  1  0.20488200  0.20488200  0.84581800  1
  F  F13  1  0.20488200  0.79511800  0.65418200  1
  F  F14  1  0.79511800  0.20488200  0.65418200  1
  F  F15  1  0.79511800  0.79511800  0.84581800  1
