# generated using pymatgen
data_Bi4B2O9
_symmetry_space_group_name_H-M   'P 1'
_cell_length_a   6.65770600
_cell_length_b   11.21584200
_cell_length_c   11.27562331
_cell_angle_alpha   89.69351990
_cell_angle_beta   90.00000000
_cell_angle_gamma   90.00000000
_symmetry_Int_Tables_number   1
_chemical_formula_structural   Bi4B2O9
_chemical_formula_sum   'Bi16 B8 O36'
_cell_volume   841.95880183
_cell_formula_units_Z   4
loop_
 _symmetry_equiv_pos_site_id
 _symmetry_equiv_pos_as_xyz
  1  'x, y, z'
loop_
 _atom_site_type_symbol
 _atom_site_label
 _atom_site_symmetry_multiplicity
 _atom_site_fract_x
 _atom_site_fract_y
 _atom_site_fract_z
 _atom_site_occupancy
  Bi  Bi0  1  0.93753400  0.01983000  0.34416900  1
  Bi  Bi1  1  0.43753400  0.48017000  0.65583100  1
  Bi  Bi2  1  0.06246600  0.98017000  0.65583100  1
  Bi  Bi3  1  0.56246600  0.51983000  0.34416900  1
  Bi  Bi4  1  0.92404900  0.34088400  0.50281900  1
  Bi  Bi5  1  0.42404900  0.15911600  0.49718100  1
  Bi  Bi6  1  0.07595100  0.65911600  0.49718100  1
  Bi  Bi7  1  0.57595100  0.84088400  0.50281900  1
  Bi  Bi8  1  0.54806700  0.00973800  0.80397500  1
  Bi  Bi9  1  0.04806700  0.49026200  0.19602500  1
  Bi  Bi10  1  0.45193300  0.99026200  0.19602500  1
  Bi  Bi11  1  0.95193300  0.50973800  0.80397500  1
  Bi  Bi12  1  0.98243400  0.15270300  0.99153400  1
  Bi  Bi13  1  0.48243400  0.34729700  0.00846600  1
  Bi  Bi14  1  0.01756600  0.84729700  0.00846600  1
  Bi  Bi15  1  0.51756600  0.65270300  0.99153400  1
  B  B16  1  0.75475700  0.24458400  0.22395100  1
  B  B17  1  0.25475700  0.25541600  0.77604900  1
  B  B18  1  0.24524300  0.75541600  0.77604900  1
  B  B19  1  0.74524300  0.74458400  0.22395100  1
  B  B20  1  0.73638200  0.23385900  0.75166100  1
  B  B21  1  0.23638200  0.26614100  0.24833900  1
  B  B22  1  0.26361800  0.76614100  0.24833900  1
  B  B23  1  0.76361800  0.73385900  0.75166100  1
  O  O24  1  0.81393000  0.34083300  0.71087600  1
  O  O25  1  0.31393000  0.15916700  0.28912400  1
  O  O26  1  0.18607000  0.65916700  0.28912400  1
  O  O27  1  0.68607000  0.84083300  0.71087600  1
  O  O28  1  0.82180900  0.22046300  0.33836600  1
  O  O29  1  0.32180900  0.27953700  0.66163400  1
  O  O30  1  0.73814300  0.14794200  0.14634800  1
  O  O31  1  0.17819100  0.77953700  0.66163400  1
  O  O32  1  0.90262600  0.89106400  0.49873400  1
  O  O33  1  0.40262600  0.60893600  0.50126600  1
  O  O34  1  0.09737400  0.10893600  0.50126600  1
  O  O35  1  0.59737400  0.39106400  0.49873400  1
  O  O36  1  0.89888100  0.50545100  0.38552600  1
  O  O37  1  0.39888100  0.99454900  0.61447400  1
  O  O38  1  0.10111900  0.49454900  0.61447400  1
  O  O39  1  0.60111900  0.00545100  0.38552600  1
  O  O40  1  0.83508400  0.71708900  0.86557000  1
  O  O41  1  0.33508400  0.78291100  0.13443000  1
  O  O42  1  0.16491600  0.28291100  0.13443000  1
  O  O43  1  0.66491600  0.21708900  0.86557000  1
  O  O44  1  0.84140700  0.98668200  0.92088400  1
  O  O45  1  0.34140700  0.51331800  0.07911600  1
  O  O46  1  0.15859300  0.01331800  0.07911600  1
  O  O47  1  0.65859300  0.48668200  0.92088400  1
  O  O48  1  0.79030100  0.85953200  0.18724900  1
  O  O49  1  0.29030100  0.64046800  0.81275100  1
  O  O50  1  0.20969900  0.14046800  0.81275100  1
  O  O51  1  0.70969900  0.35953200  0.18724900  1
  O  O52  1  0.77111000  0.63387900  0.67744300  1
  O  O53  1  0.27111000  0.86612100  0.32255700  1
  O  O54  1  0.22889000  0.36612100  0.32255700  1
  O  O55  1  0.72889000  0.13387900  0.67744300  1
  O  O56  1  0.76185700  0.64794200  0.14634800  1
  O  O57  1  0.26185700  0.85205800  0.85365200  1
  O  O58  1  0.23814300  0.35205800  0.85365200  1
  O  O59  1  0.67819100  0.72046300  0.33836600  1
