# generated using pymatgen
data_NdCoO3
_symmetry_space_group_name_H-M   'P 1'
_cell_length_a   5.41824700
_cell_length_b   5.54264600
_cell_length_c   7.71332700
_cell_angle_alpha   90.00000000
_cell_angle_beta   90.00000000
_cell_angle_gamma   90.00000000
_symmetry_Int_Tables_number   1
_chemical_formula_structural   NdCoO3
_chemical_formula_sum   'Nd4 Co4 O12'
_cell_volume   231.64220178
_cell_formula_units_Z   4
loop_
 _symmetry_equiv_pos_site_id
 _symmetry_equiv_pos_as_xyz
  1  'x, y, z'
loop_
 _atom_site_type_symbol
 _atom_site_label
 _atom_site_symmetry_multiplicity
 _atom_site_fract_x
 _atom_site_fract_y
 _atom_site_fract_z
 _atom_site_occupancy
  Nd  Nd0  1  0.01165900  0.95456000  0.75000000  1
  Nd  Nd1  1  0.48834100  0.45456000  0.75000000  1
  Nd  Nd2  1  0.51165900  0.54544000  0.25000000  1
  Nd  Nd3  1  0.98834100  0.04544000  0.25000000  1
  Co  Co4  1  0.50000000  0.00000000  0.50000000  1
  Co  Co5  1  0.00000000  0.50000000  0.00000000  1
  Co  Co6  1  0.00000000  0.50000000  0.50000000  1
  Co  Co7  1  0.50000000  0.00000000  0.00000000  1
  O  O8  1  0.71320600  0.28876100  0.45740900  1
  O  O9  1  0.78679400  0.78876100  0.04259100  1
  O  O10  1  0.21320600  0.21123900  0.54259100  1
  O  O11  1  0.28679400  0.71123900  0.95740900  1
  O  O12  1  0.28679400  0.71123900  0.54259100  1
  O  O13  1  0.21320600  0.21123900  0.95740900  1
  O  O14  1  0.78679400  0.78876100  0.45740900  1
  O  O15  1  0.71320600  0.28876100  0.04259100  1
  O  O16  1  0.07821800  0.48273200  0.25000000  1
  O  O17  1  0.42178200  0.98273200  0.25000000  1
  O  O18  1  0.57821800  0.01726800  0.75000000  1
  O  O19  1  0.92178200  0.51726800  0.75000000  1
