# generated using pymatgen
data_Hf3P2
_symmetry_space_group_name_H-M   'P 1'
_cell_length_a   3.58213000
_cell_length_b   9.87512800
_cell_length_c   10.20383900
_cell_angle_alpha   90.00000000
_cell_angle_beta   90.00000000
_cell_angle_gamma   90.00000000
_symmetry_Int_Tables_number   1
_chemical_formula_structural   Hf3P2
_chemical_formula_sum   'Hf12 P8'
_cell_volume   360.95052184
_cell_formula_units_Z   4
loop_
 _symmetry_equiv_pos_site_id
 _symmetry_equiv_pos_as_xyz
  1  'x, y, z'
loop_
 _atom_site_type_symbol
 _atom_site_label
 _atom_site_symmetry_multiplicity
 _atom_site_fract_x
 _atom_site_fract_y
 _atom_site_fract_z
 _atom_site_occupancy
  Hf  Hf0  1  0.25000000  0.79680000  0.21612800  1
  Hf  Hf1  1  0.75000000  0.20320000  0.78387200  1
  Hf  Hf2  1  0.75000000  0.29680000  0.28387200  1
  Hf  Hf3  1  0.25000000  0.70320000  0.71612800  1
  Hf  Hf4  1  0.25000000  0.43520300  0.87528600  1
  Hf  Hf5  1  0.75000000  0.56479700  0.12471400  1
  Hf  Hf6  1  0.75000000  0.93520300  0.62471400  1
  Hf  Hf7  1  0.25000000  0.06479700  0.37528600  1
  Hf  Hf8  1  0.25000000  0.37382800  0.54597000  1
  Hf  Hf9  1  0.75000000  0.62617200  0.45403000  1
  Hf  Hf10  1  0.75000000  0.87382800  0.95403000  1
  Hf  Hf11  1  0.25000000  0.12617200  0.04597000  1
  P  P12  1  0.25000000  0.67911100  0.97260400  1
  P  P13  1  0.75000000  0.32088900  0.02739600  1
  P  P14  1  0.75000000  0.17911100  0.52739600  1
  P  P15  1  0.25000000  0.82088900  0.47260400  1
  P  P16  1  0.25000000  0.00025400  0.80677300  1
  P  P17  1  0.75000000  0.99974600  0.19322700  1
  P  P18  1  0.75000000  0.50025400  0.69322700  1
  P  P19  1  0.25000000  0.49974600  0.30677300  1
