# generated using pymatgen
data_ThGa2
_symmetry_space_group_name_H-M   'P 1'
_cell_length_a   7.97813088
_cell_length_b   7.97813088
_cell_length_c   7.97813088
_cell_angle_alpha   148.94494716
_cell_angle_beta   148.94494716
_cell_angle_gamma   44.49234742
_symmetry_Int_Tables_number   1
_chemical_formula_structural   ThGa2
_chemical_formula_sum   'Th2 Ga4'
_cell_volume   134.73229629
_cell_formula_units_Z   2
loop_
 _symmetry_equiv_pos_site_id
 _symmetry_equiv_pos_as_xyz
  1  'x, y, z'
loop_
 _atom_site_type_symbol
 _atom_site_label
 _atom_site_symmetry_multiplicity
 _atom_site_fract_x
 _atom_site_fract_y
 _atom_site_fract_z
 _atom_site_occupancy
  Th  Th0  1  0.50000000  0.50000000  0.00000000  1
  Th  Th1  1  0.25000000  0.75000000  0.50000000  1
  Ga  Ga2  1  0.83321100  0.33321100  0.50000000  1
  Ga  Ga3  1  0.08321100  0.08321100  0.00000000  1
  Ga  Ga4  1  0.66678900  0.16678900  0.50000000  1
  Ga  Ga5  1  0.91678900  0.91678900  0.00000000  1
