# generated using pymatgen
data_ScSn2
_symmetry_space_group_name_H-M   'P 1'
_cell_length_a   15.94725797
_cell_length_b   15.94725797
_cell_length_c   15.94725797
_cell_angle_alpha   164.56870584
_cell_angle_beta   164.56870584
_cell_angle_gamma   21.89013887
_symmetry_Int_Tables_number   1
_chemical_formula_structural   ScSn2
_chemical_formula_sum   'Sc4 Sn8'
_cell_volume   287.08996196
_cell_formula_units_Z   4
loop_
 _symmetry_equiv_pos_site_id
 _symmetry_equiv_pos_as_xyz
  1  'x, y, z'
loop_
 _atom_site_type_symbol
 _atom_site_label
 _atom_site_symmetry_multiplicity
 _atom_site_fract_x
 _atom_site_fract_y
 _atom_site_fract_z
 _atom_site_occupancy
  Sc  Sc0  1  0.07658200  0.57658200  0.50000000  1
  Sc  Sc1  1  0.32658200  0.32658200  0.00000000  1
  Sc  Sc2  1  0.67341800  0.67341800  0.00000000  1
  Sc  Sc3  1  0.42341800  0.92341800  0.50000000  1
  Sn  Sn4  1  0.90842300  0.40842300  0.50000000  1
  Sn  Sn5  1  0.15842300  0.15842300  0.00000000  1
  Sn  Sn6  1  0.84157700  0.84157700  0.00000000  1
  Sn  Sn7  1  0.59157700  0.09157700  0.50000000  1
  Sn  Sn8  1  0.25000000  0.75000000  0.50000000  1
  Sn  Sn9  1  0.50000000  0.50000000  0.00000000  1
  Sn  Sn10  1  0.00000000  0.00000000  0.00000000  1
  Sn  Sn11  1  0.75000000  0.25000000  0.50000000  1
