# generated using pymatgen
data_YbSbPd
_symmetry_space_group_name_H-M   'P 1'
_cell_length_a   4.66510100
_cell_length_b   7.32656600
_cell_length_c   7.96034400
_cell_angle_alpha   90.00000000
_cell_angle_beta   90.00000000
_cell_angle_gamma   90.00000000
_symmetry_Int_Tables_number   1
_chemical_formula_structural   YbSbPd
_chemical_formula_sum   'Yb4 Sb4 Pd4'
_cell_volume   272.07795381
_cell_formula_units_Z   4
loop_
 _symmetry_equiv_pos_site_id
 _symmetry_equiv_pos_as_xyz
  1  'x, y, z'
loop_
 _atom_site_type_symbol
 _atom_site_label
 _atom_site_symmetry_multiplicity
 _atom_site_fract_x
 _atom_site_fract_y
 _atom_site_fract_z
 _atom_site_occupancy
  Yb  Yb0  1  0.25000000  0.49196800  0.20587800  1
  Yb  Yb1  1  0.75000000  0.50803200  0.79412200  1
  Yb  Yb2  1  0.25000000  0.99196800  0.29412200  1
  Yb  Yb3  1  0.75000000  0.00803200  0.70587800  1
  Sb  Sb4  1  0.25000000  0.30051900  0.59188900  1
  Sb  Sb5  1  0.75000000  0.19948100  0.09188900  1
  Sb  Sb6  1  0.25000000  0.80051900  0.90811100  1
  Sb  Sb7  1  0.75000000  0.69948100  0.40811100  1
  Pd  Pd8  1  0.75000000  0.30974100  0.41921700  1
  Pd  Pd9  1  0.25000000  0.19025900  0.91921700  1
  Pd  Pd10  1  0.75000000  0.80974100  0.08078300  1
  Pd  Pd11  1  0.25000000  0.69025900  0.58078300  1
