# generated using pymatgen
data_UGeRh
_symmetry_space_group_name_H-M   'P 1'
_cell_length_a   4.50008900
_cell_length_b   6.40615000
_cell_length_c   7.70805200
_cell_angle_alpha   90.00000000
_cell_angle_beta   90.00000000
_cell_angle_gamma   90.00000000
_symmetry_Int_Tables_number   1
_chemical_formula_structural   UGeRh
_chemical_formula_sum   'U4 Ge4 Rh4'
_cell_volume   222.20961266
_cell_formula_units_Z   4
loop_
 _symmetry_equiv_pos_site_id
 _symmetry_equiv_pos_as_xyz
  1  'x, y, z'
loop_
 _atom_site_type_symbol
 _atom_site_label
 _atom_site_symmetry_multiplicity
 _atom_site_fract_x
 _atom_site_fract_y
 _atom_site_fract_z
 _atom_site_occupancy
  U  U0  1  0.25000000  0.48934600  0.71108100  1
  U  U1  1  0.75000000  0.51065400  0.28891900  1
  U  U2  1  0.25000000  0.98934600  0.78891900  1
  U  U3  1  0.75000000  0.01065400  0.21108100  1
  Ge  Ge4  1  0.25000000  0.30568400  0.08548400  1
  Ge  Ge5  1  0.75000000  0.69431600  0.91451600  1
  Ge  Ge6  1  0.25000000  0.80568400  0.41451600  1
  Ge  Ge7  1  0.75000000  0.19431600  0.58548400  1
  Rh  Rh8  1  0.75000000  0.77333500  0.58047000  1
  Rh  Rh9  1  0.25000000  0.22666500  0.41953000  1
  Rh  Rh10  1  0.75000000  0.27333500  0.91953000  1
  Rh  Rh11  1  0.25000000  0.72666500  0.08047000  1
