# generated using pymatgen
data_AgBH2OF4
_symmetry_space_group_name_H-M   'P 1'
_cell_length_a   7.97965000
_cell_length_b   8.05920800
_cell_length_c   13.47951300
_cell_angle_alpha   90.00000000
_cell_angle_beta   90.00000000
_cell_angle_gamma   90.00000000
_symmetry_Int_Tables_number   1
_chemical_formula_structural   AgBH2OF4
_chemical_formula_sum   'Ag8 B8 H16 O8 F32'
_cell_volume   866.86288610
_cell_formula_units_Z   8
loop_
 _symmetry_equiv_pos_site_id
 _symmetry_equiv_pos_as_xyz
  1  'x, y, z'
loop_
 _atom_site_type_symbol
 _atom_site_label
 _atom_site_symmetry_multiplicity
 _atom_site_fract_x
 _atom_site_fract_y
 _atom_site_fract_z
 _atom_site_occupancy
  Ag  Ag0  1  0.89317500  0.23549600  0.16157900  1
  Ag  Ag1  1  0.39317500  0.76450400  0.33842100  1
  Ag  Ag2  1  0.60682500  0.73549600  0.83842100  1
  Ag  Ag3  1  0.10682500  0.26450400  0.66157900  1
  Ag  Ag4  1  0.10682500  0.76450400  0.83842100  1
  Ag  Ag5  1  0.60682500  0.23549600  0.66157900  1
  Ag  Ag6  1  0.39317500  0.26450400  0.16157900  1
  Ag  Ag7  1  0.89317500  0.73549600  0.33842100  1
  B  B8  1  0.61854800  0.34962900  0.37842700  1
  B  B9  1  0.61854800  0.84962900  0.12157300  1
  B  B10  1  0.11854800  0.15037100  0.37842700  1
  B  B11  1  0.88145200  0.34962900  0.87842700  1
  B  B12  1  0.38145200  0.65037100  0.62157300  1
  B  B13  1  0.38145200  0.15037100  0.87842700  1
  B  B14  1  0.88145200  0.84962900  0.62157300  1
  B  B15  1  0.11854800  0.65037100  0.12157300  1
  H  H16  1  0.65871000  0.39629800  0.03797000  1
  H  H17  1  0.15871000  0.60370200  0.46203000  1
  H  H18  1  0.84129000  0.89629800  0.96203000  1
  H  H19  1  0.34129000  0.10370200  0.53797000  1
  H  H20  1  0.34129000  0.60370200  0.96203000  1
  H  H21  1  0.84129000  0.39629800  0.53797000  1
  H  H22  1  0.15871000  0.10370200  0.03797000  1
  H  H23  1  0.65871000  0.89629800  0.46203000  1
  H  H24  1  0.84097500  0.00510200  0.86483500  1
  H  H25  1  0.34097500  0.99489800  0.63516500  1
  H  H26  1  0.34097500  0.49489800  0.86483500  1
  H  H27  1  0.84097500  0.50510200  0.63516500  1
  H  H28  1  0.15902500  0.99489800  0.13516500  1
  H  H29  1  0.65902500  0.00510200  0.36483500  1
  H  H30  1  0.65902500  0.50510200  0.13516500  1
  H  H31  1  0.15902500  0.49489800  0.36483500  1
  O  O32  1  0.65148200  0.38958800  0.11080000  1
  O  O33  1  0.84851800  0.88958800  0.88920000  1
  O  O34  1  0.34851800  0.11041200  0.61080000  1
  O  O35  1  0.34851800  0.61041200  0.88920000  1
  O  O36  1  0.84851800  0.38958800  0.61080000  1
  O  O37  1  0.15148200  0.11041200  0.11080000  1
  O  O38  1  0.65148200  0.88958800  0.38920000  1
  O  O39  1  0.15148200  0.61041200  0.38920000  1
  F  F40  1  0.66835300  0.20988600  0.31880000  1
  F  F41  1  0.16835300  0.29011400  0.31880000  1
  F  F42  1  0.83164700  0.20988600  0.81880000  1
  F  F43  1  0.33164700  0.79011400  0.68120000  1
  F  F44  1  0.53792200  0.79218000  0.03589600  1
  F  F45  1  0.83164700  0.70988600  0.68120000  1
  F  F46  1  0.16835300  0.79011400  0.18120000  1
  F  F47  1  0.66835300  0.70988600  0.18120000  1
  F  F48  1  0.51054200  0.94969000  0.17954100  1
  F  F49  1  0.01054200  0.05031000  0.32045900  1
  F  F50  1  0.98945800  0.44969000  0.82045900  1
  F  F51  1  0.48945800  0.55031000  0.67954100  1
  F  F52  1  0.48945800  0.05031000  0.82045900  1
  F  F53  1  0.98945800  0.94969000  0.67954100  1
  F  F54  1  0.76408700  0.44157900  0.40526400  1
  F  F55  1  0.51054200  0.44969000  0.32045900  1
  F  F56  1  0.26408700  0.55842100  0.09473600  1
  F  F57  1  0.73591300  0.94157900  0.59473600  1
  F  F58  1  0.23591300  0.05842100  0.90526400  1
  F  F59  1  0.23591300  0.55842100  0.59473600  1
  F  F60  1  0.73591300  0.44157900  0.90526400  1
  F  F61  1  0.26408700  0.05842100  0.40526400  1
  F  F62  1  0.76408700  0.94157900  0.09473600  1
  F  F63  1  0.53792200  0.29218000  0.46410400  1
  F  F64  1  0.03792200  0.70782000  0.03589600  1
  F  F65  1  0.96207800  0.79218000  0.53589600  1
  F  F66  1  0.46207800  0.20782000  0.96410400  1
  F  F67  1  0.46207800  0.70782000  0.53589600  1
  F  F68  1  0.96207800  0.29218000  0.96410400  1
  F  F69  1  0.03792200  0.20782000  0.46410400  1
  F  F70  1  0.01054200  0.55031000  0.17954100  1
  F  F71  1  0.33164700  0.29011400  0.81880000  1
