# generated using pymatgen
data_RbGaBP2HO9
_symmetry_space_group_name_H-M   'P 1'
_cell_length_a   8.53571600
_cell_length_b   9.46794500
_cell_length_c   9.68863316
_cell_angle_alpha   76.73987511
_cell_angle_beta   90.00000000
_cell_angle_gamma   90.00000000
_symmetry_Int_Tables_number   1
_chemical_formula_structural   RbGaBP2HO9
_chemical_formula_sum   'Rb4 Ga4 B4 P8 H4 O36'
_cell_volume   762.11797580
_cell_formula_units_Z   4
loop_
 _symmetry_equiv_pos_site_id
 _symmetry_equiv_pos_as_xyz
  1  'x, y, z'
loop_
 _atom_site_type_symbol
 _atom_site_label
 _atom_site_symmetry_multiplicity
 _atom_site_fract_x
 _atom_site_fract_y
 _atom_site_fract_z
 _atom_site_occupancy
  Rb  Rb0  1  0.89292500  0.30823300  0.06274200  1
  Rb  Rb1  1  0.39292500  0.69176700  0.43725800  1
  Rb  Rb2  1  0.10707500  0.69176700  0.93725800  1
  Rb  Rb3  1  0.60707500  0.30823300  0.56274200  1
  Ga  Ga4  1  0.84343200  0.70189800  0.56653300  1
  Ga  Ga5  1  0.15656800  0.29810200  0.43346700  1
  Ga  Ga6  1  0.65656800  0.70189800  0.06653300  1
  Ga  Ga7  1  0.34343200  0.29810200  0.93346700  1
  B  B8  1  0.55093600  0.16365000  0.19699100  1
  B  B9  1  0.05093600  0.83635000  0.30300900  1
  B  B10  1  0.44906400  0.83635000  0.80300900  1
  B  B11  1  0.94906400  0.16365000  0.69699100  1
  P  P12  1  0.43630900  0.42754600  0.20741300  1
  P  P13  1  0.06369100  0.42754600  0.70741300  1
  P  P14  1  0.56369100  0.57245400  0.79258700  1
  P  P15  1  0.93630900  0.57245400  0.29258700  1
  P  P16  1  0.23484200  0.08362300  0.22083900  1
  P  P17  1  0.26515800  0.08362300  0.72083900  1
  P  P18  1  0.76515800  0.91637700  0.77916100  1
  P  P19  1  0.73484200  0.91637700  0.27916100  1
  H  H20  1  0.56561200  0.10596600  0.00157100  1
  H  H21  1  0.06561200  0.89403400  0.49842900  1
  H  H22  1  0.43438800  0.89403400  0.99842900  1
  H  H23  1  0.93438800  0.10596600  0.50157100  1
  O  O24  1  0.33800600  0.41923900  0.07668000  1
  O  O25  1  0.83800600  0.58076100  0.42332000  1
  O  O26  1  0.66199400  0.58076100  0.92332000  1
  O  O27  1  0.16199400  0.41923900  0.57668000  1
  O  O28  1  0.12994800  0.15394400  0.31441500  1
  O  O29  1  0.62994800  0.84605600  0.18558500  1
  O  O30  1  0.15863300  0.39991600  0.84659400  1
  O  O31  1  0.87005200  0.84605600  0.68558500  1
  O  O32  1  0.95674400  0.19118200  0.53858500  1
  O  O33  1  0.45674400  0.80881800  0.96141500  1
  O  O34  1  0.04325600  0.80881800  0.46141500  1
  O  O35  1  0.54325600  0.19118200  0.03858500  1
  O  O36  1  0.92999700  0.30694200  0.72949800  1
  O  O37  1  0.42999700  0.69305800  0.77050200  1
  O  O38  1  0.07000300  0.69305800  0.27050200  1
  O  O39  1  0.57000300  0.30694200  0.22949800  1
  O  O40  1  0.30550100  0.91706100  0.75085400  1
  O  O41  1  0.80550100  0.08293900  0.74914600  1
  O  O42  1  0.69449900  0.08293900  0.24914600  1
  O  O43  1  0.19449900  0.91706100  0.25085400  1
  O  O44  1  0.28705200  0.14958700  0.56260700  1
  O  O45  1  0.78705200  0.85041300  0.93739300  1
  O  O46  1  0.71294800  0.85041300  0.43739300  1
  O  O47  1  0.21294800  0.14958700  0.06260700  1
  O  O48  1  0.01538400  0.42493900  0.30380400  1
  O  O49  1  0.51538400  0.57506100  0.19619600  1
  O  O50  1  0.98461600  0.57506100  0.69619600  1
  O  O51  1  0.48461600  0.42493900  0.80380400  1
  O  O52  1  0.08849200  0.08417100  0.76530100  1
  O  O53  1  0.58849200  0.91582900  0.73469900  1
  O  O54  1  0.91150800  0.91582900  0.23469900  1
  O  O55  1  0.41150800  0.08417100  0.26530100  1
  O  O56  1  0.34136700  0.39991600  0.34659400  1
  O  O57  1  0.84136700  0.60008400  0.15340600  1
  O  O58  1  0.65863300  0.60008400  0.65340600  1
  O  O59  1  0.37005200  0.15394400  0.81441500  1
