# generated using pymatgen
data_Ta4SiTe4
_symmetry_space_group_name_H-M   'P 1'
_cell_length_a   4.83555000
_cell_length_b   11.15757200
_cell_length_c   19.28082900
_cell_angle_alpha   90.00000000
_cell_angle_beta   90.00000000
_cell_angle_gamma   90.00000000
_symmetry_Int_Tables_number   1
_chemical_formula_structural   Ta4SiTe4
_chemical_formula_sum   'Ta16 Si4 Te16'
_cell_volume   1040.25851468
_cell_formula_units_Z   4
loop_
 _symmetry_equiv_pos_site_id
 _symmetry_equiv_pos_as_xyz
  1  'x, y, z'
loop_
 _atom_site_type_symbol
 _atom_site_label
 _atom_site_symmetry_multiplicity
 _atom_site_fract_x
 _atom_site_fract_y
 _atom_site_fract_z
 _atom_site_occupancy
  Ta  Ta0  1  0.00000000  0.59619300  0.60589300  1
  Ta  Ta1  1  0.00000000  0.40380700  0.39410700  1
  Ta  Ta2  1  0.00000000  0.09619300  0.89410700  1
  Ta  Ta3  1  0.00000000  0.90380700  0.10589300  1
  Ta  Ta4  1  0.00000000  0.31654600  0.55565100  1
  Ta  Ta5  1  0.00000000  0.68345400  0.44434900  1
  Ta  Ta6  1  0.00000000  0.81654600  0.94434900  1
  Ta  Ta7  1  0.00000000  0.18345400  0.05565100  1
  Ta  Ta8  1  0.50000000  0.30223100  0.46445000  1
  Ta  Ta9  1  0.50000000  0.69776900  0.53555000  1
  Ta  Ta10  1  0.50000000  0.80223100  0.03555000  1
  Ta  Ta11  1  0.50000000  0.19776900  0.96445000  1
  Ta  Ta12  1  0.50000000  0.43824700  0.61417800  1
  Ta  Ta13  1  0.50000000  0.56175300  0.38582200  1
  Ta  Ta14  1  0.50000000  0.93824700  0.88582200  1
  Ta  Ta15  1  0.50000000  0.06175300  0.11417800  1
  Si  Si16  1  0.25000800  0.50000000  0.50000000  1
  Si  Si17  1  0.74999200  0.00000000  0.00000000  1
  Si  Si18  1  0.74999200  0.50000000  0.50000000  1
  Si  Si19  1  0.25000800  0.00000000  0.00000000  1
  Te  Te20  1  0.00000000  0.39391900  0.69708600  1
  Te  Te21  1  0.00000000  0.60608100  0.30291400  1
  Te  Te22  1  0.00000000  0.89391900  0.80291400  1
  Te  Te23  1  0.00000000  0.10608100  0.19708600  1
  Te  Te24  1  0.50000000  0.18353600  0.59621700  1
  Te  Te25  1  0.50000000  0.81646400  0.40378300  1
  Te  Te26  1  0.50000000  0.68353600  0.90378300  1
  Te  Te27  1  0.50000000  0.31646400  0.09621700  1
  Te  Te28  1  0.50000000  0.66535700  0.68273700  1
  Te  Te29  1  0.50000000  0.33464300  0.31726300  1
  Te  Te30  1  0.50000000  0.16535700  0.81726300  1
  Te  Te31  1  0.50000000  0.83464300  0.18273700  1
  Te  Te32  1  0.00000000  0.34117600  0.93839500  1
  Te  Te33  1  0.00000000  0.65882400  0.06160500  1
  Te  Te34  1  0.00000000  0.84117600  0.56160500  1
  Te  Te35  1  0.00000000  0.15882400  0.43839500  1
