# generated using pymatgen
data_Rb3TlCl6
_symmetry_space_group_name_H-M   'P 1'
_cell_length_a   8.07853000
_cell_length_b   12.92239300
_cell_length_c   13.50280877
_cell_angle_alpha   71.94391918
_cell_angle_beta   90.00000000
_cell_angle_gamma   90.00000000
_symmetry_Int_Tables_number   1
_chemical_formula_structural   Rb3TlCl6
_chemical_formula_sum   'Rb12 Tl4 Cl24'
_cell_volume   1340.19311013
_cell_formula_units_Z   4
loop_
 _symmetry_equiv_pos_site_id
 _symmetry_equiv_pos_as_xyz
  1  'x, y, z'
loop_
 _atom_site_type_symbol
 _atom_site_label
 _atom_site_symmetry_multiplicity
 _atom_site_fract_x
 _atom_site_fract_y
 _atom_site_fract_z
 _atom_site_occupancy
  Rb  Rb0  1  0.56405400  0.26302000  0.18366300  1
  Rb  Rb1  1  0.06405400  0.23698000  0.81633700  1
  Rb  Rb2  1  0.43594600  0.73698000  0.81633700  1
  Rb  Rb3  1  0.93594600  0.76302000  0.18366300  1
  Rb  Rb4  1  0.06512400  0.11507400  0.18032400  1
  Rb  Rb5  1  0.56512300  0.38492600  0.81967600  1
  Rb  Rb6  1  0.93487600  0.88492600  0.81967600  1
  Rb  Rb7  1  0.43487600  0.61507400  0.18032400  1
  Rb  Rb8  1  0.04059100  0.35881900  0.40399400  1
  Rb  Rb9  1  0.54059100  0.14118100  0.59600600  1
  Rb  Rb10  1  0.95940900  0.64118100  0.59600600  1
  Rb  Rb11  1  0.45940900  0.85881900  0.40399400  1
  Tl  Tl12  1  0.50000000  0.50000000  0.50000000  1
  Tl  Tl13  1  0.00000000  0.00000000  0.50000000  1
  Tl  Tl14  1  0.50000000  0.00000000  0.00000000  1
  Tl  Tl15  1  0.00000000  0.50000000  0.00000000  1
  Cl  Cl16  1  0.81357200  0.14946300  0.37141900  1
  Cl  Cl17  1  0.31357200  0.35053700  0.62858100  1
  Cl  Cl18  1  0.18642800  0.85053700  0.62858100  1
  Cl  Cl19  1  0.68642800  0.64946300  0.37141900  1
  Cl  Cl20  1  0.69838500  0.00661100  0.15116100  1
  Cl  Cl21  1  0.19838500  0.49338900  0.84883900  1
  Cl  Cl22  1  0.30161500  0.99338900  0.84883900  1
  Cl  Cl23  1  0.80161500  0.50661100  0.15116100  1
  Cl  Cl24  1  0.00132500  0.12227800  0.62002100  1
  Cl  Cl25  1  0.50132500  0.37772200  0.37997900  1
  Cl  Cl26  1  0.99867500  0.87772200  0.37997900  1
  Cl  Cl27  1  0.49867500  0.62227800  0.62002100  1
  Cl  Cl28  1  0.36023600  0.18761700  0.99931800  1
  Cl  Cl29  1  0.86023600  0.31238300  0.00068200  1
  Cl  Cl30  1  0.63976400  0.81238300  0.00068200  1
  Cl  Cl31  1  0.13976400  0.68761700  0.99931800  1
  Cl  Cl32  1  0.20888900  0.39487700  0.14951700  1
  Cl  Cl33  1  0.70888900  0.10512300  0.85048300  1
  Cl  Cl34  1  0.79111100  0.60512300  0.85048300  1
  Cl  Cl35  1  0.29111100  0.89487700  0.14951700  1
  Cl  Cl36  1  0.22682000  0.60087900  0.40045600  1
  Cl  Cl37  1  0.72682000  0.89912100  0.59954400  1
  Cl  Cl38  1  0.77318000  0.39912100  0.59954400  1
  Cl  Cl39  1  0.27318000  0.10087900  0.40045600  1
