# generated using pymatgen
data_EuAl2
_symmetry_space_group_name_H-M   'P 1'
_cell_length_a   5.78760819
_cell_length_b   5.78760819
_cell_length_c   5.78760819
_cell_angle_alpha   60.00000000
_cell_angle_beta   60.00000000
_cell_angle_gamma   60.00000000
_symmetry_Int_Tables_number   1
_chemical_formula_structural   EuAl2
_chemical_formula_sum   'Eu2 Al4'
_cell_volume   137.08261182
_cell_formula_units_Z   2
loop_
 _symmetry_equiv_pos_site_id
 _symmetry_equiv_pos_as_xyz
  1  'x, y, z'
loop_
 _atom_site_type_symbol
 _atom_site_label
 _atom_site_symmetry_multiplicity
 _atom_site_fract_x
 _atom_site_fract_y
 _atom_site_fract_z
 _atom_site_occupancy
  Eu  Eu0  1  0.50000000  0.50000000  0.50000000  1
  Eu  Eu1  1  0.75000000  0.75000000  0.75000000  1
  Al  Al2  1  0.62500000  0.12500000  0.12500000  1
  Al  Al3  1  0.12500000  0.62500000  0.12500000  1
  Al  Al4  1  0.12500000  0.12500000  0.62500000  1
  Al  Al5  1  0.12500000  0.12500000  0.12500000  1
