# generated using pymatgen
data_VSn2
_symmetry_space_group_name_H-M   'P 1'
_cell_length_a   10.52735323
_cell_length_b   9.79706327
_cell_length_c   5.48940082
_cell_angle_alpha   81.82710562
_cell_angle_beta   67.09882753
_cell_angle_gamma   31.07406685
_symmetry_Int_Tables_number   1
_chemical_formula_structural   VSn2
_chemical_formula_sum   'V4 Sn8'
_cell_volume   246.47800186
_cell_formula_units_Z   4
loop_
 _symmetry_equiv_pos_site_id
 _symmetry_equiv_pos_as_xyz
  1  'x, y, z'
loop_
 _atom_site_type_symbol
 _atom_site_label
 _atom_site_symmetry_multiplicity
 _atom_site_fract_x
 _atom_site_fract_y
 _atom_site_fract_z
 _atom_site_occupancy
  V  V0  1  0.87758400  0.87758400  0.62241600  1
  V  V1  1  0.62241600  0.62241600  0.87758400  1
  V  V2  1  0.37241600  0.37241600  0.62758400  1
  V  V3  1  0.62758400  0.62758400  0.37241600  1
  Sn  Sn4  1  0.91644700  0.58355300  0.91644700  1
  Sn  Sn5  1  0.58355300  0.91644700  0.58355300  1
  Sn  Sn6  1  0.33355300  0.66644700  0.33355300  1
  Sn  Sn7  1  0.66644700  0.33355300  0.66644700  1
  Sn  Sn8  1  0.16605000  0.16605000  0.33395000  1
  Sn  Sn9  1  0.33395000  0.33395000  0.16605000  1
  Sn  Sn10  1  0.08395000  0.08395000  0.91605000  1
  Sn  Sn11  1  0.91605000  0.91605000  0.08395000  1
