# generated using pymatgen
data_CsGdHgSe3
_symmetry_space_group_name_H-M   'P 1'
_cell_length_a   8.45657507
_cell_length_b   8.45657507
_cell_length_c   11.25251400
_cell_angle_alpha   90.00000000
_cell_angle_beta   90.00000000
_cell_angle_gamma   150.23786868
_symmetry_Int_Tables_number   1
_chemical_formula_structural   CsGdHgSe3
_chemical_formula_sum   'Cs2 Gd2 Hg2 Se6'
_cell_volume   399.45754586
_cell_formula_units_Z   2
loop_
 _symmetry_equiv_pos_site_id
 _symmetry_equiv_pos_as_xyz
  1  'x, y, z'
loop_
 _atom_site_type_symbol
 _atom_site_label
 _atom_site_symmetry_multiplicity
 _atom_site_fract_x
 _atom_site_fract_y
 _atom_site_fract_z
 _atom_site_occupancy
  Cs  Cs0  1  0.74381800  0.25618200  0.25000000  1
  Cs  Cs1  1  0.25618200  0.74381800  0.75000000  1
  Gd  Gd2  1  0.00000000  0.00000000  0.50000000  1
  Gd  Gd3  1  0.00000000  0.00000000  0.00000000  1
  Hg  Hg4  1  0.54551200  0.45448800  0.75000000  1
  Hg  Hg5  1  0.45448800  0.54551200  0.25000000  1
  Se  Se6  1  0.06026600  0.93973400  0.25000000  1
  Se  Se7  1  0.93973400  0.06026600  0.75000000  1
  Se  Se8  1  0.61929200  0.38070800  0.54228900  1
  Se  Se9  1  0.61929200  0.38070800  0.95771100  1
  Se  Se10  1  0.38070800  0.61929200  0.04228900  1
  Se  Se11  1  0.38070800  0.61929200  0.45771100  1
