# generated using pymatgen
data_Lu6Ge4O17
_symmetry_space_group_name_H-M   'P 1'
_cell_length_a   6.89779000
_cell_length_b   10.55621000
_cell_length_c   10.96001162
_cell_angle_alpha   68.41002677
_cell_angle_beta   90.00000000
_cell_angle_gamma   90.00000000
_symmetry_Int_Tables_number   1
_chemical_formula_structural   Lu6Ge4O17
_chemical_formula_sum   'Lu12 Ge8 O34'
_cell_volume   742.05764961
_cell_formula_units_Z   2
loop_
 _symmetry_equiv_pos_site_id
 _symmetry_equiv_pos_as_xyz
  1  'x, y, z'
loop_
 _atom_site_type_symbol
 _atom_site_label
 _atom_site_symmetry_multiplicity
 _atom_site_fract_x
 _atom_site_fract_y
 _atom_site_fract_z
 _atom_site_occupancy
  Lu  Lu0  1  0.74575500  0.47428400  0.95183000  1
  Lu  Lu1  1  0.74575500  0.02571600  0.04817000  1
  Lu  Lu2  1  0.25424500  0.52571600  0.04817000  1
  Lu  Lu3  1  0.25424500  0.97428400  0.95183000  1
  Lu  Lu4  1  0.40480000  0.30540100  0.83123300  1
  Lu  Lu5  1  0.40480000  0.19459900  0.16876700  1
  Lu  Lu6  1  0.59520000  0.69459900  0.16876700  1
  Lu  Lu7  1  0.59520000  0.80540100  0.83123300  1
  Lu  Lu8  1  0.83887000  0.42757200  0.42692100  1
  Lu  Lu9  1  0.83887000  0.07242800  0.57307900  1
  Lu  Lu10  1  0.16113000  0.57242800  0.57307900  1
  Lu  Lu11  1  0.16113000  0.92757200  0.42692100  1
  Ge  Ge12  1  0.63848900  0.60244600  0.61816500  1
  Ge  Ge13  1  0.63848900  0.89755400  0.38183500  1
  Ge  Ge14  1  0.36151100  0.39755400  0.38183500  1
  Ge  Ge15  1  0.36151100  0.10244600  0.61816500  1
  Ge  Ge16  1  0.92310900  0.26972200  0.77582400  1
  Ge  Ge17  1  0.92310900  0.23027800  0.22417600  1
  Ge  Ge18  1  0.07689100  0.73027800  0.22417600  1
  Ge  Ge19  1  0.07689100  0.76972200  0.77582400  1
  O  O20  1  0.42086300  0.38738000  0.98523300  1
  O  O21  1  0.42086300  0.11262000  0.01476700  1
  O  O22  1  0.57913700  0.61262000  0.01476700  1
  O  O23  1  0.57913700  0.88738000  0.98523300  1
  O  O24  1  0.67344000  0.63637600  0.76216100  1
  O  O25  1  0.67344000  0.86362400  0.23783900  1
  O  O26  1  0.32656000  0.36362400  0.23783900  1
  O  O27  1  0.32656000  0.13637600  0.76216100  1
  O  O28  1  0.97646700  0.38996000  0.09955000  1
  O  O29  1  0.97646700  0.11004000  0.90045000  1
  O  O30  1  0.02353300  0.61004000  0.90045000  1
  O  O31  1  0.02353300  0.88996000  0.09955000  1
  O  O32  1  0.72204100  0.32632800  0.84550700  1
  O  O33  1  0.72204100  0.17367200  0.15449300  1
  O  O34  1  0.27795900  0.67367200  0.15449300  1
  O  O35  1  0.27795900  0.82632800  0.84550700  1
  O  O36  1  0.52946300  0.75000000  0.50000000  1
  O  O37  1  0.47053700  0.25000000  0.50000000  1
  O  O38  1  0.14368300  0.75091500  0.62711500  1
  O  O39  1  0.14368300  0.74908500  0.37288500  1
  O  O40  1  0.84526400  0.95007500  0.44439900  1
  O  O41  1  0.84526400  0.54992500  0.55560100  1
  O  O42  1  0.15473600  0.04992500  0.55560100  1
  O  O43  1  0.15473600  0.45007500  0.44439900  1
  O  O44  1  0.88634900  0.88704700  0.75635200  1
  O  O45  1  0.88634900  0.61295300  0.24364800  1
  O  O46  1  0.11365100  0.11295300  0.24364800  1
  O  O47  1  0.11365100  0.38704700  0.75635200  1
  O  O48  1  0.55482100  0.98638200  0.64717600  1
  O  O49  1  0.55482100  0.51361800  0.35282400  1
  O  O50  1  0.44517900  0.01361800  0.35282400  1
  O  O51  1  0.44517900  0.48638200  0.64717600  1
  O  O52  1  0.85631700  0.25091500  0.62711500  1
  O  O53  1  0.85631700  0.24908500  0.37288500  1
