# generated using pymatgen
data_TlRe6Se8Cl3
_symmetry_space_group_name_H-M   'P 1'
_cell_length_a   9.20716700
_cell_length_b   9.27815381
_cell_length_c   11.22848844
_cell_angle_alpha   90.59806623
_cell_angle_beta   110.07489902
_cell_angle_gamma   94.19503246
_symmetry_Int_Tables_number   1
_chemical_formula_structural   TlRe6Se8Cl3
_chemical_formula_sum   'Tl2 Re12 Se16 Cl6'
_cell_volume   897.86201693
_cell_formula_units_Z   2
loop_
 _symmetry_equiv_pos_site_id
 _symmetry_equiv_pos_as_xyz
  1  'x, y, z'
loop_
 _atom_site_type_symbol
 _atom_site_label
 _atom_site_symmetry_multiplicity
 _atom_site_fract_x
 _atom_site_fract_y
 _atom_site_fract_z
 _atom_site_occupancy
  Tl  Tl0  1  0.95515900  0.65497000  0.86200500  1
  Tl  Tl1  1  0.04484100  0.34503000  0.13799500  1
  Re  Re2  1  0.70087500  0.74150500  0.18570400  1
  Re  Re3  1  0.14003800  0.05158600  0.64812400  1
  Re  Re4  1  0.85996200  0.94841400  0.35187600  1
  Re  Re5  1  0.39239200  0.99392300  0.83762800  1
  Re  Re6  1  0.60760800  0.00607700  0.16237200  1
  Re  Re7  1  0.39331100  0.99311800  0.60183600  1
  Re  Re8  1  0.60668900  0.00688200  0.39816400  1
  Re  Re9  1  0.55670500  0.20021600  0.76807000  1
  Re  Re10  1  0.44329500  0.79978400  0.23193000  1
  Re  Re11  1  0.30014000  0.26122100  0.57862200  1
  Re  Re12  1  0.69986000  0.73877900  0.42137800  1
  Re  Re13  1  0.29912500  0.25849500  0.81429600  1
  Se  Se14  1  0.84508000  0.94441600  0.58178700  1
  Se  Se15  1  0.55157000  0.21264400  0.54018900  1
  Se  Se16  1  0.44843000  0.78735600  0.45981100  1
  Se  Se17  1  0.15492000  0.05558400  0.41821300  1
  Se  Se18  1  0.23507600  0.79936400  0.67425900  1
  Se  Se19  1  0.93880500  0.69079900  0.37004000  1
  Se  Se20  1  0.54111700  0.54784400  0.25611300  1
  Se  Se21  1  0.45888300  0.45215600  0.74388700  1
  Se  Se22  1  0.44951800  0.78772300  0.00708600  1
  Se  Se23  1  0.55048200  0.21227700  0.99291400  1
  Se  Se24  1  0.85431000  0.95031100  0.12425000  1
  Se  Se25  1  0.14569000  0.04968900  0.87575000  1
  Se  Se26  1  0.63154200  0.94069600  0.78698800  1
  Se  Se27  1  0.06119500  0.30920100  0.62996000  1
  Se  Se28  1  0.36845800  0.05930400  0.21301200  1
  Se  Se29  1  0.76492400  0.20063600  0.32574100  1
  Cl  Cl30  1  0.82607600  0.29824800  0.84271100  1
  Cl  Cl31  1  0.76483500  0.56760200  0.05032300  1
  Cl  Cl32  1  0.17392400  0.70175200  0.15728900  1
  Cl  Cl33  1  0.24436400  0.43843000  0.41705600  1
  Cl  Cl34  1  0.75563600  0.56157000  0.58294400  1
  Cl  Cl35  1  0.23516500  0.43239800  0.94967700  1
