# generated using pymatgen
data_CsAlCl4
_symmetry_space_group_name_H-M   'P 1'
_cell_length_a   7.31213900
_cell_length_b   9.67774800
_cell_length_c   11.94691900
_cell_angle_alpha   90.00000000
_cell_angle_beta   90.00000000
_cell_angle_gamma   90.00000000
_symmetry_Int_Tables_number   1
_chemical_formula_structural   CsAlCl4
_chemical_formula_sum   'Cs4 Al4 Cl16'
_cell_volume   845.42418398
_cell_formula_units_Z   4
loop_
 _symmetry_equiv_pos_site_id
 _symmetry_equiv_pos_as_xyz
  1  'x, y, z'
loop_
 _atom_site_type_symbol
 _atom_site_label
 _atom_site_symmetry_multiplicity
 _atom_site_fract_x
 _atom_site_fract_y
 _atom_site_fract_z
 _atom_site_occupancy
  Cs  Cs0  1  0.25000000  0.16526400  0.67974300  1
  Cs  Cs1  1  0.75000000  0.83473600  0.32025700  1
  Cs  Cs2  1  0.75000000  0.66526400  0.82025700  1
  Cs  Cs3  1  0.25000000  0.33473600  0.17974300  1
  Al  Al4  1  0.25000000  0.69428800  0.57180400  1
  Al  Al5  1  0.75000000  0.30571200  0.42819600  1
  Al  Al6  1  0.75000000  0.19428800  0.92819600  1
  Al  Al7  1  0.25000000  0.80571200  0.07180400  1
  Cl  Cl8  1  0.25000000  0.55113000  0.71006300  1
  Cl  Cl9  1  0.75000000  0.44887000  0.28993700  1
  Cl  Cl10  1  0.75000000  0.05113000  0.78993700  1
  Cl  Cl11  1  0.25000000  0.94887000  0.21006300  1
  Cl  Cl12  1  0.25000000  0.59160700  0.41248200  1
  Cl  Cl13  1  0.75000000  0.40839300  0.58751800  1
  Cl  Cl14  1  0.75000000  0.09160700  0.08751800  1
  Cl  Cl15  1  0.25000000  0.90839300  0.91248200  1
  Cl  Cl16  1  0.01100300  0.82579100  0.58523200  1
  Cl  Cl17  1  0.51100300  0.17420900  0.41476800  1
  Cl  Cl18  1  0.98899700  0.32579100  0.91476800  1
  Cl  Cl19  1  0.48899700  0.67420900  0.08523200  1
  Cl  Cl20  1  0.98899700  0.17420900  0.41476800  1
  Cl  Cl21  1  0.48899700  0.82579100  0.58523200  1
  Cl  Cl22  1  0.01100300  0.67420900  0.08523200  1
  Cl  Cl23  1  0.51100300  0.32579100  0.91476800  1
