# generated using pymatgen
data_Sc7CI12
_symmetry_space_group_name_H-M   'P 1'
_cell_length_a   9.39290685
_cell_length_b   9.39290685
_cell_length_c   9.39290608
_cell_angle_alpha   108.16148496
_cell_angle_beta   108.16148496
_cell_angle_gamma   108.16148394
_symmetry_Int_Tables_number   1
_chemical_formula_structural   Sc7CI12
_chemical_formula_sum   'Sc7 C1 I12'
_cell_volume   667.07975895
_cell_formula_units_Z   1
loop_
 _symmetry_equiv_pos_site_id
 _symmetry_equiv_pos_as_xyz
  1  'x, y, z'
loop_
 _atom_site_type_symbol
 _atom_site_label
 _atom_site_symmetry_multiplicity
 _atom_site_fract_x
 _atom_site_fract_y
 _atom_site_fract_z
 _atom_site_occupancy
  Sc  Sc0  1  0.09640600  0.03814200  0.27266600  1
  Sc  Sc1  1  0.27266600  0.09640600  0.03814200  1
  Sc  Sc2  1  0.03814200  0.27266600  0.09640600  1
  Sc  Sc3  1  0.73289400  0.91465600  0.97457100  1
  Sc  Sc4  1  0.97457100  0.73289400  0.91465600  1
  Sc  Sc5  1  0.91465600  0.97457100  0.73289400  1
  Sc  Sc6  1  0.47493000  0.47493000  0.47493000  1
  C  C7  1  0.99983800  0.99983800  0.99983800  1
  I  I8  1  0.78121300  0.92462600  0.29851200  1
  I  I9  1  0.38361400  0.46023400  0.14782100  1
  I  I10  1  0.46023400  0.14782100  0.38361400  1
  I  I11  1  0.14782100  0.38361400  0.46023400  1
  I  I12  1  0.29851200  0.78121300  0.92462600  1
  I  I13  1  0.92462600  0.29851200  0.78121300  1
  I  I14  1  0.61780100  0.54641900  0.83853100  1
  I  I15  1  0.83853100  0.61780100  0.54641900  1
  I  I16  1  0.54641900  0.83853100  0.61780100  1
  I  I17  1  0.70443900  0.22360700  0.07462900  1
  I  I18  1  0.07462900  0.70443900  0.22360700  1
  I  I19  1  0.22360700  0.07462900  0.70443900  1
