# generated using pymatgen
data_La2(Zn2Ge)3
_symmetry_space_group_name_H-M   'P 1'
_cell_length_a   7.74185516
_cell_length_b   7.74185516
_cell_length_c   4.16372000
_cell_angle_alpha   90.00000000
_cell_angle_beta   90.00000000
_cell_angle_gamma   119.99999283
_symmetry_Int_Tables_number   1
_chemical_formula_structural   La2(Zn2Ge)3
_chemical_formula_sum   'La2 Zn6 Ge3'
_cell_volume   216.12363519
_cell_formula_units_Z   1
loop_
 _symmetry_equiv_pos_site_id
 _symmetry_equiv_pos_as_xyz
  1  'x, y, z'
loop_
 _atom_site_type_symbol
 _atom_site_label
 _atom_site_symmetry_multiplicity
 _atom_site_fract_x
 _atom_site_fract_y
 _atom_site_fract_z
 _atom_site_occupancy
  La  La0  1  0.66666700  0.33333300  0.00000000  1
  La  La1  1  0.33333300  0.66666700  0.00000000  1
  Zn  Zn2  1  0.71127800  0.00000000  0.50000000  1
  Zn  Zn3  1  0.00000000  0.71127800  0.50000000  1
  Zn  Zn4  1  0.18856900  0.00000000  0.00000000  1
  Zn  Zn5  1  0.81143100  0.81143100  0.00000000  1
  Zn  Zn6  1  0.28872200  0.28872200  0.50000000  1
  Zn  Zn7  1  0.00000000  0.18856900  0.00000000  1
  Ge  Ge8  1  0.37958100  0.00000000  0.50000000  1
  Ge  Ge9  1  0.62041900  0.62041900  0.50000000  1
  Ge  Ge10  1  0.00000000  0.37958100  0.50000000  1
