# generated using pymatgen
data_Er4Ni13C4
_symmetry_space_group_name_H-M   'P 1'
_cell_length_a   8.35567122
_cell_length_b   8.35567122
_cell_length_c   3.83818500
_cell_angle_alpha   90.00000000
_cell_angle_beta   90.00000000
_cell_angle_gamma   91.26372575
_symmetry_Int_Tables_number   1
_chemical_formula_structural   Er4Ni13C4
_chemical_formula_sum   'Er4 Ni13 C4'
_cell_volume   267.90631101
_cell_formula_units_Z   1
loop_
 _symmetry_equiv_pos_site_id
 _symmetry_equiv_pos_as_xyz
  1  'x, y, z'
loop_
 _atom_site_type_symbol
 _atom_site_label
 _atom_site_symmetry_multiplicity
 _atom_site_fract_x
 _atom_site_fract_y
 _atom_site_fract_z
 _atom_site_occupancy
  Er  Er0  1  0.34837400  0.34837400  0.50000000  1
  Er  Er1  1  0.65162600  0.65162600  0.50000000  1
  Er  Er2  1  0.18723700  0.81276300  0.50000000  1
  Er  Er3  1  0.81276300  0.18723700  0.50000000  1
  Ni  Ni4  1  0.50000000  0.00000000  0.50000000  1
  Ni  Ni5  1  0.00000000  0.50000000  0.50000000  1
  Ni  Ni6  1  0.00000000  0.00000000  0.00000000  1
  Ni  Ni7  1  0.43017700  0.78437700  0.00000000  1
  Ni  Ni8  1  0.56982300  0.21562300  0.00000000  1
  Ni  Ni9  1  0.78437700  0.43017700  0.00000000  1
  Ni  Ni10  1  0.21562300  0.56982300  0.00000000  1
  Ni  Ni11  1  0.70905200  0.92558800  0.00000000  1
  Ni  Ni12  1  0.29094800  0.07441200  0.00000000  1
  Ni  Ni13  1  0.92558800  0.70905200  0.00000000  1
  Ni  Ni14  1  0.07441200  0.29094800  0.00000000  1
  Ni  Ni15  1  0.87662700  0.87662700  0.50000000  1
  Ni  Ni16  1  0.12337300  0.12337300  0.50000000  1
  C  C17  1  0.00000000  0.50000000  0.00000000  1
  C  C18  1  0.50000000  0.00000000  0.00000000  1
  C  C19  1  0.55703000  0.44297000  0.00000000  1
  C  C20  1  0.44297000  0.55703000  0.00000000  1
