# generated using pymatgen
data_Ba5(RuO5)2
_symmetry_space_group_name_H-M   'P 1'
_cell_length_a   6.07569370
_cell_length_b   6.07569370
_cell_length_c   18.05620200
_cell_angle_alpha   90.00000000
_cell_angle_beta   90.00000000
_cell_angle_gamma   119.99999670
_symmetry_Int_Tables_number   1
_chemical_formula_structural   Ba5(RuO5)2
_chemical_formula_sum   'Ba10 Ru4 O20'
_cell_volume   577.22986514
_cell_formula_units_Z   2
loop_
 _symmetry_equiv_pos_site_id
 _symmetry_equiv_pos_as_xyz
  1  'x, y, z'
loop_
 _atom_site_type_symbol
 _atom_site_label
 _atom_site_symmetry_multiplicity
 _atom_site_fract_x
 _atom_site_fract_y
 _atom_site_fract_z
 _atom_site_occupancy
  Ba  Ba0  1  0.33333300  0.66666700  0.48435700  1
  Ba  Ba1  1  0.66666700  0.33333300  0.98435700  1
  Ba  Ba2  1  0.66666700  0.33333300  0.51564300  1
  Ba  Ba3  1  0.33333300  0.66666700  0.01564300  1
  Ba  Ba4  1  0.66666700  0.33333300  0.75000000  1
  Ba  Ba5  1  0.33333300  0.66666700  0.25000000  1
  Ba  Ba6  1  0.00000000  0.00000000  0.36336400  1
  Ba  Ba7  1  0.00000000  0.00000000  0.86336400  1
  Ba  Ba8  1  0.00000000  0.00000000  0.63663600  1
  Ba  Ba9  1  0.00000000  0.00000000  0.13663600  1
  Ru  Ru10  1  0.33333300  0.66666700  0.82730400  1
  Ru  Ru11  1  0.66666700  0.33333300  0.32730400  1
  Ru  Ru12  1  0.66666700  0.33333300  0.17269600  1
  Ru  Ru13  1  0.33333300  0.66666700  0.67269600  1
  O  O14  1  0.00000000  0.00000000  0.50000000  1
  O  O15  1  0.00000000  0.00000000  0.00000000  1
  O  O16  1  0.48803400  0.51196600  0.88390700  1
  O  O17  1  0.48803400  0.97606800  0.88390700  1
  O  O18  1  0.02393200  0.51196600  0.88390700  1
  O  O19  1  0.97606800  0.48803400  0.38390700  1
  O  O20  1  0.51196600  0.02393200  0.11609300  1
  O  O21  1  0.51196600  0.48803400  0.38390700  1
  O  O22  1  0.51196600  0.02393200  0.38390700  1
  O  O23  1  0.48803400  0.51196600  0.61609300  1
  O  O24  1  0.02393200  0.51196600  0.61609300  1
  O  O25  1  0.97606800  0.48803400  0.11609300  1
  O  O26  1  0.51196600  0.48803400  0.11609300  1
  O  O27  1  0.48803400  0.97606800  0.61609300  1
  O  O28  1  0.18688100  0.37376100  0.75000000  1
  O  O29  1  0.81311900  0.18688100  0.25000000  1
  O  O30  1  0.37376100  0.18688100  0.25000000  1
  O  O31  1  0.62623900  0.81311900  0.75000000  1
  O  O32  1  0.18688100  0.81311900  0.75000000  1
  O  O33  1  0.81311900  0.62623900  0.25000000  1
