# generated using pymatgen
data_K4ZnO3
_symmetry_space_group_name_H-M   'P 1'
_cell_length_a   7.03859400
_cell_length_b   8.99823313
_cell_length_c   11.18832079
_cell_angle_alpha   102.48672367
_cell_angle_beta   89.33665243
_cell_angle_gamma   109.64595195
_symmetry_Int_Tables_number   1
_chemical_formula_structural   K4ZnO3
_chemical_formula_sum   'K16 Zn4 O12'
_cell_volume   650.13521901
_cell_formula_units_Z   4
loop_
 _symmetry_equiv_pos_site_id
 _symmetry_equiv_pos_as_xyz
  1  'x, y, z'
loop_
 _atom_site_type_symbol
 _atom_site_label
 _atom_site_symmetry_multiplicity
 _atom_site_fract_x
 _atom_site_fract_y
 _atom_site_fract_z
 _atom_site_occupancy
  K  K0  1  0.36425100  0.08836500  0.11710100  1
  K  K1  1  0.77843200  0.34352100  0.98234900  1
  K  K2  1  0.15525600  0.12180500  0.62220200  1
  K  K3  1  0.84474400  0.87819500  0.37779800  1
  K  K4  1  0.68870200  0.64449400  0.58042400  1
  K  K5  1  0.88504500  0.13433600  0.20383200  1
  K  K6  1  0.11495500  0.86566400  0.79616800  1
  K  K7  1  0.62161900  0.09381400  0.66868400  1
  K  K8  1  0.37838100  0.90618600  0.33131600  1
  K  K9  1  0.98347900  0.44764700  0.70377400  1
  K  K10  1  0.01652100  0.55235300  0.29622600  1
  K  K11  1  0.50260200  0.53010900  0.19994300  1
  K  K12  1  0.49739800  0.46989100  0.80005700  1
  K  K13  1  0.31129800  0.35550600  0.41957600  1
  K  K14  1  0.22156800  0.65647900  0.01765100  1
  K  K15  1  0.63574900  0.91163500  0.88289900  1
  Zn  Zn16  1  0.16378700  0.23314000  0.93885900  1
  Zn  Zn17  1  0.83621300  0.76686000  0.06114100  1
  Zn  Zn18  1  0.28804800  0.72202200  0.55914700  1
  Zn  Zn19  1  0.71195200  0.27797800  0.44085300  1
  O  O20  1  0.36397600  0.69055000  0.71496000  1
  O  O21  1  0.07463100  0.80301100  0.53575400  1
  O  O22  1  0.92536900  0.19698900  0.46424600  1
  O  O23  1  0.43969000  0.67865200  0.41838900  1
  O  O24  1  0.56031000  0.32134800  0.58161100  1
  O  O25  1  0.14006700  0.36108500  0.09734300  1
  O  O26  1  0.85993300  0.63891500  0.90265700  1
  O  O27  1  0.39255500  0.16280600  0.89482100  1
  O  O28  1  0.60744500  0.83719400  0.10517900  1
  O  O29  1  0.63602400  0.30945000  0.28504000  1
  O  O30  1  0.05768200  0.82891000  0.18380500  1
  O  O31  1  0.94231800  0.17109000  0.81619500  1
