# generated using pymatgen
data_Sr(InTe2)2
_symmetry_space_group_name_H-M   'P 1'
_cell_length_a   6.98096410
_cell_length_b   6.98096410
_cell_length_c   12.04430600
_cell_angle_alpha   90.00000000
_cell_angle_beta   90.00000000
_cell_angle_gamma   117.44009393
_symmetry_Int_Tables_number   1
_chemical_formula_structural   Sr(InTe2)2
_chemical_formula_sum   'Sr2 In4 Te8'
_cell_volume   520.92786841
_cell_formula_units_Z   2
loop_
 _symmetry_equiv_pos_site_id
 _symmetry_equiv_pos_as_xyz
  1  'x, y, z'
loop_
 _atom_site_type_symbol
 _atom_site_label
 _atom_site_symmetry_multiplicity
 _atom_site_fract_x
 _atom_site_fract_y
 _atom_site_fract_z
 _atom_site_occupancy
  Sr  Sr0  1  0.50000000  0.50000000  0.25000000  1
  Sr  Sr1  1  0.50000000  0.50000000  0.75000000  1
  In  In2  1  0.23132700  0.76353900  0.50000000  1
  In  In3  1  0.76867300  0.23646100  0.50000000  1
  In  In4  1  0.76353900  0.23132700  0.00000000  1
  In  In5  1  0.23646100  0.76867300  0.00000000  1
  Te  Te6  1  0.65628500  0.79151800  0.50000000  1
  Te  Te7  1  0.34371500  0.20848200  0.50000000  1
  Te  Te8  1  0.79151800  0.65628500  0.00000000  1
  Te  Te9  1  0.20848200  0.34371500  0.00000000  1
  Te  Te10  1  0.50000000  0.00000000  0.18341300  1
  Te  Te11  1  0.00000000  0.50000000  0.31658700  1
  Te  Te12  1  0.50000000  0.00000000  0.81658700  1
  Te  Te13  1  0.00000000  0.50000000  0.68341300  1
