# generated using pymatgen
data_Bi2Pd3S2
_symmetry_space_group_name_H-M   'P 1'
_cell_length_a   7.32269339
_cell_length_b   7.32269339
_cell_length_c   7.32269339
_cell_angle_alpha   109.47122063
_cell_angle_beta   109.47122063
_cell_angle_gamma   109.47122063
_symmetry_Int_Tables_number   1
_chemical_formula_structural   Bi2Pd3S2
_chemical_formula_sum   'Bi4 Pd6 S4'
_cell_volume   302.26694701
_cell_formula_units_Z   2
loop_
 _symmetry_equiv_pos_site_id
 _symmetry_equiv_pos_as_xyz
  1  'x, y, z'
loop_
 _atom_site_type_symbol
 _atom_site_label
 _atom_site_symmetry_multiplicity
 _atom_site_fract_x
 _atom_site_fract_y
 _atom_site_fract_z
 _atom_site_occupancy
  Bi  Bi0  1  0.00741200  0.50000000  0.00000000  1
  Bi  Bi1  1  0.49258800  0.49258800  0.49258800  1
  Bi  Bi2  1  0.00000000  0.00741200  0.50000000  1
  Bi  Bi3  1  0.50000000  0.00000000  0.00741200  1
  Pd  Pd4  1  0.52917500  0.75000000  0.27917500  1
  Pd  Pd5  1  0.27917500  0.52917500  0.75000000  1
  Pd  Pd6  1  0.25000000  0.22082500  0.97082500  1
  Pd  Pd7  1  0.22082500  0.97082500  0.25000000  1
  Pd  Pd8  1  0.75000000  0.27917500  0.52917500  1
  Pd  Pd9  1  0.97082500  0.25000000  0.22082500  1
  S  S10  1  0.55396800  0.50000000  0.00000000  1
  S  S11  1  0.50000000  0.00000000  0.55396800  1
  S  S12  1  0.94603200  0.94603200  0.94603200  1
  S  S13  1  0.00000000  0.55396800  0.50000000  1
