# generated using pymatgen
data_UCl5
_symmetry_space_group_name_H-M   'P 1'
_cell_length_a   6.91335407
_cell_length_b   7.54583625
_cell_length_c   10.26720476
_cell_angle_alpha   108.54982954
_cell_angle_beta   91.04258294
_cell_angle_gamma   116.20381226
_symmetry_Int_Tables_number   1
_chemical_formula_structural   UCl5
_chemical_formula_sum   'U2 Cl10'
_cell_volume   447.60131066
_cell_formula_units_Z   2
loop_
 _symmetry_equiv_pos_site_id
 _symmetry_equiv_pos_as_xyz
  1  'x, y, z'
loop_
 _atom_site_type_symbol
 _atom_site_label
 _atom_site_symmetry_multiplicity
 _atom_site_fract_x
 _atom_site_fract_y
 _atom_site_fract_z
 _atom_site_occupancy
  U  U0  1  0.10385200  0.21180400  0.21128400  1
  U  U1  1  0.89614800  0.78819600  0.78871600  1
  Cl  Cl2  1  0.93782800  0.19224600  0.42042400  1
  Cl  Cl3  1  0.06217200  0.80775400  0.57957600  1
  Cl  Cl4  1  0.23018500  0.17100300  0.95754000  1
  Cl  Cl5  1  0.76981500  0.82899700  0.04246000  1
  Cl  Cl6  1  0.10280000  0.61820300  0.84769500  1
  Cl  Cl7  1  0.89720000  0.38179700  0.15230500  1
  Cl  Cl8  1  0.69935500  0.97671500  0.74776300  1
  Cl  Cl9  1  0.30064500  0.02328500  0.25223700  1
  Cl  Cl10  1  0.56813300  0.43970400  0.67350000  1
  Cl  Cl11  1  0.43186700  0.56029600  0.32650000  1
