# generated using pymatgen
data_Hg3(SeCl)2
_symmetry_space_group_name_H-M   'P 1'
_cell_length_a   8.11759906
_cell_length_b   8.11759906
_cell_length_c   8.11759906
_cell_angle_alpha   109.47122063
_cell_angle_beta   109.47122063
_cell_angle_gamma   109.47122063
_symmetry_Int_Tables_number   1
_chemical_formula_structural   Hg3(SeCl)2
_chemical_formula_sum   'Hg6 Se4 Cl4'
_cell_volume   411.77587602
_cell_formula_units_Z   2
loop_
 _symmetry_equiv_pos_site_id
 _symmetry_equiv_pos_as_xyz
  1  'x, y, z'
loop_
 _atom_site_type_symbol
 _atom_site_label
 _atom_site_symmetry_multiplicity
 _atom_site_fract_x
 _atom_site_fract_y
 _atom_site_fract_z
 _atom_site_occupancy
  Hg  Hg0  1  0.93994600  0.25000000  0.18994600  1
  Hg  Hg1  1  0.75000000  0.31005400  0.56005400  1
  Hg  Hg2  1  0.18994600  0.93994600  0.25000000  1
  Hg  Hg3  1  0.25000000  0.18994600  0.93994600  1
  Hg  Hg4  1  0.31005400  0.56005400  0.75000000  1
  Hg  Hg5  1  0.56005400  0.75000000  0.31005400  1
  Se  Se6  1  0.54057300  0.50000000  0.00000000  1
  Se  Se7  1  0.95942700  0.95942700  0.95942700  1
  Se  Se8  1  0.50000000  0.00000000  0.54057300  1
  Se  Se9  1  0.00000000  0.54057300  0.50000000  1
  Cl  Cl10  1  0.01402700  0.50000000  0.00000000  1
  Cl  Cl11  1  0.48597300  0.48597300  0.48597300  1
  Cl  Cl12  1  0.00000000  0.01402700  0.50000000  1
  Cl  Cl13  1  0.50000000  0.00000000  0.01402700  1
