# generated using pymatgen
data_CaV2P2O9
_symmetry_space_group_name_H-M   'P 1'
_cell_length_a   6.54399900
_cell_length_b   7.47302000
_cell_length_c   14.36389000
_cell_angle_alpha   90.00000000
_cell_angle_beta   90.00000000
_cell_angle_gamma   90.00000000
_symmetry_Int_Tables_number   1
_chemical_formula_structural   CaV2P2O9
_chemical_formula_sum   'Ca4 V8 P8 O36'
_cell_volume   702.44356681
_cell_formula_units_Z   4
loop_
 _symmetry_equiv_pos_site_id
 _symmetry_equiv_pos_as_xyz
  1  'x, y, z'
loop_
 _atom_site_type_symbol
 _atom_site_label
 _atom_site_symmetry_multiplicity
 _atom_site_fract_x
 _atom_site_fract_y
 _atom_site_fract_z
 _atom_site_occupancy
  Ca  Ca0  1  0.25000000  0.88838700  0.27856700  1
  Ca  Ca1  1  0.25000000  0.61161300  0.77856700  1
  Ca  Ca2  1  0.75000000  0.38838700  0.22143300  1
  Ca  Ca3  1  0.75000000  0.11161300  0.72143300  1
  V  V4  1  0.25000000  0.35161400  0.38116500  1
  V  V5  1  0.75000000  0.64838600  0.61883500  1
  V  V6  1  0.75000000  0.85161400  0.11883500  1
  V  V7  1  0.25000000  0.14838600  0.88116500  1
  V  V8  1  0.00000000  0.00000000  0.50000000  1
  V  V9  1  0.00000000  0.50000000  0.00000000  1
  V  V10  1  0.50000000  0.50000000  0.00000000  1
  V  V11  1  0.50000000  0.00000000  0.50000000  1
  P  P12  1  0.75000000  0.35944200  0.43289700  1
  P  P13  1  0.25000000  0.64055800  0.56710300  1
  P  P14  1  0.25000000  0.85944200  0.06710300  1
  P  P15  1  0.75000000  0.14055800  0.93289700  1
  P  P16  1  0.25000000  0.38891000  0.19192500  1
  P  P17  1  0.25000000  0.11109000  0.69192500  1
  P  P18  1  0.75000000  0.88891000  0.30807500  1
  P  P19  1  0.75000000  0.61109000  0.80807500  1
  O  O20  1  0.55427800  0.60532000  0.86973000  1
  O  O21  1  0.05427800  0.39468000  0.13027000  1
  O  O22  1  0.44572200  0.10532000  0.63027000  1
  O  O23  1  0.94572200  0.89468000  0.36973000  1
  O  O24  1  0.44572200  0.39468000  0.13027000  1
  O  O25  1  0.94572200  0.60532000  0.86973000  1
  O  O26  1  0.55427800  0.89468000  0.36973000  1
  O  O27  1  0.05427800  0.10532000  0.63027000  1
  O  O28  1  0.75000000  0.32714100  0.98234000  1
  O  O29  1  0.25000000  0.67285900  0.01766000  1
  O  O30  1  0.25000000  0.82714100  0.51766000  1
  O  O31  1  0.75000000  0.17285900  0.48234000  1
  O  O32  1  0.25000000  0.12429800  0.44574000  1
  O  O33  1  0.75000000  0.87570200  0.55426000  1
  O  O34  1  0.75000000  0.62429800  0.05426000  1
  O  O35  1  0.25000000  0.37570200  0.94574000  1
  O  O36  1  0.25000000  0.21541500  0.25169300  1
  O  O37  1  0.75000000  0.78458500  0.74830700  1
  O  O38  1  0.75000000  0.71541500  0.24830700  1
  O  O39  1  0.25000000  0.28458500  0.75169300  1
  O  O40  1  0.93537400  0.13047300  0.86688000  1
  O  O41  1  0.43537400  0.86952700  0.13312000  1
  O  O42  1  0.06462600  0.63047300  0.63312000  1
  O  O43  1  0.56462600  0.36952700  0.36688000  1
  O  O44  1  0.06462600  0.86952700  0.13312000  1
  O  O45  1  0.56462600  0.13047300  0.86688000  1
  O  O46  1  0.93537400  0.36952700  0.36688000  1
  O  O47  1  0.43537400  0.63047300  0.63312000  1
  O  O48  1  0.25000000  0.49857400  0.49163400  1
  O  O49  1  0.75000000  0.04118200  0.23425700  1
  O  O50  1  0.75000000  0.45881800  0.73425700  1
  O  O51  1  0.25000000  0.54118200  0.26574300  1
  O  O52  1  0.25000000  0.00142600  0.99163400  1
  O  O53  1  0.75000000  0.99857400  0.00836600  1
  O  O54  1  0.75000000  0.50142600  0.50836600  1
  O  O55  1  0.25000000  0.95881800  0.76574300  1
