# generated using pymatgen
data_Y4OsBr4
_symmetry_space_group_name_H-M   'P 1'
_cell_length_a   8.98264262
_cell_length_b   8.98264262
_cell_length_c   6.59038216
_cell_angle_alpha   89.51183210
_cell_angle_beta   89.51183210
_cell_angle_gamma   89.36340677
_symmetry_Int_Tables_number   1
_chemical_formula_structural   Y4OsBr4
_chemical_formula_sum   'Y8 Os2 Br8'
_cell_volume   531.69289123
_cell_formula_units_Z   2
loop_
 _symmetry_equiv_pos_site_id
 _symmetry_equiv_pos_as_xyz
  1  'x, y, z'
loop_
 _atom_site_type_symbol
 _atom_site_label
 _atom_site_symmetry_multiplicity
 _atom_site_fract_x
 _atom_site_fract_y
 _atom_site_fract_z
 _atom_site_occupancy
  Y  Y0  1  0.75043100  0.09904200  0.98963900  1
  Y  Y1  1  0.09904200  0.75043100  0.48963900  1
  Y  Y2  1  0.09765300  0.24852000  0.99146700  1
  Y  Y3  1  0.24852000  0.09765300  0.49146700  1
  Y  Y4  1  0.90234700  0.75148000  0.00853300  1
  Y  Y5  1  0.90095800  0.24956900  0.51036100  1
  Y  Y6  1  0.24956900  0.90095800  0.01036100  1
  Y  Y7  1  0.75148000  0.90234700  0.50853300  1
  Os  Os8  1  0.99511800  0.00488200  0.25000000  1
  Os  Os9  1  0.00488200  0.99511800  0.75000000  1
  Br  Br10  1  0.58091700  0.18281400  0.59228000  1
  Br  Br11  1  0.81027400  0.58529400  0.40523500  1
  Br  Br12  1  0.41470600  0.18972600  0.09476500  1
  Br  Br13  1  0.18972600  0.41470600  0.59476500  1
  Br  Br14  1  0.58529400  0.81027400  0.90523500  1
  Br  Br15  1  0.41908300  0.81718600  0.40772000  1
  Br  Br16  1  0.18281400  0.58091700  0.09228000  1
  Br  Br17  1  0.81718600  0.41908300  0.90772000  1
