# generated using pymatgen
data_Rb2P3
_symmetry_space_group_name_H-M   'P 1'
_cell_length_a   8.90882772
_cell_length_b   8.72124335
_cell_length_c   6.68255788
_cell_angle_alpha   69.22206467
_cell_angle_beta   66.24492209
_cell_angle_gamma   44.53301324
_symmetry_Int_Tables_number   1
_chemical_formula_structural   Rb2P3
_chemical_formula_sum   'Rb4 P6'
_cell_volume   331.42765205
_cell_formula_units_Z   2
loop_
 _symmetry_equiv_pos_site_id
 _symmetry_equiv_pos_as_xyz
  1  'x, y, z'
loop_
 _atom_site_type_symbol
 _atom_site_label
 _atom_site_symmetry_multiplicity
 _atom_site_fract_x
 _atom_site_fract_y
 _atom_site_fract_z
 _atom_site_occupancy
  Rb  Rb0  1  0.25000000  0.25000000  0.25000000  1
  Rb  Rb1  1  0.75000000  0.75000000  0.75000000  1
  Rb  Rb2  1  0.72313200  0.27686800  0.72313200  1
  Rb  Rb3  1  0.27686800  0.72313200  0.27686800  1
  P  P4  1  0.85342100  0.85342100  0.14657900  1
  P  P5  1  0.14657900  0.14657900  0.85342100  1
  P  P6  1  0.72081900  0.13339400  0.27918100  1
  P  P7  1  0.86660600  0.27918100  0.13339400  1
  P  P8  1  0.27918100  0.86660600  0.72081900  1
  P  P9  1  0.13339400  0.72081900  0.86660600  1
