# generated using pymatgen
data_Hg4Sb2I3
_symmetry_space_group_name_H-M   'P 1'
_cell_length_a   13.91073100
_cell_length_b   13.91073100
_cell_length_c   13.91073100
_cell_angle_alpha   90.00000000
_cell_angle_beta   90.00000000
_cell_angle_gamma   90.00000000
_symmetry_Int_Tables_number   1
_chemical_formula_structural   Hg4Sb2I3
_chemical_formula_sum   'Hg32 Sb16 I24'
_cell_volume   2691.84381270
_cell_formula_units_Z   8
loop_
 _symmetry_equiv_pos_site_id
 _symmetry_equiv_pos_as_xyz
  1  'x, y, z'
loop_
 _atom_site_type_symbol
 _atom_site_label
 _atom_site_symmetry_multiplicity
 _atom_site_fract_x
 _atom_site_fract_y
 _atom_site_fract_z
 _atom_site_occupancy
  Hg  Hg0  1  0.02901600  0.00569400  0.24902900  1
  Hg  Hg1  1  0.24902900  0.02901600  0.00569400  1
  Hg  Hg2  1  0.00569400  0.24902900  0.02901600  1
  Hg  Hg3  1  0.49430600  0.75097200  0.52901600  1
  Hg  Hg4  1  0.74902800  0.47098400  0.99430600  1
  Hg  Hg5  1  0.99430600  0.74902800  0.47098400  1
  Hg  Hg6  1  0.25097200  0.97098400  0.50569400  1
  Hg  Hg7  1  0.75097200  0.52901600  0.49430600  1
  Hg  Hg8  1  0.50569400  0.25097200  0.97098400  1
  Hg  Hg9  1  0.52901600  0.49430600  0.75097200  1
  Hg  Hg10  1  0.97098400  0.50569400  0.25097200  1
  Hg  Hg11  1  0.47098400  0.99430600  0.74902800  1
  Hg  Hg12  1  0.97098400  0.99430600  0.75097200  1
  Hg  Hg13  1  0.75097200  0.97098400  0.99430600  1
  Hg  Hg14  1  0.99430600  0.75097200  0.97098400  1
  Hg  Hg15  1  0.50569400  0.24902900  0.47098400  1
  Hg  Hg16  1  0.25097200  0.52901600  0.00569400  1
  Hg  Hg17  1  0.00569400  0.25097200  0.52901600  1
  Hg  Hg18  1  0.74902800  0.02901600  0.49430600  1
  Hg  Hg19  1  0.24902900  0.47098400  0.50569400  1
  Hg  Hg20  1  0.49430600  0.74902800  0.02901600  1
  Hg  Hg21  1  0.47098400  0.50569400  0.24902900  1
  Hg  Hg22  1  0.02901600  0.49430600  0.74902800  1
  Hg  Hg23  1  0.52901600  0.00569400  0.25097200  1
  Hg  Hg24  1  0.77845200  0.22154800  0.72154800  1
  Hg  Hg25  1  0.72154800  0.77845200  0.22154800  1
  Hg  Hg26  1  0.22154800  0.72154800  0.77845200  1
  Hg  Hg27  1  0.27845200  0.27845200  0.27845200  1
  Hg  Hg28  1  0.22154800  0.77845200  0.27845200  1
  Hg  Hg29  1  0.27845200  0.22154800  0.77845200  1
  Hg  Hg30  1  0.77845200  0.27845200  0.22154800  1
  Hg  Hg31  1  0.72154800  0.72154800  0.72154800  1
  Sb  Sb32  1  0.89247900  0.10752100  0.60752100  1
  Sb  Sb33  1  0.60752100  0.89247900  0.10752100  1
  Sb  Sb34  1  0.10752100  0.60752100  0.89247900  1
  Sb  Sb35  1  0.39247900  0.39247900  0.39247900  1
  Sb  Sb36  1  0.10752100  0.89247900  0.39247900  1
  Sb  Sb37  1  0.39247900  0.10752100  0.89247900  1
  Sb  Sb38  1  0.89247900  0.39247900  0.10752100  1
  Sb  Sb39  1  0.60752100  0.60752100  0.60752100  1
  Sb  Sb40  1  0.55885300  0.05885300  0.44114700  1
  Sb  Sb41  1  0.44114700  0.55885300  0.05885300  1
  Sb  Sb42  1  0.05885300  0.44114700  0.55885300  1
  Sb  Sb43  1  0.94114700  0.94114700  0.94114700  1
  Sb  Sb44  1  0.44114700  0.94114700  0.55885300  1
  Sb  Sb45  1  0.55885300  0.44114700  0.94114700  1
  Sb  Sb46  1  0.94114700  0.55885300  0.44114700  1
  Sb  Sb47  1  0.05885300  0.05885300  0.05885300  1
  I  I48  1  0.23740400  0.18432400  0.56793700  1
  I  I49  1  0.56793700  0.23740400  0.18432400  1
  I  I50  1  0.18432400  0.56793700  0.23740400  1
  I  I51  1  0.31567600  0.43206300  0.73740400  1
  I  I52  1  0.06793700  0.26259600  0.81567600  1
  I  I53  1  0.81567600  0.06793700  0.26259600  1
  I  I54  1  0.93206300  0.76259600  0.68432400  1
  I  I55  1  0.43206300  0.73740400  0.31567600  1
  I  I56  1  0.68432400  0.93206300  0.76259600  1
  I  I57  1  0.73740400  0.31567600  0.43206300  1
  I  I58  1  0.76259600  0.68432400  0.93206300  1
  I  I59  1  0.26259600  0.81567600  0.06793700  1
  I  I60  1  0.76259600  0.81567600  0.43206300  1
  I  I61  1  0.43206300  0.76259600  0.81567600  1
  I  I62  1  0.81567600  0.43206300  0.76259600  1
  I  I63  1  0.68432400  0.56793700  0.26259600  1
  I  I64  1  0.93206300  0.73740400  0.18432400  1
  I  I65  1  0.18432400  0.93206300  0.73740400  1
  I  I66  1  0.06793700  0.23740400  0.31567600  1
  I  I67  1  0.56793700  0.26259600  0.68432400  1
  I  I68  1  0.31567600  0.06793700  0.23740400  1
  I  I69  1  0.26259600  0.68432400  0.56793700  1
  I  I70  1  0.23740400  0.31567600  0.06793700  1
  I  I71  1  0.73740400  0.18432400  0.93206300  1
