# generated using pymatgen
data_RuCl3
_symmetry_space_group_name_H-M   'P 1'
_cell_length_a   6.56077987
_cell_length_b   6.56077987
_cell_length_c   5.70864300
_cell_angle_alpha   90.00000000
_cell_angle_beta   90.00000000
_cell_angle_gamma   119.99999870
_symmetry_Int_Tables_number   1
_chemical_formula_structural   RuCl3
_chemical_formula_sum   'Ru2 Cl6'
_cell_volume   212.80138724
_cell_formula_units_Z   2
loop_
 _symmetry_equiv_pos_site_id
 _symmetry_equiv_pos_as_xyz
  1  'x, y, z'
loop_
 _atom_site_type_symbol
 _atom_site_label
 _atom_site_symmetry_multiplicity
 _atom_site_fract_x
 _atom_site_fract_y
 _atom_site_fract_z
 _atom_site_occupancy
  Ru  Ru0  1  0.00000000  0.00000000  0.50000000  1
  Ru  Ru1  1  0.00000000  0.00000000  0.00000000  1
  Cl  Cl2  1  0.71116800  0.00000000  0.75000000  1
  Cl  Cl3  1  0.71116800  0.71116800  0.25000000  1
  Cl  Cl4  1  0.28883200  0.00000000  0.25000000  1
  Cl  Cl5  1  0.28883200  0.28883200  0.75000000  1
  Cl  Cl6  1  0.00000000  0.71116800  0.75000000  1
  Cl  Cl7  1  0.00000000  0.28883200  0.25000000  1
