# generated using pymatgen
data_Hg3(TeBr)2
_symmetry_space_group_name_H-M   'P 1'
_cell_length_a   8.59063426
_cell_length_b   8.59063426
_cell_length_c   8.59063426
_cell_angle_alpha   109.47122063
_cell_angle_beta   109.47122063
_cell_angle_gamma   109.47122063
_symmetry_Int_Tables_number   1
_chemical_formula_structural   Hg3(TeBr)2
_chemical_formula_sum   'Hg6 Te4 Br4'
_cell_volume   488.03817852
_cell_formula_units_Z   2
loop_
 _symmetry_equiv_pos_site_id
 _symmetry_equiv_pos_as_xyz
  1  'x, y, z'
loop_
 _atom_site_type_symbol
 _atom_site_label
 _atom_site_symmetry_multiplicity
 _atom_site_fract_x
 _atom_site_fract_y
 _atom_site_fract_z
 _atom_site_occupancy
  Hg  Hg0  1  0.93610800  0.18610800  0.75000000  1
  Hg  Hg1  1  0.25000000  0.56389300  0.31389200  1
  Hg  Hg2  1  0.31389300  0.25000000  0.56389200  1
  Hg  Hg3  1  0.75000000  0.93610800  0.18610700  1
  Hg  Hg4  1  0.18610700  0.75000000  0.93610700  1
  Hg  Hg5  1  0.56389300  0.31389300  0.25000000  1
  Te  Te6  1  0.50000000  0.00000000  0.95558100  1
  Te  Te7  1  0.00000000  0.95558100  0.50000000  1
  Te  Te8  1  0.54441900  0.54441900  0.54441900  1
  Te  Te9  1  0.95558100  0.50000000  0.00000000  1
  Br  Br10  1  0.50000000  0.00000000  0.49029800  1
  Br  Br11  1  0.00000000  0.49029800  0.50000000  1
  Br  Br12  1  0.49029800  0.50000000  0.00000000  1
  Br  Br13  1  0.00970200  0.00970200  0.00970200  1
