# generated using pymatgen
data_AsXeF7
_symmetry_space_group_name_H-M   'P 1'
_cell_length_a   6.45698200
_cell_length_b   6.51777700
_cell_length_c   16.61308654
_cell_angle_alpha   77.64353467
_cell_angle_beta   90.00000000
_cell_angle_gamma   90.00000000
_symmetry_Int_Tables_number   1
_chemical_formula_structural   AsXeF7
_chemical_formula_sum   'As4 Xe4 F28'
_cell_volume   682.96851382
_cell_formula_units_Z   4
loop_
 _symmetry_equiv_pos_site_id
 _symmetry_equiv_pos_as_xyz
  1  'x, y, z'
loop_
 _atom_site_type_symbol
 _atom_site_label
 _atom_site_symmetry_multiplicity
 _atom_site_fract_x
 _atom_site_fract_y
 _atom_site_fract_z
 _atom_site_occupancy
  As  As0  1  0.72454400  0.15249200  0.61110900  1
  As  As1  1  0.22454400  0.84750800  0.88889100  1
  As  As2  1  0.27545600  0.84750800  0.38889100  1
  As  As3  1  0.77545600  0.15249200  0.11110900  1
  Xe  Xe4  1  0.78135800  0.36337400  0.37853200  1
  Xe  Xe5  1  0.28135800  0.63662600  0.12146800  1
  Xe  Xe6  1  0.21864200  0.63662600  0.62146800  1
  Xe  Xe7  1  0.71864200  0.36337400  0.87853200  1
  F  F8  1  0.87203900  0.54784600  0.27209200  1
  F  F9  1  0.37203900  0.45215400  0.22790800  1
  F  F10  1  0.12796100  0.45215400  0.72790800  1
  F  F11  1  0.62796100  0.54784600  0.77209200  1
  F  F12  1  0.67345600  0.15158700  0.49422600  1
  F  F13  1  0.17345600  0.84841300  0.00577400  1
  F  F14  1  0.32654400  0.84841300  0.50577400  1
  F  F15  1  0.82654400  0.15158700  0.99422600  1
  F  F16  1  0.77797800  0.87853400  0.12359100  1
  F  F17  1  0.27797800  0.12146600  0.37640900  1
  F  F18  1  0.22202200  0.12146600  0.87640900  1
  F  F19  1  0.72202200  0.87853400  0.62359100  1
  F  F20  1  0.04593500  0.15430500  0.11956500  1
  F  F21  1  0.54593500  0.84569500  0.38043500  1
  F  F22  1  0.95406500  0.84569500  0.88043500  1
  F  F23  1  0.45406500  0.15430500  0.61956500  1
  F  F24  1  0.73333300  0.14736800  0.21479900  1
  F  F25  1  0.23333300  0.85263200  0.28520100  1
  F  F26  1  0.26666700  0.85263200  0.78520100  1
  F  F27  1  0.76666700  0.14736800  0.71479900  1
  F  F28  1  0.77717700  0.42888200  0.08094100  1
  F  F29  1  0.27717700  0.57111800  0.41905900  1
  F  F30  1  0.22282300  0.57111800  0.91905900  1
  F  F31  1  0.72282300  0.42888200  0.58094100  1
  F  F32  1  0.51038100  0.15589900  0.08635500  1
  F  F33  1  0.01038100  0.84410100  0.41364500  1
  F  F34  1  0.48961900  0.84410100  0.91364500  1
  F  F35  1  0.98961900  0.15589900  0.58635500  1
