# generated using pymatgen
data_BrF5
_symmetry_space_group_name_H-M   'P 1'
_cell_length_a   5.03969017
_cell_length_b   5.03969017
_cell_length_c   7.99567400
_cell_angle_alpha   90.00000000
_cell_angle_beta   90.00000000
_cell_angle_gamma   96.17788585
_symmetry_Int_Tables_number   1
_chemical_formula_structural   BrF5
_chemical_formula_sum   'Br2 F10'
_cell_volume   201.89858230
_cell_formula_units_Z   2
loop_
 _symmetry_equiv_pos_site_id
 _symmetry_equiv_pos_as_xyz
  1  'x, y, z'
loop_
 _atom_site_type_symbol
 _atom_site_label
 _atom_site_symmetry_multiplicity
 _atom_site_fract_x
 _atom_site_fract_y
 _atom_site_fract_z
 _atom_site_occupancy
  Br  Br0  1  0.82642900  0.17357100  0.74998600  1
  Br  Br1  1  0.17357100  0.82642900  0.24998600  1
  F  F2  1  0.08269100  0.45725000  0.74100300  1
  F  F3  1  0.91730900  0.54275000  0.24100300  1
  F  F4  1  0.34865000  0.65135000  0.10443700  1
  F  F5  1  0.65135000  0.34865000  0.60443700  1
  F  F6  1  0.34406400  0.65593600  0.40973900  1
  F  F7  1  0.65593600  0.34406400  0.90973900  1
  F  F8  1  0.02569700  0.97430300  0.06383400  1
  F  F9  1  0.97430300  0.02569700  0.56383400  1
  F  F10  1  0.45725000  0.08269100  0.24100300  1
  F  F11  1  0.54275000  0.91730900  0.74100300  1
