# generated using pymatgen
data_Zr3P
_symmetry_space_group_name_H-M   'P 1'
_cell_length_a   10.85866300
_cell_length_b   10.85866300
_cell_length_c   5.38075200
_cell_angle_alpha   90.00000000
_cell_angle_beta   90.00000000
_cell_angle_gamma   90.00000000
_symmetry_Int_Tables_number   1
_chemical_formula_structural   Zr3P
_chemical_formula_sum   'Zr24 P8'
_cell_volume   634.44749310
_cell_formula_units_Z   8
loop_
 _symmetry_equiv_pos_site_id
 _symmetry_equiv_pos_as_xyz
  1  'x, y, z'
loop_
 _atom_site_type_symbol
 _atom_site_label
 _atom_site_symmetry_multiplicity
 _atom_site_fract_x
 _atom_site_fract_y
 _atom_site_fract_z
 _atom_site_occupancy
  Zr  Zr0  1  0.02729100  0.86283200  0.27817900  1
  Zr  Zr1  1  0.36283200  0.47270900  0.77817900  1
  Zr  Zr2  1  0.63716800  0.52729100  0.77817900  1
  Zr  Zr3  1  0.97270900  0.13716800  0.27817900  1
  Zr  Zr4  1  0.47270900  0.63716800  0.22182100  1
  Zr  Zr5  1  0.13716800  0.02729100  0.72182100  1
  Zr  Zr6  1  0.86283200  0.97270900  0.72182100  1
  Zr  Zr7  1  0.52729100  0.36283200  0.22182100  1
  Zr  Zr8  1  0.28480600  0.82055000  0.98489800  1
  Zr  Zr9  1  0.32055000  0.21519400  0.48489800  1
  Zr  Zr10  1  0.67945000  0.78480600  0.48489800  1
  Zr  Zr11  1  0.71519400  0.17945000  0.98489800  1
  Zr  Zr12  1  0.21519400  0.67945000  0.51510200  1
  Zr  Zr13  1  0.17945000  0.28480600  0.01510200  1
  Zr  Zr14  1  0.82055000  0.71519400  0.01510200  1
  Zr  Zr15  1  0.78480600  0.32055000  0.51510200  1
  Zr  Zr16  1  0.89265200  0.41521000  0.03707700  1
  Zr  Zr17  1  0.91521000  0.60734800  0.53707700  1
  Zr  Zr18  1  0.08479000  0.39265200  0.53707700  1
  Zr  Zr19  1  0.10734800  0.58479000  0.03707700  1
  Zr  Zr20  1  0.60734800  0.08479000  0.46292300  1
  Zr  Zr21  1  0.58479000  0.89265200  0.96292300  1
  Zr  Zr22  1  0.41521000  0.10734800  0.96292300  1
  Zr  Zr23  1  0.39265200  0.91521000  0.46292300  1
  P  P24  1  0.54076900  0.29353100  0.71337300  1
  P  P25  1  0.79353100  0.95923100  0.21337300  1
  P  P26  1  0.20646900  0.04076900  0.21337300  1
  P  P27  1  0.45923100  0.70646900  0.71337300  1
  P  P28  1  0.95923100  0.20646900  0.78662700  1
  P  P29  1  0.70646900  0.54076900  0.28662700  1
  P  P30  1  0.29353100  0.45923100  0.28662700  1
  P  P31  1  0.04076900  0.79353100  0.78662700  1
