# generated using pymatgen
data_LuB2Ru
_symmetry_space_group_name_H-M   'P 1'
_cell_length_a   5.26288100
_cell_length_b   5.82985800
_cell_length_c   6.28854200
_cell_angle_alpha   90.00000000
_cell_angle_beta   90.00000000
_cell_angle_gamma   90.00000000
_symmetry_Int_Tables_number   1
_chemical_formula_structural   LuB2Ru
_chemical_formula_sum   'Lu4 B8 Ru4'
_cell_volume   192.94409545
_cell_formula_units_Z   4
loop_
 _symmetry_equiv_pos_site_id
 _symmetry_equiv_pos_as_xyz
  1  'x, y, z'
loop_
 _atom_site_type_symbol
 _atom_site_label
 _atom_site_symmetry_multiplicity
 _atom_site_fract_x
 _atom_site_fract_y
 _atom_site_fract_z
 _atom_site_occupancy
  Lu  Lu0  1  0.25000000  0.51127300  0.66557600  1
  Lu  Lu1  1  0.75000000  0.48872700  0.33442400  1
  Lu  Lu2  1  0.25000000  0.01127300  0.83442400  1
  Lu  Lu3  1  0.75000000  0.98872700  0.16557600  1
  B  B4  1  0.91618600  0.13471400  0.53518300  1
  B  B5  1  0.41618600  0.86528600  0.46481700  1
  B  B6  1  0.58381400  0.63471400  0.96481700  1
  B  B7  1  0.08381400  0.36528600  0.03518300  1
  B  B8  1  0.08381400  0.86528600  0.46481700  1
  B  B9  1  0.91618600  0.63471400  0.96481700  1
  B  B10  1  0.41618600  0.36528600  0.03518300  1
  B  B11  1  0.58381400  0.13471400  0.53518300  1
  Ru  Ru12  1  0.75000000  0.81939500  0.68165600  1
  Ru  Ru13  1  0.75000000  0.31939500  0.81834400  1
  Ru  Ru14  1  0.25000000  0.18060500  0.31834400  1
  Ru  Ru15  1  0.25000000  0.68060500  0.18165600  1
