# generated using pymatgen
data_V2P
_symmetry_space_group_name_H-M   'P 1'
_cell_length_a   3.27367500
_cell_length_b   6.18388000
_cell_length_c   7.56755400
_cell_angle_alpha   90.00000000
_cell_angle_beta   90.00000000
_cell_angle_gamma   90.00000000
_symmetry_Int_Tables_number   1
_chemical_formula_structural   V2P
_chemical_formula_sum   'V8 P4'
_cell_volume   153.19766427
_cell_formula_units_Z   4
loop_
 _symmetry_equiv_pos_site_id
 _symmetry_equiv_pos_as_xyz
  1  'x, y, z'
loop_
 _atom_site_type_symbol
 _atom_site_label
 _atom_site_symmetry_multiplicity
 _atom_site_fract_x
 _atom_site_fract_y
 _atom_site_fract_z
 _atom_site_occupancy
  V  V0  1  0.25000000  0.86126900  0.94117400  1
  V  V1  1  0.25000000  0.36126900  0.55882600  1
  V  V2  1  0.75000000  0.13873100  0.05882600  1
  V  V3  1  0.75000000  0.63873100  0.44117400  1
  V  V4  1  0.25000000  0.96012800  0.33352300  1
  V  V5  1  0.25000000  0.46012800  0.16647700  1
  V  V6  1  0.75000000  0.03987200  0.66647700  1
  V  V7  1  0.75000000  0.53987200  0.83352300  1
  P  P8  1  0.25000000  0.24769600  0.85782800  1
  P  P9  1  0.25000000  0.74769600  0.64217200  1
  P  P10  1  0.75000000  0.75230400  0.14217200  1
  P  P11  1  0.75000000  0.25230400  0.35782800  1
