# generated using pymatgen
data_H3OF
_symmetry_space_group_name_H-M   'P 1'
_cell_length_a   4.18265400
_cell_length_b   6.28316100
_cell_length_c   6.43374500
_cell_angle_alpha   90.00000000
_cell_angle_beta   90.00000000
_cell_angle_gamma   90.00000000
_symmetry_Int_Tables_number   1
_chemical_formula_structural   H3OF
_chemical_formula_sum   'H12 O4 F4'
_cell_volume   169.08067467
_cell_formula_units_Z   4
loop_
 _symmetry_equiv_pos_site_id
 _symmetry_equiv_pos_as_xyz
  1  'x, y, z'
loop_
 _atom_site_type_symbol
 _atom_site_label
 _atom_site_symmetry_multiplicity
 _atom_site_fract_x
 _atom_site_fract_y
 _atom_site_fract_z
 _atom_site_occupancy
  H  H0  1  0.75000000  0.54507500  0.20414100  1
  H  H1  1  0.25000000  0.45492500  0.79585900  1
  H  H2  1  0.75000000  0.95492500  0.70414100  1
  H  H3  1  0.25000000  0.04507500  0.29585900  1
  H  H4  1  0.45475900  0.23970800  0.88200100  1
  H  H5  1  0.95475900  0.76029200  0.11799900  1
  H  H6  1  0.04524100  0.26029200  0.38200100  1
  H  H7  1  0.54524100  0.73970800  0.61799900  1
  H  H8  1  0.45475900  0.26029200  0.38200100  1
  H  H9  1  0.95475900  0.73970800  0.61799900  1
  H  H10  1  0.04524100  0.23970800  0.88200100  1
  H  H11  1  0.54524100  0.76029200  0.11799900  1
  O  O12  1  0.25000000  0.16941100  0.40249800  1
  O  O13  1  0.75000000  0.83058900  0.59750200  1
  O  O14  1  0.25000000  0.33058900  0.90249800  1
  O  O15  1  0.75000000  0.66941100  0.09750200  1
  F  F16  1  0.75000000  0.37404600  0.35165200  1
  F  F17  1  0.25000000  0.62595400  0.64834800  1
  F  F18  1  0.75000000  0.12595400  0.85165200  1
  F  F19  1  0.25000000  0.87404600  0.14834800  1
