# generated using pymatgen
data_K2SnTe5
_symmetry_space_group_name_H-M   'P 1'
_cell_length_a   9.89736896
_cell_length_b   9.89736896
_cell_length_c   9.89736896
_cell_angle_alpha   128.04590562
_cell_angle_beta   128.04590562
_cell_angle_gamma   76.55067465
_symmetry_Int_Tables_number   1
_chemical_formula_structural   K2SnTe5
_chemical_formula_sum   'K4 Sn2 Te10'
_cell_volume   584.09421032
_cell_formula_units_Z   2
loop_
 _symmetry_equiv_pos_site_id
 _symmetry_equiv_pos_as_xyz
  1  'x, y, z'
loop_
 _atom_site_type_symbol
 _atom_site_label
 _atom_site_symmetry_multiplicity
 _atom_site_fract_x
 _atom_site_fract_y
 _atom_site_fract_z
 _atom_site_occupancy
  K  K0  1  0.00000000  0.00000000  0.00000000  1
  K  K1  1  0.50000000  0.50000000  0.00000000  1
  K  K2  1  0.25000000  0.25000000  0.00000000  1
  K  K3  1  0.75000000  0.75000000  0.00000000  1
  Sn  Sn4  1  0.25000000  0.75000000  0.50000000  1
  Sn  Sn5  1  0.75000000  0.25000000  0.50000000  1
  Te  Te6  1  0.04336200  0.18528600  0.50000000  1
  Te  Te7  1  0.54336200  0.04336200  0.85807500  1
  Te  Te8  1  0.50000000  0.00000000  0.50000000  1
  Te  Te9  1  0.00000000  0.50000000  0.50000000  1
  Te  Te10  1  0.68528600  0.54336200  0.50000000  1
  Te  Te11  1  0.18528600  0.68528600  0.14192500  1
  Te  Te12  1  0.81471400  0.31471400  0.85807500  1
  Te  Te13  1  0.31471400  0.45663800  0.50000000  1
  Te  Te14  1  0.95663800  0.81471400  0.50000000  1
  Te  Te15  1  0.45663800  0.95663800  0.14192500  1
