# generated using pymatgen
data_KInBr3
_symmetry_space_group_name_H-M   'P 1'
_cell_length_a   8.78791780
_cell_length_b   8.78791780
_cell_length_c   11.05620800
_cell_angle_alpha   90.00000000
_cell_angle_beta   90.00000000
_cell_angle_gamma   119.99999847
_symmetry_Int_Tables_number   1
_chemical_formula_structural   KInBr3
_chemical_formula_sum   'K4 In4 Br12'
_cell_volume   739.44999532
_cell_formula_units_Z   4
loop_
 _symmetry_equiv_pos_site_id
 _symmetry_equiv_pos_as_xyz
  1  'x, y, z'
loop_
 _atom_site_type_symbol
 _atom_site_label
 _atom_site_symmetry_multiplicity
 _atom_site_fract_x
 _atom_site_fract_y
 _atom_site_fract_z
 _atom_site_occupancy
  K  K0  1  0.33333300  0.66666700  0.87841700  1
  K  K1  1  0.66666700  0.33333300  0.12158300  1
  K  K2  1  0.00000000  0.00000000  0.25829900  1
  K  K3  1  0.00000000  0.00000000  0.74170100  1
  In  In4  1  0.33333300  0.66666700  0.25133600  1
  In  In5  1  0.66666700  0.33333300  0.74866400  1
  In  In6  1  0.33333300  0.66666700  0.50383500  1
  In  In7  1  0.66666700  0.33333300  0.49616500  1
  Br  Br8  1  0.28457100  0.38906600  0.12662100  1
  Br  Br9  1  0.61093400  0.89550600  0.12662100  1
  Br  Br10  1  0.10449400  0.71542900  0.12662100  1
  Br  Br11  1  0.71542900  0.61093400  0.87337900  1
  Br  Br12  1  0.38906600  0.10449400  0.87337900  1
  Br  Br13  1  0.89550600  0.28457100  0.87337900  1
  Br  Br14  1  0.09278400  0.69936400  0.62451600  1
  Br  Br15  1  0.30063600  0.39342000  0.62451600  1
  Br  Br16  1  0.60658000  0.90721600  0.62451600  1
  Br  Br17  1  0.90721600  0.30063600  0.37548400  1
  Br  Br18  1  0.69936400  0.60658000  0.37548400  1
  Br  Br19  1  0.39342000  0.09278400  0.37548400  1
