# generated using pymatgen
data_PtBr3
_symmetry_space_group_name_H-M   'P 1'
_cell_length_a   13.74759270
_cell_length_b   13.74759270
_cell_length_c   13.74759252
_cell_angle_alpha   115.10259645
_cell_angle_beta   115.10259645
_cell_angle_gamma   115.10259943
_symmetry_Int_Tables_number   1
_chemical_formula_structural   PtBr3
_chemical_formula_sum   'Pt12 Br36'
_cell_volume   1440.44575175
_cell_formula_units_Z   12
loop_
 _symmetry_equiv_pos_site_id
 _symmetry_equiv_pos_as_xyz
  1  'x, y, z'
loop_
 _atom_site_type_symbol
 _atom_site_label
 _atom_site_symmetry_multiplicity
 _atom_site_fract_x
 _atom_site_fract_y
 _atom_site_fract_z
 _atom_site_occupancy
  Pt  Pt0  1  0.77111500  0.19870000  0.52438900  1
  Pt  Pt1  1  0.19870000  0.52438900  0.77111500  1
  Pt  Pt2  1  0.52438900  0.77111500  0.19870000  1
  Pt  Pt3  1  0.22888500  0.80130000  0.47561100  1
  Pt  Pt4  1  0.80130000  0.47561100  0.22888500  1
  Pt  Pt5  1  0.47561100  0.22888500  0.80130000  1
  Pt  Pt6  1  0.24297600  0.06496100  0.16452500  1
  Pt  Pt7  1  0.06496100  0.16452500  0.24297600  1
  Pt  Pt8  1  0.16452500  0.24297600  0.06496100  1
  Pt  Pt9  1  0.75702400  0.93503900  0.83547500  1
  Pt  Pt10  1  0.93503900  0.83547500  0.75702400  1
  Pt  Pt11  1  0.83547500  0.75702400  0.93503900  1
  Br  Br12  1  0.23728800  0.16709700  0.65295800  1
  Br  Br13  1  0.16709700  0.65295800  0.23728800  1
  Br  Br14  1  0.65295800  0.23728800  0.16709700  1
  Br  Br15  1  0.76271200  0.83290300  0.34704200  1
  Br  Br16  1  0.83290300  0.34704200  0.76271200  1
  Br  Br17  1  0.34704200  0.76271200  0.83290300  1
  Br  Br18  1  0.44560500  0.60350300  0.94985100  1
  Br  Br19  1  0.60350300  0.94985100  0.44560500  1
  Br  Br20  1  0.94985100  0.44560500  0.60350300  1
  Br  Br21  1  0.55439500  0.39649700  0.05014900  1
  Br  Br22  1  0.39649700  0.05014900  0.55439500  1
  Br  Br23  1  0.05014900  0.55439500  0.39649700  1
  Br  Br24  1  0.30033000  0.22359900  0.39767400  1
  Br  Br25  1  0.39767400  0.30033000  0.22359900  1
  Br  Br26  1  0.22359900  0.39767400  0.30033000  1
  Br  Br27  1  0.69967000  0.77640100  0.60232600  1
  Br  Br28  1  0.60232600  0.69967000  0.77640100  1
  Br  Br29  1  0.77640100  0.60232600  0.69967000  1
  Br  Br30  1  0.82568700  0.09680600  0.07640600  1
  Br  Br31  1  0.07640600  0.82568700  0.09680600  1
  Br  Br32  1  0.09680600  0.07640600  0.82568700  1
  Br  Br33  1  0.17431300  0.90319400  0.92359400  1
  Br  Br34  1  0.92359400  0.17431300  0.90319400  1
  Br  Br35  1  0.90319400  0.92359400  0.17431300  1
  Br  Br36  1  0.68963100  0.02656200  0.27130500  1
  Br  Br37  1  0.27130500  0.68963100  0.02656200  1
  Br  Br38  1  0.02656200  0.27130500  0.68963100  1
  Br  Br39  1  0.31036900  0.97343800  0.72869500  1
  Br  Br40  1  0.72869500  0.31036900  0.97343800  1
  Br  Br41  1  0.97343800  0.72869500  0.31036900  1
  Br  Br42  1  0.62691100  0.46349000  0.85133800  1
  Br  Br43  1  0.85133800  0.62691100  0.46349000  1
  Br  Br44  1  0.46349000  0.85133800  0.62691100  1
  Br  Br45  1  0.37308900  0.53651000  0.14866200  1
  Br  Br46  1  0.14866200  0.37308900  0.53651000  1
  Br  Br47  1  0.53651000  0.14866200  0.37308900  1
