# generated using pymatgen
data_CsMnCl3
_symmetry_space_group_name_H-M   'P 1'
_cell_length_a   10.18127421
_cell_length_b   10.18127421
_cell_length_c   10.18127348
_cell_angle_alpha   42.66795504
_cell_angle_beta   42.66795504
_cell_angle_gamma   42.66795502
_symmetry_Int_Tables_number   1
_chemical_formula_structural   CsMnCl3
_chemical_formula_sum   'Cs3 Mn3 Cl9'
_cell_volume   439.10730362
_cell_formula_units_Z   3
loop_
 _symmetry_equiv_pos_site_id
 _symmetry_equiv_pos_as_xyz
  1  'x, y, z'
loop_
 _atom_site_type_symbol
 _atom_site_label
 _atom_site_symmetry_multiplicity
 _atom_site_fract_x
 _atom_site_fract_y
 _atom_site_fract_z
 _atom_site_occupancy
  Cs  Cs0  1  0.28035900  0.28035900  0.28035900  1
  Cs  Cs1  1  0.71964100  0.71964100  0.71964100  1
  Cs  Cs2  1  0.50000000  0.50000000  0.50000000  1
  Mn  Mn3  1  0.00000000  0.00000000  0.00000000  1
  Mn  Mn4  1  0.11643200  0.11643200  0.11643200  1
  Mn  Mn5  1  0.88356800  0.88356800  0.88356800  1
  Cl  Cl6  1  0.21211300  0.21211300  0.74947700  1
  Cl  Cl7  1  0.74947700  0.21211300  0.21211300  1
  Cl  Cl8  1  0.21211300  0.74947700  0.21211300  1
  Cl  Cl9  1  0.78788700  0.78788700  0.25052300  1
  Cl  Cl10  1  0.25052300  0.78788700  0.78788700  1
  Cl  Cl11  1  0.78788700  0.25052300  0.78788700  1
  Cl  Cl12  1  0.00000000  0.00000000  0.50000000  1
  Cl  Cl13  1  0.50000000  0.00000000  0.00000000  1
  Cl  Cl14  1  0.00000000  0.50000000  0.00000000  1
