# generated using pymatgen
data_RbH3(SeO3)2
_symmetry_space_group_name_H-M   'P 1'
_cell_length_a   6.06172100
_cell_length_b   6.48811400
_cell_length_c   18.27762200
_cell_angle_alpha   90.00000000
_cell_angle_beta   90.00000000
_cell_angle_gamma   90.00000000
_symmetry_Int_Tables_number   1
_chemical_formula_structural   RbH3(SeO3)2
_chemical_formula_sum   'Rb4 H12 Se8 O24'
_cell_volume   718.84309756
_cell_formula_units_Z   4
loop_
 _symmetry_equiv_pos_site_id
 _symmetry_equiv_pos_as_xyz
  1  'x, y, z'
loop_
 _atom_site_type_symbol
 _atom_site_label
 _atom_site_symmetry_multiplicity
 _atom_site_fract_x
 _atom_site_fract_y
 _atom_site_fract_z
 _atom_site_occupancy
  Rb  Rb0  1  0.01777000  0.48259700  0.16313700  1
  Rb  Rb1  1  0.51777000  0.01740300  0.83686300  1
  Rb  Rb2  1  0.98223000  0.98259700  0.33686300  1
  Rb  Rb3  1  0.48223000  0.51740300  0.66313700  1
  H  H4  1  0.02578600  0.25009800  0.78055700  1
  H  H5  1  0.52578600  0.24990200  0.21944300  1
  H  H6  1  0.97421400  0.75009800  0.71944300  1
  H  H7  1  0.47421400  0.74990200  0.28055700  1
  H  H8  1  0.34910300  0.53218600  0.86547100  1
  H  H9  1  0.84910300  0.96781400  0.13452900  1
  H  H10  1  0.65089700  0.03218600  0.63452900  1
  H  H11  1  0.15089700  0.46781400  0.36547100  1
  H  H12  1  0.72945500  0.70947700  0.01345100  1
  H  H13  1  0.22945500  0.79052300  0.98654900  1
  H  H14  1  0.27054500  0.20947700  0.48654900  1
  H  H15  1  0.77054500  0.29052300  0.51345100  1
  Se  Se16  1  0.96287800  0.54716100  0.85360000  1
  Se  Se17  1  0.46287800  0.95283900  0.14640000  1
  Se  Se18  1  0.03712200  0.04716100  0.64640000  1
  Se  Se19  1  0.53712200  0.45283900  0.35360000  1
  Se  Se20  1  0.48060000  0.42447600  0.00604900  1
  Se  Se21  1  0.98060000  0.07552400  0.99395100  1
  Se  Se22  1  0.51940000  0.92447600  0.49395100  1
  Se  Se23  1  0.01940000  0.57552400  0.50604900  1
  O  O24  1  0.98008100  0.56002600  0.41321900  1
  O  O25  1  0.48008100  0.93997400  0.58678100  1
  O  O26  1  0.01991900  0.06002600  0.08678100  1
  O  O27  1  0.51991900  0.43997400  0.91321900  1
  O  O28  1  0.78959400  0.42898600  0.54101100  1
  O  O29  1  0.28959400  0.07101400  0.45898900  1
  O  O30  1  0.21040600  0.92898600  0.95898900  1
  O  O31  1  0.71040600  0.57101400  0.04101100  1
  O  O32  1  0.24043400  0.42295400  0.52382900  1
  O  O33  1  0.74043400  0.07704600  0.47617100  1
  O  O34  1  0.75956600  0.92295400  0.97617100  1
  O  O35  1  0.25956600  0.57704600  0.02382900  1
  O  O36  1  0.66669400  0.32364400  0.28648100  1
  O  O37  1  0.16669400  0.17635600  0.71351900  1
  O  O38  1  0.33330600  0.82364400  0.21351900  1
  O  O39  1  0.83330600  0.67635600  0.78648100  1
  O  O40  1  0.25831300  0.40888300  0.32496800  1
  O  O41  1  0.75831300  0.09111700  0.67503200  1
  O  O42  1  0.74168700  0.90888300  0.17503200  1
  O  O43  1  0.24168700  0.59111700  0.82496800  1
  O  O44  1  0.55839300  0.71880900  0.32832300  1
  O  O45  1  0.05839300  0.78119100  0.67167700  1
  O  O46  1  0.44160700  0.21880900  0.17167700  1
  O  O47  1  0.94160700  0.28119100  0.82832300  1
