# generated using pymatgen
data_CsCu2Cl3
_symmetry_space_group_name_H-M   'P 1'
_cell_length_a   7.92486277
_cell_length_b   7.92486277
_cell_length_c   5.34507700
_cell_angle_alpha   90.00000000
_cell_angle_beta   90.00000000
_cell_angle_gamma   104.19660832
_symmetry_Int_Tables_number   1
_chemical_formula_structural   CsCu2Cl3
_chemical_formula_sum   'Cs2 Cu4 Cl6'
_cell_volume   325.43728170
_cell_formula_units_Z   2
loop_
 _symmetry_equiv_pos_site_id
 _symmetry_equiv_pos_as_xyz
  1  'x, y, z'
loop_
 _atom_site_type_symbol
 _atom_site_label
 _atom_site_symmetry_multiplicity
 _atom_site_fract_x
 _atom_site_fract_y
 _atom_site_fract_z
 _atom_site_occupancy
  Cs  Cs0  1  0.68759100  0.31240900  0.25000000  1
  Cs  Cs1  1  0.31240900  0.68759100  0.75000000  1
  Cu  Cu2  1  0.16630600  0.16630600  0.00000000  1
  Cu  Cu3  1  0.83369400  0.83369400  0.00000000  1
  Cu  Cu4  1  0.83369400  0.83369400  0.50000000  1
  Cu  Cu5  1  0.16630600  0.16630600  0.50000000  1
  Cl  Cl6  1  0.10743000  0.89257000  0.25000000  1
  Cl  Cl7  1  0.89257000  0.10743000  0.75000000  1
  Cl  Cl8  1  0.16070600  0.39871100  0.25000000  1
  Cl  Cl9  1  0.83929400  0.60128900  0.75000000  1
  Cl  Cl10  1  0.60128900  0.83929400  0.25000000  1
  Cl  Cl11  1  0.39871100  0.16070600  0.75000000  1
