# generated using pymatgen
data_PRhO4
_symmetry_space_group_name_H-M   'P 1'
_cell_length_a   9.09872904
_cell_length_b   9.09872904
_cell_length_c   9.09872904
_cell_angle_alpha   138.29527564
_cell_angle_beta   109.03486289
_cell_angle_gamma   85.82938248
_symmetry_Int_Tables_number   1
_chemical_formula_structural   PRhO4
_chemical_formula_sum   'P6 Rh6 O24'
_cell_volume   455.93515284
_cell_formula_units_Z   6
loop_
 _symmetry_equiv_pos_site_id
 _symmetry_equiv_pos_as_xyz
  1  'x, y, z'
loop_
 _atom_site_type_symbol
 _atom_site_label
 _atom_site_symmetry_multiplicity
 _atom_site_fract_x
 _atom_site_fract_y
 _atom_site_fract_z
 _atom_site_occupancy
  P  P0  1  0.17424400  0.67424400  0.00000000  1
  P  P1  1  0.32575600  0.32575600  0.50000000  1
  P  P2  1  0.82575600  0.32575600  0.00000000  1
  P  P3  1  0.67424400  0.67424400  0.50000000  1
  P  P4  1  0.75000000  0.83078700  0.08078700  1
  P  P5  1  0.25000000  0.16921300  0.91921300  1
  Rh  Rh6  1  0.11897300  0.11897300  0.50000000  1
  Rh  Rh7  1  0.38102700  0.88102700  0.00000000  1
  Rh  Rh8  1  0.88102700  0.88102700  0.50000000  1
  Rh  Rh9  1  0.61897300  0.11897300  0.00000000  1
  Rh  Rh10  1  0.50000000  0.50000000  0.00000000  1
  Rh  Rh11  1  0.00000000  0.00000000  0.00000000  1
  O  O12  1  0.14398600  0.78329500  0.91387000  1
  O  O13  1  0.35601400  0.26988400  0.63931000  1
  O  O14  1  0.13057500  0.21670500  0.36069000  1
  O  O15  1  0.36942500  0.73011600  0.08613000  1
  O  O16  1  0.85601400  0.21670500  0.08613000  1
  O  O17  1  0.64398600  0.73011600  0.36069000  1
  O  O18  1  0.86942500  0.78329500  0.63931000  1
  O  O19  1  0.63057500  0.26988400  0.91387000  1
  O  O20  1  0.91491300  0.57732300  0.21475400  1
  O  O21  1  0.58508700  0.79984100  0.66241000  1
  O  O22  1  0.63743100  0.42267700  0.33759000  1
  O  O23  1  0.86256900  0.20015900  0.78524600  1
  O  O24  1  0.15403800  0.20253700  0.04849900  1
  O  O25  1  0.34596200  0.39446100  0.04849900  1
  O  O26  1  0.84596200  0.79746300  0.95150100  1
  O  O27  1  0.65403800  0.60553900  0.95150100  1
  O  O28  1  0.62817300  0.97692800  0.10510100  1
  O  O29  1  0.87182700  0.97692800  0.34875400  1
  O  O30  1  0.12817300  0.02307200  0.65124600  1
  O  O31  1  0.37182700  0.02307200  0.89489900  1
  O  O32  1  0.13743100  0.79984100  0.21475400  1
  O  O33  1  0.36256900  0.57732300  0.66241000  1
  O  O34  1  0.41491300  0.20015900  0.33759000  1
  O  O35  1  0.08508700  0.42267700  0.78524600  1
