# generated using pymatgen
data_Eu(PIr)2
_symmetry_space_group_name_H-M   'P 1'
_cell_length_a   6.72474748
_cell_length_b   6.72474748
_cell_length_c   7.11882500
_cell_angle_alpha   90.00000000
_cell_angle_beta   90.00000000
_cell_angle_gamma   119.99999487
_symmetry_Int_Tables_number   1
_chemical_formula_structural   Eu(PIr)2
_chemical_formula_sum   'Eu3 P6 Ir6'
_cell_volume   278.79882083
_cell_formula_units_Z   3
loop_
 _symmetry_equiv_pos_site_id
 _symmetry_equiv_pos_as_xyz
  1  'x, y, z'
loop_
 _atom_site_type_symbol
 _atom_site_label
 _atom_site_symmetry_multiplicity
 _atom_site_fract_x
 _atom_site_fract_y
 _atom_site_fract_z
 _atom_site_occupancy
  Eu  Eu0  1  0.39567800  0.39567800  0.50000000  1
  Eu  Eu1  1  0.60432200  0.00000000  0.16666700  1
  Eu  Eu2  1  0.00000000  0.60432200  0.83333300  1
  P  P3  1  0.88227700  0.22190200  0.54351900  1
  P  P4  1  0.22190200  0.88227700  0.45648100  1
  P  P5  1  0.11772300  0.33962600  0.12314800  1
  P  P6  1  0.77809800  0.66037400  0.21018500  1
  P  P7  1  0.33962600  0.11772300  0.87685200  1
  P  P8  1  0.66037400  0.77809800  0.78981500  1
  Ir  Ir9  1  0.86872000  0.86872000  0.50000000  1
  Ir  Ir10  1  0.13128000  0.00000000  0.16666700  1
  Ir  Ir11  1  0.48656100  0.48656100  0.00000000  1
  Ir  Ir12  1  0.00000000  0.51343900  0.33333300  1
  Ir  Ir13  1  0.51343900  0.00000000  0.66666700  1
  Ir  Ir14  1  0.00000000  0.13128000  0.83333300  1
