# generated using pymatgen
data_Nb3TeCl7
_symmetry_space_group_name_H-M   'P 1'
_cell_length_a   6.98570166
_cell_length_b   6.98570166
_cell_length_c   13.79209000
_cell_angle_alpha   90.00000000
_cell_angle_beta   90.00000000
_cell_angle_gamma   119.99999676
_symmetry_Int_Tables_number   1
_chemical_formula_structural   Nb3TeCl7
_chemical_formula_sum   'Nb6 Te2 Cl14'
_cell_volume   582.88220449
_cell_formula_units_Z   2
loop_
 _symmetry_equiv_pos_site_id
 _symmetry_equiv_pos_as_xyz
  1  'x, y, z'
loop_
 _atom_site_type_symbol
 _atom_site_label
 _atom_site_symmetry_multiplicity
 _atom_site_fract_x
 _atom_site_fract_y
 _atom_site_fract_z
 _atom_site_occupancy
  Nb  Nb0  1  0.52691200  0.47308800  0.75863500  1
  Nb  Nb1  1  0.52691200  0.05382300  0.75863500  1
  Nb  Nb2  1  0.47308800  0.52691200  0.24136500  1
  Nb  Nb3  1  0.47308800  0.94617700  0.24136500  1
  Nb  Nb4  1  0.05382300  0.52691200  0.24136500  1
  Nb  Nb5  1  0.94617700  0.47308800  0.75863500  1
  Te  Te6  1  0.66666700  0.33333300  0.60339700  1
  Te  Te7  1  0.33333300  0.66666700  0.39660300  1
  Cl  Cl8  1  0.83247200  0.16752800  0.33455800  1
  Cl  Cl9  1  0.83247200  0.66494400  0.33455800  1
  Cl  Cl10  1  0.33505600  0.16752800  0.33455800  1
  Cl  Cl11  1  0.66494400  0.83247200  0.66544200  1
  Cl  Cl12  1  0.16752800  0.33505600  0.66544200  1
  Cl  Cl13  1  0.16752800  0.83247200  0.66544200  1
  Cl  Cl14  1  0.16932500  0.83067500  0.12634900  1
  Cl  Cl15  1  0.16932500  0.33865100  0.12634900  1
  Cl  Cl16  1  0.33333300  0.66666700  0.85823900  1
  Cl  Cl17  1  0.66666700  0.33333300  0.14176100  1
  Cl  Cl18  1  0.83067500  0.16932500  0.87365100  1
  Cl  Cl19  1  0.83067500  0.66134900  0.87365100  1
  Cl  Cl20  1  0.33865100  0.16932500  0.87365100  1
  Cl  Cl21  1  0.66134900  0.83067500  0.12634900  1
