# generated using pymatgen
data_CsReBr4
_symmetry_space_group_name_H-M   'P 1'
_cell_length_a   10.60162400
_cell_length_b   13.06943500
_cell_length_c   13.56505800
_cell_angle_alpha   90.00000000
_cell_angle_beta   90.00000000
_cell_angle_gamma   90.00000000
_symmetry_Int_Tables_number   1
_chemical_formula_structural   CsReBr4
_chemical_formula_sum   'Cs8 Re8 Br32'
_cell_volume   1879.53693944
_cell_formula_units_Z   8
loop_
 _symmetry_equiv_pos_site_id
 _symmetry_equiv_pos_as_xyz
  1  'x, y, z'
loop_
 _atom_site_type_symbol
 _atom_site_label
 _atom_site_symmetry_multiplicity
 _atom_site_fract_x
 _atom_site_fract_y
 _atom_site_fract_z
 _atom_site_occupancy
  Cs  Cs0  1  0.33513700  0.69603600  0.36687500  1
  Cs  Cs1  1  0.83513700  0.80396400  0.63312500  1
  Cs  Cs2  1  0.66486300  0.19603600  0.13312500  1
  Cs  Cs3  1  0.16486300  0.30396400  0.86687500  1
  Cs  Cs4  1  0.66486300  0.30396400  0.63312500  1
  Cs  Cs5  1  0.16486300  0.19603600  0.36687500  1
  Cs  Cs6  1  0.33513700  0.80396400  0.86687500  1
  Cs  Cs7  1  0.83513700  0.69603600  0.13312500  1
  Re  Re8  1  0.55970500  0.01452400  0.43082000  1
  Re  Re9  1  0.05970500  0.48547600  0.56918000  1
  Re  Re10  1  0.44029500  0.51452400  0.06918000  1
  Re  Re11  1  0.94029500  0.98547600  0.93082000  1
  Re  Re12  1  0.44029500  0.98547600  0.56918000  1
  Re  Re13  1  0.94029500  0.51452400  0.43082000  1
  Re  Re14  1  0.55970500  0.48547600  0.93082000  1
  Re  Re15  1  0.05970500  0.01452400  0.06918000  1
  Br  Br16  1  0.52874800  0.20153800  0.39546600  1
  Br  Br17  1  0.02874800  0.29846200  0.60453400  1
  Br  Br18  1  0.47125200  0.70153800  0.10453400  1
  Br  Br19  1  0.97125200  0.79846200  0.89546600  1
  Br  Br20  1  0.47125200  0.79846200  0.60453400  1
  Br  Br21  1  0.97125200  0.70153800  0.39546600  1
  Br  Br22  1  0.52874800  0.29846200  0.89546600  1
  Br  Br23  1  0.02874800  0.20153800  0.10453400  1
  Br  Br24  1  0.41373400  0.98512600  0.28873700  1
  Br  Br25  1  0.91373400  0.51487400  0.71126300  1
  Br  Br26  1  0.58626600  0.48512600  0.21126300  1
  Br  Br27  1  0.08626600  0.01487400  0.78873700  1
  Br  Br28  1  0.58626600  0.01487400  0.71126300  1
  Br  Br29  1  0.08626600  0.48512600  0.28873700  1
  Br  Br30  1  0.41373400  0.51487400  0.78873700  1
  Br  Br31  1  0.91373400  0.98512600  0.21126300  1
  Br  Br32  1  0.27183700  0.06144000  0.00273600  1
  Br  Br33  1  0.77183700  0.43856000  0.99726400  1
  Br  Br34  1  0.72816300  0.56144000  0.49726400  1
  Br  Br35  1  0.22816300  0.93856000  0.50273600  1
  Br  Br36  1  0.72816300  0.93856000  0.99726400  1
  Br  Br37  1  0.22816300  0.56144000  0.00273600  1
  Br  Br38  1  0.27183700  0.43856000  0.50273600  1
  Br  Br39  1  0.77183700  0.06144000  0.49726400  1
  Br  Br40  1  0.15152200  0.84418100  0.10958500  1
  Br  Br41  1  0.65152200  0.65581900  0.89041500  1
  Br  Br42  1  0.84847800  0.34418100  0.39041500  1
  Br  Br43  1  0.34847800  0.15581900  0.60958500  1
  Br  Br44  1  0.84847800  0.15581900  0.89041500  1
  Br  Br45  1  0.34847800  0.34418100  0.10958500  1
  Br  Br46  1  0.15152200  0.65581900  0.60958500  1
  Br  Br47  1  0.65152200  0.84418100  0.39041500  1
