# generated using pymatgen
data_Ti2InC
_symmetry_space_group_name_H-M   'P 1'
_cell_length_a   3.14661293
_cell_length_b   3.14661293
_cell_length_c   14.21716700
_cell_angle_alpha   90.00000000
_cell_angle_beta   90.00000000
_cell_angle_gamma   120.00001952
_symmetry_Int_Tables_number   1
_chemical_formula_structural   Ti2InC
_chemical_formula_sum   'Ti4 In2 C2'
_cell_volume   121.90745267
_cell_formula_units_Z   2
loop_
 _symmetry_equiv_pos_site_id
 _symmetry_equiv_pos_as_xyz
  1  'x, y, z'
loop_
 _atom_site_type_symbol
 _atom_site_label
 _atom_site_symmetry_multiplicity
 _atom_site_fract_x
 _atom_site_fract_y
 _atom_site_fract_z
 _atom_site_occupancy
  Ti  Ti0  1  0.33333300  0.66666700  0.07825000  1
  Ti  Ti1  1  0.33333300  0.66666700  0.42175000  1
  Ti  Ti2  1  0.66666700  0.33333300  0.57825000  1
  Ti  Ti3  1  0.66666700  0.33333300  0.92175000  1
  In  In4  1  0.33333300  0.66666700  0.75000000  1
  In  In5  1  0.66666700  0.33333300  0.25000000  1
  C  C6  1  0.00000000  0.00000000  0.00000000  1
  C  C7  1  0.00000000  0.00000000  0.50000000  1
