# generated using pymatgen
data_Na4P2O7
_symmetry_space_group_name_H-M   'P 1'
_cell_length_a   5.46644500
_cell_length_b   9.43197300
_cell_length_c   13.66669000
_cell_angle_alpha   90.00000000
_cell_angle_beta   90.00000000
_cell_angle_gamma   90.00000000
_symmetry_Int_Tables_number   1
_chemical_formula_structural   Na4P2O7
_chemical_formula_sum   'Na16 P8 O28'
_cell_volume   704.64581221
_cell_formula_units_Z   4
loop_
 _symmetry_equiv_pos_site_id
 _symmetry_equiv_pos_as_xyz
  1  'x, y, z'
loop_
 _atom_site_type_symbol
 _atom_site_label
 _atom_site_symmetry_multiplicity
 _atom_site_fract_x
 _atom_site_fract_y
 _atom_site_fract_z
 _atom_site_occupancy
  Na  Na0  1  0.24992800  0.02719600  0.76631300  1
  Na  Na1  1  0.74992800  0.47280400  0.23368700  1
  Na  Na2  1  0.75007200  0.52719600  0.73368700  1
  Na  Na3  1  0.25007200  0.97280400  0.26631300  1
  Na  Na4  1  0.26648100  0.00897900  0.51398400  1
  Na  Na5  1  0.76648100  0.49102100  0.48601600  1
  Na  Na6  1  0.73351900  0.50897900  0.98601600  1
  Na  Na7  1  0.23351900  0.99102100  0.01398400  1
  Na  Na8  1  0.71082400  0.16650500  0.08171000  1
  Na  Na9  1  0.21082400  0.33349500  0.91829000  1
  Na  Na10  1  0.28917600  0.66650500  0.41829000  1
  Na  Na11  1  0.78917600  0.83349500  0.58171000  1
  Na  Na12  1  0.24579800  0.62166700  0.09505100  1
  Na  Na13  1  0.74579800  0.87833300  0.90494900  1
  Na  Na14  1  0.75420200  0.12166700  0.40494900  1
  Na  Na15  1  0.25420200  0.37833300  0.59505100  1
  P  P16  1  0.74075900  0.19301100  0.85618100  1
  P  P17  1  0.24075900  0.30698900  0.14381900  1
  P  P18  1  0.25924100  0.69301100  0.64381900  1
  P  P19  1  0.75924100  0.80698900  0.35618100  1
  P  P20  1  0.77178600  0.18622200  0.63858200  1
  P  P21  1  0.27178600  0.31377800  0.36141800  1
  P  P22  1  0.22821400  0.68622200  0.86141800  1
  P  P23  1  0.72821400  0.81377800  0.13858200  1
  O  O24  1  0.82627100  0.66454500  0.11694400  1
  O  O25  1  0.32627100  0.83545500  0.88305600  1
  O  O26  1  0.17372900  0.16454500  0.38305600  1
  O  O27  1  0.67372900  0.33545500  0.61694400  1
  O  O28  1  0.44932700  0.82020800  0.14855300  1
  O  O29  1  0.94932700  0.67979200  0.85144700  1
  O  O30  1  0.55067300  0.32020800  0.35144700  1
  O  O31  1  0.05067300  0.17979200  0.64855300  1
  O  O32  1  0.83169400  0.92717000  0.06975200  1
  O  O33  1  0.33169400  0.57283000  0.93024800  1
  O  O34  1  0.16830600  0.42717000  0.43024800  1
  O  O35  1  0.66830600  0.07283000  0.56975200  1
  O  O36  1  0.70066900  0.64854800  0.35218900  1
  O  O37  1  0.20066900  0.85145200  0.64781100  1
  O  O38  1  0.29933100  0.14854800  0.14781100  1
  O  O39  1  0.79933100  0.35145200  0.85218900  1
  O  O40  1  0.53574700  0.89720200  0.38327500  1
  O  O41  1  0.03574700  0.60279800  0.61672500  1
  O  O42  1  0.46425300  0.39720200  0.11672500  1
  O  O43  1  0.96425300  0.10279800  0.88327500  1
  O  O44  1  0.98232400  0.84338300  0.41970600  1
  O  O45  1  0.48232400  0.65661700  0.58029400  1
  O  O46  1  0.01767600  0.34338300  0.08029400  1
  O  O47  1  0.51767600  0.15661700  0.91970600  1
  O  O48  1  0.65246400  0.13994700  0.74631200  1
  O  O49  1  0.15246400  0.36005300  0.25368800  1
  O  O50  1  0.34753600  0.63994700  0.75368800  1
  O  O51  1  0.84753600  0.86005300  0.24631200  1
