# generated using pymatgen
data_Sr4(PPd)5
_symmetry_space_group_name_H-M   'P 1'
_cell_length_a   15.90948183
_cell_length_b   15.90948183
_cell_length_c   8.70568700
_cell_angle_alpha   90.00000000
_cell_angle_beta   90.00000000
_cell_angle_gamma   164.75005289
_symmetry_Int_Tables_number   1
_chemical_formula_structural   Sr4(PPd)5
_chemical_formula_sum   'Sr8 P10 Pd10'
_cell_volume   579.59007283
_cell_formula_units_Z   2
loop_
 _symmetry_equiv_pos_site_id
 _symmetry_equiv_pos_as_xyz
  1  'x, y, z'
loop_
 _atom_site_type_symbol
 _atom_site_label
 _atom_site_symmetry_multiplicity
 _atom_site_fract_x
 _atom_site_fract_y
 _atom_site_fract_z
 _atom_site_occupancy
  Sr  Sr0  1  0.19356500  0.80643500  0.50427700  1
  Sr  Sr1  1  0.80643500  0.19356500  0.49572300  1
  Sr  Sr2  1  0.80643500  0.19356500  0.00427700  1
  Sr  Sr3  1  0.19356500  0.80643500  0.99572300  1
  Sr  Sr4  1  0.42083800  0.57916200  0.00024400  1
  Sr  Sr5  1  0.57916200  0.42083800  0.50024400  1
  Sr  Sr6  1  0.57916200  0.42083800  0.99975600  1
  Sr  Sr7  1  0.42083800  0.57916200  0.49975600  1
  P  P8  1  0.72906000  0.27094000  0.25000000  1
  P  P9  1  0.95765100  0.04234900  0.25000000  1
  P  P10  1  0.95667900  0.04332100  0.75000000  1
  P  P11  1  0.04234900  0.95765100  0.75000000  1
  P  P12  1  0.04332100  0.95667900  0.25000000  1
  P  P13  1  0.34307000  0.65693000  0.75000000  1
  P  P14  1  0.65693000  0.34307000  0.25000000  1
  P  P15  1  0.65572500  0.34427500  0.75000000  1
  P  P16  1  0.27094000  0.72906000  0.75000000  1
  P  P17  1  0.34427500  0.65572500  0.25000000  1
  Pd  Pd18  1  0.26648100  0.73351900  0.25000000  1
  Pd  Pd19  1  0.73351900  0.26648100  0.75000000  1
  Pd  Pd20  1  0.00000000  0.00000000  0.50000000  1
  Pd  Pd21  1  0.12007300  0.87992700  0.25000000  1
  Pd  Pd22  1  0.87992700  0.12007300  0.75000000  1
  Pd  Pd23  1  0.88143900  0.11856100  0.25000000  1
  Pd  Pd24  1  0.11856100  0.88143900  0.75000000  1
  Pd  Pd25  1  0.49994200  0.50005800  0.25000000  1
  Pd  Pd26  1  0.50005800  0.49994200  0.75000000  1
  Pd  Pd27  1  0.00000000  0.00000000  0.00000000  1
