# generated using pymatgen
data_TlB3O5
_symmetry_space_group_name_H-M   'P 1'
_cell_length_a   5.42613300
_cell_length_b   8.39407400
_cell_length_c   10.40782600
_cell_angle_alpha   90.00000000
_cell_angle_beta   90.00000000
_cell_angle_gamma   90.00000000
_symmetry_Int_Tables_number   1
_chemical_formula_structural   TlB3O5
_chemical_formula_sum   'Tl4 B12 O20'
_cell_volume   474.04901779
_cell_formula_units_Z   4
loop_
 _symmetry_equiv_pos_site_id
 _symmetry_equiv_pos_as_xyz
  1  'x, y, z'
loop_
 _atom_site_type_symbol
 _atom_site_label
 _atom_site_symmetry_multiplicity
 _atom_site_fract_x
 _atom_site_fract_y
 _atom_site_fract_z
 _atom_site_occupancy
  Tl  Tl0  1  0.45978300  0.73188000  0.63685300  1
  Tl  Tl1  1  0.95978300  0.76812000  0.36314700  1
  Tl  Tl2  1  0.54021700  0.23188000  0.86314700  1
  Tl  Tl3  1  0.04021700  0.26812000  0.13685300  1
  B  B4  1  0.08952200  0.34890900  0.64461000  1
  B  B5  1  0.58952200  0.15109100  0.35539000  1
  B  B6  1  0.91047800  0.84890900  0.85539000  1
  B  B7  1  0.41047800  0.65109100  0.14461000  1
  B  B8  1  0.70415000  0.61851900  0.95896500  1
  B  B9  1  0.20415000  0.88148100  0.04103500  1
  B  B10  1  0.96545900  0.06446400  0.69171800  1
  B  B11  1  0.46545900  0.43553600  0.30828200  1
  B  B12  1  0.03454100  0.56446400  0.80828200  1
  B  B13  1  0.53454100  0.93553600  0.19171800  1
  B  B14  1  0.29585000  0.11851900  0.54103500  1
  B  B15  1  0.79585000  0.38148100  0.45896500  1
  O  O16  1  0.29989800  0.27439000  0.57914800  1
  O  O17  1  0.85315300  0.50749100  0.89190200  1
  O  O18  1  0.64684700  0.49250900  0.39190200  1
  O  O19  1  0.35315300  0.99250900  0.10809800  1
  O  O20  1  0.56634000  0.77541500  0.20870300  1
  O  O21  1  0.06634000  0.72458500  0.79129700  1
  O  O22  1  0.43366000  0.27541500  0.29129700  1
  O  O23  1  0.93366000  0.22458500  0.70870300  1
  O  O24  1  0.31413900  0.53919400  0.24250200  1
  O  O25  1  0.81413900  0.96080600  0.75749800  1
  O  O26  1  0.68586100  0.03919400  0.25749800  1
  O  O27  1  0.18586100  0.46080600  0.74250200  1
  O  O28  1  0.70010200  0.77439000  0.92085200  1
  O  O29  1  0.20010200  0.72561000  0.07914800  1
  O  O30  1  0.93736000  0.44325900  0.55446900  1
  O  O31  1  0.43736000  0.05674100  0.44553100  1
  O  O32  1  0.06264000  0.94325900  0.94553100  1
  O  O33  1  0.56264000  0.55674100  0.05446900  1
  O  O34  1  0.14684700  0.00749100  0.60809800  1
  O  O35  1  0.79989800  0.22561000  0.42085200  1
