# generated using pymatgen
data_CeMgTl
_symmetry_space_group_name_H-M   'P 1'
_cell_length_a   7.77173170
_cell_length_b   7.77173170
_cell_length_c   4.78221300
_cell_angle_alpha   90.00000000
_cell_angle_beta   90.00000000
_cell_angle_gamma   119.99999747
_symmetry_Int_Tables_number   1
_chemical_formula_structural   CeMgTl
_chemical_formula_sum   'Ce3 Mg3 Tl3'
_cell_volume   250.14691848
_cell_formula_units_Z   3
loop_
 _symmetry_equiv_pos_site_id
 _symmetry_equiv_pos_as_xyz
  1  'x, y, z'
loop_
 _atom_site_type_symbol
 _atom_site_label
 _atom_site_symmetry_multiplicity
 _atom_site_fract_x
 _atom_site_fract_y
 _atom_site_fract_z
 _atom_site_occupancy
  Ce  Ce0  1  0.57566300  0.57566300  0.00000000  1
  Ce  Ce1  1  0.42433700  0.00000000  0.00000000  1
  Ce  Ce2  1  0.00000000  0.42433700  0.00000000  1
  Mg  Mg3  1  0.00000000  0.75685500  0.50000000  1
  Mg  Mg4  1  0.24314500  0.24314500  0.50000000  1
  Mg  Mg5  1  0.75685500  0.00000000  0.50000000  1
  Tl  Tl6  1  0.33333300  0.66666700  0.50000000  1
  Tl  Tl7  1  0.00000000  0.00000000  0.00000000  1
  Tl  Tl8  1  0.66666700  0.33333300  0.50000000  1
