# generated using pymatgen
data_BSF7
_symmetry_space_group_name_H-M   'P 1'
_cell_length_a   5.81523200
_cell_length_b   9.08927600
_cell_length_c   9.76384100
_cell_angle_alpha   90.00000000
_cell_angle_beta   90.00000000
_cell_angle_gamma   90.00000000
_symmetry_Int_Tables_number   1
_chemical_formula_structural   BSF7
_chemical_formula_sum   'B4 S4 F28'
_cell_volume   516.08000769
_cell_formula_units_Z   4
loop_
 _symmetry_equiv_pos_site_id
 _symmetry_equiv_pos_as_xyz
  1  'x, y, z'
loop_
 _atom_site_type_symbol
 _atom_site_label
 _atom_site_symmetry_multiplicity
 _atom_site_fract_x
 _atom_site_fract_y
 _atom_site_fract_z
 _atom_site_occupancy
  B  B0  1  0.75000000  0.16014300  0.48018600  1
  B  B1  1  0.75000000  0.33985700  0.98018600  1
  B  B2  1  0.25000000  0.66014300  0.01981400  1
  B  B3  1  0.25000000  0.83985700  0.51981400  1
  S  S4  1  0.25000000  0.38454000  0.78925300  1
  S  S5  1  0.75000000  0.61546000  0.21074700  1
  S  S6  1  0.75000000  0.88454000  0.71074700  1
  S  S7  1  0.25000000  0.11546000  0.28925300  1
  F  F8  1  0.05046700  0.73822800  0.06477000  1
  F  F9  1  0.44953300  0.76177200  0.56477000  1
  F  F10  1  0.94953300  0.23822800  0.43523000  1
  F  F11  1  0.55046700  0.26177200  0.93523000  1
  F  F12  1  0.05097900  0.05575400  0.19810800  1
  F  F13  1  0.55097900  0.94424600  0.80189200  1
  F  F14  1  0.94902100  0.55575400  0.30189200  1
  F  F15  1  0.44902100  0.44424600  0.69810800  1
  F  F16  1  0.94902100  0.94424600  0.80189200  1
  F  F17  1  0.44902100  0.05575400  0.19810800  1
  F  F18  1  0.05097900  0.44424600  0.69810800  1
  F  F19  1  0.55097900  0.55575400  0.30189200  1
  F  F20  1  0.25000000  0.27351500  0.22985000  1
  F  F21  1  0.75000000  0.72648500  0.77015000  1
  F  F22  1  0.75000000  0.77351500  0.27015000  1
  F  F23  1  0.25000000  0.22648500  0.72985000  1
  F  F24  1  0.75000000  0.15201000  0.62586300  1
  F  F25  1  0.25000000  0.84799000  0.37413700  1
  F  F26  1  0.25000000  0.65201000  0.87413700  1
  F  F27  1  0.75000000  0.34799000  0.12586300  1
  F  F28  1  0.75000000  0.01826500  0.42515100  1
  F  F29  1  0.25000000  0.98173500  0.57484900  1
  F  F30  1  0.25000000  0.51826500  0.07484900  1
  F  F31  1  0.75000000  0.48173500  0.92515100  1
  F  F32  1  0.55046700  0.23822800  0.43523000  1
  F  F33  1  0.05046700  0.76177200  0.56477000  1
  F  F34  1  0.44953300  0.73822800  0.06477000  1
  F  F35  1  0.94953300  0.26177200  0.93523000  1
