# generated using pymatgen
data_AsCl2F3
_symmetry_space_group_name_H-M   'P 1'
_cell_length_a   8.94534500
_cell_length_b   8.94534500
_cell_length_c   6.43010800
_cell_angle_alpha   90.00000000
_cell_angle_beta   90.00000000
_cell_angle_gamma   90.00000000
_symmetry_Int_Tables_number   1
_chemical_formula_structural   AsCl2F3
_chemical_formula_sum   'As4 Cl8 F12'
_cell_volume   514.53207987
_cell_formula_units_Z   4
loop_
 _symmetry_equiv_pos_site_id
 _symmetry_equiv_pos_as_xyz
  1  'x, y, z'
loop_
 _atom_site_type_symbol
 _atom_site_label
 _atom_site_symmetry_multiplicity
 _atom_site_fract_x
 _atom_site_fract_y
 _atom_site_fract_z
 _atom_site_occupancy
  As  As0  1  0.50000000  0.00000000  0.67523000  1
  As  As1  1  0.00000000  0.50000000  0.32477000  1
  As  As2  1  0.50000000  0.50000000  0.00000000  1
  As  As3  1  0.00000000  0.00000000  0.00000000  1
  Cl  Cl4  1  0.46333700  0.68599500  0.19134100  1
  Cl  Cl5  1  0.18599500  0.03666300  0.19134100  1
  Cl  Cl6  1  0.68599500  0.53666300  0.80865900  1
  Cl  Cl7  1  0.03666300  0.81400500  0.80865900  1
  Cl  Cl8  1  0.96333700  0.18599500  0.80865900  1
  Cl  Cl9  1  0.31400500  0.46333700  0.80865900  1
  Cl  Cl10  1  0.53666300  0.31400500  0.19134100  1
  Cl  Cl11  1  0.81400500  0.96333700  0.19134100  1
  F  F12  1  0.50000000  0.00000000  0.39749500  1
  F  F13  1  0.00000000  0.50000000  0.60250500  1
  F  F14  1  0.43161600  0.81326500  0.67322800  1
  F  F15  1  0.31326500  0.06838400  0.67322800  1
  F  F16  1  0.68673500  0.93161600  0.67322800  1
  F  F17  1  0.56838400  0.18673500  0.67322800  1
  F  F18  1  0.06838400  0.68673500  0.32677200  1
  F  F19  1  0.18673500  0.43161600  0.32677200  1
  F  F20  1  0.81326500  0.56838400  0.32677200  1
  F  F21  1  0.00000000  0.50000000  0.05032900  1
  F  F22  1  0.50000000  0.00000000  0.94967100  1
  F  F23  1  0.93161600  0.31326500  0.32677200  1
