# generated using pymatgen
data_Tb4BBr6
_symmetry_space_group_name_H-M   'P 1'
_cell_length_a   10.81461365
_cell_length_b   10.81461365
_cell_length_c   12.68004172
_cell_angle_alpha   84.66484026
_cell_angle_beta   84.66484026
_cell_angle_gamma   63.23996186
_symmetry_Int_Tables_number   1
_chemical_formula_structural   Tb4BBr6
_chemical_formula_sum   'Tb16 B4 Br24'
_cell_volume   1316.25789508
_cell_formula_units_Z   4
loop_
 _symmetry_equiv_pos_site_id
 _symmetry_equiv_pos_as_xyz
  1  'x, y, z'
loop_
 _atom_site_type_symbol
 _atom_site_label
 _atom_site_symmetry_multiplicity
 _atom_site_fract_x
 _atom_site_fract_y
 _atom_site_fract_z
 _atom_site_occupancy
  Tb  Tb0  1  0.71065600  0.47045100  0.19180900  1
  Tb  Tb1  1  0.52954900  0.28934400  0.30819100  1
  Tb  Tb2  1  0.28934400  0.52954900  0.80819100  1
  Tb  Tb3  1  0.47045100  0.71065600  0.69180900  1
  Tb  Tb4  1  0.78332400  0.54372700  0.45454600  1
  Tb  Tb5  1  0.45627300  0.21667600  0.04545400  1
  Tb  Tb6  1  0.21667600  0.45627300  0.54545400  1
  Tb  Tb7  1  0.54372700  0.78332400  0.95454600  1
  Tb  Tb8  1  0.58162400  0.35908300  0.58812700  1
  Tb  Tb9  1  0.64091700  0.41837600  0.91187300  1
  Tb  Tb10  1  0.41837600  0.64091700  0.41187300  1
  Tb  Tb11  1  0.35908300  0.58162400  0.08812700  1
  Tb  Tb12  1  0.11606100  0.81148400  0.60416100  1
  Tb  Tb13  1  0.18851600  0.88393900  0.89583900  1
  Tb  Tb14  1  0.88393900  0.18851600  0.39583900  1
  Tb  Tb15  1  0.81148400  0.11606100  0.10416100  1
  B  B16  1  0.66063200  0.41235300  0.39471700  1
  B  B17  1  0.58764700  0.33936800  0.10528300  1
  B  B18  1  0.33936800  0.58764700  0.60528300  1
  B  B19  1  0.41235300  0.66063200  0.89471700  1
  Br  Br20  1  0.14410100  0.37943600  0.74697000  1
  Br  Br21  1  0.62056400  0.85589900  0.75303000  1
  Br  Br22  1  0.85589900  0.62056400  0.25303000  1
  Br  Br23  1  0.37943600  0.14410100  0.24697000  1
  Br  Br24  1  0.15844100  0.91372700  0.39652500  1
  Br  Br25  1  0.08627300  0.84155900  0.10347500  1
  Br  Br26  1  0.84155900  0.08627300  0.60347500  1
  Br  Br27  1  0.91372700  0.15844100  0.89652500  1
  Br  Br28  1  0.05220000  0.30814400  0.46646700  1
  Br  Br29  1  0.69185600  0.94780000  0.03353300  1
  Br  Br30  1  0.94780000  0.69185600  0.53353300  1
  Br  Br31  1  0.30814400  0.05220000  0.96646700  1
  Br  Br32  1  0.98302000  0.22527300  0.18113200  1
  Br  Br33  1  0.77472700  0.01698000  0.31886800  1
  Br  Br34  1  0.01698000  0.77472700  0.81886800  1
  Br  Br35  1  0.22527300  0.98302000  0.68113200  1
  Br  Br36  1  0.46921500  0.74723100  0.18502500  1
  Br  Br37  1  0.25276900  0.53078500  0.31497500  1
  Br  Br38  1  0.53078500  0.25276900  0.81497500  1
  Br  Br39  1  0.74723100  0.46921500  0.68502500  1
  Br  Br40  1  0.80608100  0.54506400  0.97491200  1
  Br  Br41  1  0.45493600  0.19391900  0.52508800  1
  Br  Br42  1  0.19391900  0.45493600  0.02508800  1
  Br  Br43  1  0.54506400  0.80608100  0.47491200  1
