# generated using pymatgen
data_KSnF3
_symmetry_space_group_name_H-M   'P 1'
_cell_length_a   8.22964700
_cell_length_b   10.20420195
_cell_length_c   10.50167588
_cell_angle_alpha   79.88334300
_cell_angle_beta   72.31119396
_cell_angle_gamma   74.39245718
_symmetry_Int_Tables_number   1
_chemical_formula_structural   KSnF3
_chemical_formula_sum   'K8 Sn8 F24'
_cell_volume   804.97427409
_cell_formula_units_Z   8
loop_
 _symmetry_equiv_pos_site_id
 _symmetry_equiv_pos_as_xyz
  1  'x, y, z'
loop_
 _atom_site_type_symbol
 _atom_site_label
 _atom_site_symmetry_multiplicity
 _atom_site_fract_x
 _atom_site_fract_y
 _atom_site_fract_z
 _atom_site_occupancy
  K  K0  1  0.54259100  0.87630400  0.36794500  1
  K  K1  1  0.45740900  0.12369600  0.63205500  1
  K  K2  1  0.05024700  0.84942200  0.39430700  1
  K  K3  1  0.94975300  0.15057800  0.60569300  1
  K  K4  1  0.74747100  0.50993600  0.49056000  1
  K  K5  1  0.25252900  0.49006400  0.50944000  1
  K  K6  1  0.73697900  0.02520000  0.99039500  1
  K  K7  1  0.26302100  0.97480000  0.00960500  1
  Sn  Sn8  1  0.54085100  0.62389800  0.14476500  1
  Sn  Sn9  1  0.45914900  0.37610200  0.85523500  1
  Sn  Sn10  1  0.02817300  0.64460500  0.13074500  1
  Sn  Sn11  1  0.97182700  0.35539500  0.86925500  1
  Sn  Sn12  1  0.27431900  0.24663000  0.25170100  1
  Sn  Sn13  1  0.72568100  0.75337000  0.74829900  1
  Sn  Sn14  1  0.78698100  0.22106800  0.26128800  1
  Sn  Sn15  1  0.21301900  0.77893200  0.73871200  1
  F  F16  1  0.38383900  0.69229500  0.32790500  1
  F  F17  1  0.61616100  0.30770500  0.67209500  1
  F  F18  1  0.56674100  0.82442600  0.06974000  1
  F  F19  1  0.43325900  0.17557400  0.93026000  1
  F  F20  1  0.93908800  0.85535200  0.15500700  1
  F  F21  1  0.06091200  0.14464800  0.84499300  1
  F  F22  1  0.05446100  0.59673500  0.32568300  1
  F  F23  1  0.94553900  0.40326500  0.67431700  1
  F  F24  1  0.74435200  0.64380900  0.24669000  1
  F  F25  1  0.25564800  0.35619100  0.75331000  1
  F  F26  1  0.28450700  0.70790900  0.08911400  1
  F  F27  1  0.71549300  0.29209100  0.91088600  1
  F  F28  1  0.21953100  0.05726000  0.25517500  1
  F  F29  1  0.78046900  0.94274000  0.74482500  1
  F  F30  1  0.25654300  0.22313200  0.45577800  1
  F  F31  1  0.74345700  0.77686800  0.54422200  1
  F  F32  1  0.05066700  0.70631800  0.64694600  1
  F  F33  1  0.94933300  0.29368200  0.35305400  1
  F  F34  1  0.45391300  0.87262600  0.76593600  1
  F  F35  1  0.54608700  0.12737400  0.23406400  1
  F  F36  1  0.23379900  0.92338300  0.57178700  1
  F  F37  1  0.76620100  0.07661700  0.42821300  1
  F  F38  1  0.41938000  0.63765000  0.63391600  1
  F  F39  1  0.58062000  0.36235000  0.36608400  1
