# generated using pymatgen
data_CsB5(H2O3)4
_symmetry_space_group_name_H-M   'P 1'
_cell_length_a   7.24615200
_cell_length_b   11.69589200
_cell_length_c   14.08106774
_cell_angle_alpha   87.92774266
_cell_angle_beta   90.00000000
_cell_angle_gamma   90.00000000
_symmetry_Int_Tables_number   1
_chemical_formula_structural   CsB5(H2O3)4
_chemical_formula_sum   'Cs4 B20 H32 O48'
_cell_volume   1192.59302233
_cell_formula_units_Z   4
loop_
 _symmetry_equiv_pos_site_id
 _symmetry_equiv_pos_as_xyz
  1  'x, y, z'
loop_
 _atom_site_type_symbol
 _atom_site_label
 _atom_site_symmetry_multiplicity
 _atom_site_fract_x
 _atom_site_fract_y
 _atom_site_fract_z
 _atom_site_occupancy
  Cs  Cs0  1  0.73472400  0.25337000  0.08516200  1
  Cs  Cs1  1  0.23472400  0.74663000  0.41483800  1
  Cs  Cs2  1  0.26527600  0.74663000  0.91483800  1
  Cs  Cs3  1  0.76527600  0.25337000  0.58516200  1
  B  B4  1  0.86313000  0.93374700  0.23533900  1
  B  B5  1  0.36313000  0.06625300  0.26466100  1
  B  B6  1  0.13687000  0.06625300  0.76466100  1
  B  B7  1  0.63687000  0.93374700  0.73533900  1
  B  B8  1  0.81507500  0.94393600  0.06607400  1
  B  B9  1  0.31507500  0.05606400  0.43392600  1
  B  B10  1  0.18492500  0.05606400  0.93392600  1
  B  B11  1  0.68492500  0.94393600  0.56607400  1
  B  B12  1  0.03220700  0.57171800  0.12972400  1
  B  B13  1  0.53220700  0.42828200  0.37027600  1
  B  B14  1  0.96779300  0.42828200  0.87027600  1
  B  B15  1  0.46779300  0.57171800  0.62972400  1
  B  B16  1  0.70258100  0.55636700  0.14660300  1
  B  B17  1  0.20258100  0.44363300  0.35339700  1
  B  B18  1  0.29741900  0.44363300  0.85339700  1
  B  B19  1  0.79741900  0.55636700  0.64660300  1
  B  B20  1  0.84728200  0.75107300  0.14867000  1
  B  B21  1  0.34728200  0.24892700  0.35133000  1
  B  B22  1  0.15271800  0.24892700  0.85133000  1
  B  B23  1  0.65271800  0.75107300  0.64867000  1
  H  H24  1  0.74704100  0.74718100  0.34443200  1
  H  H25  1  0.24704100  0.25281900  0.15556800  1
  H  H26  1  0.25295900  0.25281900  0.65556800  1
  H  H27  1  0.75295900  0.74718100  0.84443200  1
  H  H28  1  0.69961200  0.75226800  0.45594000  1
  H  H29  1  0.19961200  0.24773200  0.04406000  1
  H  H30  1  0.30038800  0.24773200  0.54406000  1
  H  H31  1  0.80038800  0.75226800  0.95594000  1
  H  H32  1  0.96741300  0.26034000  0.31836700  1
  H  H33  1  0.46741300  0.73966000  0.18163300  1
  H  H34  1  0.03258700  0.73966000  0.68163300  1
  H  H35  1  0.53258700  0.26034000  0.81836700  1
  H  H36  1  0.74621200  0.25106200  0.32934500  1
  H  H37  1  0.24621200  0.74893800  0.17065500  1
  H  H38  1  0.25378800  0.74893800  0.67065500  1
  H  H39  1  0.75378800  0.25106200  0.82934500  1
  H  H40  1  0.87483800  0.07534300  0.31121000  1
  H  H41  1  0.37483800  0.92465700  0.18879000  1
  H  H42  1  0.12516200  0.92465700  0.68879000  1
  H  H43  1  0.62516200  0.07534300  0.81121000  1
  H  H44  1  0.72818300  0.98404300  0.93095900  1
  H  H45  1  0.22818300  0.01595700  0.56904100  1
  H  H46  1  0.27181700  0.01595700  0.06904100  1
  H  H47  1  0.77181700  0.98404300  0.43095900  1
  H  H48  1  0.18903700  0.43429000  0.10623500  1
  H  H49  1  0.68903700  0.56571000  0.39376500  1
  H  H50  1  0.81096300  0.56571000  0.89376500  1
  H  H51  1  0.31096300  0.43429000  0.60623500  1
  H  H52  1  0.43076400  0.51597200  0.14302300  1
  H  H53  1  0.93076400  0.48402800  0.35697700  1
  H  H54  1  0.56923600  0.48402800  0.85697700  1
  H  H55  1  0.06923600  0.51597200  0.64302300  1
  O  O56  1  0.68626500  0.70614600  0.39847700  1
  O  O57  1  0.18626500  0.29385400  0.10152300  1
  O  O58  1  0.31373500  0.29385400  0.60152300  1
  O  O59  1  0.81373500  0.70614600  0.89847700  1
  O  O60  1  0.85686900  0.21532900  0.30166500  1
  O  O61  1  0.35686900  0.78467100  0.19833500  1
  O  O62  1  0.14313100  0.78467100  0.69833500  1
  O  O63  1  0.64313100  0.21532900  0.80166500  1
  O  O64  1  0.87805000  0.98907400  0.31943500  1
  O  O65  1  0.37805000  0.01092600  0.18056500  1
  O  O66  1  0.12195000  0.01092600  0.68056500  1
  O  O67  1  0.62195000  0.98907400  0.81943500  1
  O  O68  1  0.77394100  0.01607000  0.99066500  1
  O  O69  1  0.27394100  0.98393000  0.50933500  1
  O  O70  1  0.22605900  0.98393000  0.00933500  1
  O  O71  1  0.72605900  0.01607000  0.49066500  1
  O  O72  1  0.19891900  0.51969300  0.11368600  1
  O  O73  1  0.69891900  0.48030700  0.38631400  1
  O  O74  1  0.80108100  0.48030700  0.88631400  1
  O  O75  1  0.30108100  0.51969300  0.61368600  1
  O  O76  1  0.55630500  0.48284500  0.14698400  1
  O  O77  1  0.05630500  0.51715500  0.35301600  1
  O  O78  1  0.44369500  0.51715500  0.85301600  1
  O  O79  1  0.94369500  0.48284500  0.64698400  1
  O  O80  1  0.85215200  0.99814200  0.15076200  1
  O  O81  1  0.35215200  0.00185800  0.34923800  1
  O  O82  1  0.14784800  0.00185800  0.84923800  1
  O  O83  1  0.64784800  0.99814200  0.65076200  1
  O  O84  1  0.87410300  0.50486000  0.13442900  1
  O  O85  1  0.37410300  0.49514000  0.36557100  1
  O  O86  1  0.12589700  0.49514000  0.86557100  1
  O  O87  1  0.62589700  0.50486000  0.63442900  1
  O  O88  1  0.85758700  0.81656200  0.23673000  1
  O  O89  1  0.35758700  0.18343800  0.26327000  1
  O  O90  1  0.14241300  0.18343800  0.76327000  1
  O  O91  1  0.64241300  0.81656200  0.73673000  1
  O  O92  1  0.81648600  0.82700300  0.06311300  1
  O  O93  1  0.31648600  0.17299700  0.43688700  1
  O  O94  1  0.18351400  0.17299700  0.93688700  1
  O  O95  1  0.68351400  0.82700300  0.56311300  1
  O  O96  1  0.02434300  0.68815300  0.13645400  1
  O  O97  1  0.52434300  0.31184700  0.36354600  1
  O  O98  1  0.97565700  0.31184700  0.86354600  1
  O  O99  1  0.47565700  0.68815300  0.63645400  1
  O  O100  1  0.68761000  0.67189900  0.15667600  1
  O  O101  1  0.18761000  0.32810100  0.34332400  1
  O  O102  1  0.31239000  0.32810100  0.84332400  1
  O  O103  1  0.81239000  0.67189900  0.65667600  1
