# generated using pymatgen
data_Nb2FeO6
_symmetry_space_group_name_H-M   'P 1'
_cell_length_a   5.11313100
_cell_length_b   5.87865100
_cell_length_c   14.49018300
_cell_angle_alpha   90.00000000
_cell_angle_beta   90.00000000
_cell_angle_gamma   90.00000000
_symmetry_Int_Tables_number   1
_chemical_formula_structural   Nb2FeO6
_chemical_formula_sum   'Nb8 Fe4 O24'
_cell_volume   435.55045121
_cell_formula_units_Z   4
loop_
 _symmetry_equiv_pos_site_id
 _symmetry_equiv_pos_as_xyz
  1  'x, y, z'
loop_
 _atom_site_type_symbol
 _atom_site_label
 _atom_site_symmetry_multiplicity
 _atom_site_fract_x
 _atom_site_fract_y
 _atom_site_fract_z
 _atom_site_occupancy
  Nb  Nb0  1  0.25436200  0.81770600  0.83910900  1
  Nb  Nb1  1  0.75436200  0.68229400  0.66089100  1
  Nb  Nb2  1  0.24563800  0.81770600  0.16089100  1
  Nb  Nb3  1  0.74563800  0.68229400  0.33910900  1
  Nb  Nb4  1  0.25436200  0.31770600  0.66089100  1
  Nb  Nb5  1  0.75436200  0.18229400  0.83910900  1
  Nb  Nb6  1  0.24563800  0.31770600  0.33910900  1
  Nb  Nb7  1  0.74563800  0.18229400  0.16089100  1
  Fe  Fe8  1  0.75000000  0.66635500  0.00000000  1
  Fe  Fe9  1  0.25000000  0.83364500  0.50000000  1
  Fe  Fe10  1  0.25000000  0.33364500  0.00000000  1
  Fe  Fe11  1  0.75000000  0.16635500  0.50000000  1
  O  O12  1  0.92697000  0.37271100  0.74481800  1
  O  O13  1  0.42697000  0.12728900  0.75518200  1
  O  O14  1  0.57303000  0.37271100  0.25518200  1
  O  O15  1  0.07303000  0.12728900  0.24481800  1
  O  O16  1  0.07303000  0.62728900  0.25518200  1
  O  O17  1  0.57303000  0.87271100  0.24481800  1
  O  O18  1  0.42697000  0.62728900  0.74481800  1
  O  O19  1  0.92697000  0.87271100  0.75518200  1
  O  O20  1  0.89879500  0.38271500  0.08024600  1
  O  O21  1  0.39879500  0.11728500  0.41975400  1
  O  O22  1  0.60120500  0.38271500  0.91975400  1
  O  O23  1  0.10120500  0.11728500  0.58024600  1
  O  O24  1  0.92195700  0.89748700  0.09724200  1
  O  O25  1  0.42195700  0.60251300  0.40275800  1
  O  O26  1  0.57804300  0.89748700  0.90275800  1
  O  O27  1  0.07804300  0.60251300  0.59724200  1
  O  O28  1  0.07804300  0.10251300  0.90275800  1
  O  O29  1  0.57804300  0.39748700  0.59724200  1
  O  O30  1  0.42195700  0.10251300  0.09724200  1
  O  O31  1  0.92195700  0.39748700  0.40275800  1
  O  O32  1  0.89879500  0.88271500  0.41975400  1
  O  O33  1  0.39879500  0.61728500  0.08024600  1
  O  O34  1  0.60120500  0.88271500  0.58024600  1
  O  O35  1  0.10120500  0.61728500  0.91975400  1
