# generated using pymatgen
data_NdCuSn
_symmetry_space_group_name_H-M   'P 1'
_cell_length_a   4.62056640
_cell_length_b   4.62056640
_cell_length_c   7.63524300
_cell_angle_alpha   90.00000000
_cell_angle_beta   90.00000000
_cell_angle_gamma   120.00000576
_symmetry_Int_Tables_number   1
_chemical_formula_structural   NdCuSn
_chemical_formula_sum   'Nd2 Cu2 Sn2'
_cell_volume   141.17048336
_cell_formula_units_Z   2
loop_
 _symmetry_equiv_pos_site_id
 _symmetry_equiv_pos_as_xyz
  1  'x, y, z'
loop_
 _atom_site_type_symbol
 _atom_site_label
 _atom_site_symmetry_multiplicity
 _atom_site_fract_x
 _atom_site_fract_y
 _atom_site_fract_z
 _atom_site_occupancy
  Nd  Nd0  1  0.00000000  0.00000000  0.49219900  1
  Nd  Nd1  1  0.00000000  0.00000000  0.99219900  1
  Cu  Cu2  1  0.66666700  0.33333300  0.29928000  1
  Cu  Cu3  1  0.33333300  0.66666700  0.79928000  1
  Sn  Sn4  1  0.33333300  0.66666700  0.22452200  1
  Sn  Sn5  1  0.66666700  0.33333300  0.72452200  1
