# generated using pymatgen
data_LiSn4Ru
_symmetry_space_group_name_H-M   'P 1'
_cell_length_a   7.38612371
_cell_length_b   7.38612371
_cell_length_c   7.38612371
_cell_angle_alpha   125.91694547
_cell_angle_beta   125.91694547
_cell_angle_gamma   80.02468870
_symmetry_Int_Tables_number   1
_chemical_formula_structural   LiSn4Ru
_chemical_formula_sum   'Li2 Sn8 Ru2'
_cell_volume   255.16031497
_cell_formula_units_Z   2
loop_
 _symmetry_equiv_pos_site_id
 _symmetry_equiv_pos_as_xyz
  1  'x, y, z'
loop_
 _atom_site_type_symbol
 _atom_site_label
 _atom_site_symmetry_multiplicity
 _atom_site_fract_x
 _atom_site_fract_y
 _atom_site_fract_z
 _atom_site_occupancy
  Li  Li0  1  0.00000000  0.00000000  0.00000000  1
  Li  Li1  1  0.50000000  0.50000000  0.00000000  1
  Sn  Sn2  1  0.70256200  0.52268500  0.50000000  1
  Sn  Sn3  1  0.52268500  0.02268500  0.82012300  1
  Sn  Sn4  1  0.20256200  0.70256200  0.17987700  1
  Sn  Sn5  1  0.79743800  0.29743800  0.82012300  1
  Sn  Sn6  1  0.47731500  0.97731500  0.17987700  1
  Sn  Sn7  1  0.29743800  0.47731500  0.50000000  1
  Sn  Sn8  1  0.97731500  0.79743800  0.50000000  1
  Sn  Sn9  1  0.02268500  0.20256200  0.50000000  1
  Ru  Ru10  1  0.25000000  0.25000000  0.00000000  1
  Ru  Ru11  1  0.75000000  0.75000000  0.00000000  1
