# generated using pymatgen
data_MoBr3
_symmetry_space_group_name_H-M   'P 1'
_cell_length_a   6.11947800
_cell_length_b   7.28604500
_cell_length_c   12.68026600
_cell_angle_alpha   90.00000000
_cell_angle_beta   90.00000000
_cell_angle_gamma   90.00000000
_symmetry_Int_Tables_number   1
_chemical_formula_structural   MoBr3
_chemical_formula_sum   'Mo4 Br12'
_cell_volume   565.37238372
_cell_formula_units_Z   4
loop_
 _symmetry_equiv_pos_site_id
 _symmetry_equiv_pos_as_xyz
  1  'x, y, z'
loop_
 _atom_site_type_symbol
 _atom_site_label
 _atom_site_symmetry_multiplicity
 _atom_site_fract_x
 _atom_site_fract_y
 _atom_site_fract_z
 _atom_site_occupancy
  Mo  Mo0  1  0.72880700  0.25302700  0.50000000  1
  Mo  Mo1  1  0.22880700  0.74697300  0.00000000  1
  Mo  Mo2  1  0.27119300  0.25302700  0.50000000  1
  Mo  Mo3  1  0.77119300  0.74697300  0.00000000  1
  Br  Br4  1  0.50000000  0.10564500  0.64750500  1
  Br  Br5  1  0.00000000  0.89435500  0.85249500  1
  Br  Br6  1  0.50000000  0.10564500  0.35249500  1
  Br  Br7  1  0.00000000  0.89435500  0.14750500  1
  Br  Br8  1  0.00000000  0.45101000  0.00000000  1
  Br  Br9  1  0.50000000  0.54899000  0.50000000  1
  Br  Br10  1  0.50000000  0.02749400  0.00000000  1
  Br  Br11  1  0.00000000  0.97250600  0.50000000  1
  Br  Br12  1  0.00000000  0.39266000  0.36047200  1
  Br  Br13  1  0.50000000  0.60734000  0.13952800  1
  Br  Br14  1  0.00000000  0.39266000  0.63952800  1
  Br  Br15  1  0.50000000  0.60734000  0.86047200  1
