# generated using pymatgen
data_Re2P5
_symmetry_space_group_name_H-M   'P 1'
_cell_length_a   7.38376100
_cell_length_b   8.28593540
_cell_length_c   8.39983084
_cell_angle_alpha   110.22490064
_cell_angle_beta   112.20084213
_cell_angle_gamma   87.06696543
_symmetry_Int_Tables_number   1
_chemical_formula_structural   Re2P5
_chemical_formula_sum   'Re8 P20'
_cell_volume   444.60559620
_cell_formula_units_Z   4
loop_
 _symmetry_equiv_pos_site_id
 _symmetry_equiv_pos_as_xyz
  1  'x, y, z'
loop_
 _atom_site_type_symbol
 _atom_site_label
 _atom_site_symmetry_multiplicity
 _atom_site_fract_x
 _atom_site_fract_y
 _atom_site_fract_z
 _atom_site_occupancy
  Re  Re0  1  0.42570300  0.57807800  0.14275800  1
  Re  Re1  1  0.57429700  0.42192200  0.85724200  1
  Re  Re2  1  0.94351500  0.91166800  0.09779700  1
  Re  Re3  1  0.05648500  0.08833200  0.90220300  1
  Re  Re4  1  0.82156600  0.48013500  0.25046600  1
  Re  Re5  1  0.17843400  0.51986500  0.74953400  1
  Re  Re6  1  0.30393600  0.14183600  0.29036800  1
  Re  Re7  1  0.69606400  0.85816400  0.70963200  1
  P  P8  1  0.97666700  0.21873900  0.16848100  1
  P  P9  1  0.02333300  0.78126100  0.83151900  1
  P  P10  1  0.27067100  0.84302000  0.25974100  1
  P  P11  1  0.72932900  0.15698000  0.74025900  1
  P  P12  1  0.46544900  0.69303500  0.94461200  1
  P  P13  1  0.53455100  0.30696500  0.05538800  1
  P  P14  1  0.28114100  0.25263900  0.59554800  1
  P  P15  1  0.71885900  0.74736100  0.40445200  1
  P  P16  1  0.13657100  0.04021700  0.63212000  1
  P  P17  1  0.86342900  0.95978300  0.36788000  1
  P  P18  1  0.31964800  0.83470700  0.53525800  1
  P  P19  1  0.68035200  0.16529300  0.46474200  1
  P  P20  1  0.39829600  0.08476600  0.04657000  1
  P  P21  1  0.60170400  0.91523400  0.95343000  1
  P  P22  1  0.83921100  0.41688100  0.52077100  1
  P  P23  1  0.16078900  0.58311900  0.47922900  1
  P  P24  1  0.62433200  0.54890300  0.63667800  1
  P  P25  1  0.37566800  0.45109700  0.36332200  1
  P  P26  1  0.10741100  0.41461800  0.95206700  1
  P  P27  1  0.89258900  0.58538200  0.04793300  1
