# generated using pymatgen
data_CsBrO3
_symmetry_space_group_name_H-M   'P 1'
_cell_length_a   4.79284013
_cell_length_b   4.79284013
_cell_length_c   4.79284006
_cell_angle_alpha   87.55841250
_cell_angle_beta   87.55841250
_cell_angle_gamma   87.55841522
_symmetry_Int_Tables_number   1
_chemical_formula_structural   CsBrO3
_chemical_formula_sum   'Cs1 Br1 O3'
_cell_volume   109.80625839
_cell_formula_units_Z   1
loop_
 _symmetry_equiv_pos_site_id
 _symmetry_equiv_pos_as_xyz
  1  'x, y, z'
loop_
 _atom_site_type_symbol
 _atom_site_label
 _atom_site_symmetry_multiplicity
 _atom_site_fract_x
 _atom_site_fract_y
 _atom_site_fract_z
 _atom_site_occupancy
  Cs  Cs0  1  0.99830300  0.99830300  0.99830300  1
  Br  Br1  1  0.46665800  0.46665800  0.46665800  1
  O  O2  1  0.52273400  0.11864100  0.52273400  1
  O  O3  1  0.52273400  0.52273400  0.11864100  1
  O  O4  1  0.11864100  0.52273400  0.52273400  1
