# generated using pymatgen
data_Dy(AlCl4)3
_symmetry_space_group_name_H-M   'P 1'
_cell_length_a   10.81647377
_cell_length_b   10.81647377
_cell_length_c   16.03529900
_cell_angle_alpha   90.00000000
_cell_angle_beta   90.00000000
_cell_angle_gamma   119.99999860
_symmetry_Int_Tables_number   1
_chemical_formula_structural   Dy(AlCl4)3
_chemical_formula_sum   'Dy3 Al9 Cl36'
_cell_volume   1624.72215718
_cell_formula_units_Z   3
loop_
 _symmetry_equiv_pos_site_id
 _symmetry_equiv_pos_as_xyz
  1  'x, y, z'
loop_
 _atom_site_type_symbol
 _atom_site_label
 _atom_site_symmetry_multiplicity
 _atom_site_fract_x
 _atom_site_fract_y
 _atom_site_fract_z
 _atom_site_occupancy
  Dy  Dy0  1  0.99020500  0.49510300  0.00000000  1
  Dy  Dy1  1  0.50489700  0.00979500  0.66666700  1
  Dy  Dy2  1  0.50489700  0.49510300  0.33333300  1
  Al  Al3  1  0.73127900  0.26872100  0.83333300  1
  Al  Al4  1  0.12880900  0.76376400  0.60351300  1
  Al  Al5  1  0.23623600  0.36504500  0.93684600  1
  Al  Al6  1  0.63495500  0.87119100  0.27017900  1
  Al  Al7  1  0.73127900  0.46255800  0.16666700  1
  Al  Al8  1  0.53744200  0.26872100  0.50000000  1
  Al  Al9  1  0.12880900  0.36504500  0.39648700  1
  Al  Al10  1  0.63495500  0.76376400  0.72982100  1
  Al  Al11  1  0.23623600  0.87119100  0.06315400  1
  Cl  Cl12  1  0.00814800  0.84192800  0.54480200  1
  Cl  Cl13  1  0.83378000  0.99185200  0.21146900  1
  Cl  Cl14  1  0.15807200  0.16622000  0.87813500  1
  Cl  Cl15  1  0.79058100  0.59006400  0.27937400  1
  Cl  Cl16  1  0.40993600  0.20051700  0.61270700  1
  Cl  Cl17  1  0.79948300  0.20941900  0.94604000  1
  Cl  Cl18  1  0.40993600  0.20941900  0.38729300  1
  Cl  Cl19  1  0.79948300  0.59006400  0.05396000  1
  Cl  Cl20  1  0.79058100  0.20051700  0.72062600  1
  Cl  Cl21  1  0.22657300  0.34565600  0.27827000  1
  Cl  Cl22  1  0.65434400  0.88091700  0.61160300  1
  Cl  Cl23  1  0.11908300  0.77342700  0.94493700  1
  Cl  Cl24  1  0.65434400  0.77342700  0.38839700  1
  Cl  Cl25  1  0.11908300  0.34565600  0.05506300  1
  Cl  Cl26  1  0.22657300  0.88091700  0.72173000  1
  Cl  Cl27  1  0.50448200  0.66187200  0.20526900  1
  Cl  Cl28  1  0.33812800  0.84261100  0.53860200  1
  Cl  Cl29  1  0.15738900  0.49551800  0.87193500  1
  Cl  Cl30  1  0.33812800  0.49551800  0.46139800  1
  Cl  Cl31  1  0.15738900  0.66187200  0.12806500  1
  Cl  Cl32  1  0.50448200  0.84261100  0.79473100  1
  Cl  Cl33  1  0.66207700  0.49672900  0.48186000  1
  Cl  Cl34  1  0.50327100  0.16534800  0.81519400  1
  Cl  Cl35  1  0.83465200  0.33792300  0.14852700  1
  Cl  Cl36  1  0.50327100  0.33792300  0.18480600  1
  Cl  Cl37  1  0.83465200  0.49672900  0.85147300  1
  Cl  Cl38  1  0.66207700  0.16534800  0.51814000  1
  Cl  Cl39  1  0.03093300  0.48889900  0.37628500  1
  Cl  Cl40  1  0.51110100  0.54203400  0.70961800  1
  Cl  Cl41  1  0.45796600  0.96906700  0.04295200  1
  Cl  Cl42  1  0.51110100  0.96906700  0.29038200  1
  Cl  Cl43  1  0.45796600  0.48889900  0.95704800  1
  Cl  Cl44  1  0.03093300  0.54203400  0.62371500  1
  Cl  Cl45  1  0.00814800  0.16622000  0.45519800  1
  Cl  Cl46  1  0.83378000  0.84192800  0.78853100  1
  Cl  Cl47  1  0.15807200  0.99185200  0.12186500  1
