# generated using pymatgen
data_SbCl3
_symmetry_space_group_name_H-M   'P 1'
_cell_length_a   6.94773000
_cell_length_b   8.86921200
_cell_length_c   9.35376400
_cell_angle_alpha   90.00000000
_cell_angle_beta   90.00000000
_cell_angle_gamma   90.00000000
_symmetry_Int_Tables_number   1
_chemical_formula_structural   SbCl3
_chemical_formula_sum   'Sb4 Cl12'
_cell_volume   576.38726523
_cell_formula_units_Z   4
loop_
 _symmetry_equiv_pos_site_id
 _symmetry_equiv_pos_as_xyz
  1  'x, y, z'
loop_
 _atom_site_type_symbol
 _atom_site_label
 _atom_site_symmetry_multiplicity
 _atom_site_fract_x
 _atom_site_fract_y
 _atom_site_fract_z
 _atom_site_occupancy
  Sb  Sb0  1  0.98835600  0.00143500  0.75000000  1
  Sb  Sb1  1  0.48835600  0.49856500  0.25000000  1
  Sb  Sb2  1  0.51164400  0.50143500  0.75000000  1
  Sb  Sb3  1  0.01164400  0.99856500  0.25000000  1
  Cl  Cl4  1  0.12591900  0.16763400  0.43292800  1
  Cl  Cl5  1  0.62591900  0.33236600  0.56707200  1
  Cl  Cl6  1  0.37408100  0.66763400  0.06707200  1
  Cl  Cl7  1  0.87408100  0.83236600  0.93292800  1
  Cl  Cl8  1  0.68749200  0.08306300  0.25000000  1
  Cl  Cl9  1  0.18749200  0.41693700  0.75000000  1
  Cl  Cl10  1  0.81250800  0.58306300  0.25000000  1
  Cl  Cl11  1  0.31250800  0.91693700  0.75000000  1
  Cl  Cl12  1  0.12591900  0.16763400  0.06707200  1
  Cl  Cl13  1  0.62591900  0.33236600  0.93292800  1
  Cl  Cl14  1  0.37408100  0.66763400  0.43292800  1
  Cl  Cl15  1  0.87408100  0.83236600  0.56707200  1
