# generated using pymatgen
data_Ba(Ag3O2)2
_symmetry_space_group_name_H-M   'P 1'
_cell_length_a   6.77627800
_cell_length_b   9.24756500
_cell_length_c   12.98540300
_cell_angle_alpha   90.00000000
_cell_angle_beta   90.00000000
_cell_angle_gamma   90.00000000
_symmetry_Int_Tables_number   1
_chemical_formula_structural   Ba(Ag3O2)2
_chemical_formula_sum   'Ba4 Ag24 O16'
_cell_volume   813.71821897
_cell_formula_units_Z   4
loop_
 _symmetry_equiv_pos_site_id
 _symmetry_equiv_pos_as_xyz
  1  'x, y, z'
loop_
 _atom_site_type_symbol
 _atom_site_label
 _atom_site_symmetry_multiplicity
 _atom_site_fract_x
 _atom_site_fract_y
 _atom_site_fract_z
 _atom_site_occupancy
  Ba  Ba0  1  0.25000000  0.87594400  0.50000000  1
  Ba  Ba1  1  0.25000000  0.62405600  0.00000000  1
  Ba  Ba2  1  0.75000000  0.12405600  0.50000000  1
  Ba  Ba3  1  0.75000000  0.37594400  0.00000000  1
  Ag  Ag4  1  0.29208300  0.23845400  0.37337900  1
  Ag  Ag5  1  0.07691300  0.53412000  0.26278600  1
  Ag  Ag6  1  0.42308700  0.96588000  0.76278600  1
  Ag  Ag7  1  0.07691300  0.96588000  0.23721400  1
  Ag  Ag8  1  0.92308700  0.03412000  0.76278600  1
  Ag  Ag9  1  0.92308700  0.46588000  0.73721400  1
  Ag  Ag10  1  0.57691300  0.03412000  0.23721400  1
  Ag  Ag11  1  0.57691300  0.46588000  0.26278600  1
  Ag  Ag12  1  0.40197300  0.75000000  0.25000000  1
  Ag  Ag13  1  0.09802700  0.75000000  0.75000000  1
  Ag  Ag14  1  0.59802700  0.25000000  0.75000000  1
  Ag  Ag15  1  0.90197300  0.25000000  0.25000000  1
  Ag  Ag16  1  0.20791700  0.23845400  0.62662100  1
  Ag  Ag17  1  0.20791700  0.26154600  0.87337900  1
  Ag  Ag18  1  0.70791700  0.76154600  0.62662100  1
  Ag  Ag19  1  0.70791700  0.73845400  0.87337900  1
  Ag  Ag20  1  0.79208300  0.76154600  0.37337900  1
  Ag  Ag21  1  0.79208300  0.73845400  0.12662100  1
  Ag  Ag22  1  0.50000000  0.50000000  0.50000000  1
  Ag  Ag23  1  0.50000000  0.00000000  0.00000000  1
  Ag  Ag24  1  0.00000000  0.50000000  0.50000000  1
  Ag  Ag25  1  0.00000000  0.00000000  0.00000000  1
  Ag  Ag26  1  0.42308700  0.53412000  0.73721400  1
  Ag  Ag27  1  0.29208300  0.26154600  0.12662100  1
  O  O28  1  0.57614600  0.33482800  0.39454500  1
  O  O29  1  0.57614600  0.16517200  0.10545500  1
  O  O30  1  0.92385400  0.33482800  0.60545500  1
  O  O31  1  0.92385400  0.16517200  0.89454500  1
  O  O32  1  0.07614600  0.66517200  0.39454500  1
  O  O33  1  0.07614600  0.83482800  0.10545500  1
  O  O34  1  0.05119400  0.09171100  0.37206400  1
  O  O35  1  0.05119400  0.40828900  0.12793600  1
  O  O36  1  0.44880600  0.09171100  0.62793600  1
  O  O37  1  0.44880600  0.40828900  0.87206400  1
  O  O38  1  0.94880600  0.90828900  0.62793600  1
  O  O39  1  0.94880600  0.59171100  0.87206400  1
  O  O40  1  0.55119400  0.90828900  0.37206400  1
  O  O41  1  0.55119400  0.59171100  0.12793600  1
  O  O42  1  0.42385400  0.66517200  0.60545500  1
  O  O43  1  0.42385400  0.83482800  0.89454500  1
