# generated using pymatgen
data_Nb3Te3As
_symmetry_space_group_name_H-M   'P 1'
_cell_length_a   10.53071860
_cell_length_b   10.53071860
_cell_length_c   3.58312800
_cell_angle_alpha   90.00000000
_cell_angle_beta   90.00000000
_cell_angle_gamma   120.00000376
_symmetry_Int_Tables_number   1
_chemical_formula_structural   Nb3Te3As
_chemical_formula_sum   'Nb6 Te6 As2'
_cell_volume   344.11923872
_cell_formula_units_Z   2
loop_
 _symmetry_equiv_pos_site_id
 _symmetry_equiv_pos_as_xyz
  1  'x, y, z'
loop_
 _atom_site_type_symbol
 _atom_site_label
 _atom_site_symmetry_multiplicity
 _atom_site_fract_x
 _atom_site_fract_y
 _atom_site_fract_z
 _atom_site_occupancy
  Nb  Nb0  1  0.62168800  0.12574900  0.75000000  1
  Nb  Nb1  1  0.50406000  0.37831200  0.75000000  1
  Nb  Nb2  1  0.37831200  0.87425100  0.25000000  1
  Nb  Nb3  1  0.87425100  0.49594000  0.75000000  1
  Nb  Nb4  1  0.49594000  0.62168800  0.25000000  1
  Nb  Nb5  1  0.12574900  0.50406000  0.25000000  1
  Te  Te6  1  0.72266500  0.66980900  0.75000000  1
  Te  Te7  1  0.27733500  0.33019100  0.25000000  1
  Te  Te8  1  0.66980900  0.94714400  0.25000000  1
  Te  Te9  1  0.94714400  0.27733500  0.75000000  1
  Te  Te10  1  0.05285600  0.72266500  0.25000000  1
  Te  Te11  1  0.33019100  0.05285600  0.75000000  1
  As  As12  1  0.33333300  0.66666700  0.75000000  1
  As  As13  1  0.66666700  0.33333300  0.25000000  1
