# generated using pymatgen
data_Sn4B3Ir7
_symmetry_space_group_name_H-M   'P 1'
_cell_length_a   9.38437822
_cell_length_b   9.38437822
_cell_length_c   5.69291200
_cell_angle_alpha   90.00000000
_cell_angle_beta   90.00000000
_cell_angle_gamma   120.00000155
_symmetry_Int_Tables_number   1
_chemical_formula_structural   Sn4B3Ir7
_chemical_formula_sum   'Sn8 B6 Ir14'
_cell_volume   434.18628536
_cell_formula_units_Z   2
loop_
 _symmetry_equiv_pos_site_id
 _symmetry_equiv_pos_as_xyz
  1  'x, y, z'
loop_
 _atom_site_type_symbol
 _atom_site_label
 _atom_site_symmetry_multiplicity
 _atom_site_fract_x
 _atom_site_fract_y
 _atom_site_fract_z
 _atom_site_occupancy
  Sn  Sn0  1  0.50222300  0.09173100  0.75000000  1
  Sn  Sn1  1  0.09173100  0.58950800  0.25000000  1
  Sn  Sn2  1  0.90826900  0.41049200  0.75000000  1
  Sn  Sn3  1  0.58950800  0.49777700  0.75000000  1
  Sn  Sn4  1  0.49777700  0.90826900  0.25000000  1
  Sn  Sn5  1  0.33333300  0.66666700  0.75000000  1
  Sn  Sn6  1  0.41049200  0.50222300  0.25000000  1
  Sn  Sn7  1  0.66666700  0.33333300  0.25000000  1
  B  B8  1  0.82774700  0.79054200  0.25000000  1
  B  B9  1  0.96279500  0.17225300  0.25000000  1
  B  B10  1  0.20945800  0.03720500  0.25000000  1
  B  B11  1  0.79054200  0.96279500  0.75000000  1
  B  B12  1  0.03720500  0.82774700  0.75000000  1
  B  B13  1  0.17225300  0.20945800  0.75000000  1
  Ir  Ir14  1  0.12361500  0.35413000  0.99900900  1
  Ir  Ir15  1  0.76948600  0.12361500  0.49900900  1
  Ir  Ir16  1  0.76948600  0.12361500  0.00099100  1
  Ir  Ir17  1  0.64587000  0.76948600  0.50099100  1
  Ir  Ir18  1  0.12361500  0.35413000  0.50099100  1
  Ir  Ir19  1  0.87638500  0.64587000  0.00099100  1
  Ir  Ir20  1  0.35413000  0.23051400  0.00099100  1
  Ir  Ir21  1  0.23051400  0.87638500  0.50099100  1
  Ir  Ir22  1  0.87638500  0.64587000  0.49900900  1
  Ir  Ir23  1  0.35413000  0.23051400  0.49900900  1
  Ir  Ir24  1  0.23051400  0.87638500  0.99900900  1
  Ir  Ir25  1  0.00000000  0.00000000  0.50000000  1
  Ir  Ir26  1  0.00000000  0.00000000  0.00000000  1
  Ir  Ir27  1  0.64587000  0.76948600  0.99900900  1
