# generated using pymatgen
data_Gd(CuGe)2
_symmetry_space_group_name_H-M   'P 1'
_cell_length_a   5.90122139
_cell_length_b   5.90122139
_cell_length_c   4.10924722
_cell_angle_alpha   70.09712416
_cell_angle_beta   70.09712416
_cell_angle_gamma   40.68779664
_symmetry_Int_Tables_number   1
_chemical_formula_structural   Gd(CuGe)2
_chemical_formula_sum   'Gd1 Cu2 Ge2'
_cell_volume   86.92722436
_cell_formula_units_Z   1
loop_
 _symmetry_equiv_pos_site_id
 _symmetry_equiv_pos_as_xyz
  1  'x, y, z'
loop_
 _atom_site_type_symbol
 _atom_site_label
 _atom_site_symmetry_multiplicity
 _atom_site_fract_x
 _atom_site_fract_y
 _atom_site_fract_z
 _atom_site_occupancy
  Gd  Gd0  1  0.00000000  0.00000000  0.00000000  1
  Cu  Cu1  1  0.24979000  0.24979000  0.22957700  1
  Cu  Cu2  1  0.75021000  0.75021000  0.77042300  1
  Ge  Ge3  1  0.62052700  0.62052700  0.39603700  1
  Ge  Ge4  1  0.37947300  0.37947300  0.60396300  1
