# generated using pymatgen
data_RhCl3
_symmetry_space_group_name_H-M   'P 1'
_cell_length_a   6.09091395
_cell_length_b   6.09091395
_cell_length_c   6.52089855
_cell_angle_alpha   81.04242255
_cell_angle_beta   81.04242255
_cell_angle_gamma   119.97723144
_symmetry_Int_Tables_number   1
_chemical_formula_structural   RhCl3
_chemical_formula_sum   'Rh2 Cl6'
_cell_volume   199.14472263
_cell_formula_units_Z   2
loop_
 _symmetry_equiv_pos_site_id
 _symmetry_equiv_pos_as_xyz
  1  'x, y, z'
loop_
 _atom_site_type_symbol
 _atom_site_label
 _atom_site_symmetry_multiplicity
 _atom_site_fract_x
 _atom_site_fract_y
 _atom_site_fract_z
 _atom_site_occupancy
  Rh  Rh0  1  0.16668300  0.83331700  0.00000000  1
  Rh  Rh1  1  0.83331700  0.16668300  0.00000000  1
  Cl  Cl2  1  0.42939600  0.07562100  0.21186000  1
  Cl  Cl3  1  0.92437900  0.57060400  0.78814000  1
  Cl  Cl4  1  0.21683700  0.21683700  0.78769700  1
  Cl  Cl5  1  0.78316300  0.78316300  0.21230300  1
  Cl  Cl6  1  0.07562100  0.42939600  0.21186000  1
  Cl  Cl7  1  0.57060400  0.92437900  0.78814000  1
