# generated using pymatgen
data_Nb3(BiS3)2
_symmetry_space_group_name_H-M   'P 1'
_cell_length_a   5.79563240
_cell_length_b   5.79563240
_cell_length_c   17.51597800
_cell_angle_alpha   90.00000000
_cell_angle_beta   90.00000000
_cell_angle_gamma   120.00000452
_symmetry_Int_Tables_number   1
_chemical_formula_structural   Nb3(BiS3)2
_chemical_formula_sum   'Nb6 Bi4 S12'
_cell_volume   509.52637030
_cell_formula_units_Z   2
loop_
 _symmetry_equiv_pos_site_id
 _symmetry_equiv_pos_as_xyz
  1  'x, y, z'
loop_
 _atom_site_type_symbol
 _atom_site_label
 _atom_site_symmetry_multiplicity
 _atom_site_fract_x
 _atom_site_fract_y
 _atom_site_fract_z
 _atom_site_occupancy
  Nb  Nb0  1  0.67381800  0.00000000  0.75000000  1
  Nb  Nb1  1  0.67381800  0.67381800  0.25000000  1
  Nb  Nb2  1  0.00000000  0.32618200  0.25000000  1
  Nb  Nb3  1  0.00000000  0.67381800  0.75000000  1
  Nb  Nb4  1  0.32618200  0.00000000  0.25000000  1
  Nb  Nb5  1  0.32618200  0.32618200  0.75000000  1
  Bi  Bi6  1  0.33333300  0.66666700  0.00000000  1
  Bi  Bi7  1  0.66666700  0.33333300  0.50000000  1
  Bi  Bi8  1  0.33333300  0.66666700  0.50000000  1
  Bi  Bi9  1  0.66666700  0.33333300  0.00000000  1
  S  S10  1  0.33333300  0.66666700  0.66168500  1
  S  S11  1  0.66666700  0.33333300  0.16168500  1
  S  S12  1  0.66666700  0.33333300  0.83831500  1
  S  S13  1  0.33333300  0.66666700  0.33831500  1
  S  S14  1  0.33333300  0.66666700  0.16168500  1
  S  S15  1  0.66666700  0.33333300  0.66168500  1
  S  S16  1  0.66666700  0.33333300  0.33831500  1
  S  S17  1  0.33333300  0.66666700  0.83831500  1
  S  S18  1  0.00000000  0.00000000  0.15845000  1
  S  S19  1  0.00000000  0.00000000  0.65845000  1
  S  S20  1  0.00000000  0.00000000  0.84155000  1
  S  S21  1  0.00000000  0.00000000  0.34155000  1
