# generated using pymatgen
data_Rb3InS3
_symmetry_space_group_name_H-M   'P 1'
_cell_length_a   8.25736326
_cell_length_b   8.25736326
_cell_length_c   8.03505727
_cell_angle_alpha   83.73492625
_cell_angle_beta   83.73492625
_cell_angle_gamma   113.47068171
_symmetry_Int_Tables_number   1
_chemical_formula_structural   Rb3InS3
_chemical_formula_sum   'Rb6 In2 S6'
_cell_volume   492.48836917
_cell_formula_units_Z   2
loop_
 _symmetry_equiv_pos_site_id
 _symmetry_equiv_pos_as_xyz
  1  'x, y, z'
loop_
 _atom_site_type_symbol
 _atom_site_label
 _atom_site_symmetry_multiplicity
 _atom_site_fract_x
 _atom_site_fract_y
 _atom_site_fract_z
 _atom_site_occupancy
  Rb  Rb0  1  0.25277700  0.74722300  0.00000000  1
  Rb  Rb1  1  0.32074900  0.67925100  0.50000000  1
  Rb  Rb2  1  0.11267300  0.11267300  0.64649300  1
  Rb  Rb3  1  0.67925100  0.32074900  0.50000000  1
  Rb  Rb4  1  0.74722300  0.25277700  0.00000000  1
  Rb  Rb5  1  0.88732700  0.88732700  0.35350700  1
  In  In6  1  0.67534000  0.67534000  0.85336900  1
  In  In7  1  0.32466000  0.32466000  0.14663100  1
  S  S8  1  0.05171400  0.34539500  0.27436900  1
  S  S9  1  0.60105400  0.60105400  0.17717100  1
  S  S10  1  0.39894600  0.39894600  0.82282900  1
  S  S11  1  0.94828600  0.65460500  0.72563100  1
  S  S12  1  0.65460500  0.94828600  0.72563100  1
  S  S13  1  0.34539500  0.05171400  0.27436900  1
