# generated using pymatgen
data_Sr4As3
_symmetry_space_group_name_H-M   'P 1'
_cell_length_a   11.05090500
_cell_length_b   12.28533100
_cell_length_c   12.93513600
_cell_angle_alpha   90.00000000
_cell_angle_beta   90.00000000
_cell_angle_gamma   90.00000000
_symmetry_Int_Tables_number   1
_chemical_formula_structural   Sr4As3
_chemical_formula_sum   'Sr32 As24'
_cell_volume   1756.12613730
_cell_formula_units_Z   8
loop_
 _symmetry_equiv_pos_site_id
 _symmetry_equiv_pos_as_xyz
  1  'x, y, z'
loop_
 _atom_site_type_symbol
 _atom_site_label
 _atom_site_symmetry_multiplicity
 _atom_site_fract_x
 _atom_site_fract_y
 _atom_site_fract_z
 _atom_site_occupancy
  Sr  Sr0  1  0.00000000  0.60253000  0.79380000  1
  Sr  Sr1  1  0.00000000  0.39747000  0.20620000  1
  Sr  Sr2  1  0.00000000  0.10253000  0.70620000  1
  Sr  Sr3  1  0.00000000  0.89747000  0.29380000  1
  Sr  Sr4  1  0.72357600  0.40382300  0.76413900  1
  Sr  Sr5  1  0.72357600  0.59617700  0.23586100  1
  Sr  Sr6  1  0.27642400  0.90382300  0.73586100  1
  Sr  Sr7  1  0.27642400  0.09617700  0.26413900  1
  Sr  Sr8  1  0.27642400  0.59617700  0.23586100  1
  Sr  Sr9  1  0.27642400  0.40382300  0.76413900  1
  Sr  Sr10  1  0.72357600  0.09617700  0.26413900  1
  Sr  Sr11  1  0.72357600  0.90382300  0.73586100  1
  Sr  Sr12  1  0.00000000  0.77420500  0.57657500  1
  Sr  Sr13  1  0.00000000  0.22579500  0.42342500  1
  Sr  Sr14  1  0.00000000  0.27420500  0.92342500  1
  Sr  Sr15  1  0.00000000  0.72579500  0.07657500  1
  Sr  Sr16  1  0.67703800  0.67365500  0.93294500  1
  Sr  Sr17  1  0.67703800  0.32634500  0.06705500  1
  Sr  Sr18  1  0.32296200  0.17365500  0.56705500  1
  Sr  Sr19  1  0.32296200  0.82634500  0.43294500  1
  Sr  Sr20  1  0.32296200  0.32634500  0.06705500  1
  Sr  Sr21  1  0.32296200  0.67365500  0.93294500  1
  Sr  Sr22  1  0.67703800  0.82634500  0.43294500  1
  Sr  Sr23  1  0.67703800  0.17365500  0.56705500  1
  Sr  Sr24  1  0.50000000  0.12318500  0.86782700  1
  Sr  Sr25  1  0.50000000  0.87681500  0.13217300  1
  Sr  Sr26  1  0.50000000  0.62318500  0.63217300  1
  Sr  Sr27  1  0.50000000  0.37681500  0.36782700  1
  Sr  Sr28  1  0.81774200  0.00000000  0.00000000  1
  Sr  Sr29  1  0.18225800  0.50000000  0.50000000  1
  Sr  Sr30  1  0.18225800  0.00000000  0.00000000  1
  Sr  Sr31  1  0.81774200  0.50000000  0.50000000  1
  As  As32  1  0.88338200  0.50000000  0.00000000  1
  As  As33  1  0.11661800  0.00000000  0.50000000  1
  As  As34  1  0.11661800  0.50000000  0.00000000  1
  As  As35  1  0.88338200  0.00000000  0.50000000  1
  As  As36  1  0.50000000  0.86406900  0.88635500  1
  As  As37  1  0.50000000  0.13593100  0.11364500  1
  As  As38  1  0.50000000  0.36406900  0.61364500  1
  As  As39  1  0.50000000  0.63593100  0.38635500  1
  As  As40  1  0.23381500  0.83777800  0.17710200  1
  As  As41  1  0.23381500  0.16222200  0.82289800  1
  As  As42  1  0.76618500  0.33777800  0.32289800  1
  As  As43  1  0.76618500  0.66222200  0.67710200  1
  As  As44  1  0.76618500  0.16222200  0.82289800  1
  As  As45  1  0.76618500  0.83777800  0.17710200  1
  As  As46  1  0.23381500  0.66222200  0.67710200  1
  As  As47  1  0.23381500  0.33777800  0.32289800  1
  As  As48  1  0.50000000  0.46207800  0.90786900  1
  As  As49  1  0.50000000  0.53792200  0.09213100  1
  As  As50  1  0.50000000  0.96207800  0.59213100  1
  As  As51  1  0.50000000  0.03792200  0.40786900  1
  As  As52  1  0.00000000  0.86037600  0.85804700  1
  As  As53  1  0.00000000  0.13962400  0.14195300  1
  As  As54  1  0.00000000  0.36037600  0.64195300  1
  As  As55  1  0.00000000  0.63962400  0.35804700  1
