# generated using pymatgen
data_Ge(BrF5)2
_symmetry_space_group_name_H-M   'P 1'
_cell_length_a   14.18589600
_cell_length_b   5.13214900
_cell_length_c   6.65084781
_cell_angle_alpha   64.31814048
_cell_angle_beta   90.00000000
_cell_angle_gamma   90.00000000
_symmetry_Int_Tables_number   1
_chemical_formula_structural   Ge(BrF5)2
_chemical_formula_sum   'Ge2 Br4 F20'
_cell_volume   436.37624557
_cell_formula_units_Z   2
loop_
 _symmetry_equiv_pos_site_id
 _symmetry_equiv_pos_as_xyz
  1  'x, y, z'
loop_
 _atom_site_type_symbol
 _atom_site_label
 _atom_site_symmetry_multiplicity
 _atom_site_fract_x
 _atom_site_fract_y
 _atom_site_fract_z
 _atom_site_occupancy
  Ge  Ge0  1  0.00000000  0.00000000  0.00000000  1
  Ge  Ge1  1  0.50000000  0.00000000  0.50000000  1
  Br  Br2  1  0.36595000  0.68108100  0.17229100  1
  Br  Br3  1  0.86595000  0.31891900  0.32770900  1
  Br  Br4  1  0.13405000  0.68108100  0.67229100  1
  Br  Br5  1  0.63405000  0.31891900  0.82770900  1
  F  F6  1  0.67547400  0.99700200  0.05365900  1
  F  F7  1  0.17547400  0.00299800  0.44634100  1
  F  F8  1  0.32452600  0.00299800  0.94634100  1
  F  F9  1  0.82452600  0.99700200  0.55365900  1
  F  F10  1  0.71331000  0.53558000  0.89934300  1
  F  F11  1  0.21331000  0.46442000  0.60065700  1
  F  F12  1  0.96363800  0.03107100  0.26175800  1
  F  F13  1  0.46363800  0.96892900  0.23824200  1
  F  F14  1  0.03636200  0.96892900  0.73824200  1
  F  F15  1  0.53636200  0.03107100  0.76175800  1
  F  F16  1  0.90547900  0.71958400  0.04795300  1
  F  F17  1  0.40547900  0.28041600  0.45204700  1
  F  F18  1  0.09452100  0.28041600  0.95204700  1
  F  F19  1  0.59452100  0.71958400  0.54795300  1
  F  F20  1  0.91997200  0.27289600  0.83990200  1
  F  F21  1  0.41997200  0.72710400  0.66009800  1
  F  F22  1  0.08002800  0.72710400  0.16009800  1
  F  F23  1  0.58002800  0.27289600  0.33990200  1
  F  F24  1  0.78669000  0.53558000  0.39934300  1
  F  F25  1  0.28669000  0.46442000  0.10065700  1
