# generated using pymatgen
data_VBP2H5NO9
_symmetry_space_group_name_H-M   'P 1'
_cell_length_a   8.43819800
_cell_length_b   9.54086600
_cell_length_c   9.80055205
_cell_angle_alpha   76.57057661
_cell_angle_beta   90.00000000
_cell_angle_gamma   90.00000000
_symmetry_Int_Tables_number   1
_chemical_formula_structural   VBP2H5NO9
_chemical_formula_sum   'V4 B4 P8 H20 N4 O36'
_cell_volume   767.44568364
_cell_formula_units_Z   4
loop_
 _symmetry_equiv_pos_site_id
 _symmetry_equiv_pos_as_xyz
  1  'x, y, z'
loop_
 _atom_site_type_symbol
 _atom_site_label
 _atom_site_symmetry_multiplicity
 _atom_site_fract_x
 _atom_site_fract_y
 _atom_site_fract_z
 _atom_site_occupancy
  V  V0  1  0.34609000  0.79003100  0.93675100  1
  V  V1  1  0.84609000  0.20996900  0.56324900  1
  V  V2  1  0.65391000  0.20996900  0.06324900  1
  V  V3  1  0.15391000  0.79003100  0.43675100  1
  B  B4  1  0.93820700  0.66575800  0.69180400  1
  B  B5  1  0.06179300  0.33424200  0.30819600  1
  B  B6  1  0.56179300  0.66575800  0.19180400  1
  B  B7  1  0.43820700  0.33424200  0.80819600  1
  P  P8  1  0.25510400  0.57919200  0.72318000  1
  P  P9  1  0.75510400  0.42080800  0.77682000  1
  P  P10  1  0.74489600  0.42080800  0.27682000  1
  P  P11  1  0.24489600  0.57919200  0.22318000  1
  P  P12  1  0.05976400  0.92307800  0.70723400  1
  P  P13  1  0.55976400  0.07692200  0.79276600  1
  P  P14  1  0.44023600  0.92307800  0.20723400  1
  P  P15  1  0.94023600  0.07692200  0.29276600  1
  H  H16  1  0.13107900  0.27973200  0.89892700  1
  H  H17  1  0.63107900  0.72026800  0.60107300  1
  H  H18  1  0.86892100  0.72026800  0.10107300  1
  H  H19  1  0.36892100  0.27973200  0.39892700  1
  H  H20  1  0.95619400  0.85665100  0.15343500  1
  H  H21  1  0.45619400  0.14334900  0.34656500  1
  H  H22  1  0.04380600  0.14334900  0.84656500  1
  H  H23  1  0.54380600  0.85665100  0.65343500  1
  H  H24  1  0.99757400  0.82959200  0.99087600  1
  H  H25  1  0.49757400  0.17040800  0.50912400  1
  H  H26  1  0.00242600  0.17040800  0.00912400  1
  H  H27  1  0.41686900  0.39292400  0.00010300  1
  H  H28  1  0.81674400  0.89106500  0.02642100  1
  H  H29  1  0.31674400  0.10893500  0.47357900  1
  H  H30  1  0.18325600  0.10893500  0.97357900  1
  H  H31  1  0.68325600  0.89106500  0.52642100  1
  H  H32  1  0.58313100  0.60707600  0.99989700  1
  H  H33  1  0.91686900  0.60707600  0.49989700  1
  H  H34  1  0.08313100  0.39292400  0.50010300  1
  H  H35  1  0.50242600  0.82959200  0.49087600  1
  N  N36  1  0.59009700  0.82409800  0.56670600  1
  N  N37  1  0.90990300  0.82409800  0.06670600  1
  N  N38  1  0.40990300  0.17590200  0.43329400  1
  N  N39  1  0.09009700  0.17590200  0.93329400  1
  O  O40  1  0.92059200  0.80908500  0.72073900  1
  O  O41  1  0.77812400  0.36349400  0.93522600  1
  O  O42  1  0.72187600  0.36349400  0.43522600  1
  O  O43  1  0.22187600  0.63650600  0.06477400  1
  O  O44  1  0.95242100  0.68881800  0.53585000  1
  O  O45  1  0.45242100  0.31118200  0.96415000  1
  O  O46  1  0.04757900  0.31118200  0.46415000  1
  O  O47  1  0.54757900  0.68881800  0.03585000  1
  O  O48  1  0.48205500  0.92887800  0.80228700  1
  O  O49  1  0.98205500  0.07112200  0.69771300  1
  O  O50  1  0.51794500  0.07112200  0.19771300  1
  O  O51  1  0.01794500  0.92887800  0.30228700  1
  O  O52  1  0.57940800  0.80908500  0.22073900  1
  O  O53  1  0.07940800  0.19091500  0.27926100  1
  O  O54  1  0.42059200  0.19091500  0.77926100  1
  O  O55  1  0.27812400  0.63650600  0.56477400  1
  O  O56  1  0.42363300  0.58617000  0.26488100  1
  O  O57  1  0.92363300  0.41383000  0.23511900  1
  O  O58  1  0.57636700  0.41383000  0.73511900  1
  O  O59  1  0.07636700  0.58617000  0.76488100  1
  O  O60  1  0.21020400  0.41217900  0.26197200  1
  O  O61  1  0.71020400  0.58782100  0.23802800  1
  O  O62  1  0.34959900  0.88790800  0.34847600  1
  O  O63  1  0.28979600  0.41217900  0.76197200  1
  O  O64  1  0.13564500  0.65297800  0.30905400  1
  O  O65  1  0.36435500  0.65297800  0.80905400  1
  O  O66  1  0.86435500  0.34702200  0.69094600  1
  O  O67  1  0.63564500  0.34702200  0.19094600  1
  O  O68  1  0.33648200  0.91714700  0.07934600  1
  O  O69  1  0.83648200  0.08285300  0.42065400  1
  O  O70  1  0.66351800  0.08285300  0.92065400  1
  O  O71  1  0.16351800  0.91714700  0.57934600  1
  O  O72  1  0.15040100  0.88790800  0.84847600  1
  O  O73  1  0.65040100  0.11209200  0.65152400  1
  O  O74  1  0.84959900  0.11209200  0.15152400  1
  O  O75  1  0.78979600  0.58782100  0.73802800  1
