# generated using pymatgen
data_SrLiN
_symmetry_space_group_name_H-M   'P 1'
_cell_length_a   3.94153500
_cell_length_b   3.94153500
_cell_length_c   7.09492600
_cell_angle_alpha   90.00000000
_cell_angle_beta   90.00000000
_cell_angle_gamma   90.00000000
_symmetry_Int_Tables_number   1
_chemical_formula_structural   SrLiN
_chemical_formula_sum   'Sr2 Li2 N2'
_cell_volume   110.22462878
_cell_formula_units_Z   2
loop_
 _symmetry_equiv_pos_site_id
 _symmetry_equiv_pos_as_xyz
  1  'x, y, z'
loop_
 _atom_site_type_symbol
 _atom_site_label
 _atom_site_symmetry_multiplicity
 _atom_site_fract_x
 _atom_site_fract_y
 _atom_site_fract_z
 _atom_site_occupancy
  Sr  Sr0  1  0.00000000  0.00000000  0.75000000  1
  Sr  Sr1  1  0.00000000  0.00000000  0.25000000  1
  Li  Li2  1  0.50000000  0.50000000  0.50000000  1
  Li  Li3  1  0.50000000  0.50000000  0.00000000  1
  N  N4  1  0.00000000  0.50000000  0.00000000  1
  N  N5  1  0.50000000  0.00000000  0.50000000  1
