# generated using pymatgen
data_Mn2BO4
_symmetry_space_group_name_H-M   'P 1'
_cell_length_a   3.31694950
_cell_length_b   9.42862433
_cell_length_c   9.63219200
_cell_angle_alpha   90.00000000
_cell_angle_beta   90.00000000
_cell_angle_gamma   90.69965049
_symmetry_Int_Tables_number   1
_chemical_formula_structural   Mn2BO4
_chemical_formula_sum   'Mn8 B4 O16'
_cell_volume   301.21732115
_cell_formula_units_Z   4
loop_
 _symmetry_equiv_pos_site_id
 _symmetry_equiv_pos_as_xyz
  1  'x, y, z'
loop_
 _atom_site_type_symbol
 _atom_site_label
 _atom_site_symmetry_multiplicity
 _atom_site_fract_x
 _atom_site_fract_y
 _atom_site_fract_z
 _atom_site_occupancy
  Mn  Mn0  1  0.27296700  0.68027600  0.09760800  1
  Mn  Mn1  1  0.22703200  0.81972300  0.59760800  1
  Mn  Mn2  1  0.72703100  0.31972400  0.90239200  1
  Mn  Mn3  1  0.77296700  0.18027600  0.40239200  1
  Mn  Mn4  1  0.27270100  0.06324100  0.11822000  1
  Mn  Mn5  1  0.22729800  0.43675900  0.61822000  1
  Mn  Mn6  1  0.72729800  0.93675800  0.88178000  1
  Mn  Mn7  1  0.77270100  0.56324200  0.38177900  1
  B  B8  1  0.30013900  0.36771700  0.16949700  1
  B  B9  1  0.19986100  0.13228400  0.66949700  1
  B  B10  1  0.69986300  0.63228300  0.83050300  1
  B  B11  1  0.80013800  0.86771700  0.33050300  1
  O  O12  1  0.78223500  0.38751400  0.48851700  1
  O  O13  1  0.26952900  0.13075500  0.53019600  1
  O  O14  1  0.76953100  0.63075400  0.96980400  1
  O  O15  1  0.73047000  0.86924600  0.46980400  1
  O  O16  1  0.71776700  0.11248600  0.98851600  1
  O  O17  1  0.23047000  0.36924600  0.03019600  1
  O  O18  1  0.28223500  0.88751300  0.01148300  1
  O  O19  1  0.21776700  0.61248700  0.51148400  1
  O  O20  1  0.84758200  0.99614600  0.25927400  1
  O  O21  1  0.65241600  0.50385400  0.75927400  1
  O  O22  1  0.31803200  0.23831000  0.24075000  1
  O  O23  1  0.34758300  0.49614600  0.24072600  1
  O  O24  1  0.81803100  0.73831100  0.25925000  1
  O  O25  1  0.68196700  0.76168900  0.75925100  1
  O  O26  1  0.18196800  0.26169000  0.74074900  1
  O  O27  1  0.15241700  0.00385300  0.74072600  1
