# generated using pymatgen
data_NaGe
_symmetry_space_group_name_H-M   'P 1'
_cell_length_a   6.67676900
_cell_length_b   11.44220700
_cell_length_c   11.91909546
_cell_angle_alpha   64.00056984
_cell_angle_beta   90.00000000
_cell_angle_gamma   90.00000000
_symmetry_Int_Tables_number   1
_chemical_formula_structural   NaGe
_chemical_formula_sum   'Na16 Ge16'
_cell_volume   818.43038164
_cell_formula_units_Z   16
loop_
 _symmetry_equiv_pos_site_id
 _symmetry_equiv_pos_as_xyz
  1  'x, y, z'
loop_
 _atom_site_type_symbol
 _atom_site_label
 _atom_site_symmetry_multiplicity
 _atom_site_fract_x
 _atom_site_fract_y
 _atom_site_fract_z
 _atom_site_occupancy
  Na  Na0  1  0.06443200  0.76745900  0.09687600  1
  Na  Na1  1  0.56443200  0.73254100  0.90312400  1
  Na  Na2  1  0.93556800  0.23254100  0.90312400  1
  Na  Na3  1  0.43556800  0.26745900  0.09687600  1
  Na  Na4  1  0.14644300  0.23967600  0.39333400  1
  Na  Na5  1  0.64644300  0.26032400  0.60666600  1
  Na  Na6  1  0.85355700  0.76032400  0.60666600  1
  Na  Na7  1  0.35355700  0.73967600  0.39333400  1
  Na  Na8  1  0.81934800  0.59694600  0.39596000  1
  Na  Na9  1  0.31934800  0.90305400  0.60404000  1
  Na  Na10  1  0.18065200  0.40305400  0.60404000  1
  Na  Na11  1  0.68065200  0.09694600  0.39596000  1
  Na  Na12  1  0.86333300  0.45156900  0.14102500  1
  Na  Na13  1  0.36333300  0.04843100  0.85897500  1
  Na  Na14  1  0.13666700  0.54843100  0.85897500  1
  Na  Na15  1  0.63666700  0.95156900  0.14102500  1
  Ge  Ge16  1  0.52622000  0.65498400  0.19155000  1
  Ge  Ge17  1  0.02622000  0.84501600  0.80845000  1
  Ge  Ge18  1  0.47378000  0.34501600  0.80845000  1
  Ge  Ge19  1  0.97378000  0.15498400  0.19155000  1
  Ge  Ge20  1  0.53983100  0.39967600  0.32443400  1
  Ge  Ge21  1  0.03983100  0.10032400  0.67556600  1
  Ge  Ge22  1  0.46016900  0.60032400  0.67556600  1
  Ge  Ge23  1  0.96016900  0.89967600  0.32443400  1
  Ge  Ge24  1  0.21857600  0.52528800  0.32575100  1
  Ge  Ge25  1  0.71857600  0.97471200  0.67424900  1
  Ge  Ge26  1  0.78142400  0.47471200  0.67424900  1
  Ge  Ge27  1  0.28142400  0.02528800  0.32575100  1
  Ge  Ge28  1  0.31620600  0.50733700  0.12439000  1
  Ge  Ge29  1  0.81620600  0.99266300  0.87561000  1
  Ge  Ge30  1  0.68379400  0.49266300  0.87561000  1
  Ge  Ge31  1  0.18379400  0.00733700  0.12439000  1
