# generated using pymatgen
data_Fe2SiO4
_symmetry_space_group_name_H-M   'P 1'
_cell_length_a   4.88187461
_cell_length_b   6.17174339
_cell_length_c   10.59971801
_cell_angle_alpha   90.04081663
_cell_angle_beta   90.05742219
_cell_angle_gamma   90.00108424
_symmetry_Int_Tables_number   1
_chemical_formula_structural   Fe2SiO4
_chemical_formula_sum   'Fe8 Si4 O16'
_cell_volume   319.36584231
_cell_formula_units_Z   4
loop_
 _symmetry_equiv_pos_site_id
 _symmetry_equiv_pos_as_xyz
  1  'x, y, z'
loop_
 _atom_site_type_symbol
 _atom_site_label
 _atom_site_symmetry_multiplicity
 _atom_site_fract_x
 _atom_site_fract_y
 _atom_site_fract_z
 _atom_site_occupancy
  Fe  Fe0  1  0.98623400  0.24987600  0.27958900  1
  Fe  Fe1  1  0.01376600  0.75012500  0.72041200  1
  Fe  Fe2  1  0.99999800  0.49999900  0.99999900  1
  Fe  Fe3  1  0.00000200  0.99999900  0.00000000  1
  Fe  Fe4  1  0.48618300  0.75012900  0.22029600  1
  Fe  Fe5  1  0.51381900  0.24987200  0.77970500  1
  Fe  Fe6  1  0.50000000  0.50000100  0.50000000  1
  Fe  Fe7  1  0.49999900  0.99999900  0.50000000  1
  Si  Si8  1  0.92815700  0.75003500  0.40356200  1
  Si  Si9  1  0.42953600  0.24986700  0.09643500  1
  Si  Si10  1  0.07184200  0.24996500  0.59643800  1
  Si  Si11  1  0.57046400  0.75013300  0.90356500  1
  O  O12  1  0.78869900  0.74999200  0.54767300  1
  O  O13  1  0.28927700  0.24973500  0.95262500  1
  O  O14  1  0.21130200  0.25000800  0.45232700  1
  O  O15  1  0.71072200  0.75026500  0.04737500  1
  O  O16  1  0.23374700  0.75033000  0.90774300  1
  O  O17  1  0.73529700  0.25002800  0.59148000  1
  O  O18  1  0.76625300  0.24967100  0.09225600  1
  O  O19  1  0.26470400  0.74997200  0.40852000  1
  O  O20  1  0.21204300  0.46372700  0.66530700  1
  O  O21  1  0.71301500  0.53688900  0.83501500  1
  O  O22  1  0.78798500  0.96369000  0.33474800  1
  O  O23  1  0.28764800  0.03682400  0.16519700  1
  O  O24  1  0.78795500  0.53627500  0.33469300  1
  O  O25  1  0.28698400  0.46311000  0.16498500  1
  O  O26  1  0.21201500  0.03631200  0.66525300  1
  O  O27  1  0.71235400  0.96317500  0.83480300  1
