# generated using pymatgen
data_Tl2Pt5S6
_symmetry_space_group_name_H-M   'P 1'
_cell_length_a   7.09245800
_cell_length_b   7.04392300
_cell_length_c   12.50193250
_cell_angle_alpha   63.87350960
_cell_angle_beta   90.00000000
_cell_angle_gamma   90.00000000
_symmetry_Int_Tables_number   1
_chemical_formula_structural   Tl2Pt5S6
_chemical_formula_sum   'Tl4 Pt10 S12'
_cell_volume   560.76354132
_cell_formula_units_Z   2
loop_
 _symmetry_equiv_pos_site_id
 _symmetry_equiv_pos_as_xyz
  1  'x, y, z'
loop_
 _atom_site_type_symbol
 _atom_site_label
 _atom_site_symmetry_multiplicity
 _atom_site_fract_x
 _atom_site_fract_y
 _atom_site_fract_z
 _atom_site_occupancy
  Tl  Tl0  1  0.21264400  0.66119800  0.45446300  1
  Tl  Tl1  1  0.71264400  0.33880200  0.04553700  1
  Tl  Tl2  1  0.78735600  0.33880200  0.54553700  1
  Tl  Tl3  1  0.28735600  0.66119800  0.95446300  1
  Pt  Pt4  1  0.68886000  0.49982800  0.24487900  1
  Pt  Pt5  1  0.18886000  0.50017200  0.25512100  1
  Pt  Pt6  1  0.92801600  0.00042400  0.26713400  1
  Pt  Pt7  1  0.42801600  0.99957600  0.23286600  1
  Pt  Pt8  1  0.07198400  0.99957600  0.73286600  1
  Pt  Pt9  1  0.57198400  0.00042400  0.76713400  1
  Pt  Pt10  1  0.00000000  0.00000000  0.00000000  1
  Pt  Pt11  1  0.50000000  0.00000000  0.50000000  1
  Pt  Pt12  1  0.31114000  0.50017200  0.75512100  1
  Pt  Pt13  1  0.81114000  0.49982800  0.74487900  1
  S  S14  1  0.15860500  0.15127100  0.11341800  1
  S  S15  1  0.65860500  0.84872900  0.38658200  1
  S  S16  1  0.84139500  0.84872900  0.88658200  1
  S  S17  1  0.34139500  0.15127100  0.61341800  1
  S  S18  1  0.06400100  0.25788000  0.80694900  1
  S  S19  1  0.56400100  0.74212000  0.69305100  1
  S  S20  1  0.94122200  0.25826300  0.33485600  1
  S  S21  1  0.44122200  0.74173700  0.16514400  1
  S  S22  1  0.05877800  0.74173700  0.66514400  1
  S  S23  1  0.55877800  0.25826300  0.83485600  1
  S  S24  1  0.43599900  0.25788000  0.30694900  1
  S  S25  1  0.93599900  0.74212000  0.19305100  1
