# generated using pymatgen
data_Cs4SiSe4
_symmetry_space_group_name_H-M   'P 1'
_cell_length_a   14.43525100
_cell_length_b   14.43525100
_cell_length_c   14.43525100
_cell_angle_alpha   90.00000000
_cell_angle_beta   90.00000000
_cell_angle_gamma   90.00000000
_symmetry_Int_Tables_number   1
_chemical_formula_structural   Cs4SiSe4
_chemical_formula_sum   'Cs32 Si8 Se32'
_cell_volume   3007.96666763
_cell_formula_units_Z   8
loop_
 _symmetry_equiv_pos_site_id
 _symmetry_equiv_pos_as_xyz
  1  'x, y, z'
loop_
 _atom_site_type_symbol
 _atom_site_label
 _atom_site_symmetry_multiplicity
 _atom_site_fract_x
 _atom_site_fract_y
 _atom_site_fract_z
 _atom_site_occupancy
  Cs  Cs0  1  0.34792400  0.34792400  0.34792400  1
  Cs  Cs1  1  0.15207600  0.84792400  0.15207600  1
  Cs  Cs2  1  0.84792400  0.15207600  0.15207600  1
  Cs  Cs3  1  0.15207600  0.15207600  0.84792400  1
  Cs  Cs4  1  0.34792400  0.65207600  0.65207600  1
  Cs  Cs5  1  0.65207600  0.65207600  0.34792400  1
  Cs  Cs6  1  0.65207600  0.34792400  0.65207600  1
  Cs  Cs7  1  0.84792400  0.84792400  0.84792400  1
  Cs  Cs8  1  0.34873900  0.13470900  0.08454700  1
  Cs  Cs9  1  0.34873900  0.86529100  0.91545300  1
  Cs  Cs10  1  0.13470900  0.08454700  0.34873900  1
  Cs  Cs11  1  0.86529100  0.08454700  0.65126100  1
  Cs  Cs12  1  0.08454700  0.34873900  0.13470900  1
  Cs  Cs13  1  0.91545300  0.65126100  0.13470900  1
  Cs  Cs14  1  0.15126100  0.41545300  0.63470900  1
  Cs  Cs15  1  0.15126100  0.58454700  0.36529100  1
  Cs  Cs16  1  0.84873900  0.41545300  0.36529100  1
  Cs  Cs17  1  0.58454700  0.36529100  0.15126100  1
  Cs  Cs18  1  0.36529100  0.84873900  0.41545300  1
  Cs  Cs19  1  0.36529100  0.15126100  0.58454700  1
  Cs  Cs20  1  0.41545300  0.63470900  0.15126100  1
  Cs  Cs21  1  0.63470900  0.15126100  0.41545300  1
  Cs  Cs22  1  0.41545300  0.36529100  0.84873900  1
  Cs  Cs23  1  0.58454700  0.63470900  0.84873900  1
  Cs  Cs24  1  0.63470900  0.84873900  0.58454700  1
  Cs  Cs25  1  0.91545300  0.34873900  0.86529100  1
  Cs  Cs26  1  0.08454700  0.65126100  0.86529100  1
  Cs  Cs27  1  0.13470900  0.91545300  0.65126100  1
  Cs  Cs28  1  0.86529100  0.91545300  0.34873900  1
  Cs  Cs29  1  0.65126100  0.86529100  0.08454700  1
  Cs  Cs30  1  0.65126100  0.13470900  0.91545300  1
  Cs  Cs31  1  0.84873900  0.58454700  0.63470900  1
  Si  Si32  1  0.00000000  0.25000000  0.50000000  1
  Si  Si33  1  0.00000000  0.75000000  0.50000000  1
  Si  Si34  1  0.50000000  0.00000000  0.75000000  1
  Si  Si35  1  0.50000000  0.00000000  0.25000000  1
  Si  Si36  1  0.75000000  0.50000000  0.00000000  1
  Si  Si37  1  0.00000000  0.00000000  0.00000000  1
  Si  Si38  1  0.50000000  0.50000000  0.50000000  1
  Si  Si39  1  0.25000000  0.50000000  0.00000000  1
  Se  Se40  1  0.10013000  0.16160400  0.58928700  1
  Se  Se41  1  0.33839600  0.60013000  0.91071300  1
  Se  Se42  1  0.39987000  0.08928700  0.33839600  1
  Se  Se43  1  0.60013000  0.08928700  0.66160400  1
  Se  Se44  1  0.08928700  0.33839600  0.39987000  1
  Se  Se45  1  0.91071300  0.66160400  0.39987000  1
  Se  Se46  1  0.16160400  0.41071300  0.89987000  1
  Se  Se47  1  0.16160400  0.58928700  0.10013000  1
  Se  Se48  1  0.83839600  0.41071300  0.10013000  1
  Se  Se49  1  0.59251800  0.59251800  0.59251800  1
  Se  Se50  1  0.10013000  0.83839600  0.41071300  1
  Se  Se51  1  0.33839600  0.39987000  0.08928700  1
  Se  Se52  1  0.41071300  0.89987000  0.16160400  1
  Se  Se53  1  0.89987000  0.16160400  0.41071300  1
  Se  Se54  1  0.41071300  0.10013000  0.83839600  1
  Se  Se55  1  0.58928700  0.89987000  0.83839600  1
  Se  Se56  1  0.89987000  0.83839600  0.58928700  1
  Se  Se57  1  0.91071300  0.33839600  0.60013000  1
  Se  Se58  1  0.08928700  0.66160400  0.60013000  1
  Se  Se59  1  0.39987000  0.91071300  0.66160400  1
  Se  Se60  1  0.60013000  0.91071300  0.33839600  1
  Se  Se61  1  0.66160400  0.60013000  0.08928700  1
  Se  Se62  1  0.66160400  0.39987000  0.91071300  1
  Se  Se63  1  0.83839600  0.58928700  0.89987000  1
  Se  Se64  1  0.90748200  0.09251800  0.90748200  1
  Se  Se65  1  0.90748200  0.90748200  0.09251800  1
  Se  Se66  1  0.09251800  0.90748200  0.90748200  1
  Se  Se67  1  0.40748200  0.40748200  0.59251800  1
  Se  Se68  1  0.59251800  0.40748200  0.40748200  1
  Se  Se69  1  0.40748200  0.59251800  0.40748200  1
  Se  Se70  1  0.09251800  0.09251800  0.09251800  1
  Se  Se71  1  0.58928700  0.10013000  0.16160400  1
