# generated using pymatgen
data_Bi2P4O13
_symmetry_space_group_name_H-M   'P 1'
_cell_length_a   7.01177875
_cell_length_b   7.01177875
_cell_length_c   13.39076301
_cell_angle_alpha   76.14585282
_cell_angle_beta   76.14585282
_cell_angle_gamma   59.74982719
_symmetry_Int_Tables_number   1
_chemical_formula_structural   Bi2P4O13
_chemical_formula_sum   'Bi4 P8 O26'
_cell_volume   546.59741056
_cell_formula_units_Z   2
loop_
 _symmetry_equiv_pos_site_id
 _symmetry_equiv_pos_as_xyz
  1  'x, y, z'
loop_
 _atom_site_type_symbol
 _atom_site_label
 _atom_site_symmetry_multiplicity
 _atom_site_fract_x
 _atom_site_fract_y
 _atom_site_fract_z
 _atom_site_occupancy
  Bi  Bi0  1  0.69677200  0.69904500  0.94109900  1
  Bi  Bi1  1  0.30095500  0.30322800  0.55890100  1
  Bi  Bi2  1  0.30322800  0.30095500  0.05890100  1
  Bi  Bi3  1  0.69904500  0.69677200  0.44109900  1
  P  P4  1  0.86538900  0.15511300  0.63645000  1
  P  P5  1  0.84488700  0.13461100  0.86355000  1
  P  P6  1  0.13461100  0.84488700  0.36355000  1
  P  P7  1  0.15511300  0.86538900  0.13645000  1
  P  P8  1  0.76270700  0.77660500  0.65842400  1
  P  P9  1  0.22339500  0.23729300  0.84157600  1
  P  P10  1  0.23729300  0.22339500  0.34157600  1
  P  P11  1  0.77660500  0.76270700  0.15842400  1
  O  O12  1  0.76684000  0.23316000  0.75000000  1
  O  O13  1  0.23316000  0.76684000  0.25000000  1
  O  O14  1  0.68858300  0.30653200  0.93419200  1
  O  O15  1  0.69346800  0.31141700  0.56580800  1
  O  O16  1  0.31141700  0.69346800  0.06580800  1
  O  O17  1  0.30653200  0.68858300  0.43419200  1
  O  O18  1  0.88194200  0.89733800  0.89355900  1
  O  O19  1  0.10266200  0.11805800  0.60644100  1
  O  O20  1  0.11805800  0.10266200  0.10644100  1
  O  O21  1  0.89733800  0.88194200  0.39355900  1
  O  O22  1  0.89985800  0.90666900  0.65526500  1
  O  O23  1  0.09333100  0.10014200  0.84473500  1
  O  O24  1  0.30605800  0.29191500  0.22838500  1
  O  O25  1  0.70808500  0.69394200  0.27161500  1
  O  O26  1  0.69394200  0.70808500  0.77161500  1
  O  O27  1  0.29191500  0.30605800  0.72838500  1
  O  O28  1  0.92531600  0.56670600  0.09586000  1
  O  O29  1  0.43329400  0.07468400  0.40414000  1
  O  O30  1  0.07468400  0.43329400  0.90414000  1
  O  O31  1  0.56670600  0.92531600  0.59586000  1
  O  O32  1  0.58067500  0.92207800  0.09730500  1
  O  O33  1  0.07792200  0.41932500  0.40269500  1
  O  O34  1  0.41932500  0.07792200  0.90269500  1
  O  O35  1  0.92207800  0.58067500  0.59730500  1
  O  O36  1  0.90666900  0.89985800  0.15526500  1
  O  O37  1  0.10014200  0.09333100  0.34473500  1
