# generated using pymatgen
data_SrH2
_symmetry_space_group_name_H-M   'P 1'
_cell_length_a   3.86119200
_cell_length_b   6.36503300
_cell_length_c   7.30165300
_cell_angle_alpha   90.00000000
_cell_angle_beta   90.00000000
_cell_angle_gamma   90.00000000
_symmetry_Int_Tables_number   1
_chemical_formula_structural   SrH2
_chemical_formula_sum   'Sr4 H8'
_cell_volume   179.44991099
_cell_formula_units_Z   4
loop_
 _symmetry_equiv_pos_site_id
 _symmetry_equiv_pos_as_xyz
  1  'x, y, z'
loop_
 _atom_site_type_symbol
 _atom_site_label
 _atom_site_symmetry_multiplicity
 _atom_site_fract_x
 _atom_site_fract_y
 _atom_site_fract_z
 _atom_site_occupancy
  Sr  Sr0  1  0.25000000  0.76080400  0.38925500  1
  Sr  Sr1  1  0.75000000  0.23919600  0.61074500  1
  Sr  Sr2  1  0.25000000  0.26080400  0.11074500  1
  Sr  Sr3  1  0.75000000  0.73919600  0.88925500  1
  H  H4  1  0.25000000  0.52635100  0.67822100  1
  H  H5  1  0.75000000  0.47364900  0.32177900  1
  H  H6  1  0.25000000  0.02635100  0.82177900  1
  H  H7  1  0.75000000  0.97364900  0.17822100  1
  H  H8  1  0.75000000  0.35514800  0.92757800  1
  H  H9  1  0.25000000  0.64485200  0.07242200  1
  H  H10  1  0.75000000  0.85514800  0.57242200  1
  H  H11  1  0.25000000  0.14485200  0.42757800  1
