# generated using pymatgen
data_KBe(H2N)3
_symmetry_space_group_name_H-M   'P 1'
_cell_length_a   11.29711400
_cell_length_b   13.09319600
_cell_length_c   13.28703300
_cell_angle_alpha   90.00000000
_cell_angle_beta   90.00000000
_cell_angle_gamma   90.00000000
_symmetry_Int_Tables_number   1
_chemical_formula_structural   KBe(H2N)3
_chemical_formula_sum   'K16 Be16 H96 N48'
_cell_volume   1965.35584217
_cell_formula_units_Z   16
loop_
 _symmetry_equiv_pos_site_id
 _symmetry_equiv_pos_as_xyz
  1  'x, y, z'
loop_
 _atom_site_type_symbol
 _atom_site_label
 _atom_site_symmetry_multiplicity
 _atom_site_fract_x
 _atom_site_fract_y
 _atom_site_fract_z
 _atom_site_occupancy
  K  K0  1  0.16253300  0.46132100  0.70089600  1
  K  K1  1  0.66253300  0.53867900  0.79910400  1
  K  K2  1  0.33746700  0.96132100  0.29910400  1
  K  K3  1  0.83746700  0.03867900  0.20089600  1
  K  K4  1  0.83746700  0.53867900  0.29910400  1
  K  K5  1  0.33746700  0.46132100  0.20089600  1
  K  K6  1  0.66253300  0.03867900  0.70089600  1
  K  K7  1  0.16253300  0.96132100  0.79910400  1
  K  K8  1  0.94414900  0.34178200  0.47994300  1
  K  K9  1  0.44414900  0.65821800  0.02005700  1
  K  K10  1  0.55585100  0.84178200  0.52005700  1
  K  K11  1  0.05585100  0.15821800  0.97994300  1
  K  K12  1  0.05585100  0.65821800  0.52005700  1
  K  K13  1  0.55585100  0.34178200  0.97994300  1
  K  K14  1  0.44414900  0.15821800  0.47994300  1
  K  K15  1  0.94414900  0.84178200  0.02005700  1
  Be  Be16  1  0.20506700  0.44976600  0.44343800  1
  Be  Be17  1  0.79493300  0.05023400  0.94343800  1
  Be  Be18  1  0.29493300  0.94976600  0.55656200  1
  Be  Be19  1  0.29493300  0.44976600  0.94343800  1
  Be  Be20  1  0.79493300  0.55023400  0.55656200  1
  Be  Be21  1  0.20506700  0.94976600  0.05656200  1
  Be  Be22  1  0.70506700  0.05023400  0.44343800  1
  Be  Be23  1  0.96981500  0.75886000  0.25361000  1
  Be  Be24  1  0.46981500  0.24114000  0.24639000  1
  Be  Be25  1  0.53018500  0.25886000  0.74639000  1
  Be  Be26  1  0.03018500  0.74114000  0.75361000  1
  Be  Be27  1  0.03018500  0.24114000  0.74639000  1
  Be  Be28  1  0.53018500  0.75886000  0.75361000  1
  Be  Be29  1  0.46981500  0.74114000  0.25361000  1
  Be  Be30  1  0.96981500  0.25886000  0.24639000  1
  Be  Be31  1  0.70506700  0.55023400  0.05656200  1
  H  H32  1  0.15526500  0.27729100  0.17859200  1
  H  H33  1  0.65526500  0.72270900  0.32140800  1
  H  H34  1  0.34473500  0.77729100  0.82140800  1
  H  H35  1  0.84473500  0.22270900  0.67859200  1
  H  H36  1  0.84473500  0.72270900  0.82140800  1
  H  H37  1  0.34473500  0.27729100  0.67859200  1
  H  H38  1  0.65526500  0.22270900  0.17859200  1
  H  H39  1  0.15526500  0.77729100  0.32140800  1
  H  H40  1  0.05900800  0.35265000  0.12173300  1
  H  H41  1  0.55900800  0.64735000  0.37826700  1
  H  H42  1  0.44099200  0.85265000  0.87826700  1
  H  H43  1  0.94099200  0.14735000  0.62173300  1
  H  H44  1  0.94099200  0.64735000  0.87826700  1
  H  H45  1  0.44099200  0.35265000  0.62173300  1
  H  H46  1  0.55900800  0.14735000  0.12173300  1
  H  H47  1  0.05900800  0.85265000  0.37826700  1
  H  H48  1  0.80820400  0.35186900  0.19025100  1
  H  H49  1  0.30820400  0.64813100  0.30974900  1
  H  H50  1  0.69179600  0.85186900  0.80974900  1
  H  H51  1  0.19179600  0.14813100  0.69025100  1
  H  H52  1  0.19179600  0.64813100  0.80974900  1
  H  H53  1  0.69179600  0.35186900  0.69025100  1
  H  H54  1  0.30820400  0.14813100  0.19025100  1
  H  H55  1  0.80820400  0.85186900  0.30974900  1
  H  H56  1  0.77701800  0.29033600  0.29483200  1
  H  H57  1  0.27701800  0.70966400  0.20516800  1
  H  H58  1  0.72298200  0.79033600  0.70516800  1
  H  H59  1  0.22298200  0.20966400  0.79483200  1
  H  H60  1  0.22298200  0.70966400  0.70516800  1
  H  H61  1  0.72298200  0.29033600  0.79483200  1
  H  H62  1  0.27701800  0.20966400  0.29483200  1
  H  H63  1  0.77701800  0.79033600  0.20516800  1
  H  H64  1  0.93303900  0.14686500  0.38086500  1
  H  H65  1  0.43303900  0.85313500  0.11913500  1
  H  H66  1  0.56696100  0.64686500  0.61913500  1
  H  H67  1  0.06696100  0.35313500  0.88086500  1
  H  H68  1  0.06696100  0.85313500  0.61913500  1
  H  H69  1  0.56696100  0.14686500  0.88086500  1
  H  H70  1  0.43303900  0.35313500  0.38086500  1
  H  H71  1  0.93303900  0.64686500  0.11913500  1
  H  H72  1  0.07128200  0.13479000  0.34215000  1
  H  H73  1  0.57128200  0.86521000  0.15785000  1
  H  H74  1  0.42871800  0.63479000  0.65785000  1
  H  H75  1  0.85345800  0.99309600  0.54513600  1
  H  H76  1  0.92871800  0.36521000  0.84215000  1
  H  H77  1  0.42871800  0.13479000  0.84215000  1
  H  H78  1  0.57128200  0.36521000  0.34215000  1
  H  H79  1  0.07128200  0.63479000  0.15785000  1
  H  H80  1  0.61229200  0.94320000  0.32438800  1
  H  H81  1  0.11229200  0.05680000  0.17561200  1
  H  H82  1  0.88770800  0.44320000  0.67561200  1
  H  H83  1  0.38770800  0.55680000  0.82438800  1
  H  H84  1  0.38770800  0.05680000  0.67561200  1
  H  H85  1  0.88770800  0.94320000  0.82438800  1
  H  H86  1  0.11229200  0.55680000  0.32438800  1
  H  H87  1  0.61229200  0.44320000  0.17561200  1
  H  H88  1  0.58284400  0.06442600  0.30479400  1
  H  H89  1  0.08284400  0.93557400  0.19520600  1
  H  H90  1  0.91715600  0.56442600  0.69520600  1
  H  H91  1  0.41715600  0.43557400  0.80479400  1
  H  H92  1  0.41715600  0.93557400  0.69520600  1
  H  H93  1  0.91715600  0.06442600  0.80479400  1
  H  H94  1  0.08284400  0.43557400  0.30479400  1
  H  H95  1  0.58284400  0.56442600  0.19520600  1
  H  H96  1  0.66841300  0.22629200  0.43853900  1
  H  H97  1  0.16841300  0.77370800  0.06146100  1
  H  H98  1  0.83158700  0.72629200  0.56146100  1
  H  H99  1  0.33158700  0.27370800  0.93853900  1
  H  H100  1  0.33158700  0.77370800  0.56146100  1
  H  H101  1  0.83158700  0.22629200  0.93853900  1
  H  H102  1  0.16841300  0.27370800  0.43853900  1
  H  H103  1  0.66841300  0.72629200  0.06146100  1
  H  H104  1  0.75610900  0.19720800  0.53375400  1
  H  H105  1  0.25610900  0.80279200  0.96624600  1
  H  H106  1  0.74389100  0.69720800  0.46624600  1
  H  H107  1  0.24389100  0.30279200  0.03375400  1
  H  H108  1  0.24389100  0.80279200  0.46624600  1
  H  H109  1  0.74389100  0.19720800  0.03375400  1
  H  H110  1  0.25610900  0.30279200  0.53375400  1
  H  H111  1  0.75610900  0.69720800  0.96624600  1
  H  H112  1  0.80284300  0.39876500  0.02033400  1
  H  H113  1  0.30284300  0.60123500  0.47966600  1
  H  H114  1  0.69715700  0.89876500  0.97966600  1
  H  H115  1  0.19715700  0.10123500  0.52033400  1
  H  H116  1  0.19715700  0.60123500  0.97966600  1
  H  H117  1  0.69715700  0.39876500  0.52033400  1
  H  H118  1  0.30284300  0.10123500  0.02033400  1
  H  H119  1  0.80284300  0.89876500  0.47966600  1
  H  H120  1  0.85345800  0.49309600  0.95486400  1
  H  H121  1  0.35345800  0.50690400  0.54513600  1
  H  H122  1  0.64654200  0.99309600  0.04513600  1
  H  H123  1  0.14654200  0.00690400  0.45486400  1
  H  H124  1  0.14654200  0.50690400  0.04513600  1
  H  H125  1  0.64654200  0.49309600  0.45486400  1
  H  H126  1  0.35345800  0.00690400  0.95486400  1
  H  H127  1  0.92871800  0.86521000  0.65785000  1
  N  N128  1  0.27898800  0.53241700  0.50953900  1
  N  N129  1  0.49325600  0.82877700  0.17113700  1
  N  N130  1  0.50674400  0.67122300  0.67113700  1
  N  N131  1  0.00674400  0.32877700  0.82886300  1
  N  N132  1  0.00674400  0.82877700  0.67113700  1
  N  N133  1  0.50674400  0.17122300  0.82886300  1
  N  N134  1  0.49325600  0.32877700  0.32886300  1
  N  N135  1  0.99325600  0.67122300  0.17113700  1
  N  N136  1  0.61259200  0.01352800  0.35750900  1
  N  N137  1  0.11259200  0.98647200  0.14249100  1
  N  N138  1  0.88740800  0.51352800  0.64249100  1
  N  N139  1  0.38740800  0.48647200  0.85750900  1
  N  N140  1  0.38740800  0.98647200  0.64249100  1
  N  N141  1  0.88740800  0.01352800  0.85750900  1
  N  N142  1  0.11259200  0.48647200  0.35750900  1
  N  N143  1  0.61259200  0.51352800  0.14249100  1
  N  N144  1  0.70448500  0.16739500  0.47830300  1
  N  N145  1  0.20448500  0.83260500  0.02169700  1
  N  N146  1  0.79551500  0.66739500  0.52169700  1
  N  N147  1  0.29551500  0.33260500  0.97830300  1
  N  N148  1  0.29551500  0.83260500  0.52169700  1
  N  N149  1  0.79551500  0.16739500  0.97830300  1
  N  N150  1  0.20448500  0.33260500  0.47830300  1
  N  N151  1  0.70448500  0.66739500  0.02169700  1
  N  N152  1  0.84473300  0.81865600  0.24766400  1
  N  N153  1  0.27898800  0.03241700  0.99046100  1
  N  N154  1  0.72101200  0.46758300  0.49046100  1
  N  N155  1  0.22101200  0.53241700  0.00953900  1
  N  N156  1  0.22101200  0.03241700  0.49046100  1
  N  N157  1  0.72101200  0.96758300  0.00953900  1
  N  N158  1  0.99325600  0.17122300  0.32886300  1
  N  N159  1  0.77898800  0.46758300  0.99046100  1
  N  N160  1  0.34473300  0.18134400  0.25233600  1
  N  N161  1  0.65526700  0.31865600  0.75233600  1
  N  N162  1  0.15526700  0.68134400  0.74766400  1
  N  N163  1  0.15526700  0.18134400  0.75233600  1
  N  N164  1  0.65526700  0.81865600  0.74766400  1
  N  N165  1  0.34473300  0.68134400  0.24766400  1
  N  N166  1  0.84473300  0.31865600  0.25233600  1
  N  N167  1  0.06775700  0.78636300  0.33855200  1
  N  N168  1  0.56775700  0.21363700  0.16144800  1
  N  N169  1  0.43224300  0.28636300  0.66144800  1
  N  N170  1  0.93224300  0.71363700  0.83855200  1
  N  N171  1  0.93224300  0.21363700  0.66144800  1
  N  N172  1  0.43224300  0.78636300  0.83855200  1
  N  N173  1  0.56775700  0.71363700  0.33855200  1
  N  N174  1  0.06775700  0.28636300  0.16144800  1
  N  N175  1  0.77898800  0.96758300  0.50953900  1
