# generated using pymatgen
data_UFeSi
_symmetry_space_group_name_H-M   'P 1'
_cell_length_a   3.99257700
_cell_length_b   6.39038200
_cell_length_c   7.25923800
_cell_angle_alpha   90.00000000
_cell_angle_beta   90.00000000
_cell_angle_gamma   90.00000000
_symmetry_Int_Tables_number   1
_chemical_formula_structural   UFeSi
_chemical_formula_sum   'U4 Fe4 Si4'
_cell_volume   185.21286759
_cell_formula_units_Z   4
loop_
 _symmetry_equiv_pos_site_id
 _symmetry_equiv_pos_as_xyz
  1  'x, y, z'
loop_
 _atom_site_type_symbol
 _atom_site_label
 _atom_site_symmetry_multiplicity
 _atom_site_fract_x
 _atom_site_fract_y
 _atom_site_fract_z
 _atom_site_occupancy
  U  U0  1  0.25000000  0.84052500  0.51132000  1
  U  U1  1  0.75000000  0.15947500  0.48868000  1
  U  U2  1  0.75000000  0.34052500  0.98868000  1
  U  U3  1  0.25000000  0.65947500  0.01132000  1
  Fe  Fe4  1  0.25000000  0.44183000  0.37533500  1
  Fe  Fe5  1  0.75000000  0.55817000  0.62466500  1
  Fe  Fe6  1  0.75000000  0.94183000  0.12466500  1
  Fe  Fe7  1  0.25000000  0.05817000  0.87533500  1
  Si  Si8  1  0.25000000  0.38382200  0.69806000  1
  Si  Si9  1  0.75000000  0.61617800  0.30194000  1
  Si  Si10  1  0.75000000  0.88382200  0.80194000  1
  Si  Si11  1  0.25000000  0.11617800  0.19806000  1
