# generated using pymatgen
data_Er(IO3)3
_symmetry_space_group_name_H-M   'P 1'
_cell_length_a   6.15793800
_cell_length_b   8.76959300
_cell_length_c   16.70920630
_cell_angle_alpha   65.22980493
_cell_angle_beta   90.00000000
_cell_angle_gamma   90.00000000
_symmetry_Int_Tables_number   1
_chemical_formula_structural   Er(IO3)3
_chemical_formula_sum   'Er4 I12 O36'
_cell_volume   819.32138830
_cell_formula_units_Z   4
loop_
 _symmetry_equiv_pos_site_id
 _symmetry_equiv_pos_as_xyz
  1  'x, y, z'
loop_
 _atom_site_type_symbol
 _atom_site_label
 _atom_site_symmetry_multiplicity
 _atom_site_fract_x
 _atom_site_fract_y
 _atom_site_fract_z
 _atom_site_occupancy
  Er  Er0  1  0.28869100  0.35130700  0.10621300  1
  Er  Er1  1  0.78869100  0.64869300  0.39378700  1
  Er  Er2  1  0.71130900  0.64869300  0.89378700  1
  Er  Er3  1  0.21130900  0.35130700  0.60621300  1
  I  I4  1  0.81124400  0.57416700  0.13953100  1
  I  I5  1  0.31124400  0.42583300  0.36046900  1
  I  I6  1  0.18875600  0.42583300  0.86046900  1
  I  I7  1  0.68875600  0.57416700  0.63953100  1
  I  I8  1  0.59550700  0.08216400  0.30204300  1
  I  I9  1  0.09550700  0.91783600  0.19795700  1
  I  I10  1  0.40449300  0.91783600  0.69795700  1
  I  I11  1  0.90449300  0.08216400  0.80204300  1
  I  I12  1  0.64558900  0.14676100  0.01932500  1
  I  I13  1  0.14558900  0.85323900  0.48067500  1
  I  I14  1  0.35441100  0.85323900  0.98067500  1
  I  I15  1  0.85441100  0.14676100  0.51932500  1
  O  O16  1  0.60533100  0.40470400  0.16910600  1
  O  O17  1  0.10533100  0.59529600  0.33089400  1
  O  O18  1  0.39466900  0.59529600  0.83089400  1
  O  O19  1  0.89466900  0.40470400  0.66910600  1
  O  O20  1  0.86399600  0.62009100  0.02465200  1
  O  O21  1  0.36399600  0.37990900  0.47534800  1
  O  O22  1  0.13600400  0.37990900  0.97534800  1
  O  O23  1  0.63600400  0.62009100  0.52465200  1
  O  O24  1  0.05321400  0.44144800  0.18304500  1
  O  O25  1  0.55321400  0.55855200  0.31695500  1
  O  O26  1  0.94678600  0.55855200  0.81695500  1
  O  O27  1  0.44678600  0.44144800  0.68304500  1
  O  O28  1  0.51409000  0.86151700  0.36434600  1
  O  O29  1  0.01409000  0.13848300  0.13565400  1
  O  O30  1  0.48591000  0.13848300  0.63565400  1
  O  O31  1  0.98591000  0.86151700  0.86434600  1
  O  O32  1  0.02669500  0.11284600  0.61578400  1
  O  O33  1  0.52669500  0.88715400  0.88421600  1
  O  O34  1  0.97330500  0.88715400  0.38421600  1
  O  O35  1  0.47330500  0.11284600  0.11578400  1
  O  O36  1  0.13085000  0.62323900  0.51654900  1
  O  O37  1  0.63085000  0.37676100  0.98345100  1
  O  O38  1  0.86915000  0.37676100  0.48345100  1
  O  O39  1  0.36915000  0.62323900  0.01654900  1
  O  O40  1  0.06811600  0.14740700  0.44014800  1
  O  O41  1  0.56811600  0.85259300  0.05985200  1
  O  O42  1  0.93188400  0.85259300  0.55985200  1
  O  O43  1  0.43188400  0.14740700  0.94014800  1
  O  O44  1  0.17512400  0.15665600  0.75559200  1
  O  O45  1  0.67512400  0.84334400  0.74440800  1
  O  O46  1  0.82487600  0.84334400  0.24440800  1
  O  O47  1  0.32487600  0.15665600  0.25559200  1
  O  O48  1  0.91723700  0.15803900  0.88913200  1
  O  O49  1  0.41723700  0.84196100  0.61086800  1
  O  O50  1  0.08276300  0.84196100  0.11086800  1
  O  O51  1  0.58276300  0.15803900  0.38913200  1
