# generated using pymatgen
data_KCeGeSe4
_symmetry_space_group_name_H-M   'P 1'
_cell_length_a   7.10503700
_cell_length_b   6.95072800
_cell_length_c   9.14972931
_cell_angle_alpha   72.11742350
_cell_angle_beta   90.00000000
_cell_angle_gamma   90.00000000
_symmetry_Int_Tables_number   1
_chemical_formula_structural   KCeGeSe4
_chemical_formula_sum   'K2 Ce2 Ge2 Se8'
_cell_volume   430.03063716
_cell_formula_units_Z   2
loop_
 _symmetry_equiv_pos_site_id
 _symmetry_equiv_pos_as_xyz
  1  'x, y, z'
loop_
 _atom_site_type_symbol
 _atom_site_label
 _atom_site_symmetry_multiplicity
 _atom_site_fract_x
 _atom_site_fract_y
 _atom_site_fract_z
 _atom_site_occupancy
  K  K0  1  0.27538600  0.75707800  0.93691700  1
  K  K1  1  0.77538600  0.24292200  0.06308300  1
  Ce  Ce2  1  0.78816600  0.26823100  0.55351300  1
  Ce  Ce3  1  0.28816600  0.73176900  0.44648700  1
  Ge  Ge4  1  0.25458300  0.28227100  0.31925400  1
  Ge  Ge5  1  0.75458300  0.71772900  0.68074600  1
  Se  Se6  1  0.25127000  0.07934900  0.15483800  1
  Se  Se7  1  0.75127000  0.92065100  0.84516200  1
  Se  Se8  1  0.02951200  0.51031500  0.71371500  1
  Se  Se9  1  0.19490200  0.07487700  0.57637000  1
  Se  Se10  1  0.69490200  0.92512300  0.42363000  1
  Se  Se11  1  0.01089100  0.53169600  0.27186500  1
  Se  Se12  1  0.51089100  0.46830400  0.72813500  1
  Se  Se13  1  0.52951200  0.48968500  0.28628500  1
