# generated using pymatgen
data_NaCa2Si3HO9
_symmetry_space_group_name_H-M   'P 1'
_cell_length_a   7.09031600
_cell_length_b   7.11624034
_cell_length_c   8.08561858
_cell_angle_alpha   95.22026963
_cell_angle_beta   102.41097799
_cell_angle_gamma   90.44883053
_symmetry_Int_Tables_number   1
_chemical_formula_structural   NaCa2Si3HO9
_chemical_formula_sum   'Na2 Ca4 Si6 H2 O18'
_cell_volume   396.62735011
_cell_formula_units_Z   2
loop_
 _symmetry_equiv_pos_site_id
 _symmetry_equiv_pos_as_xyz
  1  'x, y, z'
loop_
 _atom_site_type_symbol
 _atom_site_label
 _atom_site_symmetry_multiplicity
 _atom_site_fract_x
 _atom_site_fract_y
 _atom_site_fract_z
 _atom_site_occupancy
  Na  Na0  1  0.74549500  0.65979200  0.44871000  1
  Na  Na1  1  0.25450500  0.34020800  0.55129000  1
  Ca  Ca2  1  0.59447700  0.14214300  0.85383000  1
  Ca  Ca3  1  0.40552300  0.85785700  0.14617000  1
  Ca  Ca4  1  0.91641700  0.85709800  0.15384400  1
  Ca  Ca5  1  0.08358300  0.14290200  0.84615600  1
  Si  Si6  1  0.73456400  0.14421200  0.44946600  1
  Si  Si7  1  0.04873100  0.65566700  0.78628300  1
  Si  Si8  1  0.59996500  0.66407200  0.78212000  1
  Si  Si9  1  0.40003500  0.33592800  0.21788000  1
  Si  Si10  1  0.26543600  0.85578800  0.55053400  1
  Si  Si11  1  0.95126900  0.34433300  0.21371700  1
  H  H12  1  0.63818700  0.53079400  0.16635700  1
  H  H13  1  0.36181300  0.46920600  0.83364300  1
  O  O14  1  0.09074100  0.72792000  0.60543500  1
  O  O15  1  0.90925900  0.27208000  0.39456500  1
  O  O16  1  0.46707300  0.72914100  0.60168800  1
  O  O17  1  0.53292700  0.27085900  0.39831200  1
  O  O18  1  0.81064300  0.61524600  0.73712100  1
  O  O19  1  0.18935700  0.38475400  0.26287900  1
  O  O20  1  0.10499500  0.82299600  0.94105100  1
  O  O21  1  0.89500500  0.17700400  0.05894900  1
  O  O22  1  0.61351400  0.82678800  0.93767100  1
  O  O23  1  0.38648600  0.17321200  0.06232900  1
  O  O24  1  0.15649300  0.45853800  0.81939600  1
  O  O25  1  0.84350700  0.54146200  0.18060400  1
  O  O26  1  0.21331500  0.87158900  0.34795900  1
  O  O27  1  0.78668500  0.12841100  0.65204100  1
  O  O28  1  0.70341300  0.94496200  0.32980400  1
  O  O29  1  0.29658700  0.05503800  0.67019600  1
  O  O30  1  0.49429000  0.53972200  0.18650700  1
  O  O31  1  0.50571000  0.46027800  0.81349300  1
