# generated using pymatgen
data_GdCrO4
_symmetry_space_group_name_H-M   'P 1'
_cell_length_a   6.05911605
_cell_length_b   6.05911605
_cell_length_c   6.05911605
_cell_angle_alpha   105.91975011
_cell_angle_beta   105.91975011
_cell_angle_gamma   116.83473391
_symmetry_Int_Tables_number   1
_chemical_formula_structural   GdCrO4
_chemical_formula_sum   'Gd2 Cr2 O8'
_cell_volume   169.09316023
_cell_formula_units_Z   2
loop_
 _symmetry_equiv_pos_site_id
 _symmetry_equiv_pos_as_xyz
  1  'x, y, z'
loop_
 _atom_site_type_symbol
 _atom_site_label
 _atom_site_symmetry_multiplicity
 _atom_site_fract_x
 _atom_site_fract_y
 _atom_site_fract_z
 _atom_site_occupancy
  Gd  Gd0  1  0.50000000  0.50000000  0.00000000  1
  Gd  Gd1  1  0.75000000  0.25000000  0.50000000  1
  Cr  Cr2  1  0.25000000  0.75000000  0.50000000  1
  Cr  Cr3  1  0.00000000  0.00000000  0.00000000  1
  O  O4  1  0.82826900  0.01127500  0.18300500  1
  O  O5  1  0.89526400  0.57826900  0.31699500  1
  O  O6  1  0.26127500  0.57826900  0.68300500  1
  O  O7  1  0.82826900  0.64526400  0.81699500  1
  O  O8  1  0.35473600  0.17173100  0.18300500  1
  O  O9  1  0.42173100  0.73872500  0.31699500  1
  O  O10  1  0.42173100  0.10473600  0.68300500  1
  O  O11  1  0.98872500  0.17173100  0.81699500  1
