# generated using pymatgen
data_K3FeO4
_symmetry_space_group_name_H-M   'P 1'
_cell_length_a   7.76350500
_cell_length_b   7.95291500
_cell_length_c   9.22071200
_cell_angle_alpha   89.99967274
_cell_angle_beta   89.99850895
_cell_angle_gamma   90.00007292
_symmetry_Int_Tables_number   1
_chemical_formula_structural   K3FeO4
_chemical_formula_sum   'K12 Fe4 O16'
_cell_volume   569.30976784
_cell_formula_units_Z   4
loop_
 _symmetry_equiv_pos_site_id
 _symmetry_equiv_pos_as_xyz
  1  'x, y, z'
loop_
 _atom_site_type_symbol
 _atom_site_label
 _atom_site_symmetry_multiplicity
 _atom_site_fract_x
 _atom_site_fract_y
 _atom_site_fract_z
 _atom_site_occupancy
  K  K0  1  0.03726100  0.27866900  0.03620700  1
  K  K1  1  0.82828100  0.94403900  0.25000100  1
  K  K2  1  0.17172300  0.05595900  0.74999800  1
  K  K3  1  0.67172500  0.44404000  0.74999900  1
  K  K4  1  0.96274100  0.72133200  0.96379200  1
  K  K5  1  0.46273900  0.77866900  0.53620600  1
  K  K6  1  0.53726100  0.22133200  0.03620600  1
  K  K7  1  0.03726300  0.27866700  0.46379400  1
  K  K8  1  0.96274200  0.72133400  0.53620600  1
  K  K9  1  0.53726100  0.22133300  0.46379400  1
  K  K10  1  0.46274100  0.77867000  0.96379200  1
  K  K11  1  0.32828000  0.55596100  0.25000100  1
  Fe  Fe12  1  0.27397800  0.00748700  0.24999600  1
  Fe  Fe13  1  0.77404200  0.49248000  0.24999600  1
  Fe  Fe14  1  0.22595700  0.50752300  0.75000800  1
  Fe  Fe15  1  0.72598400  0.99249900  0.75000800  1
  O  O16  1  0.28790200  0.22465700  0.24999900  1
  O  O17  1  0.78790000  0.27534700  0.25000000  1
  O  O18  1  0.21210200  0.72465800  0.75000000  1
  O  O19  1  0.71210200  0.77534400  0.75000000  1
  O  O20  1  0.97847400  0.57968100  0.25000000  1
  O  O21  1  0.47847800  0.92032000  0.24999900  1
  O  O22  1  0.52152500  0.07968100  0.75000000  1
  O  O23  1  0.02152500  0.42031900  0.75000100  1
  O  O24  1  0.81667600  0.04267400  0.58073500  1
  O  O25  1  0.31667300  0.45732800  0.91926300  1
  O  O26  1  0.68332900  0.54267200  0.41926200  1
  O  O27  1  0.18333000  0.95732900  0.08073700  1
  O  O28  1  0.18332600  0.95732700  0.41926900  1
  O  O29  1  0.81667300  0.04267100  0.91926000  1
  O  O30  1  0.31667700  0.45732700  0.58073100  1
  O  O31  1  0.68333000  0.54267100  0.08074000  1
