# generated using pymatgen
data_Mg2SiO4
_symmetry_space_group_name_H-M   'P 1'
_cell_length_a   4.80284000
_cell_length_b   6.04789300
_cell_length_c   10.32335500
_cell_angle_alpha   90.00000000
_cell_angle_beta   90.00000000
_cell_angle_gamma   90.00000000
_symmetry_Int_Tables_number   1
_chemical_formula_structural   Mg2SiO4
_chemical_formula_sum   'Mg8 Si4 O16'
_cell_volume   299.86313703
_cell_formula_units_Z   4
loop_
 _symmetry_equiv_pos_site_id
 _symmetry_equiv_pos_as_xyz
  1  'x, y, z'
loop_
 _atom_site_type_symbol
 _atom_site_label
 _atom_site_symmetry_multiplicity
 _atom_site_fract_x
 _atom_site_fract_y
 _atom_site_fract_z
 _atom_site_occupancy
  Mg  Mg0  1  0.00000000  0.00000000  0.00000000  1
  Mg  Mg1  1  0.50000000  0.00000000  0.50000000  1
  Mg  Mg2  1  0.00000000  0.50000000  0.00000000  1
  Mg  Mg3  1  0.50000000  0.50000000  0.50000000  1
  Mg  Mg4  1  0.00837500  0.75000000  0.72273600  1
  Mg  Mg5  1  0.50837500  0.25000000  0.77726400  1
  Mg  Mg6  1  0.99162500  0.25000000  0.27726400  1
  Mg  Mg7  1  0.49162500  0.75000000  0.22273600  1
  Si  Si8  1  0.92597400  0.75000000  0.40636200  1
  Si  Si9  1  0.42597400  0.25000000  0.09363800  1
  Si  Si10  1  0.07402600  0.25000000  0.59363800  1
  Si  Si11  1  0.57402600  0.75000000  0.90636200  1
  O  O12  1  0.27694600  0.46698600  0.16283500  1
  O  O13  1  0.77694600  0.53301400  0.33716500  1
  O  O14  1  0.72305400  0.96698600  0.83716500  1
  O  O15  1  0.22305400  0.03301400  0.66283500  1
  O  O16  1  0.72305400  0.53301400  0.83716500  1
  O  O17  1  0.22305400  0.46698600  0.66283500  1
  O  O18  1  0.27694600  0.03301400  0.16283500  1
  O  O19  1  0.77694600  0.96698600  0.33716500  1
  O  O20  1  0.77785100  0.75000000  0.55321800  1
  O  O21  1  0.27785100  0.25000000  0.94678200  1
  O  O22  1  0.22214900  0.25000000  0.44678200  1
  O  O23  1  0.72214900  0.75000000  0.05321800  1
  O  O24  1  0.26596100  0.75000000  0.40832300  1
  O  O25  1  0.76596100  0.25000000  0.09167700  1
  O  O26  1  0.73403900  0.25000000  0.59167700  1
  O  O27  1  0.23403900  0.75000000  0.90832300  1
