# generated using pymatgen
data_Li3Mo2(PO4)3
_symmetry_space_group_name_H-M   'P 1'
_cell_length_a   9.19919250
_cell_length_b   9.19919250
_cell_length_c   9.19919318
_cell_angle_alpha   55.76262004
_cell_angle_beta   55.76262004
_cell_angle_gamma   55.76261703
_symmetry_Int_Tables_number   1
_chemical_formula_structural   Li3Mo2(PO4)3
_chemical_formula_sum   'Li6 Mo4 P6 O24'
_cell_volume   496.37489294
_cell_formula_units_Z   2
loop_
 _symmetry_equiv_pos_site_id
 _symmetry_equiv_pos_as_xyz
  1  'x, y, z'
loop_
 _atom_site_type_symbol
 _atom_site_label
 _atom_site_symmetry_multiplicity
 _atom_site_fract_x
 _atom_site_fract_y
 _atom_site_fract_z
 _atom_site_occupancy
  Li  Li0  1  0.73327900  0.07584100  0.33482100  1
  Li  Li1  1  0.07584100  0.33482100  0.73327900  1
  Li  Li2  1  0.33482100  0.73327900  0.07584100  1
  Li  Li3  1  0.66517900  0.26672100  0.92415900  1
  Li  Li4  1  0.92415900  0.66517900  0.26672100  1
  Li  Li5  1  0.26672100  0.92415900  0.66517900  1
  Mo  Mo6  1  0.34778400  0.34778400  0.34778400  1
  Mo  Mo7  1  0.85475400  0.85475400  0.85475400  1
  Mo  Mo8  1  0.14524600  0.14524600  0.14524600  1
  Mo  Mo9  1  0.65221600  0.65221600  0.65221600  1
  P  P10  1  0.54492700  0.95911500  0.24930700  1
  P  P11  1  0.75069300  0.45507300  0.04088500  1
  P  P12  1  0.95911500  0.24930700  0.54492700  1
  P  P13  1  0.04088500  0.75069300  0.45507300  1
  P  P14  1  0.45507300  0.04088500  0.75069300  1
  P  P15  1  0.24930700  0.54492700  0.95911500  1
  O  O16  1  0.55296000  0.14833700  0.20700600  1
  O  O17  1  0.74652200  0.85547100  0.13336500  1
  O  O18  1  0.50309700  0.84084600  0.46356100  1
  O  O19  1  0.20700600  0.55296000  0.14833700  1
  O  O20  1  0.44704000  0.85166300  0.79299400  1
  O  O21  1  0.25347800  0.14452900  0.86663500  1
  O  O22  1  0.49690300  0.15915400  0.53643900  1
  O  O23  1  0.79299400  0.44704000  0.85166300  1
  O  O24  1  0.19020400  0.39739000  0.00200500  1
  O  O25  1  0.85166300  0.79299400  0.44704000  1
  O  O26  1  0.60261000  0.99799500  0.80979600  1
  O  O27  1  0.86663500  0.25347800  0.14452900  1
  O  O28  1  0.15915400  0.53643900  0.49690300  1
  O  O29  1  0.14452900  0.86663500  0.25347800  1
  O  O30  1  0.46356100  0.50309700  0.84084600  1
  O  O31  1  0.99799500  0.80979600  0.60261000  1
  O  O32  1  0.00200500  0.19020400  0.39739000  1
  O  O33  1  0.53643900  0.49690300  0.15915400  1
  O  O34  1  0.85547100  0.13336500  0.74652200  1
  O  O35  1  0.84084600  0.46356100  0.50309700  1
  O  O36  1  0.13336500  0.74652200  0.85547100  1
  O  O37  1  0.39739000  0.00200500  0.19020400  1
  O  O38  1  0.14833700  0.20700600  0.55296000  1
  O  O39  1  0.80979600  0.60261000  0.99799500  1
