# generated using pymatgen
data_KNiCl3
_symmetry_space_group_name_H-M   'P 1'
_cell_length_a   11.89981517
_cell_length_b   11.89981517
_cell_length_c   5.97640700
_cell_angle_alpha   90.00000000
_cell_angle_beta   90.00000000
_cell_angle_gamma   119.99999540
_symmetry_Int_Tables_number   1
_chemical_formula_structural   KNiCl3
_chemical_formula_sum   'K6 Ni6 Cl18'
_cell_volume   732.91101626
_cell_formula_units_Z   6
loop_
 _symmetry_equiv_pos_site_id
 _symmetry_equiv_pos_as_xyz
  1  'x, y, z'
loop_
 _atom_site_type_symbol
 _atom_site_label
 _atom_site_symmetry_multiplicity
 _atom_site_fract_x
 _atom_site_fract_y
 _atom_site_fract_z
 _atom_site_occupancy
  K  K0  1  0.33470300  0.33470300  0.33002300  1
  K  K1  1  0.00000000  0.33470300  0.83002300  1
  K  K2  1  0.33470300  0.00000000  0.83002300  1
  K  K3  1  0.66529700  0.00000000  0.33002300  1
  K  K4  1  0.00000000  0.66529700  0.33002300  1
  K  K5  1  0.66529700  0.66529700  0.83002300  1
  Ni  Ni6  1  0.00000000  0.00000000  0.00922100  1
  Ni  Ni7  1  0.00000000  0.00000000  0.50922100  1
  Ni  Ni8  1  0.33333300  0.66666700  0.13084200  1
  Ni  Ni9  1  0.66666700  0.33333300  0.63084200  1
  Ni  Ni10  1  0.33333300  0.66666700  0.63084200  1
  Ni  Ni11  1  0.66666700  0.33333300  0.13084200  1
  Cl  Cl12  1  0.49216300  0.66751700  0.38299200  1
  Cl  Cl13  1  0.33248300  0.82464600  0.38299200  1
  Cl  Cl14  1  0.17535400  0.50783700  0.38299200  1
  Cl  Cl15  1  0.82464600  0.49216300  0.88299200  1
  Cl  Cl16  1  0.50783700  0.33248300  0.88299200  1
  Cl  Cl17  1  0.66751700  0.17535400  0.88299200  1
  Cl  Cl18  1  0.49216300  0.82464600  0.88299200  1
  Cl  Cl19  1  0.66751700  0.49216300  0.38299200  1
  Cl  Cl20  1  0.82464600  0.33248300  0.38299200  1
  Cl  Cl21  1  0.17535400  0.66751700  0.88299200  1
  Cl  Cl22  1  0.33248300  0.50783700  0.88299200  1
  Cl  Cl23  1  0.50783700  0.17535400  0.38299200  1
  Cl  Cl24  1  0.15846500  0.00000000  0.25589000  1
  Cl  Cl25  1  0.15846500  0.15846500  0.75589000  1
  Cl  Cl26  1  0.00000000  0.84153500  0.75589000  1
  Cl  Cl27  1  0.00000000  0.15846500  0.25589000  1
  Cl  Cl28  1  0.84153500  0.84153500  0.25589000  1
  Cl  Cl29  1  0.84153500  0.00000000  0.75589000  1
