# generated using pymatgen
data_Ca2BHN2
_symmetry_space_group_name_H-M   'P 1'
_cell_length_a   3.68067700
_cell_length_b   9.21101200
_cell_length_c   10.01033500
_cell_angle_alpha   90.00000000
_cell_angle_beta   90.00000000
_cell_angle_gamma   90.00000000
_symmetry_Int_Tables_number   1
_chemical_formula_structural   Ca2BHN2
_chemical_formula_sum   'Ca8 B4 H4 N8'
_cell_volume   339.37798518
_cell_formula_units_Z   4
loop_
 _symmetry_equiv_pos_site_id
 _symmetry_equiv_pos_as_xyz
  1  'x, y, z'
loop_
 _atom_site_type_symbol
 _atom_site_label
 _atom_site_symmetry_multiplicity
 _atom_site_fract_x
 _atom_site_fract_y
 _atom_site_fract_z
 _atom_site_occupancy
  Ca  Ca0  1  0.25000000  0.67660800  0.52433300  1
  Ca  Ca1  1  0.75000000  0.32339200  0.47566700  1
  Ca  Ca2  1  0.25000000  0.17660800  0.97566700  1
  Ca  Ca3  1  0.75000000  0.82339200  0.02433300  1
  Ca  Ca4  1  0.25000000  0.52732900  0.15587000  1
  Ca  Ca5  1  0.75000000  0.47267100  0.84413000  1
  Ca  Ca6  1  0.25000000  0.02732900  0.34413000  1
  Ca  Ca7  1  0.75000000  0.97267100  0.65587000  1
  B  B8  1  0.25000000  0.73445200  0.82350700  1
  B  B9  1  0.75000000  0.26554800  0.17649300  1
  B  B10  1  0.25000000  0.23445200  0.67649300  1
  B  B11  1  0.75000000  0.76554800  0.32350700  1
  H  H12  1  0.25000000  0.95903400  0.10256700  1
  H  H13  1  0.75000000  0.04096600  0.89743300  1
  H  H14  1  0.25000000  0.45903400  0.39743300  1
  H  H15  1  0.75000000  0.54096600  0.60256700  1
  N  N16  1  0.75000000  0.67906100  0.21689600  1
  N  N17  1  0.25000000  0.32093900  0.78310400  1
  N  N18  1  0.75000000  0.17906100  0.28310400  1
  N  N19  1  0.25000000  0.82093900  0.71689600  1
  N  N20  1  0.75000000  0.84756700  0.43569700  1
  N  N21  1  0.25000000  0.15243300  0.56430300  1
  N  N22  1  0.75000000  0.34756700  0.06430300  1
  N  N23  1  0.25000000  0.65243300  0.93569700  1
