# generated using pymatgen
data_EuIn2Rh
_symmetry_space_group_name_H-M   'P 1'
_cell_length_a   5.71422024
_cell_length_b   5.71422024
_cell_length_c   8.23025400
_cell_angle_alpha   90.00000000
_cell_angle_beta   90.00000000
_cell_angle_gamma   135.41352618
_symmetry_Int_Tables_number   1
_chemical_formula_structural   EuIn2Rh
_chemical_formula_sum   'Eu2 In4 Rh2'
_cell_volume   188.64920695
_cell_formula_units_Z   2
loop_
 _symmetry_equiv_pos_site_id
 _symmetry_equiv_pos_as_xyz
  1  'x, y, z'
loop_
 _atom_site_type_symbol
 _atom_site_label
 _atom_site_symmetry_multiplicity
 _atom_site_fract_x
 _atom_site_fract_y
 _atom_site_fract_z
 _atom_site_occupancy
  Eu  Eu0  1  0.06330500  0.93669500  0.25000000  1
  Eu  Eu1  1  0.93669500  0.06330500  0.75000000  1
  In  In2  1  0.64893500  0.35106500  0.55128000  1
  In  In3  1  0.35106500  0.64893500  0.44872000  1
  In  In4  1  0.64893500  0.35106500  0.94872000  1
  In  In5  1  0.35106500  0.64893500  0.05128000  1
  Rh  Rh6  1  0.21830800  0.78169200  0.75000000  1
  Rh  Rh7  1  0.78169200  0.21830800  0.25000000  1
