# generated using pymatgen
data_BiTePt
_symmetry_space_group_name_H-M   'P 1'
_cell_length_a   6.76360600
_cell_length_b   6.76360600
_cell_length_c   6.76360600
_cell_angle_alpha   90.00000000
_cell_angle_beta   90.00000000
_cell_angle_gamma   90.00000000
_symmetry_Int_Tables_number   1
_chemical_formula_structural   BiTePt
_chemical_formula_sum   'Bi4 Te4 Pt4'
_cell_volume   309.41039639
_cell_formula_units_Z   4
loop_
 _symmetry_equiv_pos_site_id
 _symmetry_equiv_pos_as_xyz
  1  'x, y, z'
loop_
 _atom_site_type_symbol
 _atom_site_label
 _atom_site_symmetry_multiplicity
 _atom_site_fract_x
 _atom_site_fract_y
 _atom_site_fract_z
 _atom_site_occupancy
  Bi  Bi0  1  0.36802400  0.36802400  0.36802400  1
  Bi  Bi1  1  0.13197600  0.63197600  0.86802400  1
  Bi  Bi2  1  0.86802400  0.13197600  0.63197600  1
  Bi  Bi3  1  0.63197600  0.86802400  0.13197600  1
  Te  Te4  1  0.62705300  0.62705300  0.62705300  1
  Te  Te5  1  0.87294700  0.37294700  0.12705300  1
  Te  Te6  1  0.12705300  0.87294700  0.37294700  1
  Te  Te7  1  0.37294700  0.12705300  0.87294700  1
  Pt  Pt8  1  0.00521000  0.00521000  0.00521000  1
  Pt  Pt9  1  0.49479000  0.99479000  0.50521000  1
  Pt  Pt10  1  0.50521000  0.49479000  0.99479000  1
  Pt  Pt11  1  0.99479000  0.50521000  0.49479000  1
