# generated using pymatgen
data_MgMo2O7
_symmetry_space_group_name_H-M   'P 1'
_cell_length_a   5.79234500
_cell_length_b   8.28940500
_cell_length_c   15.48288826
_cell_angle_alpha   65.08711706
_cell_angle_beta   90.00000000
_cell_angle_gamma   90.00000000
_symmetry_Int_Tables_number   1
_chemical_formula_structural   MgMo2O7
_chemical_formula_sum   'Mg4 Mo8 O28'
_cell_volume   674.23730734
_cell_formula_units_Z   4
loop_
 _symmetry_equiv_pos_site_id
 _symmetry_equiv_pos_as_xyz
  1  'x, y, z'
loop_
 _atom_site_type_symbol
 _atom_site_label
 _atom_site_symmetry_multiplicity
 _atom_site_fract_x
 _atom_site_fract_y
 _atom_site_fract_z
 _atom_site_occupancy
  Mg  Mg0  1  0.12709700  0.98823300  0.90923200  1
  Mg  Mg1  1  0.62709700  0.01176700  0.59076800  1
  Mg  Mg2  1  0.87290300  0.01176700  0.09076800  1
  Mg  Mg3  1  0.37290300  0.98823300  0.40923200  1
  Mo  Mo4  1  0.36377700  0.70864800  0.12571300  1
  Mo  Mo5  1  0.13622300  0.70864800  0.62571300  1
  Mo  Mo6  1  0.63622300  0.29135200  0.87428700  1
  Mo  Mo7  1  0.86377700  0.29135200  0.37428700  1
  Mo  Mo8  1  0.62621400  0.75370200  0.86104800  1
  Mo  Mo9  1  0.12621400  0.24629800  0.63895200  1
  Mo  Mo10  1  0.37378600  0.24629800  0.13895200  1
  Mo  Mo11  1  0.87378600  0.75370200  0.36104800  1
  O  O12  1  0.67973800  0.35139100  0.75429600  1
  O  O13  1  0.17973800  0.64860900  0.74570400  1
  O  O14  1  0.32026200  0.64860900  0.24570400  1
  O  O15  1  0.82026200  0.35139100  0.25429600  1
  O  O16  1  0.86724900  0.13882500  0.93769700  1
  O  O17  1  0.36724900  0.86117500  0.56230300  1
  O  O18  1  0.13275100  0.86117500  0.06230300  1
  O  O19  1  0.63275100  0.13882500  0.43769700  1
  O  O20  1  0.37140800  0.17647000  0.90446000  1
  O  O21  1  0.87140800  0.82353000  0.59554000  1
  O  O22  1  0.62859200  0.82353000  0.09554000  1
  O  O23  1  0.12859200  0.17647000  0.40446000  1
  O  O24  1  0.11118900  0.81115300  0.41530000  1
  O  O25  1  0.61118900  0.18884700  0.08470000  1
  O  O26  1  0.88881100  0.18884700  0.58470000  1
  O  O27  1  0.38881100  0.81115300  0.91530000  1
  O  O28  1  0.88482900  0.88216000  0.23734300  1
  O  O29  1  0.38482900  0.11784000  0.26265700  1
  O  O30  1  0.11517100  0.11784000  0.76265700  1
  O  O31  1  0.61517100  0.88216000  0.73734300  1
  O  O32  1  0.62868400  0.50566000  0.89308100  1
  O  O33  1  0.12040600  0.19022300  0.09540400  1
  O  O34  1  0.37959400  0.19022300  0.59540400  1
  O  O35  1  0.87959400  0.80977700  0.90459600  1
  O  O36  1  0.87131600  0.50566000  0.39308100  1
  O  O37  1  0.37131600  0.49434000  0.10691900  1
  O  O38  1  0.12868400  0.49434000  0.60691900  1
  O  O39  1  0.62040600  0.80977700  0.40459600  1
