# generated using pymatgen
data_PAuCl4
_symmetry_space_group_name_H-M   'P 1'
_cell_length_a   15.20182100
_cell_length_b   6.53018300
_cell_length_c   7.70931917
_cell_angle_alpha   84.51086721
_cell_angle_beta   90.00000000
_cell_angle_gamma   90.00000000
_symmetry_Int_Tables_number   1
_chemical_formula_structural   PAuCl4
_chemical_formula_sum   'P4 Au4 Cl16'
_cell_volume   761.79986916
_cell_formula_units_Z   4
loop_
 _symmetry_equiv_pos_site_id
 _symmetry_equiv_pos_as_xyz
  1  'x, y, z'
loop_
 _atom_site_type_symbol
 _atom_site_label
 _atom_site_symmetry_multiplicity
 _atom_site_fract_x
 _atom_site_fract_y
 _atom_site_fract_z
 _atom_site_occupancy
  P  P0  1  0.87032400  0.47567200  0.75402100  1
  P  P1  1  0.62967600  0.97567200  0.75402100  1
  P  P2  1  0.12967600  0.52432800  0.24597900  1
  P  P3  1  0.37032400  0.02432800  0.24597900  1
  Au  Au4  1  0.73272300  0.98102200  0.54672600  1
  Au  Au5  1  0.23272300  0.51897800  0.45327400  1
  Au  Au6  1  0.26727700  0.01897800  0.45327400  1
  Au  Au7  1  0.76727700  0.48102200  0.54672600  1
  Cl  Cl8  1  0.52154500  0.14953300  0.69669900  1
  Cl  Cl9  1  0.97845500  0.64953300  0.69669900  1
  Cl  Cl10  1  0.47845500  0.85046700  0.30330100  1
  Cl  Cl11  1  0.02154500  0.35046700  0.30330100  1
  Cl  Cl12  1  0.65916000  0.48559200  0.33743300  1
  Cl  Cl13  1  0.15916000  0.01440800  0.66256700  1
  Cl  Cl14  1  0.34084000  0.51440800  0.66256700  1
  Cl  Cl15  1  0.84084000  0.98559200  0.33743300  1
  Cl  Cl16  1  0.82865900  0.57475700  0.98035700  1
  Cl  Cl17  1  0.32865900  0.92524300  0.01964300  1
  Cl  Cl18  1  0.17134100  0.42524300  0.01964300  1
  Cl  Cl19  1  0.67134100  0.07475700  0.98035700  1
  Cl  Cl20  1  0.92190800  0.19572000  0.83038700  1
  Cl  Cl21  1  0.42190800  0.30428000  0.16961300  1
  Cl  Cl22  1  0.07809200  0.80428000  0.16961300  1
  Cl  Cl23  1  0.57809200  0.69572000  0.83038700  1
