# generated using pymatgen
data_Na3VS4
_symmetry_space_group_name_H-M   'P 1'
_cell_length_a   13.58783700
_cell_length_b   13.58783700
_cell_length_c   8.01002700
_cell_angle_alpha   90.00000000
_cell_angle_beta   90.00000000
_cell_angle_gamma   90.00000000
_symmetry_Int_Tables_number   1
_chemical_formula_structural   Na3VS4
_chemical_formula_sum   'Na24 V8 S32'
_cell_volume   1478.88579284
_cell_formula_units_Z   8
loop_
 _symmetry_equiv_pos_site_id
 _symmetry_equiv_pos_as_xyz
  1  'x, y, z'
loop_
 _atom_site_type_symbol
 _atom_site_label
 _atom_site_symmetry_multiplicity
 _atom_site_fract_x
 _atom_site_fract_y
 _atom_site_fract_z
 _atom_site_occupancy
  Na  Na0  1  0.00000000  0.50000000  0.57424000  1
  Na  Na1  1  0.50000000  0.00000000  0.42576000  1
  Na  Na2  1  0.50000000  0.00000000  0.92576000  1
  Na  Na3  1  0.00000000  0.50000000  0.07424000  1
  Na  Na4  1  0.50000000  0.50000000  0.71230700  1
  Na  Na5  1  0.50000000  0.50000000  0.28769300  1
  Na  Na6  1  0.00000000  0.00000000  0.78769300  1
  Na  Na7  1  0.00000000  0.00000000  0.21230700  1
  Na  Na8  1  0.75569600  0.45515000  0.85375000  1
  Na  Na9  1  0.54485000  0.75569600  0.14625000  1
  Na  Na10  1  0.45515000  0.24430400  0.14625000  1
  Na  Na11  1  0.24430400  0.54485000  0.85375000  1
  Na  Na12  1  0.25569600  0.04485000  0.64625000  1
  Na  Na13  1  0.74430400  0.95515000  0.64625000  1
  Na  Na14  1  0.95515000  0.25569600  0.35375000  1
  Na  Na15  1  0.04485000  0.74430400  0.35375000  1
  Na  Na16  1  0.75353000  0.20008900  0.93628800  1
  Na  Na17  1  0.79991100  0.75353000  0.06371200  1
  Na  Na18  1  0.20008900  0.24647000  0.06371200  1
  Na  Na19  1  0.24647000  0.79991100  0.93628800  1
  Na  Na20  1  0.25353000  0.29991100  0.56371200  1
  Na  Na21  1  0.74647000  0.70008900  0.56371200  1
  Na  Na22  1  0.70008900  0.25353000  0.43628800  1
  Na  Na23  1  0.29991100  0.74647000  0.43628800  1
  V  V24  1  0.01116100  0.26155500  0.77955000  1
  V  V25  1  0.23844500  0.48883900  0.27955000  1
  V  V26  1  0.76155500  0.51116100  0.27955000  1
  V  V27  1  0.48883900  0.76155500  0.72045000  1
  V  V28  1  0.51116100  0.23844500  0.72045000  1
  V  V29  1  0.98883900  0.73844500  0.77955000  1
  V  V30  1  0.26155500  0.98883900  0.22045000  1
  V  V31  1  0.73844500  0.01116100  0.22045000  1
  S  S32  1  0.60780900  0.11323000  0.68155400  1
  S  S33  1  0.16174700  0.92047900  0.39584800  1
  S  S34  1  0.83825300  0.07952100  0.39584800  1
  S  S35  1  0.92047900  0.83825300  0.60415200  1
  S  S36  1  0.07952100  0.16174700  0.60415200  1
  S  S37  1  0.42047900  0.66174700  0.89584800  1
  S  S38  1  0.33825300  0.42047900  0.10415200  1
  S  S39  1  0.66174700  0.57952100  0.10415200  1
  S  S40  1  0.68656800  0.49121900  0.51290300  1
  S  S41  1  0.50878100  0.68656800  0.48709700  1
  S  S42  1  0.49121900  0.31343200  0.48709700  1
  S  S43  1  0.31343200  0.50878100  0.51290300  1
  S  S44  1  0.18656800  0.00878100  0.98709700  1
  S  S45  1  0.81343200  0.99121900  0.98709700  1
  S  S46  1  0.99121900  0.18656800  0.01290300  1
  S  S47  1  0.00878100  0.81343200  0.01290300  1
  S  S48  1  0.87090400  0.30992000  0.67828700  1
  S  S49  1  0.69008000  0.87090400  0.32171300  1
  S  S50  1  0.30992000  0.12909600  0.32171300  1
  S  S51  1  0.12909600  0.69008000  0.67828700  1
  S  S52  1  0.38677000  0.89219100  0.18155400  1
  S  S53  1  0.62909600  0.80992000  0.82171300  1
  S  S54  1  0.80992000  0.37090400  0.17828700  1
  S  S55  1  0.19008000  0.62909600  0.17828700  1
  S  S56  1  0.57952100  0.33825300  0.89584800  1
  S  S57  1  0.88677000  0.60780900  0.31844600  1
  S  S58  1  0.11323000  0.39219100  0.31844600  1
  S  S59  1  0.39219100  0.88677000  0.68155400  1
  S  S60  1  0.10780900  0.38677000  0.81844600  1
  S  S61  1  0.89219100  0.61323000  0.81844600  1
  S  S62  1  0.61323000  0.10780900  0.18155400  1
  S  S63  1  0.37090400  0.19008000  0.82171300  1
