# generated using pymatgen
data_Na(CoO2)2
_symmetry_space_group_name_H-M   'P 1'
_cell_length_a   4.87695500
_cell_length_b   5.64495400
_cell_length_c   11.38451900
_cell_angle_alpha   90.00000000
_cell_angle_beta   90.00000000
_cell_angle_gamma   90.00000000
_symmetry_Int_Tables_number   1
_chemical_formula_structural   Na(CoO2)2
_chemical_formula_sum   'Na4 Co8 O16'
_cell_volume   313.41793282
_cell_formula_units_Z   4
loop_
 _symmetry_equiv_pos_site_id
 _symmetry_equiv_pos_as_xyz
  1  'x, y, z'
loop_
 _atom_site_type_symbol
 _atom_site_label
 _atom_site_symmetry_multiplicity
 _atom_site_fract_x
 _atom_site_fract_y
 _atom_site_fract_z
 _atom_site_occupancy
  Na  Na0  1  0.63967800  0.00000000  0.00000000  1
  Na  Na1  1  0.36032200  0.50000000  0.50000000  1
  Na  Na2  1  0.03715900  0.50000000  0.00000000  1
  Na  Na3  1  0.96284100  0.00000000  0.50000000  1
  Co  Co4  1  0.50000000  0.75000000  0.25000000  1
  Co  Co5  1  0.50000000  0.25000000  0.75000000  1
  Co  Co6  1  0.50000000  0.25000000  0.25000000  1
  Co  Co7  1  0.50000000  0.75000000  0.75000000  1
  Co  Co8  1  0.99707400  0.50000000  0.25291600  1
  Co  Co9  1  0.99707400  0.50000000  0.74708400  1
  Co  Co10  1  0.00292600  0.00000000  0.24708400  1
  Co  Co11  1  0.00292600  0.00000000  0.75291600  1
  O  O12  1  0.83694300  0.74866200  0.16079400  1
  O  O13  1  0.83694300  0.25133800  0.83920600  1
  O  O14  1  0.16305700  0.24866200  0.33920600  1
  O  O15  1  0.16305700  0.75133800  0.66079400  1
  O  O16  1  0.16305700  0.75133800  0.33920600  1
  O  O17  1  0.16305700  0.24866200  0.66079400  1
  O  O18  1  0.83694300  0.25133800  0.16079400  1
  O  O19  1  0.83694300  0.74866200  0.83920600  1
  O  O20  1  0.67664100  0.00000000  0.33483600  1
  O  O21  1  0.67664100  0.00000000  0.66516400  1
  O  O22  1  0.32335900  0.50000000  0.16516400  1
  O  O23  1  0.32335900  0.50000000  0.83483600  1
  O  O24  1  0.33122600  0.00000000  0.83811100  1
  O  O25  1  0.33122600  0.00000000  0.16188900  1
  O  O26  1  0.66877400  0.50000000  0.66188900  1
  O  O27  1  0.66877400  0.50000000  0.33811100  1
