# generated using pymatgen
data_LiCr4(PO4)3
_symmetry_space_group_name_H-M   'P 1'
_cell_length_a   6.29616300
_cell_length_b   10.35941800
_cell_length_c   14.63832800
_cell_angle_alpha   90.00000000
_cell_angle_beta   90.00000000
_cell_angle_gamma   90.00000000
_symmetry_Int_Tables_number   1
_chemical_formula_structural   LiCr4(PO4)3
_chemical_formula_sum   'Li4 Cr16 P12 O48'
_cell_volume   954.77885884
_cell_formula_units_Z   4
loop_
 _symmetry_equiv_pos_site_id
 _symmetry_equiv_pos_as_xyz
  1  'x, y, z'
loop_
 _atom_site_type_symbol
 _atom_site_label
 _atom_site_symmetry_multiplicity
 _atom_site_fract_x
 _atom_site_fract_y
 _atom_site_fract_z
 _atom_site_occupancy
  Li  Li0  1  0.56606200  0.72857800  0.25000000  1
  Li  Li1  1  0.43393800  0.27142200  0.75000000  1
  Li  Li2  1  0.06606200  0.77142200  0.25000000  1
  Li  Li3  1  0.93393800  0.22857800  0.75000000  1
  Cr  Cr4  1  0.42851000  0.15339000  0.36850400  1
  Cr  Cr5  1  0.42851000  0.15339000  0.13149600  1
  Cr  Cr6  1  0.34912000  0.56203700  0.41548500  1
  Cr  Cr7  1  0.34912000  0.56203700  0.08451500  1
  Cr  Cr8  1  0.15088000  0.06203700  0.91548500  1
  Cr  Cr9  1  0.15088000  0.06203700  0.58451500  1
  Cr  Cr10  1  0.07149000  0.65339000  0.86850400  1
  Cr  Cr11  1  0.07149000  0.65339000  0.63149600  1
  Cr  Cr12  1  0.92851000  0.34661000  0.36850400  1
  Cr  Cr13  1  0.92851000  0.34661000  0.13149600  1
  Cr  Cr14  1  0.84912000  0.93796300  0.41548500  1
  Cr  Cr15  1  0.84912000  0.93796300  0.08451500  1
  Cr  Cr16  1  0.65088000  0.43796300  0.91548500  1
  Cr  Cr17  1  0.65088000  0.43796300  0.58451500  1
  Cr  Cr18  1  0.57149000  0.84661000  0.86850400  1
  Cr  Cr19  1  0.57149000  0.84661000  0.63149600  1
  P  P20  1  0.49332000  0.59187400  0.75000000  1
  P  P21  1  0.64187000  0.13584800  0.57266800  1
  P  P22  1  0.64187000  0.13584800  0.92733200  1
  P  P23  1  0.85813000  0.63584800  0.07266800  1
  P  P24  1  0.85813000  0.63584800  0.42733200  1
  P  P25  1  0.00668000  0.09187400  0.25000000  1
  P  P26  1  0.99332000  0.90812600  0.75000000  1
  P  P27  1  0.14187000  0.36415200  0.57266800  1
  P  P28  1  0.14187000  0.36415200  0.92733200  1
  P  P29  1  0.35813000  0.86415200  0.07266800  1
  P  P30  1  0.35813000  0.86415200  0.42733200  1
  P  P31  1  0.50668000  0.40812600  0.25000000  1
  O  O32  1  0.58816000  0.65318200  0.66211400  1
  O  O33  1  0.30475300  0.76278100  0.35383800  1
  O  O34  1  0.30475300  0.76278100  0.14616200  1
  O  O35  1  0.24368000  0.61306100  0.75000000  1
  O  O36  1  0.25632000  0.11306100  0.25000000  1
  O  O37  1  0.19524700  0.26278100  0.85383800  1
  O  O38  1  0.19524700  0.26278100  0.64616200  1
  O  O39  1  0.16485300  0.95258800  0.45261900  1
  O  O40  1  0.47087400  0.03717800  0.89004900  1
  O  O41  1  0.47087400  0.03717800  0.60995100  1
  O  O42  1  0.45315000  0.55228400  0.25000000  1
  O  O43  1  0.44291000  0.79285000  0.98828600  1
  O  O44  1  0.33514700  0.45258800  0.95261900  1
  O  O45  1  0.44291000  0.79285000  0.51171400  1
  O  O46  1  0.41184000  0.34681800  0.16211400  1
  O  O47  1  0.41184000  0.34681800  0.33788600  1
  O  O48  1  0.52912600  0.96282200  0.10995100  1
  O  O49  1  0.52912600  0.96282200  0.39004900  1
  O  O50  1  0.54685000  0.44771600  0.75000000  1
  O  O51  1  0.55709000  0.20715000  0.01171400  1
  O  O52  1  0.55709000  0.20715000  0.48828600  1
  O  O53  1  0.33514700  0.45258800  0.54738100  1
  O  O54  1  0.58816000  0.65318200  0.83788600  1
  O  O55  1  0.66485300  0.54741200  0.04738100  1
  O  O56  1  0.66485300  0.54741200  0.45261900  1
  O  O57  1  0.69524700  0.23721900  0.64616200  1
  O  O58  1  0.69524700  0.23721900  0.85383800  1
  O  O59  1  0.75632000  0.38693900  0.25000000  1
  O  O60  1  0.74368000  0.88693900  0.75000000  1
  O  O61  1  0.80475300  0.73721900  0.14616200  1
  O  O62  1  0.80475300  0.73721900  0.35383800  1
  O  O63  1  0.83514700  0.04741200  0.54738100  1
  O  O64  1  0.83514700  0.04741200  0.95261900  1
  O  O65  1  0.91184000  0.15318200  0.16211400  1
  O  O66  1  0.91184000  0.15318200  0.33788600  1
  O  O67  1  0.94291000  0.70715000  0.51171400  1
  O  O68  1  0.94291000  0.70715000  0.98828600  1
  O  O69  1  0.95315000  0.94771600  0.25000000  1
  O  O70  1  0.97087400  0.46282200  0.60995100  1
  O  O71  1  0.97087400  0.46282200  0.89004900  1
  O  O72  1  0.02912600  0.53717800  0.10995100  1
  O  O73  1  0.02912600  0.53717800  0.39004900  1
  O  O74  1  0.16485300  0.95258800  0.04738100  1
  O  O75  1  0.05709000  0.29285000  0.01171400  1
  O  O76  1  0.05709000  0.29285000  0.48828600  1
  O  O77  1  0.08816000  0.84681800  0.66211400  1
  O  O78  1  0.08816000  0.84681800  0.83788600  1
  O  O79  1  0.04685000  0.05228400  0.75000000  1
