# generated using pymatgen
data_EuGePd
_symmetry_space_group_name_H-M   'P 1'
_cell_length_a   6.07002800
_cell_length_b   6.19557900
_cell_length_c   8.03389267
_cell_angle_alpha   63.10763609
_cell_angle_beta   90.00000000
_cell_angle_gamma   90.00000000
_symmetry_Int_Tables_number   1
_chemical_formula_structural   EuGePd
_chemical_formula_sum   'Eu4 Ge4 Pd4'
_cell_volume   269.45996147
_cell_formula_units_Z   4
loop_
 _symmetry_equiv_pos_site_id
 _symmetry_equiv_pos_as_xyz
  1  'x, y, z'
loop_
 _atom_site_type_symbol
 _atom_site_label
 _atom_site_symmetry_multiplicity
 _atom_site_fract_x
 _atom_site_fract_y
 _atom_site_fract_z
 _atom_site_occupancy
  Eu  Eu0  1  0.36531000  0.20178600  0.61788700  1
  Eu  Eu1  1  0.86531000  0.79821400  0.88211300  1
  Eu  Eu2  1  0.63469000  0.79821400  0.38211300  1
  Eu  Eu3  1  0.13469000  0.20178600  0.11788700  1
  Ge  Ge4  1  0.36574600  0.77072300  0.04942600  1
  Ge  Ge5  1  0.86574600  0.22927700  0.45057400  1
  Ge  Ge6  1  0.63425400  0.22927700  0.95057400  1
  Ge  Ge7  1  0.13425400  0.77072300  0.54942600  1
  Pd  Pd8  1  0.10161800  0.60971700  0.31269900  1
  Pd  Pd9  1  0.60161800  0.39028300  0.18730100  1
  Pd  Pd10  1  0.89838200  0.39028300  0.68730100  1
  Pd  Pd11  1  0.39838200  0.60971700  0.81269900  1
