# generated using pymatgen
data_DyCuPb
_symmetry_space_group_name_H-M   'P 1'
_cell_length_a   4.62602151
_cell_length_b   4.62602151
_cell_length_c   7.39233500
_cell_angle_alpha   90.00000000
_cell_angle_beta   90.00000000
_cell_angle_gamma   119.99999293
_symmetry_Int_Tables_number   1
_chemical_formula_structural   DyCuPb
_chemical_formula_sum   'Dy2 Cu2 Pb2'
_cell_volume   137.00221766
_cell_formula_units_Z   2
loop_
 _symmetry_equiv_pos_site_id
 _symmetry_equiv_pos_as_xyz
  1  'x, y, z'
loop_
 _atom_site_type_symbol
 _atom_site_label
 _atom_site_symmetry_multiplicity
 _atom_site_fract_x
 _atom_site_fract_y
 _atom_site_fract_z
 _atom_site_occupancy
  Dy  Dy0  1  0.00000000  0.00000000  0.99505400  1
  Dy  Dy1  1  0.00000000  0.00000000  0.49505400  1
  Cu  Cu2  1  0.33333300  0.66666700  0.82148300  1
  Cu  Cu3  1  0.66666700  0.33333300  0.32148300  1
  Pb  Pb4  1  0.66666700  0.33333300  0.72656300  1
  Pb  Pb5  1  0.33333300  0.66666700  0.22656300  1
