# generated using pymatgen
data_Ho5(ReO6)2
_symmetry_space_group_name_H-M   'P 1'
_cell_length_a   6.82240527
_cell_length_b   6.82240527
_cell_length_c   7.52513134
_cell_angle_alpha   73.75375312
_cell_angle_beta   73.75375312
_cell_angle_gamma   49.01472348
_symmetry_Int_Tables_number   1
_chemical_formula_structural   Ho5(ReO6)2
_chemical_formula_sum   'Ho5 Re2 O12'
_cell_volume   251.59479826
_cell_formula_units_Z   1
loop_
 _symmetry_equiv_pos_site_id
 _symmetry_equiv_pos_as_xyz
  1  'x, y, z'
loop_
 _atom_site_type_symbol
 _atom_site_label
 _atom_site_symmetry_multiplicity
 _atom_site_fract_x
 _atom_site_fract_y
 _atom_site_fract_z
 _atom_site_occupancy
  Ho  Ho0  1  0.31411400  0.31411400  0.82410300  1
  Ho  Ho1  1  0.68588600  0.68588600  0.17589700  1
  Ho  Ho2  1  0.00000000  0.00000000  0.50000000  1
  Ho  Ho3  1  0.69691200  0.69691200  0.64091100  1
  Ho  Ho4  1  0.30308800  0.30308800  0.35908900  1
  Re  Re5  1  0.21438600  0.78561400  0.00000000  1
  Re  Re6  1  0.78561400  0.21438600  0.00000000  1
  O  O7  1  0.49916500  0.49916500  0.17834400  1
  O  O8  1  0.50083500  0.50083500  0.82165600  1
  O  O9  1  0.00123900  0.00123900  0.20696100  1
  O  O10  1  0.99876100  0.99876100  0.79303900  1
  O  O11  1  0.91240600  0.41907200  0.91469700  1
  O  O12  1  0.58092800  0.08759400  0.08530300  1
  O  O13  1  0.08759400  0.58092800  0.08530300  1
  O  O14  1  0.59384200  0.09800100  0.57375500  1
  O  O15  1  0.90199900  0.40615800  0.42624500  1
  O  O16  1  0.40615800  0.90199900  0.42624500  1
  O  O17  1  0.09800100  0.59384200  0.57375500  1
  O  O18  1  0.41907200  0.91240600  0.91469700  1
