# generated using pymatgen
data_Rb2PuCl6
_symmetry_space_group_name_H-M   'P 1'
_cell_length_a   7.47836606
_cell_length_b   7.47836606
_cell_length_c   12.27233100
_cell_angle_alpha   90.00000000
_cell_angle_beta   90.00000000
_cell_angle_gamma   120.00000050
_symmetry_Int_Tables_number   1
_chemical_formula_structural   Rb2PuCl6
_chemical_formula_sum   'Rb4 Pu2 Cl12'
_cell_volume   594.38949973
_cell_formula_units_Z   2
loop_
 _symmetry_equiv_pos_site_id
 _symmetry_equiv_pos_as_xyz
  1  'x, y, z'
loop_
 _atom_site_type_symbol
 _atom_site_label
 _atom_site_symmetry_multiplicity
 _atom_site_fract_x
 _atom_site_fract_y
 _atom_site_fract_z
 _atom_site_occupancy
  Rb  Rb0  1  0.33333300  0.66666700  0.87179700  1
  Rb  Rb1  1  0.66666700  0.33333300  0.37179700  1
  Rb  Rb2  1  0.00000000  0.00000000  0.59951900  1
  Rb  Rb3  1  0.00000000  0.00000000  0.09951900  1
  Pu  Pu4  1  0.33333300  0.66666700  0.23887500  1
  Pu  Pu5  1  0.66666700  0.33333300  0.73887500  1
  Cl  Cl6  1  0.16416500  0.83583500  0.35298300  1
  Cl  Cl7  1  0.32833000  0.16416500  0.85298300  1
  Cl  Cl8  1  0.83583500  0.67167000  0.85298300  1
  Cl  Cl9  1  0.16416500  0.32833000  0.35298300  1
  Cl  Cl10  1  0.67167000  0.83583500  0.35298300  1
  Cl  Cl11  1  0.83583500  0.16416500  0.85298300  1
  Cl  Cl12  1  0.49449600  0.50550500  0.11338700  1
  Cl  Cl13  1  0.98899100  0.49449600  0.61338700  1
  Cl  Cl14  1  0.50550500  0.01100900  0.61338700  1
  Cl  Cl15  1  0.49449500  0.98899100  0.11338700  1
  Cl  Cl16  1  0.01100900  0.50550500  0.11338700  1
  Cl  Cl17  1  0.50550500  0.49449500  0.61338700  1
