# generated using pymatgen
data_CuBIr
_symmetry_space_group_name_H-M   'P 1'
_cell_length_a   6.64288056
_cell_length_b   5.97970385
_cell_length_c   5.46355694
_cell_angle_alpha   70.80835077
_cell_angle_beta   58.22688506
_cell_angle_gamma   50.96476416
_symmetry_Int_Tables_number   1
_chemical_formula_structural   CuBIr
_chemical_formula_sum   'Cu4 B4 Ir4'
_cell_volume   143.31246898
_cell_formula_units_Z   4
loop_
 _symmetry_equiv_pos_site_id
 _symmetry_equiv_pos_as_xyz
  1  'x, y, z'
loop_
 _atom_site_type_symbol
 _atom_site_label
 _atom_site_symmetry_multiplicity
 _atom_site_fract_x
 _atom_site_fract_y
 _atom_site_fract_z
 _atom_site_occupancy
  Cu  Cu0  1  0.93975700  0.79056100  0.38633300  1
  Cu  Cu1  1  0.45943900  0.31024300  0.36665100  1
  Cu  Cu2  1  0.86366700  0.36665100  0.31024300  1
  Cu  Cu3  1  0.88334900  0.38633300  0.79056100  1
  B  B4  1  0.05341200  0.98206000  0.56554500  1
  B  B5  1  0.68445500  0.85101700  0.19658800  1
  B  B6  1  0.39898300  0.56554500  0.98206000  1
  B  B7  1  0.26794000  0.19658800  0.85101700  1
  Ir  Ir8  1  0.09735100  0.62942000  0.87088200  1
  Ir  Ir9  1  0.37911800  0.84765200  0.15264900  1
  Ir  Ir10  1  0.62058000  0.15264900  0.84765200  1
  Ir  Ir11  1  0.40234800  0.87088200  0.62942000  1
