# generated using pymatgen
data_Cs4BiSbCl12
_symmetry_space_group_name_H-M   'P 1'
_cell_length_a   13.31879417
_cell_length_b   13.31879417
_cell_length_c   13.31879417
_cell_angle_alpha   131.95358996
_cell_angle_beta   131.95358996
_cell_angle_gamma   70.30233639
_symmetry_Int_Tables_number   1
_chemical_formula_structural   Cs4BiSbCl12
_chemical_formula_sum   'Cs8 Bi2 Sb2 Cl24'
_cell_volume   1280.65143233
_cell_formula_units_Z   2
loop_
 _symmetry_equiv_pos_site_id
 _symmetry_equiv_pos_as_xyz
  1  'x, y, z'
loop_
 _atom_site_type_symbol
 _atom_site_label
 _atom_site_symmetry_multiplicity
 _atom_site_fract_x
 _atom_site_fract_y
 _atom_site_fract_z
 _atom_site_occupancy
  Cs  Cs0  1  0.37500000  0.84463800  0.96963800  1
  Cs  Cs1  1  0.59463800  0.62500000  0.46963800  1
  Cs  Cs2  1  0.87500000  0.84463800  0.46963800  1
  Cs  Cs3  1  0.59463800  0.12500000  0.96963800  1
  Cs  Cs4  1  0.87500000  0.40536200  0.03036200  1
  Cs  Cs5  1  0.15536200  0.12500000  0.53036200  1
  Cs  Cs6  1  0.37500000  0.40536200  0.53036200  1
  Cs  Cs7  1  0.15536200  0.62500000  0.03036200  1
  Bi  Bi8  1  0.50000000  0.50000000  0.00000000  1
  Bi  Bi9  1  0.25000000  0.75000000  0.50000000  1
  Sb  Sb10  1  0.00000000  0.00000000  0.00000000  1
  Sb  Sb11  1  0.75000000  0.25000000  0.50000000  1
  Cl  Cl12  1  0.74740900  0.49549200  0.25191700  1
  Cl  Cl13  1  0.50450800  0.25259100  0.74808300  1
  Cl  Cl14  1  0.37463900  0.37463900  0.00000000  1
  Cl  Cl15  1  0.12463900  0.62463900  0.50000000  1
  Cl  Cl16  1  0.37536100  0.87536100  0.50000000  1
  Cl  Cl17  1  0.62536100  0.62536100  0.00000000  1
  Cl  Cl18  1  0.11107300  0.11107300  0.00000000  1
  Cl  Cl19  1  0.86107300  0.36107300  0.50000000  1
  Cl  Cl20  1  0.63892700  0.13892700  0.50000000  1
  Cl  Cl21  1  0.88892700  0.88892700  0.00000000  1
  Cl  Cl22  1  0.22394500  0.00049900  0.22344600  1
  Cl  Cl23  1  0.75049900  0.02705300  0.27655400  1
  Cl  Cl24  1  0.50450800  0.75642400  0.25191700  1
  Cl  Cl25  1  0.52605500  0.24950100  0.27655400  1
  Cl  Cl26  1  0.97294700  0.24950100  0.72344600  1
  Cl  Cl27  1  0.99950100  0.22294700  0.22344600  1
  Cl  Cl28  1  0.99950100  0.77605500  0.77655400  1
  Cl  Cl29  1  0.77705300  0.00049900  0.77655400  1
  Cl  Cl30  1  0.75049900  0.47394500  0.72344600  1
  Cl  Cl31  1  0.24549200  0.49357600  0.24808300  1
  Cl  Cl32  1  0.24549200  0.99740900  0.75191700  1
  Cl  Cl33  1  0.00259100  0.75450800  0.24808300  1
  Cl  Cl34  1  0.50642400  0.75450800  0.75191700  1
  Cl  Cl35  1  0.24357600  0.49549200  0.74808300  1
