# generated using pymatgen
data_PI3
_symmetry_space_group_name_H-M   'P 1'
_cell_length_a   7.46484353
_cell_length_b   7.46484353
_cell_length_c   8.43279700
_cell_angle_alpha   90.00000000
_cell_angle_beta   90.00000000
_cell_angle_gamma   119.99999586
_symmetry_Int_Tables_number   1
_chemical_formula_structural   PI3
_chemical_formula_sum   'P2 I6'
_cell_volume   406.95249351
_cell_formula_units_Z   2
loop_
 _symmetry_equiv_pos_site_id
 _symmetry_equiv_pos_as_xyz
  1  'x, y, z'
loop_
 _atom_site_type_symbol
 _atom_site_label
 _atom_site_symmetry_multiplicity
 _atom_site_fract_x
 _atom_site_fract_y
 _atom_site_fract_z
 _atom_site_occupancy
  P  P0  1  0.66666700  0.33333300  0.62963400  1
  P  P1  1  0.33333300  0.66666700  0.12963400  1
  I  I2  1  0.35339200  0.30912100  0.50545500  1
  I  I3  1  0.64660800  0.69087900  0.00545500  1
  I  I4  1  0.30912100  0.95572900  0.00545500  1
  I  I5  1  0.95572900  0.64660800  0.50545500  1
  I  I6  1  0.69087900  0.04427100  0.50545500  1
  I  I7  1  0.04427100  0.35339200  0.00545500  1
