# generated using pymatgen
data_Sr(InS2)2
_symmetry_space_group_name_H-M   'P 1'
_cell_length_a   15.10718144
_cell_length_b   12.58713526
_cell_length_c   12.52278160
_cell_angle_alpha   73.97468108
_cell_angle_beta   53.20761438
_cell_angle_gamma   52.81770454
_symmetry_Int_Tables_number   1
_chemical_formula_structural   Sr(InS2)2
_chemical_formula_sum   'Sr8 In16 S32'
_cell_volume   1505.47399473
_cell_formula_units_Z   8
loop_
 _symmetry_equiv_pos_site_id
 _symmetry_equiv_pos_as_xyz
  1  'x, y, z'
loop_
 _atom_site_type_symbol
 _atom_site_label
 _atom_site_symmetry_multiplicity
 _atom_site_fract_x
 _atom_site_fract_y
 _atom_site_fract_z
 _atom_site_occupancy
  Sr  Sr0  1  0.75000000  0.75000000  0.75000000  1
  Sr  Sr1  1  0.50000000  0.50000000  0.50000000  1
  Sr  Sr2  1  0.25000000  0.25000000  0.25000000  1
  Sr  Sr3  1  0.00000000  0.00000000  0.00000000  1
  Sr  Sr4  1  0.00340900  0.49659100  0.00340900  1
  Sr  Sr5  1  0.49659100  0.00340900  0.49659100  1
  Sr  Sr6  1  0.24659100  0.75340900  0.24659100  1
  Sr  Sr7  1  0.75340900  0.24659100  0.75340900  1
  In  In8  1  0.27027000  0.08714100  0.98094500  1
  In  In9  1  0.66164500  0.98094500  0.08714100  1
  In  In10  1  0.98094500  0.66164500  0.27027000  1
  In  In11  1  0.08714100  0.27027000  0.66164500  1
  In  In12  1  0.97973000  0.16285900  0.26905500  1
  In  In13  1  0.58835500  0.26905500  0.16285900  1
  In  In14  1  0.26905500  0.58835500  0.97973000  1
  In  In15  1  0.16285900  0.97973000  0.58835500  1
  In  In16  1  0.51084100  0.76462100  0.23672800  1
  In  In17  1  0.48781000  0.23672800  0.76462100  1
  In  In18  1  0.23672800  0.48781000  0.51084100  1
  In  In19  1  0.76462100  0.51084100  0.48781000  1
  In  In20  1  0.73915900  0.48537900  0.01327200  1
  In  In21  1  0.76219000  0.01327200  0.48537900  1
  In  In22  1  0.01327200  0.76219000  0.73915900  1
  In  In23  1  0.48537900  0.73915900  0.76219000  1
  S  S24  1  0.76874500  0.80918600  0.47914500  1
  S  S25  1  0.94292400  0.47914500  0.80918600  1
  S  S26  1  0.47914500  0.94292400  0.76874500  1
  S  S27  1  0.80918600  0.76874500  0.94292400  1
  S  S28  1  0.48125500  0.44081400  0.77085500  1
  S  S29  1  0.30707600  0.77085500  0.44081400  1
  S  S30  1  0.77085500  0.30707600  0.48125500  1
  S  S31  1  0.44081400  0.48125500  0.30707600  1
  S  S32  1  0.97702600  0.46143800  0.27760300  1
  S  S33  1  0.28393300  0.27760300  0.46143800  1
  S  S34  1  0.27760300  0.28393300  0.97702600  1
  S  S35  1  0.46143800  0.97702600  0.28393300  1
  S  S36  1  0.27297400  0.78856200  0.97239700  1
  S  S37  1  0.96606700  0.97239700  0.78856200  1
  S  S38  1  0.97239700  0.96606700  0.27297400  1
  S  S39  1  0.78856200  0.27297400  0.96606700  1
  S  S40  1  0.71154000  0.03647400  0.21508400  1
  S  S41  1  0.03690300  0.21508400  0.03647400  1
  S  S42  1  0.21508400  0.03690300  0.71154000  1
  S  S43  1  0.03647400  0.71154000  0.03690300  1
  S  S44  1  0.53846000  0.21352600  0.03491600  1
  S  S45  1  0.21309700  0.03491600  0.21352600  1
  S  S46  1  0.03491600  0.21309700  0.53846000  1
  S  S47  1  0.21352600  0.53846000  0.21309700  1
  S  S48  1  0.71543000  0.03588500  0.71006700  1
  S  S49  1  0.53861700  0.71006700  0.03588500  1
  S  S50  1  0.71006700  0.53861700  0.71543000  1
  S  S51  1  0.03588500  0.71543000  0.53861700  1
  S  S52  1  0.53457000  0.21411500  0.53993300  1
  S  S53  1  0.71138300  0.53993300  0.21411500  1
  S  S54  1  0.53993300  0.71138300  0.53457000  1
  S  S55  1  0.21411500  0.53457000  0.71138300  1
