# generated using pymatgen
data_LaAgGe
_symmetry_space_group_name_H-M   'P 1'
_cell_length_a   4.60502420
_cell_length_b   4.60502420
_cell_length_c   7.97209600
_cell_angle_alpha   90.00000000
_cell_angle_beta   90.00000000
_cell_angle_gamma   120.00000287
_symmetry_Int_Tables_number   1
_chemical_formula_structural   LaAgGe
_chemical_formula_sum   'La2 Ag2 Ge2'
_cell_volume   146.40872972
_cell_formula_units_Z   2
loop_
 _symmetry_equiv_pos_site_id
 _symmetry_equiv_pos_as_xyz
  1  'x, y, z'
loop_
 _atom_site_type_symbol
 _atom_site_label
 _atom_site_symmetry_multiplicity
 _atom_site_fract_x
 _atom_site_fract_y
 _atom_site_fract_z
 _atom_site_occupancy
  La  La0  1  0.00000000  0.00000000  0.24355500  1
  La  La1  1  0.00000000  0.00000000  0.74355500  1
  Ag  Ag2  1  0.66666700  0.33333300  0.50705400  1
  Ag  Ag3  1  0.33333300  0.66666700  0.00705400  1
  Ge  Ge4  1  0.66666700  0.33333300  0.95899100  1
  Ge  Ge5  1  0.33333300  0.66666700  0.45899100  1
