# generated using pymatgen
data_Ta11(FeSe4)2
_symmetry_space_group_name_H-M   'P 1'
_cell_length_a   3.41179100
_cell_length_b   12.22820000
_cell_length_c   19.71028300
_cell_angle_alpha   90.00000000
_cell_angle_beta   90.00000000
_cell_angle_gamma   90.00000000
_symmetry_Int_Tables_number   1
_chemical_formula_structural   Ta11(FeSe4)2
_chemical_formula_sum   'Ta22 Fe4 Se16'
_cell_volume   822.31424272
_cell_formula_units_Z   2
loop_
 _symmetry_equiv_pos_site_id
 _symmetry_equiv_pos_as_xyz
  1  'x, y, z'
loop_
 _atom_site_type_symbol
 _atom_site_label
 _atom_site_symmetry_multiplicity
 _atom_site_fract_x
 _atom_site_fract_y
 _atom_site_fract_z
 _atom_site_occupancy
  Ta  Ta0  1  0.50000000  0.81977700  0.05358600  1
  Ta  Ta1  1  0.50000000  0.18022300  0.94641400  1
  Ta  Ta2  1  0.00000000  0.68022300  0.55358600  1
  Ta  Ta3  1  0.00000000  0.31977700  0.44641400  1
  Ta  Ta4  1  0.50000000  0.44757300  0.74386500  1
  Ta  Ta5  1  0.50000000  0.55242700  0.25613500  1
  Ta  Ta6  1  0.00000000  0.94757300  0.75613500  1
  Ta  Ta7  1  0.00000000  0.05242700  0.24386500  1
  Ta  Ta8  1  0.50000000  0.06198100  0.11619000  1
  Ta  Ta9  1  0.50000000  0.93801900  0.88381000  1
  Ta  Ta10  1  0.00000000  0.56198100  0.38381000  1
  Ta  Ta11  1  0.00000000  0.43801900  0.61619000  1
  Ta  Ta12  1  0.50000000  0.17150900  0.35273500  1
  Ta  Ta13  1  0.50000000  0.82849100  0.64726500  1
  Ta  Ta14  1  0.00000000  0.67150900  0.14726500  1
  Ta  Ta15  1  0.00000000  0.32849100  0.85273500  1
  Ta  Ta16  1  0.50000000  0.15282300  0.78776200  1
  Ta  Ta17  1  0.50000000  0.84717700  0.21223800  1
  Ta  Ta18  1  0.00000000  0.65282300  0.71223800  1
  Ta  Ta19  1  0.00000000  0.34717700  0.28776200  1
  Ta  Ta20  1  0.50000000  0.50000000  0.50000000  1
  Ta  Ta21  1  0.00000000  0.00000000  0.00000000  1
  Fe  Fe22  1  0.00000000  0.09392900  0.87331000  1
  Fe  Fe23  1  0.00000000  0.90607100  0.12669000  1
  Fe  Fe24  1  0.50000000  0.59392900  0.62669000  1
  Fe  Fe25  1  0.50000000  0.40607100  0.37331000  1
  Se  Se26  1  0.50000000  0.29569800  0.55622500  1
  Se  Se27  1  0.50000000  0.70430200  0.44377500  1
  Se  Se28  1  0.00000000  0.79569800  0.94377500  1
  Se  Se29  1  0.00000000  0.20430200  0.05622500  1
  Se  Se30  1  0.50000000  0.04220600  0.67318700  1
  Se  Se31  1  0.50000000  0.95779400  0.32681300  1
  Se  Se32  1  0.00000000  0.54220600  0.82681300  1
  Se  Se33  1  0.00000000  0.45779400  0.17318700  1
  Se  Se34  1  0.50000000  0.38989900  0.94647900  1
  Se  Se35  1  0.50000000  0.61010100  0.05352100  1
  Se  Se36  1  0.00000000  0.88989900  0.55352100  1
  Se  Se37  1  0.00000000  0.11010100  0.44647900  1
  Se  Se38  1  0.00000000  0.28458700  0.71588000  1
  Se  Se39  1  0.00000000  0.71541300  0.28412000  1
  Se  Se40  1  0.50000000  0.78458700  0.78412000  1
  Se  Se41  1  0.50000000  0.21541300  0.21588000  1
