# generated using pymatgen
data_KSiH3
_symmetry_space_group_name_H-M   'P 1'
_cell_length_a   5.42133500
_cell_length_b   6.89965700
_cell_length_c   8.89004400
_cell_angle_alpha   90.00000000
_cell_angle_beta   90.00000000
_cell_angle_gamma   90.00000000
_symmetry_Int_Tables_number   1
_chemical_formula_structural   KSiH3
_chemical_formula_sum   'K4 Si4 H12'
_cell_volume   332.53522496
_cell_formula_units_Z   4
loop_
 _symmetry_equiv_pos_site_id
 _symmetry_equiv_pos_as_xyz
  1  'x, y, z'
loop_
 _atom_site_type_symbol
 _atom_site_label
 _atom_site_symmetry_multiplicity
 _atom_site_fract_x
 _atom_site_fract_y
 _atom_site_fract_z
 _atom_site_occupancy
  K  K0  1  0.25000000  0.34442400  0.68452700  1
  K  K1  1  0.75000000  0.65557600  0.31547300  1
  K  K2  1  0.75000000  0.84442400  0.81547300  1
  K  K3  1  0.25000000  0.15557600  0.18452700  1
  Si  Si4  1  0.25000000  0.85020400  0.54851200  1
  Si  Si5  1  0.75000000  0.14979600  0.45148800  1
  Si  Si6  1  0.75000000  0.35020400  0.95148800  1
  Si  Si7  1  0.25000000  0.64979600  0.04851200  1
  H  H8  1  0.95696000  0.30016600  0.41850500  1
  H  H9  1  0.45696000  0.69983400  0.58149500  1
  H  H10  1  0.04304000  0.80016600  0.08149500  1
  H  H11  1  0.54304000  0.19983400  0.91850500  1
  H  H12  1  0.04304000  0.69983400  0.58149500  1
  H  H13  1  0.54304000  0.30016600  0.41850500  1
  H  H14  1  0.95696000  0.19983400  0.91850500  1
  H  H15  1  0.45696000  0.80016600  0.08149500  1
  H  H16  1  0.25000000  0.69273200  0.87819300  1
  H  H17  1  0.75000000  0.30726800  0.12180700  1
  H  H18  1  0.75000000  0.19273200  0.62180700  1
  H  H19  1  0.25000000  0.80726800  0.37819300  1
