# generated using pymatgen
data_ZrO2
_symmetry_space_group_name_H-M   'P 1'
_cell_length_a   5.26846000
_cell_length_b   5.23364900
_cell_length_c   5.41847594
_cell_angle_alpha   79.94515445
_cell_angle_beta   90.00000000
_cell_angle_gamma   90.00000000
_symmetry_Int_Tables_number   1
_chemical_formula_structural   ZrO2
_chemical_formula_sum   'Zr4 O8'
_cell_volume   147.11040125
_cell_formula_units_Z   4
loop_
 _symmetry_equiv_pos_site_id
 _symmetry_equiv_pos_as_xyz
  1  'x, y, z'
loop_
 _atom_site_type_symbol
 _atom_site_label
 _atom_site_symmetry_multiplicity
 _atom_site_fract_x
 _atom_site_fract_y
 _atom_site_fract_z
 _atom_site_occupancy
  Zr  Zr0  1  0.04418000  0.27598100  0.78974400  1
  Zr  Zr1  1  0.45582000  0.27598100  0.28974400  1
  Zr  Zr2  1  0.54418000  0.72401900  0.71025600  1
  Zr  Zr3  1  0.95582000  0.72401900  0.21025600  1
  O  O4  1  0.81982200  0.93898500  0.85461300  1
  O  O5  1  0.68017800  0.93898500  0.35461300  1
  O  O6  1  0.74432600  0.45299000  0.02193600  1
  O  O7  1  0.24432600  0.54701000  0.47806400  1
  O  O8  1  0.75567400  0.45299000  0.52193600  1
  O  O9  1  0.25567400  0.54701000  0.97806400  1
  O  O10  1  0.31982200  0.06101500  0.64538700  1
  O  O11  1  0.18017800  0.06101500  0.14538700  1
