# generated using pymatgen
data_La(AuF4)3
_symmetry_space_group_name_H-M   'P 1'
_cell_length_a   8.35897339
_cell_length_b   8.35897339
_cell_length_c   8.35897381
_cell_angle_alpha   80.15867167
_cell_angle_beta   80.15867167
_cell_angle_gamma   80.15867340
_symmetry_Int_Tables_number   1
_chemical_formula_structural   La(AuF4)3
_chemical_formula_sum   'La2 Au6 F24'
_cell_volume   560.92604922
_cell_formula_units_Z   2
loop_
 _symmetry_equiv_pos_site_id
 _symmetry_equiv_pos_as_xyz
  1  'x, y, z'
loop_
 _atom_site_type_symbol
 _atom_site_label
 _atom_site_symmetry_multiplicity
 _atom_site_fract_x
 _atom_site_fract_y
 _atom_site_fract_z
 _atom_site_occupancy
  La  La0  1  0.25000000  0.25000000  0.25000000  1
  La  La1  1  0.75000000  0.75000000  0.75000000  1
  Au  Au2  1  0.16094900  0.33905100  0.75000000  1
  Au  Au3  1  0.25000000  0.83905100  0.66094900  1
  Au  Au4  1  0.66094900  0.25000000  0.83905100  1
  Au  Au5  1  0.83905100  0.66094900  0.25000000  1
  Au  Au6  1  0.33905100  0.75000000  0.16094900  1
  Au  Au7  1  0.75000000  0.16094900  0.33905100  1
  F  F8  1  0.50873700  0.19525200  0.37247000  1
  F  F9  1  0.37247000  0.50873700  0.19525200  1
  F  F10  1  0.19525200  0.37247000  0.50873700  1
  F  F11  1  0.99126300  0.12753000  0.30474800  1
  F  F12  1  0.30474800  0.99126300  0.12753000  1
  F  F13  1  0.12753000  0.30474800  0.99126300  1
  F  F14  1  0.49126300  0.80474800  0.62753000  1
  F  F15  1  0.62753000  0.49126300  0.80474800  1
  F  F16  1  0.02383500  0.47616500  0.25000000  1
  F  F17  1  0.47616500  0.25000000  0.02383500  1
  F  F18  1  0.25000000  0.02383500  0.47616500  1
  F  F19  1  0.97616500  0.52383500  0.75000000  1
  F  F20  1  0.52383500  0.75000000  0.97616500  1
  F  F21  1  0.75000000  0.97616500  0.52383500  1
  F  F22  1  0.65918300  0.84081700  0.25000000  1
  F  F23  1  0.84081700  0.25000000  0.65918300  1
  F  F24  1  0.25000000  0.65918300  0.84081700  1
  F  F25  1  0.34081700  0.15918300  0.75000000  1
  F  F26  1  0.15918300  0.75000000  0.34081700  1
  F  F27  1  0.75000000  0.34081700  0.15918300  1
  F  F28  1  0.87247000  0.69525200  0.00873700  1
  F  F29  1  0.69525200  0.00873700  0.87247000  1
  F  F30  1  0.00873700  0.87247000  0.69525200  1
  F  F31  1  0.80474800  0.62753000  0.49126300  1
