# generated using pymatgen
data_EuSnF7
_symmetry_space_group_name_H-M   'P 1'
_cell_length_a   5.75066900
_cell_length_b   9.19578500
_cell_length_c   12.32935837
_cell_angle_alpha   62.14051482
_cell_angle_beta   90.00000000
_cell_angle_gamma   90.00000000
_symmetry_Int_Tables_number   1
_chemical_formula_structural   EuSnF7
_chemical_formula_sum   'Eu4 Sn4 F28'
_cell_volume   576.43086131
_cell_formula_units_Z   4
loop_
 _symmetry_equiv_pos_site_id
 _symmetry_equiv_pos_as_xyz
  1  'x, y, z'
loop_
 _atom_site_type_symbol
 _atom_site_label
 _atom_site_symmetry_multiplicity
 _atom_site_fract_x
 _atom_site_fract_y
 _atom_site_fract_z
 _atom_site_occupancy
  Eu  Eu0  1  0.74156500  0.81214600  0.26485000  1
  Eu  Eu1  1  0.24156500  0.18785400  0.23515000  1
  Eu  Eu2  1  0.25843500  0.18785400  0.73515000  1
  Eu  Eu3  1  0.75843500  0.81214600  0.76485000  1
  Sn  Sn4  1  0.74354300  0.27384400  0.45659300  1
  Sn  Sn5  1  0.24354300  0.72615600  0.04340700  1
  Sn  Sn6  1  0.25645700  0.72615600  0.54340700  1
  Sn  Sn7  1  0.75645700  0.27384400  0.95659300  1
  F  F8  1  0.44963500  0.71034100  0.91889600  1
  F  F9  1  0.94963500  0.28965900  0.58110400  1
  F  F10  1  0.55036500  0.28965900  0.08110400  1
  F  F11  1  0.05036500  0.71034100  0.41889600  1
  F  F12  1  0.45384600  0.28154900  0.54495600  1
  F  F13  1  0.95384600  0.71845100  0.95504400  1
  F  F14  1  0.54615400  0.71845100  0.45504400  1
  F  F15  1  0.04615400  0.28154900  0.04495600  1
  F  F16  1  0.76969200  0.51806600  0.86011600  1
  F  F17  1  0.26969200  0.48193400  0.63988400  1
  F  F18  1  0.23030800  0.48193400  0.13988400  1
  F  F19  1  0.73030800  0.51806600  0.36011600  1
  F  F20  1  0.75937400  0.02845700  0.05340900  1
  F  F21  1  0.25937400  0.97154300  0.44659100  1
  F  F22  1  0.24062600  0.97154300  0.94659100  1
  F  F23  1  0.74062600  0.02845700  0.55340900  1
  F  F24  1  0.97990800  0.73006500  0.64053400  1
  F  F25  1  0.47990800  0.26993500  0.85946600  1
  F  F26  1  0.02009200  0.26993500  0.35946600  1
  F  F27  1  0.52009200  0.73006500  0.14053400  1
  F  F28  1  0.04576200  0.74394900  0.17095800  1
  F  F29  1  0.54576200  0.25605100  0.32904200  1
  F  F30  1  0.95423800  0.25605100  0.82904200  1
  F  F31  1  0.45423800  0.74394900  0.67095800  1
  F  F32  1  0.41452400  0.96879500  0.23335000  1
  F  F33  1  0.91452400  0.03120500  0.26665000  1
  F  F34  1  0.58547600  0.03120500  0.76665000  1
  F  F35  1  0.08547600  0.96879500  0.73335000  1
