# generated using pymatgen
data_Ba2MnMoO6
_symmetry_space_group_name_H-M   'P 1'
_cell_length_a   5.88137151
_cell_length_b   5.88137067
_cell_length_c   10.18683375
_cell_angle_alpha   106.77865099
_cell_angle_beta   73.22134409
_cell_angle_gamma   119.99999968
_symmetry_Int_Tables_number   1
_chemical_formula_structural   Ba2MnMoO6
_chemical_formula_sum   'Ba4 Mn2 Mo2 O12'
_cell_volume   287.70721949
_cell_formula_units_Z   2
loop_
 _symmetry_equiv_pos_site_id
 _symmetry_equiv_pos_as_xyz
  1  'x, y, z'
loop_
 _atom_site_type_symbol
 _atom_site_label
 _atom_site_symmetry_multiplicity
 _atom_site_fract_x
 _atom_site_fract_y
 _atom_site_fract_z
 _atom_site_occupancy
  Ba  Ba0  1  0.87500000  0.12500000  0.37500000  1
  Ba  Ba1  1  0.37500000  0.62500000  0.87500000  1
  Ba  Ba2  1  0.62500000  0.37500000  0.12500000  1
  Ba  Ba3  1  0.12500000  0.87500000  0.62500000  1
  Mn  Mn4  1  0.50000000  0.50000000  0.50000000  1
  Mn  Mn5  1  0.00000000  0.00000000  0.00000000  1
  Mo  Mo6  1  0.75000000  0.25000000  0.75000000  1
  Mo  Mo7  1  0.25000000  0.75000000  0.25000000  1
  O  O8  1  0.36770000  0.10310100  0.36770000  1
  O  O9  1  0.86770000  0.60310100  0.86770000  1
  O  O10  1  0.13230000  0.86770000  0.13230000  1
  O  O11  1  0.63230000  0.36770000  0.63230000  1
  O  O12  1  0.36770000  0.63230000  0.36770000  1
  O  O13  1  0.86770000  0.13230000  0.86770000  1
  O  O14  1  0.89689900  0.63230000  0.36770000  1
  O  O15  1  0.39689900  0.13230000  0.86770000  1
  O  O16  1  0.13230000  0.39689900  0.13230000  1
  O  O17  1  0.63230000  0.89689900  0.63230000  1
  O  O18  1  0.60310100  0.86770000  0.13230000  1
  O  O19  1  0.10310100  0.36770000  0.63230000  1
