# generated using pymatgen
data_Sr2P6O17
_symmetry_space_group_name_H-M   'P 1'
_cell_length_a   13.53360500
_cell_length_b   7.30637700
_cell_length_c   7.34633933
_cell_angle_alpha   74.62922072
_cell_angle_beta   90.00000000
_cell_angle_gamma   90.00000000
_symmetry_Int_Tables_number   1
_chemical_formula_structural   Sr2P6O17
_chemical_formula_sum   'Sr4 P12 O34'
_cell_volume   700.43448358
_cell_formula_units_Z   2
loop_
 _symmetry_equiv_pos_site_id
 _symmetry_equiv_pos_as_xyz
  1  'x, y, z'
loop_
 _atom_site_type_symbol
 _atom_site_label
 _atom_site_symmetry_multiplicity
 _atom_site_fract_x
 _atom_site_fract_y
 _atom_site_fract_z
 _atom_site_occupancy
  Sr  Sr0  1  0.21751100  0.18535400  0.12539800  1
  Sr  Sr1  1  0.71751100  0.81464600  0.87460200  1
  Sr  Sr2  1  0.00038500  0.78324800  0.17579700  1
  Sr  Sr3  1  0.50038500  0.21675200  0.82420300  1
  P  P4  1  0.24901300  0.32956100  0.61727400  1
  P  P5  1  0.74901300  0.67043900  0.38272600  1
  P  P6  1  0.03511300  0.34259800  0.61689100  1
  P  P7  1  0.53511300  0.65740200  0.38310900  1
  P  P8  1  0.93691200  0.98978200  0.59934900  1
  P  P9  1  0.43691200  0.01021800  0.40065100  1
  P  P10  1  0.75723200  0.23851300  0.47206200  1
  P  P11  1  0.25723200  0.76148700  0.52793800  1
  P  P12  1  0.72891100  0.26616500  0.04929100  1
  P  P13  1  0.22891100  0.73383500  0.95070900  1
  P  P14  1  0.95022300  0.31951500  0.00081400  1
  P  P15  1  0.45022300  0.68048500  0.99918600  1
  O  O16  1  0.31188000  0.25125300  0.78814100  1
  O  O17  1  0.81188000  0.74874700  0.21185900  1
  O  O18  1  0.23845400  0.23745300  0.46133300  1
  O  O19  1  0.73845400  0.76254700  0.53866700  1
  O  O20  1  0.14005100  0.35261300  0.71247800  1
  O  O21  1  0.64005100  0.64738700  0.28752200  1
  O  O22  1  0.02310800  0.48097800  0.43243800  1
  O  O23  1  0.52310800  0.51902200  0.56756200  1
  O  O24  1  0.03065000  0.12764300  0.61118300  1
  O  O25  1  0.53065000  0.87235700  0.38881700  1
  O  O26  1  0.96852400  0.86179700  0.48483600  1
  O  O27  1  0.46852400  0.13820300  0.51516400  1
  O  O28  1  0.89500700  0.92037100  0.79437000  1
  O  O29  1  0.39500700  0.07962900  0.20563000  1
  O  O30  1  0.86363400  0.15309400  0.46730300  1
  O  O31  1  0.36363400  0.84690600  0.53269700  1
  O  O32  1  0.45706200  0.63209700  0.23271400  1
  O  O33  1  0.95706200  0.36790300  0.76728600  1
  O  O34  1  0.52527100  0.83206000  0.91732600  1
  O  O35  1  0.02527100  0.16794000  0.08267400  1
  O  O36  1  0.44802000  0.49517600  0.95293600  1
  O  O37  1  0.94802000  0.50482400  0.04706400  1
  O  O38  1  0.34387900  0.78811600  0.96449900  1
  O  O39  1  0.84387900  0.21188400  0.03550100  1
  O  O40  1  0.16786000  0.89119200  0.98825100  1
  O  O41  1  0.66786000  0.10880800  0.01174900  1
  O  O42  1  0.20691600  0.53410300  0.05524500  1
  O  O43  1  0.70691600  0.46589700  0.94475500  1
  O  O44  1  0.21219500  0.75311600  0.72550600  1
  O  O45  1  0.71219500  0.24688400  0.27449400  1
  O  O46  1  0.27947100  0.55027800  0.52409900  1
  O  O47  1  0.77947100  0.44972200  0.47590100  1
  O  O48  1  0.19291800  0.86135600  0.37050900  1
  O  O49  1  0.69291800  0.13864400  0.62949100  1
