# generated using pymatgen
data_ThSi
_symmetry_space_group_name_H-M   'P 1'
_cell_length_a   4.11439100
_cell_length_b   5.90593300
_cell_length_c   7.99088200
_cell_angle_alpha   90.00000000
_cell_angle_beta   90.00000000
_cell_angle_gamma   90.00000000
_symmetry_Int_Tables_number   1
_chemical_formula_structural   ThSi
_chemical_formula_sum   'Th4 Si4'
_cell_volume   194.17297948
_cell_formula_units_Z   4
loop_
 _symmetry_equiv_pos_site_id
 _symmetry_equiv_pos_as_xyz
  1  'x, y, z'
loop_
 _atom_site_type_symbol
 _atom_site_label
 _atom_site_symmetry_multiplicity
 _atom_site_fract_x
 _atom_site_fract_y
 _atom_site_fract_z
 _atom_site_occupancy
  Th  Th0  1  0.25000000  0.12304400  0.17987000  1
  Th  Th1  1  0.75000000  0.87695600  0.82013000  1
  Th  Th2  1  0.75000000  0.62304400  0.32013000  1
  Th  Th3  1  0.25000000  0.37695600  0.67987000  1
  Si  Si4  1  0.25000000  0.62574700  0.03763700  1
  Si  Si5  1  0.75000000  0.37425300  0.96236300  1
  Si  Si6  1  0.75000000  0.12574700  0.46236300  1
  Si  Si7  1  0.25000000  0.87425300  0.53763700  1
