# generated using pymatgen
data_BaNd2O4
_symmetry_space_group_name_H-M   'P 1'
_cell_length_a   3.63368500
_cell_length_b   10.74319000
_cell_length_c   12.60409000
_cell_angle_alpha   90.00000000
_cell_angle_beta   90.00000000
_cell_angle_gamma   90.00000000
_symmetry_Int_Tables_number   1
_chemical_formula_structural   BaNd2O4
_chemical_formula_sum   'Ba4 Nd8 O16'
_cell_volume   492.03050411
_cell_formula_units_Z   4
loop_
 _symmetry_equiv_pos_site_id
 _symmetry_equiv_pos_as_xyz
  1  'x, y, z'
loop_
 _atom_site_type_symbol
 _atom_site_label
 _atom_site_symmetry_multiplicity
 _atom_site_fract_x
 _atom_site_fract_y
 _atom_site_fract_z
 _atom_site_occupancy
  Ba  Ba0  1  0.75000000  0.74839700  0.85295800  1
  Ba  Ba1  1  0.25000000  0.25160300  0.14704200  1
  Ba  Ba2  1  0.75000000  0.24839700  0.64704200  1
  Ba  Ba3  1  0.25000000  0.75160300  0.35295800  1
  Nd  Nd4  1  0.25000000  0.42409800  0.88782400  1
  Nd  Nd5  1  0.75000000  0.57590200  0.11217600  1
  Nd  Nd6  1  0.25000000  0.92409800  0.61217600  1
  Nd  Nd7  1  0.75000000  0.07590200  0.38782400  1
  Nd  Nd8  1  0.75000000  0.07892300  0.88861000  1
  Nd  Nd9  1  0.25000000  0.92107700  0.11139000  1
  Nd  Nd10  1  0.75000000  0.57892300  0.61139000  1
  Nd  Nd11  1  0.25000000  0.42107700  0.38861000  1
  O  O12  1  0.25000000  0.42895100  0.57614500  1
  O  O13  1  0.75000000  0.57104900  0.42385500  1
  O  O14  1  0.25000000  0.92895100  0.92385500  1
  O  O15  1  0.75000000  0.07104900  0.07614500  1
  O  O16  1  0.25000000  0.51530700  0.21720500  1
  O  O17  1  0.75000000  0.48469300  0.78279500  1
  O  O18  1  0.25000000  0.01530700  0.28279500  1
  O  O19  1  0.75000000  0.98469300  0.71720500  1
  O  O20  1  0.25000000  0.12156000  0.51872400  1
  O  O21  1  0.75000000  0.87844000  0.48127600  1
  O  O22  1  0.25000000  0.62156000  0.98127600  1
  O  O23  1  0.75000000  0.37844000  0.01872400  1
  O  O24  1  0.75000000  0.28857300  0.33062100  1
  O  O25  1  0.25000000  0.71142700  0.66937900  1
  O  O26  1  0.75000000  0.78857300  0.16937900  1
  O  O27  1  0.25000000  0.21142700  0.83062100  1
