# generated using pymatgen
data_RbGeBr3
_symmetry_space_group_name_H-M   'P 1'
_cell_length_a   7.78259900
_cell_length_b   8.36803900
_cell_length_c   11.40551700
_cell_angle_alpha   90.00000000
_cell_angle_beta   90.00000000
_cell_angle_gamma   90.00000000
_symmetry_Int_Tables_number   1
_chemical_formula_structural   RbGeBr3
_chemical_formula_sum   'Rb4 Ge4 Br12'
_cell_volume   742.78534340
_cell_formula_units_Z   4
loop_
 _symmetry_equiv_pos_site_id
 _symmetry_equiv_pos_as_xyz
  1  'x, y, z'
loop_
 _atom_site_type_symbol
 _atom_site_label
 _atom_site_symmetry_multiplicity
 _atom_site_fract_x
 _atom_site_fract_y
 _atom_site_fract_z
 _atom_site_occupancy
  Rb  Rb0  1  0.97493100  0.42247500  0.74941400  1
  Rb  Rb1  1  0.47493100  0.07752500  0.24941400  1
  Rb  Rb2  1  0.52506900  0.92247500  0.74941400  1
  Rb  Rb3  1  0.02506900  0.57752500  0.24941400  1
  Ge  Ge4  1  0.48371600  0.46922000  0.51905800  1
  Ge  Ge5  1  0.51628400  0.53078000  0.01905800  1
  Ge  Ge6  1  0.01628400  0.96922000  0.51905800  1
  Ge  Ge7  1  0.98371600  0.03078000  0.01905800  1
  Br  Br8  1  0.32368100  0.78128200  0.03742900  1
  Br  Br9  1  0.17631900  0.28128200  0.03742900  1
  Br  Br10  1  0.82368100  0.71871800  0.53742900  1
  Br  Br11  1  0.29275100  0.81626700  0.46886100  1
  Br  Br12  1  0.20724900  0.31626700  0.46886100  1
  Br  Br13  1  0.79275200  0.68373300  0.96886100  1
  Br  Br14  1  0.42815200  0.49888100  0.74043700  1
  Br  Br15  1  0.70724800  0.18373300  0.96886100  1
  Br  Br16  1  0.92815200  0.00111900  0.24043700  1
  Br  Br17  1  0.57184800  0.50111900  0.24043700  1
  Br  Br18  1  0.07184800  0.99888100  0.74043700  1
  Br  Br19  1  0.67631900  0.21871800  0.53742900  1
