# generated using pymatgen
data_Ag3P11
_symmetry_space_group_name_H-M   'P 1'
_cell_length_a   7.58335651
_cell_length_b   7.58335651
_cell_length_c   6.68122537
_cell_angle_alpha   65.52252739
_cell_angle_beta   65.52252739
_cell_angle_gamma   60.59734251
_symmetry_Int_Tables_number   1
_chemical_formula_structural   Ag3P11
_chemical_formula_sum   'Ag3 P11'
_cell_volume   293.66783371
_cell_formula_units_Z   1
loop_
 _symmetry_equiv_pos_site_id
 _symmetry_equiv_pos_as_xyz
  1  'x, y, z'
loop_
 _atom_site_type_symbol
 _atom_site_label
 _atom_site_symmetry_multiplicity
 _atom_site_fract_x
 _atom_site_fract_y
 _atom_site_fract_z
 _atom_site_occupancy
  Ag  Ag0  1  0.29133100  0.29133100  0.97416800  1
  Ag  Ag1  1  0.58954700  0.58954700  0.19640300  1
  Ag  Ag2  1  0.99931000  0.99931000  0.99762600  1
  P  P3  1  0.81111100  0.81111100  0.95428200  1
  P  P4  1  0.49239500  0.49239500  0.94493600  1
  P  P5  1  0.08193300  0.08193300  0.27366900  1
  P  P6  1  0.26481900  0.77556300  0.46926000  1
  P  P7  1  0.77556300  0.26481900  0.46926000  1
  P  P8  1  0.61405400  0.91053100  0.49740700  1
  P  P9  1  0.91053100  0.61405400  0.49740700  1
  P  P10  1  0.61004900  0.05529900  0.72882600  1
  P  P11  1  0.05529900  0.61004900  0.72882600  1
  P  P12  1  0.35123300  0.80882600  0.73376500  1
  P  P13  1  0.80882600  0.35123300  0.73376500  1
