# generated using pymatgen
data_BaAg8S5
_symmetry_space_group_name_H-M   'P 1'
_cell_length_a   17.71366000
_cell_length_b   7.87760800
_cell_length_c   9.08920172
_cell_angle_alpha   71.77532065
_cell_angle_beta   90.00000000
_cell_angle_gamma   90.00000000
_symmetry_Int_Tables_number   1
_chemical_formula_structural   BaAg8S5
_chemical_formula_sum   'Ba4 Ag32 S20'
_cell_volume   1204.69662043
_cell_formula_units_Z   4
loop_
 _symmetry_equiv_pos_site_id
 _symmetry_equiv_pos_as_xyz
  1  'x, y, z'
loop_
 _atom_site_type_symbol
 _atom_site_label
 _atom_site_symmetry_multiplicity
 _atom_site_fract_x
 _atom_site_fract_y
 _atom_site_fract_z
 _atom_site_occupancy
  Ba  Ba0  1  0.75000000  0.56108900  0.25303100  1
  Ba  Ba1  1  0.25000000  0.43891100  0.74696900  1
  Ba  Ba2  1  0.75000000  0.59984400  0.71378600  1
  Ba  Ba3  1  0.25000000  0.40015600  0.28621400  1
  Ag  Ag4  1  0.83829300  0.05387400  0.13014600  1
  Ag  Ag5  1  0.16170700  0.94612600  0.86985400  1
  Ag  Ag6  1  0.45097200  0.68578100  0.78875500  1
  Ag  Ag7  1  0.95097200  0.31421900  0.21124500  1
  Ag  Ag8  1  0.54902800  0.31421900  0.21124500  1
  Ag  Ag9  1  0.66170700  0.05387400  0.13014600  1
  Ag  Ag10  1  0.49436200  0.93844100  0.35421800  1
  Ag  Ag11  1  0.99436200  0.06155900  0.64578200  1
  Ag  Ag12  1  0.50563800  0.06155900  0.64578200  1
  Ag  Ag13  1  0.00563800  0.93844100  0.35421800  1
  Ag  Ag14  1  0.44897100  0.62955400  0.15286900  1
  Ag  Ag15  1  0.94897100  0.37044600  0.84713100  1
  Ag  Ag16  1  0.55102900  0.37044600  0.84713100  1
  Ag  Ag17  1  0.05102900  0.62955400  0.15286900  1
  Ag  Ag18  1  0.50000000  0.50000000  0.50000000  1
  Ag  Ag19  1  0.00000000  0.50000000  0.50000000  1
  Ag  Ag20  1  0.09681900  0.25880800  0.07254000  1
  Ag  Ag21  1  0.59681900  0.74119200  0.92746000  1
  Ag  Ag22  1  0.90318100  0.74119200  0.92746000  1
  Ag  Ag23  1  0.40318100  0.25880800  0.07254000  1
  Ag  Ag24  1  0.16314800  0.88764300  0.22033400  1
  Ag  Ag25  1  0.66314800  0.11235700  0.77966600  1
  Ag  Ag26  1  0.83685200  0.11235700  0.77966600  1
  Ag  Ag27  1  0.33685200  0.88764300  0.22033400  1
  Ag  Ag28  1  0.00000000  0.00000000  0.00000000  1
  Ag  Ag29  1  0.50000000  0.00000000  0.00000000  1
  Ag  Ag30  1  0.15974200  0.89892600  0.54215400  1
  Ag  Ag31  1  0.65974200  0.10107400  0.45784600  1
  Ag  Ag32  1  0.84025800  0.10107400  0.45784600  1
  Ag  Ag33  1  0.34025800  0.89892600  0.54215400  1
  Ag  Ag34  1  0.04902800  0.68578100  0.78875500  1
  Ag  Ag35  1  0.33829300  0.94612600  0.86985400  1
  S  S36  1  0.13465600  0.63261700  0.45505200  1
  S  S37  1  0.63465600  0.36738300  0.54494800  1
  S  S38  1  0.86534400  0.36738300  0.54494800  1
  S  S39  1  0.36534400  0.63261700  0.45505200  1
  S  S40  1  0.84652100  0.39450600  0.02747300  1
  S  S41  1  0.34652100  0.60549400  0.97252700  1
  S  S42  1  0.75000000  0.87795200  0.93228100  1
  S  S43  1  0.25000000  0.12204800  0.06771900  1
  S  S44  1  0.06925100  0.22787700  0.35733300  1
  S  S45  1  0.56925100  0.77212300  0.64266700  1
  S  S46  1  0.93074900  0.77212300  0.64266700  1
  S  S47  1  0.43074900  0.22787700  0.35733300  1
  S  S48  1  0.75000000  0.90512000  0.37933400  1
  S  S49  1  0.25000000  0.09488000  0.62066600  1
  S  S50  1  0.07140800  0.23100700  0.79711900  1
  S  S51  1  0.57140800  0.76899300  0.20288100  1
  S  S52  1  0.92859200  0.76899300  0.20288100  1
  S  S53  1  0.42859200  0.23100700  0.79711900  1
  S  S54  1  0.15347900  0.60549400  0.97252700  1
  S  S55  1  0.65347900  0.39450600  0.02747300  1
