# generated using pymatgen
data_Dy3(CuSn)4
_symmetry_space_group_name_H-M   'P 1'
_cell_length_a   8.44270189
_cell_length_b   8.44270189
_cell_length_c   8.44270189
_cell_angle_alpha   149.32598391
_cell_angle_beta   131.33492817
_cell_angle_gamma   58.63130189
_symmetry_Int_Tables_number   1
_chemical_formula_structural   Dy3(CuSn)4
_chemical_formula_sum   'Dy3 Cu4 Sn4'
_cell_volume   228.73817705
_cell_formula_units_Z   1
loop_
 _symmetry_equiv_pos_site_id
 _symmetry_equiv_pos_as_xyz
  1  'x, y, z'
loop_
 _atom_site_type_symbol
 _atom_site_label
 _atom_site_symmetry_multiplicity
 _atom_site_fract_x
 _atom_site_fract_y
 _atom_site_fract_z
 _atom_site_occupancy
  Dy  Dy0  1  0.00000000  0.00000000  0.00000000  1
  Dy  Dy1  1  0.36874800  0.86874800  0.50000000  1
  Dy  Dy2  1  0.63125200  0.13125200  0.50000000  1
  Cu  Cu3  1  0.01761300  0.32940000  0.68821400  1
  Cu  Cu4  1  0.98238700  0.67060000  0.31178600  1
  Cu  Cu5  1  0.64118600  0.32940000  0.31178600  1
  Cu  Cu6  1  0.35881400  0.67060000  0.68821400  1
  Sn  Sn7  1  0.21614900  0.21614900  0.00000000  1
  Sn  Sn8  1  0.70295100  0.50000000  0.20295100  1
  Sn  Sn9  1  0.29704900  0.50000000  0.79704900  1
  Sn  Sn10  1  0.78385100  0.78385100  0.00000000  1
