# generated using pymatgen
data_TaNiGe
_symmetry_space_group_name_H-M   'P 1'
_cell_length_a   3.77406300
_cell_length_b   6.29771000
_cell_length_c   7.21973000
_cell_angle_alpha   90.00000000
_cell_angle_beta   90.00000000
_cell_angle_gamma   90.00000000
_symmetry_Int_Tables_number   1
_chemical_formula_structural   TaNiGe
_chemical_formula_sum   'Ta4 Ni4 Ge4'
_cell_volume   171.59821267
_cell_formula_units_Z   4
loop_
 _symmetry_equiv_pos_site_id
 _symmetry_equiv_pos_as_xyz
  1  'x, y, z'
loop_
 _atom_site_type_symbol
 _atom_site_label
 _atom_site_symmetry_multiplicity
 _atom_site_fract_x
 _atom_site_fract_y
 _atom_site_fract_z
 _atom_site_occupancy
  Ta  Ta0  1  0.25000000  0.51701900  0.32411600  1
  Ta  Ta1  1  0.25000000  0.01701900  0.17588400  1
  Ta  Ta2  1  0.75000000  0.98298100  0.82411600  1
  Ta  Ta3  1  0.75000000  0.48298100  0.67588400  1
  Ni  Ni4  1  0.75000000  0.83872600  0.42883700  1
  Ni  Ni5  1  0.25000000  0.16127400  0.57116300  1
  Ni  Ni6  1  0.75000000  0.33872600  0.07116300  1
  Ni  Ni7  1  0.25000000  0.66127400  0.92883700  1
  Ge  Ge8  1  0.75000000  0.71739500  0.11589100  1
  Ge  Ge9  1  0.25000000  0.78260500  0.61589100  1
  Ge  Ge10  1  0.25000000  0.28260500  0.88410900  1
  Ge  Ge11  1  0.75000000  0.21739500  0.38410900  1
