# generated using pymatgen
data_KTa5O13
_symmetry_space_group_name_H-M   'P 1'
_cell_length_a   5.73219300
_cell_length_b   10.85301900
_cell_length_c   17.02449200
_cell_angle_alpha   90.00000000
_cell_angle_beta   90.00000000
_cell_angle_gamma   90.00000000
_symmetry_Int_Tables_number   1
_chemical_formula_structural   KTa5O13
_chemical_formula_sum   'K4 Ta20 O52'
_cell_volume   1059.12087869
_cell_formula_units_Z   4
loop_
 _symmetry_equiv_pos_site_id
 _symmetry_equiv_pos_as_xyz
  1  'x, y, z'
loop_
 _atom_site_type_symbol
 _atom_site_label
 _atom_site_symmetry_multiplicity
 _atom_site_fract_x
 _atom_site_fract_y
 _atom_site_fract_z
 _atom_site_occupancy
  K  K0  1  0.79700100  0.32552700  0.75000000  1
  K  K1  1  0.79700100  0.17447300  0.25000000  1
  K  K2  1  0.20299900  0.82552700  0.75000000  1
  K  K3  1  0.20299900  0.67447300  0.25000000  1
  Ta  Ta4  1  0.33471400  0.75000000  0.50000000  1
  Ta  Ta5  1  0.66528600  0.25000000  0.00000000  1
  Ta  Ta6  1  0.66528600  0.25000000  0.50000000  1
  Ta  Ta7  1  0.33471400  0.75000000  0.00000000  1
  Ta  Ta8  1  0.34550600  0.36666400  0.36310800  1
  Ta  Ta9  1  0.34550600  0.13333600  0.63689200  1
  Ta  Ta10  1  0.65449400  0.86666400  0.13689200  1
  Ta  Ta11  1  0.65449400  0.63333600  0.86310800  1
  Ta  Ta12  1  0.65449400  0.63333600  0.63689200  1
  Ta  Ta13  1  0.65449400  0.86666400  0.36310800  1
  Ta  Ta14  1  0.34550600  0.13333600  0.86310800  1
  Ta  Ta15  1  0.34550600  0.36666400  0.13689200  1
  Ta  Ta16  1  0.16070600  0.06350300  0.42414900  1
  Ta  Ta17  1  0.16070600  0.43649700  0.57585100  1
  Ta  Ta18  1  0.83929400  0.56350300  0.07585100  1
  Ta  Ta19  1  0.83929400  0.93649700  0.92414900  1
  Ta  Ta20  1  0.83929400  0.93649700  0.57585100  1
  Ta  Ta21  1  0.83929400  0.56350300  0.42414900  1
  Ta  Ta22  1  0.16070600  0.43649700  0.92414900  1
  Ta  Ta23  1  0.16070600  0.06350300  0.07585100  1
  O  O24  1  0.39980900  0.74796700  0.38856600  1
  O  O25  1  0.39980900  0.75203300  0.61143400  1
  O  O26  1  0.60019100  0.24796700  0.11143400  1
  O  O27  1  0.60019100  0.25203300  0.88856600  1
  O  O28  1  0.60019100  0.25203300  0.61143400  1
  O  O29  1  0.60019100  0.24796700  0.38856600  1
  O  O30  1  0.39980900  0.75203300  0.88856600  1
  O  O31  1  0.39980900  0.74796700  0.11143400  1
  O  O32  1  0.40795000  0.99515700  0.36536100  1
  O  O33  1  0.40795000  0.50484300  0.63463900  1
  O  O34  1  0.59205000  0.49515700  0.13463900  1
  O  O35  1  0.59205000  0.00484300  0.86536100  1
  O  O36  1  0.59205000  0.00484300  0.63463900  1
  O  O37  1  0.59205000  0.49515700  0.36536100  1
  O  O38  1  0.40795000  0.50484300  0.86536100  1
  O  O39  1  0.40795000  0.99515700  0.13463900  1
  O  O40  1  0.36024300  0.37461800  0.48733100  1
  O  O41  1  0.36024300  0.12538200  0.51266900  1
  O  O42  1  0.63373100  0.65142800  0.75000000  1
  O  O43  1  0.63975700  0.87461800  0.01266900  1
  O  O44  1  0.63975700  0.62538200  0.51266900  1
  O  O45  1  0.63975700  0.87461800  0.48733100  1
  O  O46  1  0.36024300  0.12538200  0.98733100  1
  O  O47  1  0.36024300  0.37461800  0.01266900  1
  O  O48  1  0.08944700  0.48267200  0.13624800  1
  O  O49  1  0.08944700  0.01732800  0.86375200  1
  O  O50  1  0.91055300  0.98267200  0.36375200  1
  O  O51  1  0.91055300  0.51732800  0.63624800  1
  O  O52  1  0.91055300  0.51732800  0.86375200  1
  O  O53  1  0.91055300  0.98267200  0.13624800  1
  O  O54  1  0.08944700  0.01732800  0.63624800  1
  O  O55  1  0.08944700  0.48267200  0.36375200  1
  O  O56  1  0.13539800  0.21752400  0.12671400  1
  O  O57  1  0.13539800  0.28247600  0.87328600  1
  O  O58  1  0.86460200  0.71752400  0.37328600  1
  O  O59  1  0.86460200  0.78247600  0.62671400  1
  O  O60  1  0.86460200  0.78247600  0.87328600  1
  O  O61  1  0.86460200  0.71752400  0.12671400  1
  O  O62  1  0.13539800  0.28247600  0.62671400  1
  O  O63  1  0.13539800  0.21752400  0.37328600  1
  O  O64  1  0.12967900  0.60670400  0.99689700  1
  O  O65  1  0.12967900  0.89329600  0.00310300  1
  O  O66  1  0.87032100  0.10670400  0.50310300  1
  O  O67  1  0.87032100  0.39329600  0.49689700  1
  O  O68  1  0.87032100  0.39329600  0.00310300  1
  O  O69  1  0.87032100  0.10670400  0.99689700  1
  O  O70  1  0.12967900  0.89329600  0.49689700  1
  O  O71  1  0.12967900  0.60670400  0.50310300  1
  O  O72  1  0.36626900  0.34857200  0.25000000  1
  O  O73  1  0.36626900  0.15142800  0.75000000  1
  O  O74  1  0.63373100  0.84857200  0.25000000  1
  O  O75  1  0.63975700  0.62538200  0.98733100  1
