# generated using pymatgen
data_PCl3
_symmetry_space_group_name_H-M   'P 1'
_cell_length_a   6.52315200
_cell_length_b   8.98753300
_cell_length_c   10.07448500
_cell_angle_alpha   90.00000000
_cell_angle_beta   90.00000000
_cell_angle_gamma   90.00000000
_symmetry_Int_Tables_number   1
_chemical_formula_structural   PCl3
_chemical_formula_sum   'P4 Cl12'
_cell_volume   590.63727400
_cell_formula_units_Z   4
loop_
 _symmetry_equiv_pos_site_id
 _symmetry_equiv_pos_as_xyz
  1  'x, y, z'
loop_
 _atom_site_type_symbol
 _atom_site_label
 _atom_site_symmetry_multiplicity
 _atom_site_fract_x
 _atom_site_fract_y
 _atom_site_fract_z
 _atom_site_occupancy
  P  P0  1  0.92372800  0.97250100  0.75000000  1
  P  P1  1  0.42372800  0.52749900  0.25000000  1
  P  P2  1  0.57627200  0.47250100  0.75000000  1
  P  P3  1  0.07627200  0.02749900  0.25000000  1
  Cl  Cl4  1  0.74475100  0.90285800  0.90788500  1
  Cl  Cl5  1  0.24475100  0.59714200  0.09211500  1
  Cl  Cl6  1  0.75524900  0.40285800  0.59211500  1
  Cl  Cl7  1  0.25524900  0.09714200  0.40788500  1
  Cl  Cl8  1  0.85133800  0.19007600  0.25000000  1
  Cl  Cl9  1  0.35133800  0.30992400  0.75000000  1
  Cl  Cl10  1  0.64866200  0.69007600  0.25000000  1
  Cl  Cl11  1  0.14866200  0.80992400  0.75000000  1
  Cl  Cl12  1  0.74475100  0.90285800  0.59211500  1
  Cl  Cl13  1  0.24475100  0.59714200  0.40788500  1
  Cl  Cl14  1  0.75524900  0.40285800  0.90788500  1
  Cl  Cl15  1  0.25524900  0.09714200  0.09211500  1
