# generated using pymatgen
data_Ce2S3
_symmetry_space_group_name_H-M   'P 1'
_cell_length_a   4.03947200
_cell_length_b   7.45547400
_cell_length_c   15.45685900
_cell_angle_alpha   90.00000000
_cell_angle_beta   90.00000000
_cell_angle_gamma   90.00000000
_symmetry_Int_Tables_number   1
_chemical_formula_structural   Ce2S3
_chemical_formula_sum   'Ce8 S12'
_cell_volume   465.50152423
_cell_formula_units_Z   4
loop_
 _symmetry_equiv_pos_site_id
 _symmetry_equiv_pos_as_xyz
  1  'x, y, z'
loop_
 _atom_site_type_symbol
 _atom_site_label
 _atom_site_symmetry_multiplicity
 _atom_site_fract_x
 _atom_site_fract_y
 _atom_site_fract_z
 _atom_site_occupancy
  Ce  Ce0  1  0.25000000  0.25934700  0.04281300  1
  Ce  Ce1  1  0.75000000  0.74065300  0.95718700  1
  Ce  Ce2  1  0.25000000  0.75934700  0.45718700  1
  Ce  Ce3  1  0.75000000  0.24065300  0.54281300  1
  Ce  Ce4  1  0.25000000  0.13721800  0.79330000  1
  Ce  Ce5  1  0.75000000  0.86278200  0.20670000  1
  Ce  Ce6  1  0.25000000  0.63721800  0.70670000  1
  Ce  Ce7  1  0.75000000  0.36278200  0.29330000  1
  S  S8  1  0.25000000  0.14742300  0.22018600  1
  S  S9  1  0.75000000  0.85257700  0.77981400  1
  S  S10  1  0.25000000  0.64742300  0.27981400  1
  S  S11  1  0.75000000  0.35257700  0.72018600  1
  S  S12  1  0.25000000  0.37043200  0.43153500  1
  S  S13  1  0.75000000  0.62956800  0.56846500  1
  S  S14  1  0.25000000  0.87043200  0.06846500  1
  S  S15  1  0.75000000  0.12956800  0.93153500  1
  S  S16  1  0.75000000  0.48889700  0.10750600  1
  S  S17  1  0.25000000  0.51110300  0.89249400  1
  S  S18  1  0.75000000  0.98889700  0.39249400  1
  S  S19  1  0.25000000  0.01110300  0.60750600  1
