# generated using pymatgen
data_LiGa5O8
_symmetry_space_group_name_H-M   'P 1'
_cell_length_a   8.32254200
_cell_length_b   8.32254200
_cell_length_c   8.32254200
_cell_angle_alpha   90.00000000
_cell_angle_beta   90.00000000
_cell_angle_gamma   90.00000000
_symmetry_Int_Tables_number   1
_chemical_formula_structural   LiGa5O8
_chemical_formula_sum   'Li4 Ga20 O32'
_cell_volume   576.45841932
_cell_formula_units_Z   4
loop_
 _symmetry_equiv_pos_site_id
 _symmetry_equiv_pos_as_xyz
  1  'x, y, z'
loop_
 _atom_site_type_symbol
 _atom_site_label
 _atom_site_symmetry_multiplicity
 _atom_site_fract_x
 _atom_site_fract_y
 _atom_site_fract_z
 _atom_site_occupancy
  Li  Li0  1  0.62500000  0.62500000  0.62500000  1
  Li  Li1  1  0.37500000  0.12500000  0.87500000  1
  Li  Li2  1  0.87500000  0.37500000  0.12500000  1
  Li  Li3  1  0.12500000  0.87500000  0.37500000  1
  Ga  Ga4  1  0.12500000  0.36594800  0.88405200  1
  Ga  Ga5  1  0.25319800  0.25319800  0.25319800  1
  Ga  Ga6  1  0.00319800  0.49680200  0.50319800  1
  Ga  Ga7  1  0.49680200  0.50319800  0.00319800  1
  Ga  Ga8  1  0.50319800  0.00319800  0.49680200  1
  Ga  Ga9  1  0.75319800  0.24680200  0.74680200  1
  Ga  Ga10  1  0.24680200  0.74680200  0.75319800  1
  Ga  Ga11  1  0.74680200  0.75319800  0.24680200  1
  Ga  Ga12  1  0.99680200  0.99680200  0.99680200  1
  Ga  Ga13  1  0.62500000  0.13405200  0.11594800  1
  Ga  Ga14  1  0.61594800  0.87500000  0.86594800  1
  Ga  Ga15  1  0.63405200  0.38405200  0.37500000  1
  Ga  Ga16  1  0.36594800  0.88405200  0.12500000  1
  Ga  Ga17  1  0.88405200  0.12500000  0.36594800  1
  Ga  Ga18  1  0.11594800  0.62500000  0.13405200  1
  Ga  Ga19  1  0.38405200  0.37500000  0.63405200  1
  Ga  Ga20  1  0.86594800  0.61594800  0.87500000  1
  Ga  Ga21  1  0.13405200  0.11594800  0.62500000  1
  Ga  Ga22  1  0.37500000  0.63405200  0.38405200  1
  Ga  Ga23  1  0.87500000  0.86594800  0.61594800  1
  O  O24  1  0.87272800  0.88421900  0.38168000  1
  O  O25  1  0.13168000  0.86578100  0.12272800  1
  O  O26  1  0.63168000  0.63421900  0.87727200  1
  O  O27  1  0.86578100  0.12272800  0.13168000  1
  O  O28  1  0.13421900  0.62272800  0.36832000  1
  O  O29  1  0.12272800  0.13168000  0.86578100  1
  O  O30  1  0.37727200  0.86832000  0.36578100  1
  O  O31  1  0.38168000  0.87272800  0.88421900  1
  O  O32  1  0.88168000  0.62727200  0.11578100  1
  O  O33  1  0.61832000  0.37272800  0.61578100  1
  O  O34  1  0.62727200  0.11578100  0.88168000  1
  O  O35  1  0.61578100  0.61832000  0.37272800  1
  O  O36  1  0.11578100  0.88168000  0.62727200  1
  O  O37  1  0.11333000  0.61333000  0.88667000  1
  O  O38  1  0.88421900  0.38168000  0.87272800  1
  O  O39  1  0.37272800  0.61578100  0.61832000  1
  O  O40  1  0.12727200  0.38421900  0.11832000  1
  O  O41  1  0.38421900  0.11832000  0.12727200  1
  O  O42  1  0.87727200  0.63168000  0.63421900  1
  O  O43  1  0.62272800  0.36832000  0.13421900  1
  O  O44  1  0.38667000  0.38667000  0.38667000  1
  O  O45  1  0.13667000  0.36333000  0.63667000  1
  O  O46  1  0.63667000  0.13667000  0.36333000  1
  O  O47  1  0.36333000  0.63667000  0.13667000  1
  O  O48  1  0.61333000  0.88667000  0.11333000  1
  O  O49  1  0.88667000  0.11333000  0.61333000  1
  O  O50  1  0.63421900  0.87727200  0.63168000  1
  O  O51  1  0.86333000  0.86333000  0.86333000  1
  O  O52  1  0.11832000  0.12727200  0.38421900  1
  O  O53  1  0.86832000  0.36578100  0.37727200  1
  O  O54  1  0.36832000  0.13421900  0.62272800  1
  O  O55  1  0.36578100  0.37727200  0.86832000  1
