# generated using pymatgen
data_FeBr3
_symmetry_space_group_name_H-M   'P 1'
_cell_length_a   7.38330554
_cell_length_b   7.38330554
_cell_length_c   7.38330573
_cell_angle_alpha   50.64566099
_cell_angle_beta   50.64566099
_cell_angle_gamma   50.64565673
_symmetry_Int_Tables_number   1
_chemical_formula_structural   FeBr3
_chemical_formula_sum   'Fe2 Br6'
_cell_volume   221.78959629
_cell_formula_units_Z   2
loop_
 _symmetry_equiv_pos_site_id
 _symmetry_equiv_pos_as_xyz
  1  'x, y, z'
loop_
 _atom_site_type_symbol
 _atom_site_label
 _atom_site_symmetry_multiplicity
 _atom_site_fract_x
 _atom_site_fract_y
 _atom_site_fract_z
 _atom_site_occupancy
  Fe  Fe0  1  0.33342600  0.33342600  0.33342600  1
  Fe  Fe1  1  0.66657400  0.66657400  0.66657400  1
  Br  Br2  1  0.44140500  0.70167700  0.07134400  1
  Br  Br3  1  0.70167700  0.07134400  0.44140500  1
  Br  Br4  1  0.07134400  0.44140500  0.70167700  1
  Br  Br5  1  0.55859500  0.29832300  0.92865600  1
  Br  Br6  1  0.29832300  0.92865600  0.55859500  1
  Br  Br7  1  0.92865600  0.55859500  0.29832300  1
