# generated using pymatgen
data_Yb(FeSi)2
_symmetry_space_group_name_H-M   'P 1'
_cell_length_a   5.51461541
_cell_length_b   5.51461541
_cell_length_c   5.51461541
_cell_angle_alpha   137.70233818
_cell_angle_beta   137.70233818
_cell_angle_gamma   61.35918855
_symmetry_Int_Tables_number   1
_chemical_formula_structural   Yb(FeSi)2
_chemical_formula_sum   'Yb1 Fe2 Si2'
_cell_volume   75.09908286
_cell_formula_units_Z   1
loop_
 _symmetry_equiv_pos_site_id
 _symmetry_equiv_pos_as_xyz
  1  'x, y, z'
loop_
 _atom_site_type_symbol
 _atom_site_label
 _atom_site_symmetry_multiplicity
 _atom_site_fract_x
 _atom_site_fract_y
 _atom_site_fract_z
 _atom_site_occupancy
  Yb  Yb0  1  0.00000000  0.00000000  0.00000000  1
  Fe  Fe1  1  0.75000000  0.25000000  0.50000000  1
  Fe  Fe2  1  0.25000000  0.75000000  0.50000000  1
  Si  Si3  1  0.63661200  0.63661200  0.00000000  1
  Si  Si4  1  0.36338800  0.36338800  0.00000000  1
