# generated using pymatgen
data_V2Co2O7
_symmetry_space_group_name_H-M   'P 1'
_cell_length_a   8.46762100
_cell_length_b   6.69384000
_cell_length_c   9.58176091
_cell_angle_alpha   79.67083872
_cell_angle_beta   90.00000000
_cell_angle_gamma   90.00000000
_symmetry_Int_Tables_number   1
_chemical_formula_structural   V2Co2O7
_chemical_formula_sum   'V8 Co8 O28'
_cell_volume   534.30125833
_cell_formula_units_Z   4
loop_
 _symmetry_equiv_pos_site_id
 _symmetry_equiv_pos_as_xyz
  1  'x, y, z'
loop_
 _atom_site_type_symbol
 _atom_site_label
 _atom_site_symmetry_multiplicity
 _atom_site_fract_x
 _atom_site_fract_y
 _atom_site_fract_z
 _atom_site_occupancy
  V  V0  1  0.25862700  0.63919300  0.03100100  1
  V  V1  1  0.75862700  0.36080700  0.46899900  1
  V  V2  1  0.74137300  0.36080700  0.96899900  1
  V  V3  1  0.24137300  0.63919300  0.53100100  1
  V  V4  1  0.51854700  0.80591900  0.31362000  1
  V  V5  1  0.01854700  0.19408100  0.18638000  1
  V  V6  1  0.48145300  0.19408100  0.68638000  1
  V  V7  1  0.98145300  0.80591900  0.81362000  1
  Co  Co8  1  0.62132600  0.85380700  0.96339900  1
  Co  Co9  1  0.12132600  0.14619300  0.53660100  1
  Co  Co10  1  0.37867400  0.14619300  0.03660100  1
  Co  Co11  1  0.87867400  0.85380700  0.46339900  1
  Co  Co12  1  0.88731200  0.69415800  0.18024000  1
  Co  Co13  1  0.38731200  0.30584200  0.31976000  1
  Co  Co14  1  0.11268800  0.30584200  0.81976000  1
  Co  Co15  1  0.61268800  0.69415800  0.68024000  1
  O  O16  1  0.63138100  0.39345800  0.62357700  1
  O  O17  1  0.13138100  0.60654200  0.87642300  1
  O  O18  1  0.36861900  0.60654200  0.37642300  1
  O  O19  1  0.86861900  0.39345800  0.12357700  1
  O  O20  1  0.62851500  0.57208200  0.89603200  1
  O  O21  1  0.12851500  0.42791800  0.60396800  1
  O  O22  1  0.37148500  0.42791800  0.10396800  1
  O  O23  1  0.87148500  0.57208200  0.39603200  1
  O  O24  1  0.86877600  0.82823600  0.96002000  1
  O  O25  1  0.36877600  0.17176400  0.53998000  1
  O  O26  1  0.13122400  0.17176400  0.03998000  1
  O  O27  1  0.63122400  0.82823600  0.46002000  1
  O  O28  1  0.85850900  0.74616900  0.68168200  1
  O  O29  1  0.35850900  0.25383100  0.81831800  1
  O  O30  1  0.14149100  0.25383100  0.31831800  1
  O  O31  1  0.64149100  0.74616900  0.18168200  1
  O  O32  1  0.87695900  0.32060200  0.84869900  1
  O  O33  1  0.37695900  0.67939800  0.65130100  1
  O  O34  1  0.12304100  0.67939800  0.15130100  1
  O  O35  1  0.62304100  0.32060200  0.34869900  1
  O  O36  1  0.58237900  0.97054000  0.74747200  1
  O  O37  1  0.08237900  0.02946000  0.75252800  1
  O  O38  1  0.41762100  0.02946000  0.25252800  1
  O  O39  1  0.91762100  0.97054000  0.24747200  1
  O  O40  1  0.87895800  0.14678800  0.50562500  1
  O  O41  1  0.37895800  0.85321200  0.99437500  1
  O  O42  1  0.12104200  0.85321200  0.49437500  1
  O  O43  1  0.62104200  0.14678800  0.00562500  1
