# generated using pymatgen
data_Ca2B6O11
_symmetry_space_group_name_H-M   'P 1'
_cell_length_a   10.82059400
_cell_length_b   8.65754800
_cell_length_c   8.76008853
_cell_angle_alpha   68.44981476
_cell_angle_beta   90.00000000
_cell_angle_gamma   90.00000000
_symmetry_Int_Tables_number   1
_chemical_formula_structural   Ca2B6O11
_chemical_formula_sum   'Ca8 B24 O44'
_cell_volume   763.27734577
_cell_formula_units_Z   4
loop_
 _symmetry_equiv_pos_site_id
 _symmetry_equiv_pos_as_xyz
  1  'x, y, z'
loop_
 _atom_site_type_symbol
 _atom_site_label
 _atom_site_symmetry_multiplicity
 _atom_site_fract_x
 _atom_site_fract_y
 _atom_site_fract_z
 _atom_site_occupancy
  Ca  Ca0  1  0.16110900  0.41505800  0.36174700  1
  Ca  Ca1  1  0.66110900  0.58494200  0.13825300  1
  Ca  Ca2  1  0.83889100  0.58494200  0.63825300  1
  Ca  Ca3  1  0.33889100  0.41505800  0.86174700  1
  Ca  Ca4  1  0.49170300  0.02431900  0.22082500  1
  Ca  Ca5  1  0.99170300  0.97568100  0.27917500  1
  Ca  Ca6  1  0.50829700  0.97568100  0.77917500  1
  Ca  Ca7  1  0.00829700  0.02431900  0.72082500  1
  B  B8  1  0.08024900  0.41567300  0.73337100  1
  B  B9  1  0.06380900  0.28758400  0.03872200  1
  B  B10  1  0.56380900  0.71241600  0.46127800  1
  B  B11  1  0.93619100  0.71241600  0.96127800  1
  B  B12  1  0.43619100  0.28758400  0.53872200  1
  B  B13  1  0.34426100  0.71427300  0.10164200  1
  B  B14  1  0.84426100  0.28572700  0.39835800  1
  B  B15  1  0.65573900  0.28572700  0.89835800  1
  B  B16  1  0.15573900  0.71427300  0.60164200  1
  B  B17  1  0.58024900  0.58432700  0.76662900  1
  B  B18  1  0.91975100  0.58432700  0.26662900  1
  B  B19  1  0.41975100  0.41567300  0.23337100  1
  B  B20  1  0.25004700  0.00821200  0.51292300  1
  B  B21  1  0.75004700  0.99178800  0.98707700  1
  B  B22  1  0.74995300  0.99178800  0.48707700  1
  B  B23  1  0.24995300  0.00821200  0.01292300  1
  B  B24  1  0.38438500  0.75901000  0.62093200  1
  B  B25  1  0.88438500  0.24099000  0.87906800  1
  B  B26  1  0.61561500  0.24099000  0.37906800  1
  B  B27  1  0.11561500  0.75901000  0.12093200  1
  B  B28  1  0.23750900  0.19525500  0.69354900  1
  B  B29  1  0.73750900  0.80474500  0.80645100  1
  B  B30  1  0.76249100  0.80474500  0.30645100  1
  B  B31  1  0.26249100  0.19525500  0.19354900  1
  O  O32  1  0.70095000  0.92939800  0.65329500  1
  O  O33  1  0.19472800  0.14172700  0.55782300  1
  O  O34  1  0.69472800  0.85827300  0.94217700  1
  O  O35  1  0.80527200  0.85827300  0.44217700  1
  O  O36  1  0.30527200  0.14172700  0.05782300  1
  O  O37  1  0.13499600  0.88492500  0.53028000  1
  O  O38  1  0.63499600  0.11507500  0.96972000  1
  O  O39  1  0.86500400  0.11507500  0.46972000  1
  O  O40  1  0.37615300  0.22487400  0.69065500  1
  O  O41  1  0.87615300  0.77512600  0.80934500  1
  O  O42  1  0.62384700  0.77512600  0.30934500  1
  O  O43  1  0.12384700  0.22487400  0.19065500  1
  O  O44  1  0.46438100  0.67294200  0.76405900  1
  O  O45  1  0.96438100  0.32705800  0.73594100  1
  O  O46  1  0.53561900  0.32705800  0.23594100  1
  O  O47  1  0.03561900  0.67294200  0.26405900  1
  O  O48  1  0.17950500  0.36048000  0.65397600  1
  O  O49  1  0.67950500  0.63952000  0.84602400  1
  O  O50  1  0.82049500  0.63952000  0.34602400  1
  O  O51  1  0.32049500  0.36048000  0.15397600  1
  O  O52  1  0.11980700  0.39857500  0.90292400  1
  O  O53  1  0.61980700  0.60142500  0.59707600  1
  O  O54  1  0.88019300  0.60142500  0.09707600  1
  O  O55  1  0.38019300  0.39857500  0.40292400  1
  O  O56  1  0.20095000  0.07060200  0.84670500  1
  O  O57  1  0.36500400  0.88492500  0.03028000  1
  O  O58  1  0.79905000  0.92939800  0.15329500  1
  O  O59  1  0.29905000  0.07060200  0.34670500  1
  O  O60  1  0.27370500  0.65358000  0.63846600  1
  O  O61  1  0.77370500  0.34642000  0.86153400  1
  O  O62  1  0.72629500  0.34642000  0.36153400  1
  O  O63  1  0.22629500  0.65358000  0.13846600  1
  O  O64  1  0.05051400  0.77841700  0.96376300  1
  O  O65  1  0.15197900  0.91896100  0.12452500  1
  O  O66  1  0.94948600  0.22158300  0.03623700  1
  O  O67  1  0.44948600  0.77841700  0.46376300  1
  O  O68  1  0.05895000  0.60096800  0.63844000  1
  O  O69  1  0.55895000  0.39903200  0.86156000  1
  O  O70  1  0.94105000  0.39903200  0.36156000  1
  O  O71  1  0.44105000  0.60096800  0.13844000  1
  O  O72  1  0.34802100  0.91896100  0.62452500  1
  O  O73  1  0.84802100  0.08103900  0.87547500  1
  O  O74  1  0.65197900  0.08103900  0.37547500  1
  O  O75  1  0.55051400  0.22158300  0.53623700  1
