# generated using pymatgen
data_CsCuCl3
_symmetry_space_group_name_H-M   'P 1'
_cell_length_a   7.37954574
_cell_length_b   7.37954574
_cell_length_c   18.49081500
_cell_angle_alpha   90.00000000
_cell_angle_beta   90.00000000
_cell_angle_gamma   119.99999764
_symmetry_Int_Tables_number   1
_chemical_formula_structural   CsCuCl3
_chemical_formula_sum   'Cs6 Cu6 Cl18'
_cell_volume   872.05916961
_cell_formula_units_Z   6
loop_
 _symmetry_equiv_pos_site_id
 _symmetry_equiv_pos_as_xyz
  1  'x, y, z'
loop_
 _atom_site_type_symbol
 _atom_site_label
 _atom_site_symmetry_multiplicity
 _atom_site_fract_x
 _atom_site_fract_y
 _atom_site_fract_z
 _atom_site_occupancy
  Cs  Cs0  1  0.64602100  0.29204100  0.75000000  1
  Cs  Cs1  1  0.35397900  0.64602100  0.91666700  1
  Cs  Cs2  1  0.29204100  0.64602100  0.58333300  1
  Cs  Cs3  1  0.70795900  0.35397900  0.08333300  1
  Cs  Cs4  1  0.64602100  0.35397900  0.41666700  1
  Cs  Cs5  1  0.35397900  0.70795900  0.25000000  1
  Cu  Cu6  1  0.93257600  0.00000000  0.50000000  1
  Cu  Cu7  1  0.93257600  0.93257600  0.66666700  1
  Cu  Cu8  1  0.00000000  0.06742400  0.33333300  1
  Cu  Cu9  1  0.00000000  0.93257600  0.83333300  1
  Cu  Cu10  1  0.06742400  0.06742400  0.16666700  1
  Cu  Cu11  1  0.06742400  0.00000000  0.00000000  1
  Cl  Cl12  1  0.35906100  0.14792200  0.92721800  1
  Cl  Cl13  1  0.85207800  0.21113900  0.26055200  1
  Cl  Cl14  1  0.78886100  0.64093900  0.59388500  1
  Cl  Cl15  1  0.21113900  0.35906100  0.09388500  1
  Cl  Cl16  1  0.64093900  0.78886100  0.73944800  1
  Cl  Cl17  1  0.64093900  0.85207800  0.42721800  1
  Cl  Cl18  1  0.14792200  0.78886100  0.76055200  1
  Cl  Cl19  1  0.85207800  0.64093900  0.90611500  1
  Cl  Cl20  1  0.78886100  0.14792200  0.57278200  1
  Cl  Cl21  1  0.21113900  0.85207800  0.07278200  1
  Cl  Cl22  1  0.14792200  0.35906100  0.40611500  1
  Cl  Cl23  1  0.35906100  0.21113900  0.23944800  1
  Cl  Cl24  1  0.89575700  0.79151500  0.25000000  1
  Cl  Cl25  1  0.10424300  0.89575700  0.41666700  1
  Cl  Cl26  1  0.79151500  0.89575700  0.08333300  1
  Cl  Cl27  1  0.20848500  0.10424300  0.58333300  1
  Cl  Cl28  1  0.89575700  0.10424300  0.91666700  1
  Cl  Cl29  1  0.10424300  0.20848500  0.75000000  1
