# generated using pymatgen
data_BiF5
_symmetry_space_group_name_H-M   'P 1'
_cell_length_a   5.35329768
_cell_length_b   5.35329768
_cell_length_c   5.35329768
_cell_angle_alpha   99.52333245
_cell_angle_beta   99.52333245
_cell_angle_gamma   131.99775822
_symmetry_Int_Tables_number   1
_chemical_formula_structural   BiF5
_chemical_formula_sum   'Bi1 F5'
_cell_volume   104.15480693
_cell_formula_units_Z   1
loop_
 _symmetry_equiv_pos_site_id
 _symmetry_equiv_pos_as_xyz
  1  'x, y, z'
loop_
 _atom_site_type_symbol
 _atom_site_label
 _atom_site_symmetry_multiplicity
 _atom_site_fract_x
 _atom_site_fract_y
 _atom_site_fract_z
 _atom_site_occupancy
  Bi  Bi0  1  0.00000000  0.00000000  0.00000000  1
  F  F1  1  0.09359800  0.27543500  0.36903300  1
  F  F2  1  0.50000000  0.50000000  0.00000000  1
  F  F3  1  0.90640200  0.72456500  0.63096700  1
  F  F4  1  0.72456500  0.09359800  0.81816400  1
  F  F5  1  0.27543500  0.90640200  0.18183600  1
