# generated using pymatgen
data_GaP3(HO5)2
_symmetry_space_group_name_H-M   'P 1'
_cell_length_a   8.81575300
_cell_length_b   7.44596300
_cell_length_c   12.51583807
_cell_angle_alpha   67.22663106
_cell_angle_beta   90.00000000
_cell_angle_gamma   90.00000000
_symmetry_Int_Tables_number   1
_chemical_formula_structural   GaP3(HO5)2
_chemical_formula_sum   'Ga4 P12 H8 O40'
_cell_volume   757.51542013
_cell_formula_units_Z   4
loop_
 _symmetry_equiv_pos_site_id
 _symmetry_equiv_pos_as_xyz
  1  'x, y, z'
loop_
 _atom_site_type_symbol
 _atom_site_label
 _atom_site_symmetry_multiplicity
 _atom_site_fract_x
 _atom_site_fract_y
 _atom_site_fract_z
 _atom_site_occupancy
  Ga  Ga0  1  0.93347100  0.25045600  0.20545900  1
  Ga  Ga1  1  0.43347100  0.74954400  0.29454100  1
  Ga  Ga2  1  0.06652900  0.74954400  0.79454100  1
  Ga  Ga3  1  0.56652900  0.25045600  0.70545900  1
  P  P4  1  0.88135200  0.70252900  0.02450300  1
  P  P5  1  0.38135200  0.29747100  0.47549700  1
  P  P6  1  0.11864800  0.29747100  0.97549700  1
  P  P7  1  0.61864800  0.70252900  0.52450300  1
  P  P8  1  0.11272600  0.64124200  0.20778300  1
  P  P9  1  0.61272600  0.35875800  0.29221700  1
  P  P10  1  0.88727400  0.35875800  0.79221700  1
  P  P11  1  0.38727400  0.64124200  0.70778300  1
  P  P12  1  0.11080600  0.85775300  0.36241600  1
  P  P13  1  0.61080600  0.14224700  0.13758400  1
  P  P14  1  0.88919400  0.14224700  0.63758400  1
  P  P15  1  0.38919400  0.85775300  0.86241600  1
  H  H16  1  0.67942300  0.74007200  0.11404700  1
  H  H17  1  0.17942300  0.25992800  0.38595300  1
  H  H18  1  0.32057700  0.25992800  0.88595300  1
  H  H19  1  0.82057700  0.74007200  0.61404700  1
  H  H20  1  0.14193100  0.72828300  0.55437200  1
  H  H21  1  0.64193100  0.27171700  0.94562800  1
  H  H22  1  0.85806900  0.27171700  0.44562800  1
  H  H23  1  0.35806900  0.72828300  0.05437200  1
  O  O24  1  0.74362300  0.81576900  0.04623600  1
  O  O25  1  0.24362300  0.18423100  0.45376400  1
  O  O26  1  0.25637700  0.18423100  0.95376400  1
  O  O27  1  0.75637700  0.81576900  0.54623600  1
  O  O28  1  0.08390600  0.20663300  0.10316400  1
  O  O29  1  0.58390600  0.79336700  0.39683600  1
  O  O30  1  0.91609400  0.79336700  0.89683600  1
  O  O31  1  0.41609400  0.20663300  0.60316400  1
  O  O32  1  0.57872700  0.57548200  0.24660700  1
  O  O33  1  0.07872700  0.42451800  0.25339300  1
  O  O34  1  0.42127300  0.42451800  0.75339300  1
  O  O35  1  0.92127300  0.57548200  0.74660700  1
  O  O36  1  0.22127400  0.69771500  0.68459700  1
  O  O37  1  0.72127400  0.30228500  0.81540300  1
  O  O38  1  0.77872600  0.30228500  0.31540300  1
  O  O39  1  0.27872600  0.69771500  0.18459700  1
  O  O40  1  0.85582700  0.48449800  0.07831300  1
  O  O41  1  0.35582700  0.51550200  0.42168700  1
  O  O42  1  0.14417300  0.51550200  0.92168700  1
  O  O43  1  0.64417300  0.48449800  0.57831300  1
  O  O44  1  0.77587000  0.09678600  0.17101600  1
  O  O45  1  0.27587000  0.90321400  0.32898400  1
  O  O46  1  0.22413000  0.90321400  0.82898400  1
  O  O47  1  0.72413000  0.09678600  0.67101600  1
  O  O48  1  0.01010500  0.03444000  0.33597700  1
  O  O49  1  0.51010500  0.96556000  0.16402300  1
  O  O50  1  0.98989500  0.96556000  0.66402300  1
  O  O51  1  0.48989500  0.03444000  0.83597700  1
  O  O52  1  0.02588200  0.75371000  0.08929000  1
  O  O53  1  0.52588200  0.24629000  0.41071000  1
  O  O54  1  0.97411800  0.24629000  0.91071000  1
  O  O55  1  0.47411800  0.75371000  0.58929000  1
  O  O56  1  0.08411600  0.71274600  0.48976100  1
  O  O57  1  0.58411600  0.28725400  0.01023900  1
  O  O58  1  0.91588400  0.28725400  0.51023900  1
  O  O59  1  0.41588400  0.71274600  0.98976100  1
  O  O60  1  0.04137500  0.72905800  0.29390700  1
  O  O61  1  0.54137500  0.27094200  0.20609300  1
  O  O62  1  0.95862500  0.27094200  0.70609300  1
  O  O63  1  0.45862500  0.72905800  0.79390700  1
