# generated using pymatgen
data_NaZr2FeF11
_symmetry_space_group_name_H-M   'P 1'
_cell_length_a   5.77706242
_cell_length_b   5.77706242
_cell_length_c   7.93713489
_cell_angle_alpha   69.12445909
_cell_angle_beta   69.12445909
_cell_angle_gamma   73.05544680
_symmetry_Int_Tables_number   1
_chemical_formula_structural   NaZr2FeF11
_chemical_formula_sum   'Na1 Zr2 Fe1 F11'
_cell_volume   227.12057223
_cell_formula_units_Z   1
loop_
 _symmetry_equiv_pos_site_id
 _symmetry_equiv_pos_as_xyz
  1  'x, y, z'
loop_
 _atom_site_type_symbol
 _atom_site_label
 _atom_site_symmetry_multiplicity
 _atom_site_fract_x
 _atom_site_fract_y
 _atom_site_fract_z
 _atom_site_occupancy
  Na  Na0  1  0.00000000  0.00000000  0.00000000  1
  Zr  Zr1  1  0.50456700  0.50456700  0.76503000  1
  Zr  Zr2  1  0.49543300  0.49543300  0.23497000  1
  Fe  Fe3  1  0.00000000  0.00000000  0.50000000  1
  F  F4  1  0.22304400  0.80650800  0.69163000  1
  F  F5  1  0.19349200  0.77695600  0.30837000  1
  F  F6  1  0.77695600  0.19349200  0.30837000  1
  F  F7  1  0.80650800  0.22304400  0.69163000  1
  F  F8  1  0.50000000  0.50000000  0.50000000  1
  F  F9  1  0.66977500  0.33022500  0.00000000  1
  F  F10  1  0.33022500  0.66977500  0.00000000  1
  F  F11  1  0.24688200  0.24688200  0.35228500  1
  F  F12  1  0.75311800  0.75311800  0.64771500  1
  F  F13  1  0.26647800  0.26647800  0.89105400  1
  F  F14  1  0.73352200  0.73352200  0.10894600  1
