# generated using pymatgen
data_Na3AlH6
_symmetry_space_group_name_H-M   'P 1'
_cell_length_a   5.54309500
_cell_length_b   5.34582800
_cell_length_c   9.38352470
_cell_angle_alpha   55.24512261
_cell_angle_beta   90.00000000
_cell_angle_gamma   90.00000000
_symmetry_Int_Tables_number   1
_chemical_formula_structural   Na3AlH6
_chemical_formula_sum   'Na6 Al2 H12'
_cell_volume   228.45091208
_cell_formula_units_Z   2
loop_
 _symmetry_equiv_pos_site_id
 _symmetry_equiv_pos_as_xyz
  1  'x, y, z'
loop_
 _atom_site_type_symbol
 _atom_site_label
 _atom_site_symmetry_multiplicity
 _atom_site_fract_x
 _atom_site_fract_y
 _atom_site_fract_z
 _atom_site_occupancy
  Na  Na0  1  0.00000000  0.50000000  0.50000000  1
  Na  Na1  1  0.50000000  0.50000000  0.00000000  1
  Na  Na2  1  0.04692400  0.26472600  0.24605400  1
  Na  Na3  1  0.54692400  0.73527400  0.25394600  1
  Na  Na4  1  0.95307600  0.73527400  0.75394600  1
  Na  Na5  1  0.45307600  0.26472600  0.74605400  1
  Al  Al6  1  0.00000000  0.00000000  0.00000000  1
  Al  Al7  1  0.50000000  0.00000000  0.50000000  1
  H  H8  1  0.23293100  0.77591500  0.56360800  1
  H  H9  1  0.73293100  0.22408500  0.93639200  1
  H  H10  1  0.76706900  0.22408500  0.43639200  1
  H  H11  1  0.26706900  0.77591500  0.06360800  1
  H  H12  1  0.16921300  0.31537300  0.95638800  1
  H  H13  1  0.66921300  0.68462700  0.54361200  1
  H  H14  1  0.83078700  0.68462700  0.04361200  1
  H  H15  1  0.33078700  0.31537300  0.45638800  1
  H  H16  1  0.04793000  0.11621600  0.78377000  1
  H  H17  1  0.54793000  0.88378400  0.71623000  1
  H  H18  1  0.95207000  0.88378400  0.21623000  1
  H  H19  1  0.45207000  0.11621600  0.28377000  1
