# generated using pymatgen
data_SrTa2Bi2O9
_symmetry_space_group_name_H-M   'P 1'
_cell_length_a   13.06406701
_cell_length_b   13.06406701
_cell_length_c   5.61412500
_cell_angle_alpha   90.00000000
_cell_angle_beta   90.00000000
_cell_angle_gamma   155.23903634
_symmetry_Int_Tables_number   1
_chemical_formula_structural   SrTa2Bi2O9
_chemical_formula_sum   'Sr2 Ta4 Bi4 O18'
_cell_volume   401.31028744
_cell_formula_units_Z   2
loop_
 _symmetry_equiv_pos_site_id
 _symmetry_equiv_pos_as_xyz
  1  'x, y, z'
loop_
 _atom_site_type_symbol
 _atom_site_label
 _atom_site_symmetry_multiplicity
 _atom_site_fract_x
 _atom_site_fract_y
 _atom_site_fract_z
 _atom_site_occupancy
  Sr  Sr0  1  0.25066800  0.25066800  0.01661100  1
  Sr  Sr1  1  0.74933200  0.74933200  0.51661100  1
  Ta  Ta2  1  0.66954700  0.83474200  0.02210300  1
  Ta  Ta3  1  0.16525800  0.33045300  0.52210300  1
  Ta  Ta4  1  0.83474200  0.66954700  0.02210300  1
  Ta  Ta5  1  0.33045300  0.16525800  0.52210300  1
  Bi  Bi6  1  0.01514000  0.41543200  0.92674300  1
  Bi  Bi7  1  0.98486000  0.58456800  0.42674300  1
  Bi  Bi8  1  0.58456800  0.98486000  0.42674300  1
  Bi  Bi9  1  0.41543200  0.01514000  0.92674300  1
  O  O10  1  0.40045800  0.56957800  0.79605000  1
  O  O11  1  0.59954200  0.43042200  0.29605000  1
  O  O12  1  0.43042200  0.59954200  0.29605000  1
  O  O13  1  0.56957800  0.40045800  0.79605000  1
  O  O14  1  0.92279500  0.05507400  0.77287500  1
  O  O15  1  0.07720500  0.94492600  0.27287500  1
  O  O16  1  0.94492600  0.07720500  0.27287500  1
  O  O17  1  0.05507400  0.92279500  0.77287500  1
  O  O18  1  0.73106400  0.23252200  0.71195400  1
  O  O19  1  0.26893600  0.76747800  0.21195400  1
  O  O20  1  0.29895100  0.29895100  0.53771000  1
  O  O21  1  0.70104900  0.70104900  0.03771000  1
  O  O22  1  0.01792100  0.32831000  0.54161400  1
  O  O23  1  0.98207900  0.67169000  0.04161400  1
  O  O24  1  0.67169000  0.98207900  0.04161400  1
  O  O25  1  0.32831000  0.01792100  0.54161400  1
  O  O26  1  0.23252200  0.73106400  0.71195400  1
  O  O27  1  0.76747800  0.26893600  0.21195400  1
