# generated using pymatgen
data_Ba2Ta15O32
_symmetry_space_group_name_H-M   'P 1'
_cell_length_a   12.83967053
_cell_length_b   12.83967053
_cell_length_c   12.83967046
_cell_angle_alpha   35.67340390
_cell_angle_beta   35.67340390
_cell_angle_gamma   35.67340224
_symmetry_Int_Tables_number   1
_chemical_formula_structural   Ba2Ta15O32
_chemical_formula_sum   'Ba2 Ta15 O32'
_cell_volume   643.48845667
_cell_formula_units_Z   1
loop_
 _symmetry_equiv_pos_site_id
 _symmetry_equiv_pos_as_xyz
  1  'x, y, z'
loop_
 _atom_site_type_symbol
 _atom_site_label
 _atom_site_symmetry_multiplicity
 _atom_site_fract_x
 _atom_site_fract_y
 _atom_site_fract_z
 _atom_site_occupancy
  Ba  Ba0  1  0.36023300  0.36023300  0.36023300  1
  Ba  Ba1  1  0.63976700  0.63976700  0.63976700  1
  Ta  Ta2  1  0.55528300  0.31713700  0.72455400  1
  Ta  Ta3  1  0.27544600  0.44471700  0.68286300  1
  Ta  Ta4  1  0.68286300  0.27544600  0.44471700  1
  Ta  Ta5  1  0.44471700  0.68286300  0.27544600  1
  Ta  Ta6  1  0.86132000  0.86132000  0.86132000  1
  Ta  Ta7  1  0.13868000  0.13868000  0.13868000  1
  Ta  Ta8  1  0.92679400  0.80515600  0.47128500  1
  Ta  Ta9  1  0.47128500  0.92679400  0.80515600  1
  Ta  Ta10  1  0.80515600  0.47128500  0.92679400  1
  Ta  Ta11  1  0.07320600  0.19484400  0.52871500  1
  Ta  Ta12  1  0.52871500  0.07320600  0.19484400  1
  Ta  Ta13  1  0.19484400  0.52871500  0.07320600  1
  Ta  Ta14  1  0.00000000  0.00000000  0.00000000  1
  Ta  Ta15  1  0.31713700  0.72455400  0.55528300  1
  Ta  Ta16  1  0.72455400  0.55528300  0.31713700  1
  O  O17  1  0.96009500  0.18133400  0.76328400  1
  O  O18  1  0.76328400  0.96009500  0.18133400  1
  O  O19  1  0.18133400  0.76328400  0.96009500  1
  O  O20  1  0.03990500  0.81866600  0.23671600  1
  O  O21  1  0.23671600  0.03990500  0.81866600  1
  O  O22  1  0.81866600  0.23671600  0.03990500  1
  O  O23  1  0.46767000  0.35229100  0.05845800  1
  O  O24  1  0.05845800  0.46767000  0.35229100  1
  O  O25  1  0.35229100  0.05845800  0.46767000  1
  O  O26  1  0.53233000  0.64770900  0.94154200  1
  O  O27  1  0.94154200  0.53233000  0.64770900  1
  O  O28  1  0.64770900  0.94154200  0.53233000  1
  O  O29  1  0.07153500  0.95670800  0.65872200  1
  O  O30  1  0.65872200  0.07153500  0.95670800  1
  O  O31  1  0.95670800  0.65872200  0.07153500  1
  O  O32  1  0.92846500  0.04329200  0.34127800  1
  O  O33  1  0.34127800  0.92846500  0.04329200  1
  O  O34  1  0.53881400  0.80309700  0.36298100  1
  O  O35  1  0.80309700  0.36298100  0.53881400  1
  O  O36  1  0.36298100  0.53881400  0.80309700  1
  O  O37  1  0.46118600  0.19690300  0.63701900  1
  O  O38  1  0.19690300  0.63701900  0.46118600  1
  O  O39  1  0.63701900  0.46118600  0.19690300  1
  O  O40  1  0.76001100  0.07180800  0.66752600  1
  O  O41  1  0.07180800  0.66752600  0.76001100  1
  O  O42  1  0.66752600  0.76001100  0.07180800  1
  O  O43  1  0.23998900  0.92819200  0.33247400  1
  O  O44  1  0.92819200  0.33247400  0.23998900  1
  O  O45  1  0.33247400  0.23998900  0.92819200  1
  O  O46  1  0.23777800  0.23777800  0.23777800  1
  O  O47  1  0.76222200  0.76222200  0.76222200  1
  O  O48  1  0.04329200  0.34127800  0.92846500  1
