# generated using pymatgen
data_ThI4
_symmetry_space_group_name_H-M   'P 1'
_cell_length_a   8.21355500
_cell_length_b   8.46589800
_cell_length_c   14.50008736
_cell_angle_alpha   68.07280296
_cell_angle_beta   90.00000000
_cell_angle_gamma   90.00000000
_symmetry_Int_Tables_number   1
_chemical_formula_structural   ThI4
_chemical_formula_sum   'Th4 I16'
_cell_volume   935.32647946
_cell_formula_units_Z   4
loop_
 _symmetry_equiv_pos_site_id
 _symmetry_equiv_pos_as_xyz
  1  'x, y, z'
loop_
 _atom_site_type_symbol
 _atom_site_label
 _atom_site_symmetry_multiplicity
 _atom_site_fract_x
 _atom_site_fract_y
 _atom_site_fract_z
 _atom_site_occupancy
  Th  Th0  1  0.51483200  0.00452100  0.31721400  1
  Th  Th1  1  0.01483200  0.99547900  0.18278600  1
  Th  Th2  1  0.48516800  0.99547900  0.68278600  1
  Th  Th3  1  0.98516800  0.00452100  0.81721400  1
  I  I4  1  0.86010600  0.13793100  0.34911800  1
  I  I5  1  0.36010600  0.86206900  0.15088200  1
  I  I6  1  0.13989400  0.86206900  0.65088200  1
  I  I7  1  0.63989400  0.13793100  0.84911800  1
  I  I8  1  0.08338700  0.22765000  0.94631000  1
  I  I9  1  0.58338700  0.77235000  0.55369000  1
  I  I10  1  0.91661300  0.77235000  0.05369000  1
  I  I11  1  0.41661300  0.22765000  0.44631000  1
  I  I12  1  0.74602900  0.71095200  0.81262900  1
  I  I13  1  0.24602900  0.28904800  0.68737100  1
  I  I14  1  0.25397100  0.28904800  0.18737100  1
  I  I15  1  0.75397100  0.71095200  0.31262900  1
  I  I16  1  0.30913100  0.79673600  0.89731100  1
  I  I17  1  0.80913100  0.20326400  0.60268900  1
  I  I18  1  0.69086900  0.20326400  0.10268900  1
  I  I19  1  0.19086900  0.79673600  0.39731100  1
