# generated using pymatgen
data_Ca3PI3
_symmetry_space_group_name_H-M   'P 1'
_cell_length_a   10.77557998
_cell_length_b   10.77557998
_cell_length_c   10.77557998
_cell_angle_alpha   109.47122063
_cell_angle_beta   109.47122063
_cell_angle_gamma   109.47122063
_symmetry_Int_Tables_number   1
_chemical_formula_structural   Ca3PI3
_chemical_formula_sum   'Ca12 P4 I12'
_cell_volume   963.16362593
_cell_formula_units_Z   4
loop_
 _symmetry_equiv_pos_site_id
 _symmetry_equiv_pos_as_xyz
  1  'x, y, z'
loop_
 _atom_site_type_symbol
 _atom_site_label
 _atom_site_symmetry_multiplicity
 _atom_site_fract_x
 _atom_site_fract_y
 _atom_site_fract_z
 _atom_site_occupancy
  Ca  Ca0  1  0.75000000  0.23146900  0.26853100  1
  Ca  Ca1  1  0.23146900  0.26853100  0.75000000  1
  Ca  Ca2  1  0.46293700  0.48146900  0.23146900  1
  Ca  Ca3  1  0.26853100  0.01853100  0.03706300  1
  Ca  Ca4  1  0.23146900  0.46293700  0.48146900  1
  Ca  Ca5  1  0.01853100  0.03706300  0.26853100  1
  Ca  Ca6  1  0.01853100  0.48146900  0.75000000  1
  Ca  Ca7  1  0.48146900  0.23146900  0.46293700  1
  Ca  Ca8  1  0.75000000  0.01853100  0.48146900  1
  Ca  Ca9  1  0.03706300  0.26853100  0.01853100  1
  Ca  Ca10  1  0.48146900  0.75000000  0.01853100  1
  Ca  Ca11  1  0.26853100  0.75000000  0.23146900  1
  P  P12  1  0.50000000  0.00000000  0.25000000  1
  P  P13  1  0.25000000  0.50000000  0.00000000  1
  P  P14  1  0.00000000  0.25000000  0.50000000  1
  P  P15  1  0.25000000  0.25000000  0.25000000  1
  I  I16  1  0.99735800  0.99471700  0.74735800  1
  I  I17  1  0.99471700  0.74735800  0.99735800  1
  I  I18  1  0.25000000  0.99735800  0.50264200  1
  I  I19  1  0.74735800  0.99735800  0.99471700  1
  I  I20  1  0.50264200  0.25000000  0.99735800  1
  I  I21  1  0.74735800  0.25000000  0.75264200  1
  I  I22  1  0.50264200  0.75264200  0.50528300  1
  I  I23  1  0.99735800  0.50264200  0.25000000  1
  I  I24  1  0.50528300  0.50264200  0.75264200  1
  I  I25  1  0.25000000  0.75264200  0.74735800  1
  I  I26  1  0.75264200  0.50528300  0.50264200  1
  I  I27  1  0.75264200  0.74735800  0.25000000  1
