# generated using pymatgen
data_Na2Te4O9
_symmetry_space_group_name_H-M   'P 1'
_cell_length_a   7.00735381
_cell_length_b   7.49488783
_cell_length_c   10.77485303
_cell_angle_alpha   70.43873050
_cell_angle_beta   91.05942955
_cell_angle_gamma   70.48415351
_symmetry_Int_Tables_number   1
_chemical_formula_structural   Na2Te4O9
_chemical_formula_sum   'Na4 Te8 O18'
_cell_volume   497.15127289
_cell_formula_units_Z   2
loop_
 _symmetry_equiv_pos_site_id
 _symmetry_equiv_pos_as_xyz
  1  'x, y, z'
loop_
 _atom_site_type_symbol
 _atom_site_label
 _atom_site_symmetry_multiplicity
 _atom_site_fract_x
 _atom_site_fract_y
 _atom_site_fract_z
 _atom_site_occupancy
  Na  Na0  1  0.01721700  0.17900500  0.36584700  1
  Na  Na1  1  0.98278300  0.82099500  0.63415300  1
  Na  Na2  1  0.52040400  0.21904300  0.51434300  1
  Na  Na3  1  0.47959600  0.78095700  0.48565700  1
  Te  Te4  1  0.97684400  0.32293800  0.67110700  1
  Te  Te5  1  0.02315600  0.67706200  0.32889300  1
  Te  Te6  1  0.47516100  0.21048300  0.19867000  1
  Te  Te7  1  0.52483900  0.78951700  0.80133000  1
  Te  Te8  1  0.54053100  0.62974700  0.21850300  1
  Te  Te9  1  0.45946900  0.37025300  0.78149700  1
  Te  Te10  1  0.99204000  0.28689600  0.00576200  1
  Te  Te11  1  0.00796000  0.71310400  0.99423800  1
  O  O12  1  0.04046100  0.15621500  0.85960400  1
  O  O13  1  0.95953900  0.84378500  0.14039600  1
  O  O14  1  0.96497100  0.87529100  0.40257600  1
  O  O15  1  0.03502900  0.12470900  0.59742400  1
  O  O16  1  0.28183600  0.14435000  0.09226800  1
  O  O17  1  0.71816400  0.85565000  0.90773200  1
  O  O18  1  0.66013200  0.33233600  0.66493800  1
  O  O19  1  0.33986800  0.66766400  0.33506200  1
  O  O20  1  0.93916700  0.49360600  0.11547100  1
  O  O21  1  0.06083300  0.50639400  0.88452900  1
  O  O22  1  0.35957500  0.14396500  0.35375100  1
  O  O23  1  0.64042500  0.85603500  0.64624900  1
  O  O24  1  0.33315900  0.50310300  0.11639500  1
  O  O25  1  0.66684100  0.49689700  0.88360500  1
  O  O26  1  0.34023700  0.65963400  0.69797700  1
  O  O27  1  0.65976300  0.34036600  0.30202300  1
  O  O28  1  0.71779800  0.68263400  0.33547300  1
  O  O29  1  0.28220200  0.31736600  0.66452700  1
