# generated using pymatgen
data_ZnP2
_symmetry_space_group_name_H-M   'P 1'
_cell_length_a   5.10150700
_cell_length_b   5.10150700
_cell_length_c   18.62742100
_cell_angle_alpha   90.00000000
_cell_angle_beta   90.00000000
_cell_angle_gamma   90.00000000
_symmetry_Int_Tables_number   1
_chemical_formula_structural   ZnP2
_chemical_formula_sum   'Zn8 P16'
_cell_volume   484.78559205
_cell_formula_units_Z   8
loop_
 _symmetry_equiv_pos_site_id
 _symmetry_equiv_pos_as_xyz
  1  'x, y, z'
loop_
 _atom_site_type_symbol
 _atom_site_label
 _atom_site_symmetry_multiplicity
 _atom_site_fract_x
 _atom_site_fract_y
 _atom_site_fract_z
 _atom_site_occupancy
  Zn  Zn0  1  0.15409200  0.63560500  0.05069400  1
  Zn  Zn1  1  0.86439500  0.65409200  0.30069400  1
  Zn  Zn2  1  0.13560500  0.34590800  0.80069400  1
  Zn  Zn3  1  0.65409200  0.86439500  0.69930600  1
  Zn  Zn4  1  0.34590800  0.13560500  0.19930600  1
  Zn  Zn5  1  0.84590800  0.36439500  0.55069400  1
  Zn  Zn6  1  0.63560500  0.15409200  0.94930600  1
  Zn  Zn7  1  0.36439500  0.84590800  0.44930600  1
  P  P8  1  0.81839600  0.30131400  0.05950600  1
  P  P9  1  0.19868600  0.31839600  0.30950600  1
  P  P10  1  0.80131400  0.68160400  0.80950600  1
  P  P11  1  0.31839600  0.19868600  0.69049400  1
  P  P12  1  0.68160400  0.80131400  0.19049400  1
  P  P13  1  0.18160400  0.69868600  0.55950600  1
  P  P14  1  0.30131400  0.81839600  0.94049400  1
  P  P15  1  0.69868600  0.18160400  0.44049400  1
  P  P16  1  0.99044700  0.98073200  0.12592100  1
  P  P17  1  0.51926800  0.49044700  0.37592100  1
  P  P18  1  0.48073200  0.50955300  0.87592100  1
  P  P19  1  0.49044700  0.51926800  0.62407900  1
  P  P20  1  0.50955300  0.48073200  0.12407900  1
  P  P21  1  0.00955300  0.01926800  0.62592100  1
  P  P22  1  0.98073200  0.99044700  0.87407900  1
  P  P23  1  0.01926800  0.00955300  0.37407900  1
