# generated using pymatgen
data_CeNiSn
_symmetry_space_group_name_H-M   'P 1'
_cell_length_a   4.58394500
_cell_length_b   7.40497100
_cell_length_c   7.55804600
_cell_angle_alpha   90.00000000
_cell_angle_beta   90.00000000
_cell_angle_gamma   90.00000000
_symmetry_Int_Tables_number   1
_chemical_formula_structural   CeNiSn
_chemical_formula_sum   'Ce4 Ni4 Sn4'
_cell_volume   256.55016068
_cell_formula_units_Z   4
loop_
 _symmetry_equiv_pos_site_id
 _symmetry_equiv_pos_as_xyz
  1  'x, y, z'
loop_
 _atom_site_type_symbol
 _atom_site_label
 _atom_site_symmetry_multiplicity
 _atom_site_fract_x
 _atom_site_fract_y
 _atom_site_fract_z
 _atom_site_occupancy
  Ce  Ce0  1  0.25000000  0.47969700  0.19757400  1
  Ce  Ce1  1  0.75000000  0.52030300  0.80242600  1
  Ce  Ce2  1  0.25000000  0.97969700  0.30242600  1
  Ce  Ce3  1  0.75000000  0.02030300  0.69757400  1
  Ni  Ni4  1  0.75000000  0.29948800  0.42192600  1
  Ni  Ni5  1  0.25000000  0.20051200  0.92192600  1
  Ni  Ni6  1  0.75000000  0.79948800  0.07807400  1
  Ni  Ni7  1  0.25000000  0.70051200  0.57807400  1
  Sn  Sn8  1  0.25000000  0.31649900  0.59211300  1
  Sn  Sn9  1  0.75000000  0.18350100  0.09211300  1
  Sn  Sn10  1  0.25000000  0.81649900  0.90788700  1
  Sn  Sn11  1  0.75000000  0.68350100  0.40788700  1
