# generated using pymatgen
data_AgW3Br7
_symmetry_space_group_name_H-M   'P 1'
_cell_length_a   16.08264900
_cell_length_b   9.98730300
_cell_length_c   10.24130842
_cell_angle_alpha   59.65964886
_cell_angle_beta   90.00000000
_cell_angle_gamma   90.00000000
_symmetry_Int_Tables_number   1
_chemical_formula_structural   AgW3Br7
_chemical_formula_sum   'Ag4 W12 Br28'
_cell_volume   1419.68563678
_cell_formula_units_Z   4
loop_
 _symmetry_equiv_pos_site_id
 _symmetry_equiv_pos_as_xyz
  1  'x, y, z'
loop_
 _atom_site_type_symbol
 _atom_site_label
 _atom_site_symmetry_multiplicity
 _atom_site_fract_x
 _atom_site_fract_y
 _atom_site_fract_z
 _atom_site_occupancy
  Ag  Ag0  1  0.28746700  0.08148800  0.83245900  1
  Ag  Ag1  1  0.78746700  0.91851200  0.66754100  1
  Ag  Ag2  1  0.71253300  0.91851200  0.16754100  1
  Ag  Ag3  1  0.21253300  0.08148800  0.33245900  1
  W  W4  1  0.05963600  0.35418500  0.67047600  1
  W  W5  1  0.53793600  0.59325900  0.10854000  1
  W  W6  1  0.96206400  0.59325900  0.60854000  1
  W  W7  1  0.46206400  0.40674100  0.89146000  1
  W  W8  1  0.03793600  0.40674100  0.39146000  1
  W  W9  1  0.55963600  0.64581500  0.82952400  1
  W  W10  1  0.94036400  0.64581500  0.32952400  1
  W  W11  1  0.44036400  0.35418500  0.17047600  1
  W  W12  1  0.09280400  0.63203700  0.43494900  1
  W  W13  1  0.59280400  0.36796300  0.06505100  1
  W  W14  1  0.90719600  0.36796300  0.56505100  1
  W  W15  1  0.40719600  0.63203700  0.93494900  1
  Br  Br16  1  0.57100900  0.31532100  0.34398400  1
  Br  Br17  1  0.72730400  0.18951100  0.15425800  1
  Br  Br18  1  0.77269600  0.18951100  0.65425800  1
  Br  Br19  1  0.27269600  0.81048900  0.84574200  1
  Br  Br20  1  0.08714200  0.27784600  0.23220700  1
  Br  Br21  1  0.58714200  0.72215400  0.26779300  1
  Br  Br22  1  0.91285800  0.72215400  0.76779300  1
  Br  Br23  1  0.41285800  0.27784600  0.73220700  1
  Br  Br24  1  0.14148000  0.14710400  0.91387200  1
  Br  Br25  1  0.64148000  0.85289600  0.58612800  1
  Br  Br26  1  0.85852000  0.85289600  0.08612800  1
  Br  Br27  1  0.35852000  0.14710400  0.41387200  1
  Br  Br28  1  0.38579400  0.57913200  0.21448600  1
  Br  Br29  1  0.88579400  0.42086800  0.28551400  1
  Br  Br30  1  0.61420600  0.42086800  0.78551400  1
  Br  Br31  1  0.19019000  0.39201400  0.49611600  1
  Br  Br32  1  0.50459600  0.87111500  0.87257500  1
  Br  Br33  1  0.00459600  0.12888500  0.62742500  1
  Br  Br34  1  0.49540400  0.12888500  0.12742500  1
  Br  Br35  1  0.99540400  0.87111500  0.37257500  1
  Br  Br36  1  0.42899100  0.68467900  0.65601600  1
  Br  Br37  1  0.92899100  0.31532100  0.84398400  1
  Br  Br38  1  0.11420600  0.57913200  0.71448600  1
  Br  Br39  1  0.07100900  0.68467900  0.15601600  1
  Br  Br40  1  0.30981000  0.39201400  0.99611600  1
  Br  Br41  1  0.80981000  0.60798600  0.50388400  1
  Br  Br42  1  0.69019000  0.60798600  0.00388400  1
  Br  Br43  1  0.22730400  0.81048900  0.34574200  1
