# generated using pymatgen
data_Cd4P2Cl3
_symmetry_space_group_name_H-M   'P 1'
_cell_length_a   12.42100900
_cell_length_b   12.42100900
_cell_length_c   12.42100900
_cell_angle_alpha   90.00000000
_cell_angle_beta   90.00000000
_cell_angle_gamma   90.00000000
_symmetry_Int_Tables_number   1
_chemical_formula_structural   Cd4P2Cl3
_chemical_formula_sum   'Cd32 P16 Cl24'
_cell_volume   1916.33146006
_cell_formula_units_Z   8
loop_
 _symmetry_equiv_pos_site_id
 _symmetry_equiv_pos_as_xyz
  1  'x, y, z'
loop_
 _atom_site_type_symbol
 _atom_site_label
 _atom_site_symmetry_multiplicity
 _atom_site_fract_x
 _atom_site_fract_y
 _atom_site_fract_z
 _atom_site_occupancy
  Cd  Cd0  1  0.72338100  0.22338100  0.27661900  1
  Cd  Cd1  1  0.27661900  0.72338100  0.22338100  1
  Cd  Cd2  1  0.22338100  0.27661900  0.72338100  1
  Cd  Cd3  1  0.77661900  0.77661900  0.77661900  1
  Cd  Cd4  1  0.27661900  0.77661900  0.72338100  1
  Cd  Cd5  1  0.72338100  0.27661900  0.77661900  1
  Cd  Cd6  1  0.77661900  0.72338100  0.27661900  1
  Cd  Cd7  1  0.22338100  0.22338100  0.22338100  1
  Cd  Cd8  1  0.75012700  0.03043000  0.51210500  1
  Cd  Cd9  1  0.51210500  0.75012700  0.03043000  1
  Cd  Cd10  1  0.03043000  0.51210500  0.75012700  1
  Cd  Cd11  1  0.46957000  0.48789500  0.25012700  1
  Cd  Cd12  1  0.01210500  0.74987300  0.96957000  1
  Cd  Cd13  1  0.96957000  0.01210500  0.74987300  1
  Cd  Cd14  1  0.98789500  0.24987300  0.53043000  1
  Cd  Cd15  1  0.48789500  0.25012700  0.46957000  1
  Cd  Cd16  1  0.53043000  0.98789500  0.24987300  1
  Cd  Cd17  1  0.25012700  0.46957000  0.48789500  1
  Cd  Cd18  1  0.24987300  0.53043000  0.98789500  1
  Cd  Cd19  1  0.74987300  0.96957000  0.01210500  1
  Cd  Cd20  1  0.24987300  0.96957000  0.48789500  1
  Cd  Cd21  1  0.48789500  0.24987300  0.96957000  1
  Cd  Cd22  1  0.96957000  0.48789500  0.24987300  1
  Cd  Cd23  1  0.53043000  0.51210500  0.74987300  1
  Cd  Cd24  1  0.98789500  0.25012700  0.03043000  1
  Cd  Cd25  1  0.03043000  0.98789500  0.25012700  1
  Cd  Cd26  1  0.01210500  0.75012700  0.46957000  1
  Cd  Cd27  1  0.51210500  0.74987300  0.53043000  1
  Cd  Cd28  1  0.46957000  0.01210500  0.75012700  1
  Cd  Cd29  1  0.74987300  0.53043000  0.51210500  1
  Cd  Cd30  1  0.75012700  0.46957000  0.01210500  1
  Cd  Cd31  1  0.25012700  0.03043000  0.98789500  1
  P  P32  1  0.94898400  0.05101600  0.55101600  1
  P  P33  1  0.55101600  0.94898400  0.05101600  1
  P  P34  1  0.05101600  0.55101600  0.94898400  1
  P  P35  1  0.44898400  0.44898400  0.44898400  1
  P  P36  1  0.05101600  0.94898400  0.44898400  1
  P  P37  1  0.44898400  0.05101600  0.94898400  1
  P  P38  1  0.94898400  0.44898400  0.05101600  1
  P  P39  1  0.55101600  0.55101600  0.55101600  1
  P  P40  1  0.60731000  0.10731000  0.39269000  1
  P  P41  1  0.39269000  0.60731000  0.10731000  1
  P  P42  1  0.10731000  0.39269000  0.60731000  1
  P  P43  1  0.89269000  0.89269000  0.89269000  1
  P  P44  1  0.39269000  0.89269000  0.60731000  1
  P  P45  1  0.60731000  0.39269000  0.89269000  1
  P  P46  1  0.89269000  0.60731000  0.39269000  1
  P  P47  1  0.10731000  0.10731000  0.10731000  1
  Cl  Cl48  1  0.68131100  0.07366800  0.72670000  1
  Cl  Cl49  1  0.72670000  0.68131100  0.07366800  1
  Cl  Cl50  1  0.07366800  0.72670000  0.68131100  1
  Cl  Cl51  1  0.42633200  0.27330000  0.18131100  1
  Cl  Cl52  1  0.22670000  0.81868900  0.92633200  1
  Cl  Cl53  1  0.92633200  0.22670000  0.81868900  1
  Cl  Cl54  1  0.77330000  0.31868900  0.57366800  1
  Cl  Cl55  1  0.27330000  0.18131100  0.42633200  1
  Cl  Cl56  1  0.57366800  0.77330000  0.31868900  1
  Cl  Cl57  1  0.18131100  0.42633200  0.27330000  1
  Cl  Cl58  1  0.31868900  0.57366800  0.77330000  1
  Cl  Cl59  1  0.81868900  0.92633200  0.22670000  1
  Cl  Cl60  1  0.31868900  0.92633200  0.27330000  1
  Cl  Cl61  1  0.27330000  0.31868900  0.92633200  1
  Cl  Cl62  1  0.92633200  0.27330000  0.31868900  1
  Cl  Cl63  1  0.57366800  0.72670000  0.81868900  1
  Cl  Cl64  1  0.77330000  0.18131100  0.07366800  1
  Cl  Cl65  1  0.07366800  0.77330000  0.18131100  1
  Cl  Cl66  1  0.22670000  0.68131100  0.42633200  1
  Cl  Cl67  1  0.72670000  0.81868900  0.57366800  1
  Cl  Cl68  1  0.42633200  0.22670000  0.68131100  1
  Cl  Cl69  1  0.81868900  0.57366800  0.72670000  1
  Cl  Cl70  1  0.68131100  0.42633200  0.22670000  1
  Cl  Cl71  1  0.18131100  0.07366800  0.77330000  1
