# generated using pymatgen
data_Y2O3
_symmetry_space_group_name_H-M   'P 1'
_cell_length_a   9.26984066
_cell_length_b   9.26984066
_cell_length_c   9.26984066
_cell_angle_alpha   109.47122063
_cell_angle_beta   109.47122063
_cell_angle_gamma   109.47122063
_symmetry_Int_Tables_number   1
_chemical_formula_structural   Y2O3
_chemical_formula_sum   'Y16 O24'
_cell_volume   613.18979205
_cell_formula_units_Z   8
loop_
 _symmetry_equiv_pos_site_id
 _symmetry_equiv_pos_as_xyz
  1  'x, y, z'
loop_
 _atom_site_type_symbol
 _atom_site_label
 _atom_site_symmetry_multiplicity
 _atom_site_fract_x
 _atom_site_fract_y
 _atom_site_fract_z
 _atom_site_occupancy
  Y  Y0  1  0.71731800  0.75000000  0.46731800  1
  Y  Y1  1  0.25000000  0.03268200  0.78268200  1
  Y  Y2  1  0.46731800  0.71731800  0.75000000  1
  Y  Y3  1  0.75000000  0.46731800  0.71731800  1
  Y  Y4  1  0.03268200  0.78268200  0.25000000  1
  Y  Y5  1  0.78268200  0.25000000  0.03268200  1
  Y  Y6  1  0.28268200  0.25000000  0.53268200  1
  Y  Y7  1  0.75000000  0.96731800  0.21731800  1
  Y  Y8  1  0.53268200  0.28268200  0.25000000  1
  Y  Y9  1  0.25000000  0.53268200  0.28268200  1
  Y  Y10  1  0.96731800  0.21731800  0.75000000  1
  Y  Y11  1  0.21731800  0.75000000  0.96731800  1
  Y  Y12  1  0.50000000  0.50000000  0.00000000  1
  Y  Y13  1  0.00000000  0.00000000  0.00000000  1
  Y  Y14  1  0.00000000  0.50000000  0.50000000  1
  Y  Y15  1  0.50000000  0.00000000  0.50000000  1
  O  O16  1  0.22925400  0.27187700  0.76071900  1
  O  O17  1  0.01115800  0.46853500  0.73928100  1
  O  O18  1  0.27074600  0.03146500  0.04262300  1
  O  O19  1  0.73928100  0.01115800  0.46853500  1
  O  O20  1  0.27187700  0.76071900  0.22925400  1
  O  O21  1  0.22812300  0.45737700  0.48884200  1
  O  O22  1  0.45737700  0.48884200  0.22812300  1
  O  O23  1  0.46853500  0.73928100  0.01115800  1
  O  O24  1  0.04262300  0.27074600  0.03146500  1
  O  O25  1  0.03146500  0.04262300  0.27074600  1
  O  O26  1  0.76071900  0.22925400  0.27187700  1
  O  O27  1  0.48884200  0.22812300  0.45737700  1
  O  O28  1  0.77074600  0.72812300  0.23928100  1
  O  O29  1  0.98884200  0.53146500  0.26071900  1
  O  O30  1  0.72925400  0.96853500  0.95737700  1
  O  O31  1  0.26071900  0.98884200  0.53146500  1
  O  O32  1  0.51115800  0.77187700  0.54262300  1
  O  O33  1  0.23928100  0.77074600  0.72812300  1
  O  O34  1  0.96853500  0.95737700  0.72925400  1
  O  O35  1  0.95737700  0.72925400  0.96853500  1
  O  O36  1  0.53146500  0.26071900  0.98884200  1
  O  O37  1  0.54262300  0.51115800  0.77187700  1
  O  O38  1  0.77187700  0.54262300  0.51115800  1
  O  O39  1  0.72812300  0.23928100  0.77074600  1
