# generated using pymatgen
data_Cu2P7
_symmetry_space_group_name_H-M   'P 1'
_cell_length_a   7.32894122
_cell_length_b   7.32894122
_cell_length_c   14.68773946
_cell_angle_alpha   74.78956543
_cell_angle_beta   74.78956543
_cell_angle_gamma   59.64629480
_symmetry_Int_Tables_number   1
_chemical_formula_structural   Cu2P7
_chemical_formula_sum   'Cu8 P28'
_cell_volume   648.90677661
_cell_formula_units_Z   4
loop_
 _symmetry_equiv_pos_site_id
 _symmetry_equiv_pos_as_xyz
  1  'x, y, z'
loop_
 _atom_site_type_symbol
 _atom_site_label
 _atom_site_symmetry_multiplicity
 _atom_site_fract_x
 _atom_site_fract_y
 _atom_site_fract_z
 _atom_site_occupancy
  Cu  Cu0  1  0.28130000  0.28130000  0.42718200  1
  Cu  Cu1  1  0.71870000  0.71870000  0.57281800  1
  Cu  Cu2  1  0.38333000  0.38333000  0.79398200  1
  Cu  Cu3  1  0.61667000  0.61667000  0.20601800  1
  Cu  Cu4  1  0.15651400  0.15651400  0.03273300  1
  Cu  Cu5  1  0.84348600  0.84348600  0.96726700  1
  Cu  Cu6  1  0.03412400  0.03412400  0.64626000  1
  Cu  Cu7  1  0.96587600  0.96587600  0.35374000  1
  P  P8  1  0.95880500  0.44333600  0.37722300  1
  P  P9  1  0.55666400  0.04119500  0.62277700  1
  P  P10  1  0.04119500  0.55666400  0.62277700  1
  P  P11  1  0.44333600  0.95880500  0.37722300  1
  P  P12  1  0.97094400  0.44021000  0.22354500  1
  P  P13  1  0.55979000  0.02905600  0.77645500  1
  P  P14  1  0.02905600  0.55979000  0.77645500  1
  P  P15  1  0.44021000  0.97094400  0.22354500  1
  P  P16  1  0.77599500  0.77599500  0.40672500  1
  P  P17  1  0.22400500  0.22400500  0.59327500  1
  P  P18  1  0.89468800  0.89468800  0.79652800  1
  P  P19  1  0.10531200  0.10531200  0.20347200  1
  P  P20  1  0.65333800  0.65333800  0.04338700  1
  P  P21  1  0.34666200  0.34666200  0.95661300  1
  P  P22  1  0.52809000  0.52809000  0.64495100  1
  P  P23  1  0.47191000  0.47191000  0.35504900  1
  P  P24  1  0.64260500  0.17271400  0.01886800  1
  P  P25  1  0.82728600  0.35739500  0.98113200  1
  P  P26  1  0.35739500  0.82728600  0.98113200  1
  P  P27  1  0.17271400  0.64260500  0.01886800  1
  P  P28  1  0.27232700  0.76481500  0.42157500  1
  P  P29  1  0.23518500  0.72767300  0.57842500  1
  P  P30  1  0.72767300  0.23518500  0.57842500  1
  P  P31  1  0.76481500  0.27232700  0.42157500  1
  P  P32  1  0.53805900  0.22486400  0.17045400  1
  P  P33  1  0.77513600  0.46194100  0.82954600  1
  P  P34  1  0.46194100  0.77513600  0.82954600  1
  P  P35  1  0.22486400  0.53805900  0.17045400  1
