# generated using pymatgen
data_CeInIr
_symmetry_space_group_name_H-M   'P 1'
_cell_length_a   7.56709345
_cell_length_b   7.56709345
_cell_length_c   4.02450600
_cell_angle_alpha   90.00000000
_cell_angle_beta   90.00000000
_cell_angle_gamma   119.99999518
_symmetry_Int_Tables_number   1
_chemical_formula_structural   CeInIr
_chemical_formula_sum   'Ce3 In3 Ir3'
_cell_volume   199.57283492
_cell_formula_units_Z   3
loop_
 _symmetry_equiv_pos_site_id
 _symmetry_equiv_pos_as_xyz
  1  'x, y, z'
loop_
 _atom_site_type_symbol
 _atom_site_label
 _atom_site_symmetry_multiplicity
 _atom_site_fract_x
 _atom_site_fract_y
 _atom_site_fract_z
 _atom_site_occupancy
  Ce  Ce0  1  0.41181000  0.41181000  0.00000000  1
  Ce  Ce1  1  0.58819000  0.00000000  0.00000000  1
  Ce  Ce2  1  0.00000000  0.58819000  0.00000000  1
  In  In3  1  0.00000000  0.25207200  0.50000000  1
  In  In4  1  0.74792800  0.74792800  0.50000000  1
  In  In5  1  0.25207200  0.00000000  0.50000000  1
  Ir  Ir6  1  0.00000000  0.00000000  0.00000000  1
  Ir  Ir7  1  0.33333300  0.66666700  0.50000000  1
  Ir  Ir8  1  0.66666700  0.33333300  0.50000000  1
