# generated using pymatgen
data_MnP
_symmetry_space_group_name_H-M   'P 1'
_cell_length_a   3.15394100
_cell_length_b   5.19101000
_cell_length_c   5.84953200
_cell_angle_alpha   90.00000000
_cell_angle_beta   90.00000000
_cell_angle_gamma   90.00000000
_symmetry_Int_Tables_number   1
_chemical_formula_structural   MnP
_chemical_formula_sum   'Mn4 P4'
_cell_volume   95.76935257
_cell_formula_units_Z   4
loop_
 _symmetry_equiv_pos_site_id
 _symmetry_equiv_pos_as_xyz
  1  'x, y, z'
loop_
 _atom_site_type_symbol
 _atom_site_label
 _atom_site_symmetry_multiplicity
 _atom_site_fract_x
 _atom_site_fract_y
 _atom_site_fract_z
 _atom_site_occupancy
  Mn  Mn0  1  0.25000000  0.50440000  0.69593300  1
  Mn  Mn1  1  0.75000000  0.49560000  0.30406700  1
  Mn  Mn2  1  0.25000000  0.00440000  0.80406700  1
  Mn  Mn3  1  0.75000000  0.99560000  0.19593300  1
  P  P4  1  0.25000000  0.68672800  0.06932900  1
  P  P5  1  0.75000000  0.31327200  0.93067100  1
  P  P6  1  0.25000000  0.18672800  0.43067100  1
  P  P7  1  0.75000000  0.81327200  0.56932900  1
