# generated using pymatgen
data_NaGa3Te5
_symmetry_space_group_name_H-M   'P 1'
_cell_length_a   10.52807841
_cell_length_b   10.52807841
_cell_length_c   10.52807903
_cell_angle_alpha   90.49387083
_cell_angle_beta   90.49387083
_cell_angle_gamma   90.49387283
_symmetry_Int_Tables_number   1
_chemical_formula_structural   NaGa3Te5
_chemical_formula_sum   'Na4 Ga12 Te20'
_cell_volume   1166.80605627
_cell_formula_units_Z   4
loop_
 _symmetry_equiv_pos_site_id
 _symmetry_equiv_pos_as_xyz
  1  'x, y, z'
loop_
 _atom_site_type_symbol
 _atom_site_label
 _atom_site_symmetry_multiplicity
 _atom_site_fract_x
 _atom_site_fract_y
 _atom_site_fract_z
 _atom_site_occupancy
  Na  Na0  1  0.25635800  0.00000000  0.74364200  1
  Na  Na1  1  0.74364200  0.25635800  0.00000000  1
  Na  Na2  1  0.00000000  0.74364200  0.25635800  1
  Na  Na3  1  0.50000000  0.50000000  0.50000000  1
  Ga  Ga4  1  0.83854200  0.87804800  0.57352400  1
  Ga  Ga5  1  0.57352400  0.83854200  0.87804800  1
  Ga  Ga6  1  0.87804800  0.57352400  0.83854200  1
  Ga  Ga7  1  0.16145800  0.42647600  0.12195200  1
  Ga  Ga8  1  0.12195200  0.16145800  0.42647600  1
  Ga  Ga9  1  0.42647600  0.12195200  0.16145800  1
  Ga  Ga10  1  0.74710000  0.16561800  0.34289500  1
  Ga  Ga11  1  0.34289500  0.74710000  0.16561800  1
  Ga  Ga12  1  0.16561800  0.34289500  0.74710000  1
  Ga  Ga13  1  0.25290000  0.65710500  0.83438200  1
  Ga  Ga14  1  0.83438200  0.25290000  0.65710500  1
  Ga  Ga15  1  0.65710500  0.83438200  0.25290000  1
  Te  Te16  1  0.17353800  0.82646200  0.00000000  1
  Te  Te17  1  0.82646200  0.00000000  0.17353800  1
  Te  Te18  1  0.17253200  0.17253200  0.17253200  1
  Te  Te19  1  0.82746800  0.82746800  0.82746800  1
  Te  Te20  1  0.00000000  0.17353800  0.82646200  1
  Te  Te21  1  0.92284500  0.50000000  0.07715500  1
  Te  Te22  1  0.07715500  0.92284500  0.50000000  1
  Te  Te23  1  0.50000000  0.07715500  0.92284500  1
  Te  Te24  1  0.74976500  0.68684300  0.43079800  1
  Te  Te25  1  0.43079800  0.74976500  0.68684300  1
  Te  Te26  1  0.68684300  0.43079800  0.74976500  1
  Te  Te27  1  0.25023500  0.56920200  0.31315700  1
  Te  Te28  1  0.31315700  0.25023500  0.56920200  1
  Te  Te29  1  0.56920200  0.31315700  0.25023500  1
  Te  Te30  1  0.67339900  0.06995100  0.56962900  1
  Te  Te31  1  0.56962900  0.67339900  0.06995100  1
  Te  Te32  1  0.06995100  0.56962900  0.67339900  1
  Te  Te33  1  0.32660100  0.43037100  0.93004900  1
  Te  Te34  1  0.93004900  0.32660100  0.43037100  1
  Te  Te35  1  0.43037100  0.93004900  0.32660100  1
