# generated using pymatgen
data_Er2Se3
_symmetry_space_group_name_H-M   'P 1'
_cell_length_a   13.45342378
_cell_length_b   12.84126138
_cell_length_c   7.04120422
_cell_angle_alpha   79.33006585
_cell_angle_beta   69.71743623
_cell_angle_gamma   30.95249792
_symmetry_Int_Tables_number   1
_chemical_formula_structural   Er2Se3
_chemical_formula_sum   'Er8 Se12'
_cell_volume   570.77776035
_cell_formula_units_Z   4
loop_
 _symmetry_equiv_pos_site_id
 _symmetry_equiv_pos_as_xyz
  1  'x, y, z'
loop_
 _atom_site_type_symbol
 _atom_site_label
 _atom_site_symmetry_multiplicity
 _atom_site_fract_x
 _atom_site_fract_y
 _atom_site_fract_z
 _atom_site_occupancy
  Er  Er0  1  0.75267200  0.75267200  0.24732800  1
  Er  Er1  1  0.24732800  0.24732800  0.75267200  1
  Er  Er2  1  0.49732800  0.49732800  0.00267200  1
  Er  Er3  1  0.00267200  0.00267200  0.49732800  1
  Er  Er4  1  0.41616500  0.41616500  0.58383500  1
  Er  Er5  1  0.58383500  0.58383500  0.41616500  1
  Er  Er6  1  0.83383500  0.83383500  0.66616500  1
  Er  Er7  1  0.66616500  0.66616500  0.83383500  1
  Se  Se8  1  0.67376100  0.16423800  0.81996400  1
  Se  Se9  1  0.34203700  0.81996400  0.16423800  1
  Se  Se10  1  0.81996400  0.34203700  0.67376100  1
  Se  Se11  1  0.16423800  0.67376100  0.34203700  1
  Se  Se12  1  0.57623900  0.08576200  0.43003600  1
  Se  Se13  1  0.90796300  0.43003600  0.08576200  1
  Se  Se14  1  0.43003600  0.90796300  0.57623900  1
  Se  Se15  1  0.08576200  0.57623900  0.90796300  1
  Se  Se16  1  0.99223200  0.50776800  0.50776800  1
  Se  Se17  1  0.50776800  0.99223200  0.99223200  1
  Se  Se18  1  0.25776800  0.74223200  0.74223200  1
  Se  Se19  1  0.74223200  0.25776800  0.25776800  1
