# generated using pymatgen
data_Na2HgS2
_symmetry_space_group_name_H-M   'P 1'
_cell_length_a   7.48683200
_cell_length_b   7.54336700
_cell_length_c   18.35275900
_cell_angle_alpha   90.00000000
_cell_angle_beta   90.00000000
_cell_angle_gamma   90.00000000
_symmetry_Int_Tables_number   1
_chemical_formula_structural   Na2HgS2
_chemical_formula_sum   'Na16 Hg8 S16'
_cell_volume   1036.48897555
_cell_formula_units_Z   8
loop_
 _symmetry_equiv_pos_site_id
 _symmetry_equiv_pos_as_xyz
  1  'x, y, z'
loop_
 _atom_site_type_symbol
 _atom_site_label
 _atom_site_symmetry_multiplicity
 _atom_site_fract_x
 _atom_site_fract_y
 _atom_site_fract_z
 _atom_site_occupancy
  Na  Na0  1  0.50332300  0.72876800  0.55465200  1
  Na  Na1  1  0.00332300  0.27123200  0.94534800  1
  Na  Na2  1  0.99667700  0.22876800  0.44534800  1
  Na  Na3  1  0.49667700  0.77123200  0.05465200  1
  Na  Na4  1  0.49667700  0.27123200  0.44534800  1
  Na  Na5  1  0.99667700  0.72876800  0.05465200  1
  Na  Na6  1  0.00332300  0.77123200  0.55465200  1
  Na  Na7  1  0.50332300  0.22876800  0.94534800  1
  Na  Na8  1  0.83190700  0.54552600  0.69623300  1
  Na  Na9  1  0.33190700  0.45447400  0.80376700  1
  Na  Na10  1  0.66809300  0.04552600  0.30376700  1
  Na  Na11  1  0.16809300  0.95447400  0.19623300  1
  Na  Na12  1  0.16809300  0.45447400  0.30376700  1
  Na  Na13  1  0.66809300  0.54552600  0.19623300  1
  Na  Na14  1  0.33190700  0.95447400  0.69623300  1
  Na  Na15  1  0.83190700  0.04552600  0.80376700  1
  Hg  Hg16  1  0.27296900  0.34902800  0.11086300  1
  Hg  Hg17  1  0.77296900  0.65097200  0.38913700  1
  Hg  Hg18  1  0.22703100  0.84902800  0.88913700  1
  Hg  Hg19  1  0.72703100  0.65097200  0.88913700  1
  Hg  Hg20  1  0.22703100  0.34902800  0.61086300  1
  Hg  Hg21  1  0.77296900  0.15097200  0.11086300  1
  Hg  Hg22  1  0.27296900  0.84902800  0.38913700  1
  Hg  Hg23  1  0.72703100  0.15097200  0.61086300  1
  S  S24  1  0.69741800  0.88804500  0.67877500  1
  S  S25  1  0.30258200  0.61195500  0.17877500  1
  S  S26  1  0.80258200  0.38804500  0.32122500  1
  S  S27  1  0.80258200  0.88804500  0.17877500  1
  S  S28  1  0.19741800  0.11195500  0.82122500  1
  S  S29  1  0.30258200  0.11195500  0.32122500  1
  S  S30  1  0.69741800  0.38804500  0.82122500  1
  S  S31  1  0.19741800  0.61195500  0.67877500  1
  S  S32  1  0.25559600  0.07683000  0.54909300  1
  S  S33  1  0.75559600  0.92317000  0.95090700  1
  S  S34  1  0.24440400  0.57683000  0.45090700  1
  S  S35  1  0.74440400  0.42317000  0.04909300  1
  S  S36  1  0.74440400  0.92317000  0.45090700  1
  S  S37  1  0.24440400  0.07683000  0.04909300  1
  S  S38  1  0.75559600  0.42317000  0.54909300  1
  S  S39  1  0.25559600  0.57683000  0.95090700  1
