# generated using pymatgen
data_Ta9(CoS3)2
_symmetry_space_group_name_H-M   'P 1'
_cell_length_a   10.35921221
_cell_length_b   10.35921221
_cell_length_c   6.61084400
_cell_angle_alpha   90.00000000
_cell_angle_beta   90.00000000
_cell_angle_gamma   120.00000135
_symmetry_Int_Tables_number   1
_chemical_formula_structural   Ta9(CoS3)2
_chemical_formula_sum   'Ta18 Co4 S12'
_cell_volume   614.38555230
_cell_formula_units_Z   2
loop_
 _symmetry_equiv_pos_site_id
 _symmetry_equiv_pos_as_xyz
  1  'x, y, z'
loop_
 _atom_site_type_symbol
 _atom_site_label
 _atom_site_symmetry_multiplicity
 _atom_site_fract_x
 _atom_site_fract_y
 _atom_site_fract_z
 _atom_site_occupancy
  Ta  Ta0  1  0.73968000  0.19160000  0.50000000  1
  Ta  Ta1  1  0.47141300  0.26000900  0.00000000  1
  Ta  Ta2  1  0.54325300  0.54325300  0.24862900  1
  Ta  Ta3  1  0.00000000  0.45674700  0.75137100  1
  Ta  Ta4  1  0.54808000  0.80840000  0.50000000  1
  Ta  Ta5  1  0.19160000  0.73968000  0.50000000  1
  Ta  Ta6  1  0.26032000  0.45192000  0.50000000  1
  Ta  Ta7  1  0.45674700  0.00000000  0.75137100  1
  Ta  Ta8  1  0.80840000  0.54808000  0.50000000  1
  Ta  Ta9  1  0.73999100  0.21140400  0.00000000  1
  Ta  Ta10  1  0.26000900  0.47141300  0.00000000  1
  Ta  Ta11  1  0.78859600  0.52858700  0.00000000  1
  Ta  Ta12  1  0.00000000  0.45674700  0.24862900  1
  Ta  Ta13  1  0.52858700  0.78859600  0.00000000  1
  Ta  Ta14  1  0.45192000  0.26032000  0.50000000  1
  Ta  Ta15  1  0.54325300  0.54325300  0.75137100  1
  Ta  Ta16  1  0.45674700  0.00000000  0.24862900  1
  Ta  Ta17  1  0.21140400  0.73999100  0.00000000  1
  Co  Co18  1  0.66666700  0.33333300  0.27904200  1
  Co  Co19  1  0.66666700  0.33333300  0.72095800  1
  Co  Co20  1  0.33333300  0.66666700  0.72095800  1
  Co  Co21  1  0.33333300  0.66666700  0.27904200  1
  S  S22  1  0.29701000  0.29701000  0.76205600  1
  S  S23  1  0.70299000  0.00000000  0.76205600  1
  S  S24  1  0.72665600  0.72665600  0.50000000  1
  S  S25  1  0.27464700  0.00000000  0.00000000  1
  S  S26  1  0.00000000  0.70299000  0.76205600  1
  S  S27  1  0.29701000  0.29701000  0.23794400  1
  S  S28  1  0.00000000  0.70299000  0.23794400  1
  S  S29  1  0.00000000  0.27334400  0.50000000  1
  S  S30  1  0.00000000  0.27464700  0.00000000  1
  S  S31  1  0.72535300  0.72535300  0.00000000  1
  S  S32  1  0.70299000  0.00000000  0.23794400  1
  S  S33  1  0.27334400  0.00000000  0.50000000  1
