# generated using pymatgen
data_MoOF4
_symmetry_space_group_name_H-M   'P 1'
_cell_length_a   17.86693900
_cell_length_b   5.65044800
_cell_length_c   8.19136278
_cell_angle_alpha   88.61451005
_cell_angle_beta   90.00000000
_cell_angle_gamma   90.00000000
_symmetry_Int_Tables_number   1
_chemical_formula_structural   MoOF4
_chemical_formula_sum   'Mo8 O8 F32'
_cell_volume   826.72717095
_cell_formula_units_Z   8
loop_
 _symmetry_equiv_pos_site_id
 _symmetry_equiv_pos_as_xyz
  1  'x, y, z'
loop_
 _atom_site_type_symbol
 _atom_site_label
 _atom_site_symmetry_multiplicity
 _atom_site_fract_x
 _atom_site_fract_y
 _atom_site_fract_z
 _atom_site_occupancy
  Mo  Mo0  1  0.64149800  0.74178500  0.48427700  1
  Mo  Mo1  1  0.14149800  0.25821500  0.01572300  1
  Mo  Mo2  1  0.35850200  0.25821500  0.51572300  1
  Mo  Mo3  1  0.85850200  0.74178500  0.98427700  1
  Mo  Mo4  1  0.61158000  0.25921500  0.10047600  1
  Mo  Mo5  1  0.11158000  0.74078500  0.39952400  1
  Mo  Mo6  1  0.38842000  0.74078500  0.89952400  1
  Mo  Mo7  1  0.88842000  0.25921500  0.60047600  1
  O  O8  1  0.63732400  0.56338700  0.65128700  1
  O  O9  1  0.13732400  0.43661300  0.84871300  1
  O  O10  1  0.36267600  0.43661300  0.34871300  1
  O  O11  1  0.86267600  0.56338700  0.15128700  1
  O  O12  1  0.57969400  0.09653000  0.94593600  1
  O  O13  1  0.07969400  0.90347000  0.55406400  1
  O  O14  1  0.42030600  0.90347000  0.05406400  1
  O  O15  1  0.92030600  0.09653000  0.44593600  1
  F  F16  1  0.78790900  0.30554900  0.54180400  1
  F  F17  1  0.28790900  0.69445100  0.95819600  1
  F  F18  1  0.21209100  0.69445100  0.45819600  1
  F  F19  1  0.71209100  0.30554900  0.04180400  1
  F  F20  1  0.97127200  0.26141700  0.74153300  1
  F  F21  1  0.47127200  0.73858300  0.75846700  1
  F  F22  1  0.02872800  0.73858300  0.25846700  1
  F  F23  1  0.52872800  0.26141700  0.24153300  1
  F  F24  1  0.91340500  0.56340600  0.52281600  1
  F  F25  1  0.41340500  0.43659400  0.97718400  1
  F  F26  1  0.08659500  0.43659400  0.47718400  1
  F  F27  1  0.58659500  0.56340600  0.02281600  1
  F  F28  1  0.85084600  0.00541800  0.74538300  1
  F  F29  1  0.35084600  0.99458200  0.75461700  1
  F  F30  1  0.14915400  0.99458200  0.25461700  1
  F  F31  1  0.64915400  0.00541800  0.24538300  1
  F  F32  1  0.75535300  0.79854400  0.96281200  1
  F  F33  1  0.25535300  0.20145600  0.53718800  1
  F  F34  1  0.24464700  0.20145600  0.03718800  1
  F  F35  1  0.74464700  0.79854400  0.46281200  1
  F  F36  1  0.95791400  0.74536800  0.91060200  1
  F  F37  1  0.45791400  0.25463200  0.58939800  1
  F  F38  1  0.04208600  0.25463200  0.08939800  1
  F  F39  1  0.54208600  0.74536800  0.41060200  1
  F  F40  1  0.87167200  0.03628900  0.07889200  1
  F  F41  1  0.37167200  0.96371100  0.42110800  1
  F  F42  1  0.12832800  0.96371100  0.92110800  1
  F  F43  1  0.62832800  0.03628900  0.57889200  1
  F  F44  1  0.84305500  0.50228700  0.81759900  1
  F  F45  1  0.34305500  0.49771300  0.68240100  1
  F  F46  1  0.15694500  0.49771300  0.18240100  1
  F  F47  1  0.65694500  0.50228700  0.31759900  1
