# generated using pymatgen
data_RbI3
_symmetry_space_group_name_H-M   'P 1'
_cell_length_a   6.99464100
_cell_length_b   10.11562000
_cell_length_c   11.01980900
_cell_angle_alpha   90.00000000
_cell_angle_beta   90.00000000
_cell_angle_gamma   90.00000000
_symmetry_Int_Tables_number   1
_chemical_formula_structural   RbI3
_chemical_formula_sum   'Rb4 I12'
_cell_volume   779.70802269
_cell_formula_units_Z   4
loop_
 _symmetry_equiv_pos_site_id
 _symmetry_equiv_pos_as_xyz
  1  'x, y, z'
loop_
 _atom_site_type_symbol
 _atom_site_label
 _atom_site_symmetry_multiplicity
 _atom_site_fract_x
 _atom_site_fract_y
 _atom_site_fract_z
 _atom_site_occupancy
  Rb  Rb0  1  0.25000000  0.47315000  0.82799600  1
  Rb  Rb1  1  0.75000000  0.52685000  0.17200400  1
  Rb  Rb2  1  0.75000000  0.97315000  0.67200400  1
  Rb  Rb3  1  0.25000000  0.02685000  0.32799600  1
  I  I4  1  0.25000000  0.54937600  0.37089700  1
  I  I5  1  0.75000000  0.45062400  0.62910300  1
  I  I6  1  0.75000000  0.04937600  0.12910300  1
  I  I7  1  0.25000000  0.95062400  0.87089700  1
  I  I8  1  0.25000000  0.73399900  0.57189700  1
  I  I9  1  0.75000000  0.26600100  0.42810300  1
  I  I10  1  0.75000000  0.23399900  0.92810300  1
  I  I11  1  0.25000000  0.76600100  0.07189700  1
  I  I12  1  0.25000000  0.14413400  0.66182500  1
  I  I13  1  0.75000000  0.85586600  0.33817500  1
  I  I14  1  0.75000000  0.64413400  0.83817500  1
  I  I15  1  0.25000000  0.35586600  0.16182500  1
