# generated using pymatgen
data_Ca3AlN3
_symmetry_space_group_name_H-M   'P 1'
_cell_length_a   6.13890900
_cell_length_b   6.90248100
_cell_length_c   9.85525371
_cell_angle_alpha   86.21075050
_cell_angle_beta   90.00000000
_cell_angle_gamma   90.00000000
_symmetry_Int_Tables_number   1
_chemical_formula_structural   Ca3AlN3
_chemical_formula_sum   'Ca12 Al4 N12'
_cell_volume   416.69066193
_cell_formula_units_Z   4
loop_
 _symmetry_equiv_pos_site_id
 _symmetry_equiv_pos_as_xyz
  1  'x, y, z'
loop_
 _atom_site_type_symbol
 _atom_site_label
 _atom_site_symmetry_multiplicity
 _atom_site_fract_x
 _atom_site_fract_y
 _atom_site_fract_z
 _atom_site_occupancy
  Ca  Ca0  1  0.78198600  0.64591400  0.30579600  1
  Ca  Ca1  1  0.28198600  0.35408600  0.19420400  1
  Ca  Ca2  1  0.21801400  0.35408600  0.69420400  1
  Ca  Ca3  1  0.71801400  0.64591400  0.80579600  1
  Ca  Ca4  1  0.79372400  0.37146300  0.07635000  1
  Ca  Ca5  1  0.29372400  0.62853700  0.42365000  1
  Ca  Ca6  1  0.20627600  0.62853700  0.92365000  1
  Ca  Ca7  1  0.70627600  0.37146300  0.57635000  1
  Ca  Ca8  1  0.64117200  0.07712700  0.34953200  1
  Ca  Ca9  1  0.14117200  0.92287300  0.15046800  1
  Ca  Ca10  1  0.35882800  0.92287300  0.65046800  1
  Ca  Ca11  1  0.85882800  0.07712700  0.84953200  1
  Al  Al12  1  0.90887400  0.83981900  0.56030200  1
  Al  Al13  1  0.40887400  0.16018100  0.93969800  1
  Al  Al14  1  0.09112600  0.16018100  0.43969800  1
  Al  Al15  1  0.59112600  0.83981900  0.06030200  1
  N  N16  1  0.56834500  0.33898800  0.82301900  1
  N  N17  1  0.06834500  0.66101200  0.67698100  1
  N  N18  1  0.43165500  0.66101200  0.17698100  1
  N  N19  1  0.93165500  0.33898800  0.32301900  1
  N  N20  1  0.62337200  0.74072500  0.52887300  1
  N  N21  1  0.12337200  0.25927500  0.97112700  1
  N  N22  1  0.37662800  0.25927500  0.47112700  1
  N  N23  1  0.87662800  0.74072500  0.02887300  1
  N  N24  1  0.53784800  0.10393000  0.11765900  1
  N  N25  1  0.03784800  0.89607000  0.38234100  1
  N  N26  1  0.46215200  0.89607000  0.88234100  1
  N  N27  1  0.96215200  0.10393000  0.61765900  1
