# generated using pymatgen
data_SmBr3
_symmetry_space_group_name_H-M   'P 1'
_cell_length_a   7.43822977
_cell_length_b   7.43822977
_cell_length_c   9.24235600
_cell_angle_alpha   90.00000000
_cell_angle_beta   90.00000000
_cell_angle_gamma   148.38786436
_symmetry_Int_Tables_number   1
_chemical_formula_structural   SmBr3
_chemical_formula_sum   'Sm2 Br6'
_cell_volume   268.03466463
_cell_formula_units_Z   2
loop_
 _symmetry_equiv_pos_site_id
 _symmetry_equiv_pos_as_xyz
  1  'x, y, z'
loop_
 _atom_site_type_symbol
 _atom_site_label
 _atom_site_symmetry_multiplicity
 _atom_site_fract_x
 _atom_site_fract_y
 _atom_site_fract_z
 _atom_site_occupancy
  Sm  Sm0  1  0.25863600  0.74136400  0.25000000  1
  Sm  Sm1  1  0.74136400  0.25863600  0.75000000  1
  Br  Br2  1  0.65689000  0.34311000  0.43192600  1
  Br  Br3  1  0.34311000  0.65689000  0.56807400  1
  Br  Br4  1  0.09810700  0.90189300  0.75000000  1
  Br  Br5  1  0.90189300  0.09810700  0.25000000  1
  Br  Br6  1  0.65689000  0.34311000  0.06807400  1
  Br  Br7  1  0.34311000  0.65689000  0.93192600  1
