# generated using pymatgen
data_Ti(CuS)4
_symmetry_space_group_name_H-M   'P 1'
_cell_length_a   6.55423748
_cell_length_b   6.55423748
_cell_length_c   6.55423748
_cell_angle_alpha   130.93779793
_cell_angle_beta   130.93779793
_cell_angle_gamma   71.91192371
_symmetry_Int_Tables_number   1
_chemical_formula_structural   Ti(CuS)4
_chemical_formula_sum   'Ti1 Cu4 S4'
_cell_volume   157.14994441
_cell_formula_units_Z   1
loop_
 _symmetry_equiv_pos_site_id
 _symmetry_equiv_pos_as_xyz
  1  'x, y, z'
loop_
 _atom_site_type_symbol
 _atom_site_label
 _atom_site_symmetry_multiplicity
 _atom_site_fract_x
 _atom_site_fract_y
 _atom_site_fract_z
 _atom_site_occupancy
  Ti  Ti0  1  0.00000000  0.00000000  0.00000000  1
  Cu  Cu1  1  0.00000000  0.50000000  0.50000000  1
  Cu  Cu2  1  0.50000000  0.00000000  0.50000000  1
  Cu  Cu3  1  0.25814800  0.25814800  0.00000000  1
  Cu  Cu4  1  0.74185200  0.74185200  0.00000000  1
  S  S5  1  0.88121000  0.88121000  0.51158500  1
  S  S6  1  0.11879000  0.63037500  0.00000000  1
  S  S7  1  0.63037500  0.11879000  0.00000000  1
  S  S8  1  0.36962500  0.36962500  0.48841500  1
