# generated using pymatgen
data_EuCrO4
_symmetry_space_group_name_H-M   'P 1'
_cell_length_a   6.16785747
_cell_length_b   6.16785747
_cell_length_c   6.16785747
_cell_angle_alpha   105.83789199
_cell_angle_beta   105.83789199
_cell_angle_gamma   117.01134511
_symmetry_Int_Tables_number   1
_chemical_formula_structural   EuCrO4
_chemical_formula_sum   'Eu2 Cr2 O8'
_cell_volume   178.25108343
_cell_formula_units_Z   2
loop_
 _symmetry_equiv_pos_site_id
 _symmetry_equiv_pos_as_xyz
  1  'x, y, z'
loop_
 _atom_site_type_symbol
 _atom_site_label
 _atom_site_symmetry_multiplicity
 _atom_site_fract_x
 _atom_site_fract_y
 _atom_site_fract_z
 _atom_site_occupancy
  Eu  Eu0  1  0.00000000  0.00000000  0.00000000  1
  Eu  Eu1  1  0.25000000  0.75000000  0.50000000  1
  Cr  Cr2  1  0.75000000  0.25000000  0.50000000  1
  Cr  Cr3  1  0.50000000  0.50000000  0.00000000  1
  O  O4  1  0.33736000  0.51567400  0.17831400  1
  O  O5  1  0.40904700  0.08736000  0.32168600  1
  O  O6  1  0.76567400  0.08736000  0.67831400  1
  O  O7  1  0.33736000  0.15904700  0.82168600  1
  O  O8  1  0.84095300  0.66264000  0.17831400  1
  O  O9  1  0.91264000  0.23432600  0.32168600  1
  O  O10  1  0.91264000  0.59095300  0.67831400  1
  O  O11  1  0.48432600  0.66264000  0.82168600  1
