# generated using pymatgen
data_As(BrF2)3
_symmetry_space_group_name_H-M   'P 1'
_cell_length_a   5.78724200
_cell_length_b   7.87574427
_cell_length_c   9.95886917
_cell_angle_alpha   88.02712652
_cell_angle_beta   82.19539290
_cell_angle_gamma   82.50774060
_symmetry_Int_Tables_number   1
_chemical_formula_structural   As(BrF2)3
_chemical_formula_sum   'As2 Br6 F12'
_cell_volume   445.80505638
_cell_formula_units_Z   2
loop_
 _symmetry_equiv_pos_site_id
 _symmetry_equiv_pos_as_xyz
  1  'x, y, z'
loop_
 _atom_site_type_symbol
 _atom_site_label
 _atom_site_symmetry_multiplicity
 _atom_site_fract_x
 _atom_site_fract_y
 _atom_site_fract_z
 _atom_site_occupancy
  As  As0  1  0.43404700  0.78531900  0.79882900  1
  As  As1  1  0.56595300  0.21468100  0.20117100  1
  Br  Br2  1  0.09087900  0.38892100  0.81998900  1
  Br  Br3  1  0.90912100  0.61107900  0.18001100  1
  Br  Br4  1  0.82206200  0.20545100  0.78266400  1
  Br  Br5  1  0.17793800  0.79454900  0.21733600  1
  Br  Br6  1  0.19679000  0.77187800  0.45006900  1
  Br  Br7  1  0.80321000  0.22812200  0.54993100  1
  F  F8  1  0.34483900  0.20777900  0.09813600  1
  F  F9  1  0.65516100  0.79222100  0.90186400  1
  F  F10  1  0.36142100  0.29659100  0.33761700  1
  F  F11  1  0.63857900  0.70340900  0.66238300  1
  F  F12  1  0.59979700  0.43095100  0.14219300  1
  F  F13  1  0.40020300  0.56904900  0.85780700  1
  F  F14  1  0.54389600  0.00158500  0.25997900  1
  F  F15  1  0.45610400  0.99841500  0.74002100  1
  F  F16  1  0.19940500  0.77542600  0.69742600  1
  F  F17  1  0.80059500  0.22457400  0.30257400  1
  F  F18  1  0.21496700  0.86214700  0.93287800  1
  F  F19  1  0.78503300  0.13785300  0.06712200  1
