# generated using pymatgen
data_Tl3VO4
_symmetry_space_group_name_H-M   'P 1'
_cell_length_a   6.16752682
_cell_length_b   6.16752682
_cell_length_c   6.16752682
_cell_angle_alpha   121.57570279
_cell_angle_beta   114.98314066
_cell_angle_gamma   93.09684155
_symmetry_Int_Tables_number   1
_chemical_formula_structural   Tl3VO4
_chemical_formula_sum   'Tl3 V1 O4'
_cell_volume   169.27572494
_cell_formula_units_Z   1
loop_
 _symmetry_equiv_pos_site_id
 _symmetry_equiv_pos_as_xyz
  1  'x, y, z'
loop_
 _atom_site_type_symbol
 _atom_site_label
 _atom_site_symmetry_multiplicity
 _atom_site_fract_x
 _atom_site_fract_y
 _atom_site_fract_z
 _atom_site_occupancy
  Tl  Tl0  1  0.75136000  0.23111000  0.52025000  1
  Tl  Tl1  1  0.05692900  0.00000000  0.05692900  1
  Tl  Tl2  1  0.28914000  0.76889000  0.52025000  1
  V  V3  1  0.51050700  0.50000000  0.01050700  1
  O  O4  1  0.82800100  0.66959900  0.15840200  1
  O  O5  1  0.48880300  0.33040100  0.15840200  1
  O  O6  1  0.36313000  0.25567200  0.61880200  1
  O  O7  1  0.36313000  0.74432800  0.10745800  1
