# generated using pymatgen
data_CeCuSn
_symmetry_space_group_name_H-M   'P 1'
_cell_length_a   4.61553290
_cell_length_b   4.61553290
_cell_length_c   7.58645900
_cell_angle_alpha   90.00000000
_cell_angle_beta   90.00000000
_cell_angle_gamma   120.00001286
_symmetry_Int_Tables_number   1
_chemical_formula_structural   CeCuSn
_chemical_formula_sum   'Ce2 Cu2 Sn2'
_cell_volume   139.96304812
_cell_formula_units_Z   2
loop_
 _symmetry_equiv_pos_site_id
 _symmetry_equiv_pos_as_xyz
  1  'x, y, z'
loop_
 _atom_site_type_symbol
 _atom_site_label
 _atom_site_symmetry_multiplicity
 _atom_site_fract_x
 _atom_site_fract_y
 _atom_site_fract_z
 _atom_site_occupancy
  Ce  Ce0  1  0.00000000  0.00000000  0.48849500  1
  Ce  Ce1  1  0.00000000  0.00000000  0.98849500  1
  Cu  Cu2  1  0.66666700  0.33333300  0.79387300  1
  Cu  Cu3  1  0.33333300  0.66666700  0.29387300  1
  Sn  Sn4  1  0.33333300  0.66666700  0.72523300  1
  Sn  Sn5  1  0.66666700  0.33333300  0.22523300  1
