# generated using pymatgen
data_PWO5
_symmetry_space_group_name_H-M   'P 1'
_cell_length_a   5.36809800
_cell_length_b   6.75457100
_cell_length_c   11.48995400
_cell_angle_alpha   90.00000000
_cell_angle_beta   90.00000000
_cell_angle_gamma   90.00000000
_symmetry_Int_Tables_number   1
_chemical_formula_structural   PWO5
_chemical_formula_sum   'P4 W4 O20'
_cell_volume   416.61652946
_cell_formula_units_Z   4
loop_
 _symmetry_equiv_pos_site_id
 _symmetry_equiv_pos_as_xyz
  1  'x, y, z'
loop_
 _atom_site_type_symbol
 _atom_site_label
 _atom_site_symmetry_multiplicity
 _atom_site_fract_x
 _atom_site_fract_y
 _atom_site_fract_z
 _atom_site_occupancy
  P  P0  1  0.51590500  0.52779100  0.34429800  1
  P  P1  1  0.01590500  0.47220900  0.65570200  1
  P  P2  1  0.51590500  0.97220900  0.84429800  1
  P  P3  1  0.01590500  0.02779100  0.15570200  1
  W  W4  1  0.51423300  0.32833700  0.06262700  1
  W  W5  1  0.01423300  0.67166300  0.93737300  1
  W  W6  1  0.51423300  0.17166300  0.56262700  1
  W  W7  1  0.01423300  0.82833700  0.43737300  1
  O  O8  1  0.22731500  0.00850800  0.50351600  1
  O  O9  1  0.72731500  0.99149200  0.49648400  1
  O  O10  1  0.22731500  0.49149200  0.00351600  1
  O  O11  1  0.72731500  0.50850800  0.99648400  1
  O  O12  1  0.29547800  0.66206500  0.37479700  1
  O  O13  1  0.79547800  0.33793500  0.62520300  1
  O  O14  1  0.29547800  0.83793500  0.87479700  1
  O  O15  1  0.79547800  0.16206500  0.12520300  1
  O  O16  1  0.50402900  0.48108500  0.21442700  1
  O  O17  1  0.00402900  0.51891500  0.78557300  1
  O  O18  1  0.50402900  0.01891500  0.71442700  1
  O  O19  1  0.00402900  0.98108500  0.28557300  1
  O  O20  1  0.00204400  0.83491800  0.08578200  1
  O  O21  1  0.50204400  0.16508200  0.91421800  1
  O  O22  1  0.00204400  0.66508200  0.58578200  1
  O  O23  1  0.50204400  0.33491800  0.41421800  1
  O  O24  1  0.26299600  0.13915900  0.12957700  1
  O  O25  1  0.76299600  0.86084100  0.87042300  1
  O  O26  1  0.26299600  0.36084100  0.62957700  1
  O  O27  1  0.76299600  0.63915900  0.37042300  1
