# generated using pymatgen
data_Ce2Pd2Pb
_symmetry_space_group_name_H-M   'P 1'
_cell_length_a   7.95075000
_cell_length_b   7.95075000
_cell_length_c   3.77888800
_cell_angle_alpha   90.00000000
_cell_angle_beta   90.00000000
_cell_angle_gamma   90.00000000
_symmetry_Int_Tables_number   1
_chemical_formula_structural   Ce2Pd2Pb
_chemical_formula_sum   'Ce4 Pd4 Pb2'
_cell_volume   238.88023419
_cell_formula_units_Z   2
loop_
 _symmetry_equiv_pos_site_id
 _symmetry_equiv_pos_as_xyz
  1  'x, y, z'
loop_
 _atom_site_type_symbol
 _atom_site_label
 _atom_site_symmetry_multiplicity
 _atom_site_fract_x
 _atom_site_fract_y
 _atom_site_fract_z
 _atom_site_occupancy
  Ce  Ce0  1  0.67562900  0.17562900  0.50000000  1
  Ce  Ce1  1  0.17562900  0.32437100  0.50000000  1
  Ce  Ce2  1  0.82437100  0.67562900  0.50000000  1
  Ce  Ce3  1  0.32437100  0.82437100  0.50000000  1
  Pd  Pd4  1  0.37423600  0.12576400  0.00000000  1
  Pd  Pd5  1  0.12576400  0.62576400  0.00000000  1
  Pd  Pd6  1  0.62576400  0.87423600  0.00000000  1
  Pd  Pd7  1  0.87423600  0.37423600  0.00000000  1
  Pb  Pb8  1  0.00000000  0.00000000  0.00000000  1
  Pb  Pb9  1  0.50000000  0.50000000  0.00000000  1
