# generated using pymatgen
data_Ba2In2S5
_symmetry_space_group_name_H-M   'P 1'
_cell_length_a   11.99404900
_cell_length_b   12.92486000
_cell_length_c   13.39899300
_cell_angle_alpha   90.00000000
_cell_angle_beta   90.00000000
_cell_angle_gamma   90.00000000
_symmetry_Int_Tables_number   1
_chemical_formula_structural   Ba2In2S5
_chemical_formula_sum   'Ba16 In16 S40'
_cell_volume   2077.13070917
_cell_formula_units_Z   8
loop_
 _symmetry_equiv_pos_site_id
 _symmetry_equiv_pos_as_xyz
  1  'x, y, z'
loop_
 _atom_site_type_symbol
 _atom_site_label
 _atom_site_symmetry_multiplicity
 _atom_site_fract_x
 _atom_site_fract_y
 _atom_site_fract_z
 _atom_site_occupancy
  Ba  Ba0  1  0.75155300  0.25373000  0.69115500  1
  Ba  Ba1  1  0.25155300  0.74627000  0.80884500  1
  Ba  Ba2  1  0.74844700  0.75373000  0.30884500  1
  Ba  Ba3  1  0.24844700  0.24627000  0.19115500  1
  Ba  Ba4  1  0.24844700  0.74627000  0.30884500  1
  Ba  Ba5  1  0.74844700  0.25373000  0.19115500  1
  Ba  Ba6  1  0.25155300  0.24627000  0.69115500  1
  Ba  Ba7  1  0.75155300  0.75373000  0.80884500  1
  Ba  Ba8  1  0.50525100  0.47439800  0.80597900  1
  Ba  Ba9  1  0.00525100  0.52560200  0.69402100  1
  Ba  Ba10  1  0.99474900  0.97439800  0.19402100  1
  Ba  Ba11  1  0.49474900  0.02560200  0.30597900  1
  Ba  Ba12  1  0.49474900  0.52560200  0.19402100  1
  Ba  Ba13  1  0.99474900  0.47439800  0.30597900  1
  Ba  Ba14  1  0.00525100  0.02560200  0.80597900  1
  Ba  Ba15  1  0.50525100  0.97439800  0.69402100  1
  In  In16  1  0.55743400  0.29911400  0.44995800  1
  In  In17  1  0.05743400  0.70088600  0.05004200  1
  In  In18  1  0.94256600  0.79911400  0.55004200  1
  In  In19  1  0.44256600  0.20088600  0.94995800  1
  In  In20  1  0.44256600  0.70088600  0.55004200  1
  In  In21  1  0.94256600  0.29911400  0.94995800  1
  In  In22  1  0.05743400  0.20088600  0.44995800  1
  In  In23  1  0.55743400  0.79911400  0.05004200  1
  In  In24  1  0.77469500  0.53465900  0.02773100  1
  In  In25  1  0.27469500  0.46534100  0.47226900  1
  In  In26  1  0.72530500  0.03465900  0.97226900  1
  In  In27  1  0.22530500  0.96534100  0.52773100  1
  In  In28  1  0.22530500  0.46534100  0.97226900  1
  In  In29  1  0.72530500  0.53465900  0.52773100  1
  In  In30  1  0.27469500  0.96534100  0.02773100  1
  In  In31  1  0.77469500  0.03465900  0.47226900  1
  S  S32  1  0.75715700  0.35641000  0.45959000  1
  S  S33  1  0.25715700  0.64359000  0.04041000  1
  S  S34  1  0.74284300  0.85641000  0.54041000  1
  S  S35  1  0.24284300  0.14359000  0.95959000  1
  S  S36  1  0.24284300  0.64359000  0.54041000  1
  S  S37  1  0.74284300  0.35641000  0.95959000  1
  S  S38  1  0.25715700  0.14359000  0.45959000  1
  S  S39  1  0.75715700  0.85641000  0.04041000  1
  S  S40  1  0.24160100  0.48781100  0.79105100  1
  S  S41  1  0.74160100  0.51218900  0.70894900  1
  S  S42  1  0.25839900  0.98781100  0.20894900  1
  S  S43  1  0.75839900  0.01218900  0.29105100  1
  S  S44  1  0.75839900  0.51218900  0.20894900  1
  S  S45  1  0.25839900  0.48781100  0.29105100  1
  S  S46  1  0.74160100  0.01218900  0.79105100  1
  S  S47  1  0.24160100  0.98781100  0.70894900  1
  S  S48  1  0.43088500  0.38894200  0.56997800  1
  S  S49  1  0.00198700  0.22186100  0.27650300  1
  S  S50  1  0.93088500  0.61105800  0.93002200  1
  S  S51  1  0.56911500  0.11105800  0.06997800  1
  S  S52  1  0.56911500  0.61105800  0.43002200  1
  S  S53  1  0.06911500  0.38894200  0.06997800  1
  S  S54  1  0.93088500  0.11105800  0.56997800  1
  S  S55  1  0.43088500  0.88894200  0.93002200  1
  S  S56  1  0.90595500  0.12149400  0.02521100  1
  S  S57  1  0.40595500  0.87850600  0.47478900  1
  S  S58  1  0.59404500  0.62149400  0.97478900  1
  S  S59  1  0.09404500  0.37850600  0.52521100  1
  S  S60  1  0.09404500  0.87850600  0.97478900  1
  S  S61  1  0.59404500  0.12149400  0.52521100  1
  S  S62  1  0.40595500  0.37850600  0.02521100  1
  S  S63  1  0.90595500  0.62149400  0.47478900  1
  S  S64  1  0.00198700  0.72186100  0.22349700  1
  S  S65  1  0.50198700  0.27813900  0.27650300  1
  S  S66  1  0.49801300  0.22186100  0.77650300  1
  S  S67  1  0.99801300  0.77813900  0.72349700  1
  S  S68  1  0.99801300  0.27813900  0.77650300  1
  S  S69  1  0.49801300  0.72186100  0.72349700  1
  S  S70  1  0.50198700  0.77813900  0.22349700  1
  S  S71  1  0.06911500  0.88894200  0.43002200  1
