# generated using pymatgen
data_CeNi
_symmetry_space_group_name_H-M   'P 1'
_cell_length_a   5.65405645
_cell_length_b   5.65405645
_cell_length_c   4.23004400
_cell_angle_alpha   90.00000000
_cell_angle_beta   90.00000000
_cell_angle_gamma   142.85805148
_symmetry_Int_Tables_number   1
_chemical_formula_structural   CeNi
_chemical_formula_sum   'Ce2 Ni2'
_cell_volume   81.64927877
_cell_formula_units_Z   2
loop_
 _symmetry_equiv_pos_site_id
 _symmetry_equiv_pos_as_xyz
  1  'x, y, z'
loop_
 _atom_site_type_symbol
 _atom_site_label
 _atom_site_symmetry_multiplicity
 _atom_site_fract_x
 _atom_site_fract_y
 _atom_site_fract_z
 _atom_site_occupancy
  Ce  Ce0  1  0.13725300  0.86274700  0.75000000  1
  Ce  Ce1  1  0.86274700  0.13725300  0.25000000  1
  Ni  Ni2  1  0.41995100  0.58004900  0.75000000  1
  Ni  Ni3  1  0.58004900  0.41995100  0.25000000  1
