# generated using pymatgen
data_Cd7(P2Cl3)2
_symmetry_space_group_name_H-M   'P 1'
_cell_length_a   12.13177700
_cell_length_b   12.13177700
_cell_length_c   12.13177700
_cell_angle_alpha   90.00000000
_cell_angle_beta   90.00000000
_cell_angle_gamma   90.00000000
_symmetry_Int_Tables_number   1
_chemical_formula_structural   Cd7(P2Cl3)2
_chemical_formula_sum   'Cd28 P16 Cl24'
_cell_volume   1785.55509873
_cell_formula_units_Z   4
loop_
 _symmetry_equiv_pos_site_id
 _symmetry_equiv_pos_as_xyz
  1  'x, y, z'
loop_
 _atom_site_type_symbol
 _atom_site_label
 _atom_site_symmetry_multiplicity
 _atom_site_fract_x
 _atom_site_fract_y
 _atom_site_fract_z
 _atom_site_occupancy
  Cd  Cd0  1  0.00000000  0.50000000  0.50000000  1
  Cd  Cd1  1  0.50000000  0.50000000  0.00000000  1
  Cd  Cd2  1  0.50000000  0.00000000  0.50000000  1
  Cd  Cd3  1  0.00000000  0.00000000  0.00000000  1
  Cd  Cd4  1  0.01519000  0.27469400  0.23210900  1
  Cd  Cd5  1  0.51519000  0.22530600  0.76789100  1
  Cd  Cd6  1  0.98481000  0.77469400  0.26789100  1
  Cd  Cd7  1  0.22530600  0.76789100  0.51519000  1
  Cd  Cd8  1  0.26789100  0.98481000  0.77469400  1
  Cd  Cd9  1  0.76789100  0.51519000  0.22530600  1
  Cd  Cd10  1  0.27469400  0.23210900  0.01519000  1
  Cd  Cd11  1  0.23210900  0.01519000  0.27469400  1
  Cd  Cd12  1  0.77469400  0.26789100  0.98481000  1
  Cd  Cd13  1  0.72530600  0.73210900  0.48481000  1
  Cd  Cd14  1  0.73210900  0.48481000  0.72530600  1
  Cd  Cd15  1  0.48481000  0.72530600  0.73210900  1
  Cd  Cd16  1  0.98481000  0.72530600  0.76789100  1
  Cd  Cd17  1  0.48481000  0.77469400  0.23210900  1
  Cd  Cd18  1  0.01519000  0.22530600  0.73210900  1
  Cd  Cd19  1  0.77469400  0.23210900  0.48481000  1
  Cd  Cd20  1  0.73210900  0.01519000  0.22530600  1
  Cd  Cd21  1  0.23210900  0.48481000  0.77469400  1
  Cd  Cd22  1  0.72530600  0.76789100  0.98481000  1
  Cd  Cd23  1  0.76789100  0.98481000  0.72530600  1
  Cd  Cd24  1  0.22530600  0.73210900  0.01519000  1
  Cd  Cd25  1  0.27469400  0.26789100  0.51519000  1
  Cd  Cd26  1  0.26789100  0.51519000  0.27469400  1
  Cd  Cd27  1  0.51519000  0.27469400  0.26789100  1
  P  P28  1  0.21320700  0.28679300  0.71320700  1
  P  P29  1  0.28679300  0.71320700  0.21320700  1
  P  P30  1  0.71320700  0.21320700  0.28679300  1
  P  P31  1  0.78679300  0.78679300  0.78679300  1
  P  P32  1  0.78679300  0.71320700  0.28679300  1
  P  P33  1  0.71320700  0.28679300  0.78679300  1
  P  P34  1  0.28679300  0.78679300  0.71320700  1
  P  P35  1  0.21320700  0.21320700  0.21320700  1
  P  P36  1  0.31773600  0.18226400  0.81773600  1
  P  P37  1  0.18226400  0.81773600  0.31773600  1
  P  P38  1  0.81773600  0.31773600  0.18226400  1
  P  P39  1  0.68226400  0.68226400  0.68226400  1
  P  P40  1  0.68226400  0.81773600  0.18226400  1
  P  P41  1  0.81773600  0.18226400  0.68226400  1
  P  P42  1  0.18226400  0.68226400  0.81773600  1
  P  P43  1  0.31773600  0.31773600  0.31773600  1
  Cl  Cl44  1  0.96244400  0.02122800  0.21780700  1
  Cl  Cl45  1  0.46244400  0.47877200  0.78219300  1
  Cl  Cl46  1  0.03755600  0.52122800  0.28219300  1
  Cl  Cl47  1  0.47877200  0.78219300  0.46244400  1
  Cl  Cl48  1  0.28219300  0.03755600  0.52122800  1
  Cl  Cl49  1  0.78219300  0.46244400  0.47877200  1
  Cl  Cl50  1  0.02122800  0.21780700  0.96244400  1
  Cl  Cl51  1  0.21780700  0.96244400  0.02122800  1
  Cl  Cl52  1  0.52122800  0.28219300  0.03755600  1
  Cl  Cl53  1  0.97877200  0.71780700  0.53755600  1
  Cl  Cl54  1  0.71780700  0.53755600  0.97877200  1
  Cl  Cl55  1  0.53755600  0.97877200  0.71780700  1
  Cl  Cl56  1  0.03755600  0.97877200  0.78219300  1
  Cl  Cl57  1  0.53755600  0.52122800  0.21780700  1
  Cl  Cl58  1  0.96244400  0.47877200  0.71780700  1
  Cl  Cl59  1  0.52122800  0.21780700  0.53755600  1
  Cl  Cl60  1  0.71780700  0.96244400  0.47877200  1
  Cl  Cl61  1  0.21780700  0.53755600  0.52122800  1
  Cl  Cl62  1  0.97877200  0.78219300  0.03755600  1
  Cl  Cl63  1  0.78219300  0.03755600  0.97877200  1
  Cl  Cl64  1  0.47877200  0.71780700  0.96244400  1
  Cl  Cl65  1  0.02122800  0.28219300  0.46244400  1
  Cl  Cl66  1  0.28219300  0.46244400  0.02122800  1
  Cl  Cl67  1  0.46244400  0.02122800  0.28219300  1
