# generated using pymatgen
data_Er(SiNi5)2
_symmetry_space_group_name_H-M   'P 1'
_cell_length_a   8.14684100
_cell_length_b   8.14684100
_cell_length_c   4.66291100
_cell_angle_alpha   90.00000000
_cell_angle_beta   90.00000000
_cell_angle_gamma   90.00000000
_symmetry_Int_Tables_number   1
_chemical_formula_structural   Er(SiNi5)2
_chemical_formula_sum   'Er2 Si4 Ni20'
_cell_volume   309.48215122
_cell_formula_units_Z   2
loop_
 _symmetry_equiv_pos_site_id
 _symmetry_equiv_pos_as_xyz
  1  'x, y, z'
loop_
 _atom_site_type_symbol
 _atom_site_label
 _atom_site_symmetry_multiplicity
 _atom_site_fract_x
 _atom_site_fract_y
 _atom_site_fract_z
 _atom_site_occupancy
  Er  Er0  1  0.50000000  0.00000000  0.77831200  1
  Er  Er1  1  0.00000000  0.50000000  0.22168800  1
  Si  Si2  1  0.75000000  0.75000000  0.50000000  1
  Si  Si3  1  0.25000000  0.25000000  0.50000000  1
  Si  Si4  1  0.75000000  0.25000000  0.50000000  1
  Si  Si5  1  0.25000000  0.75000000  0.50000000  1
  Ni  Ni6  1  0.25000000  0.25000000  0.00000000  1
  Ni  Ni7  1  0.25000000  0.75000000  0.00000000  1
  Ni  Ni8  1  0.50000000  0.22239600  0.27082500  1
  Ni  Ni9  1  0.75000000  0.75000000  0.00000000  1
  Ni  Ni10  1  0.75000000  0.25000000  0.00000000  1
  Ni  Ni11  1  0.50000000  0.77760400  0.27082500  1
  Ni  Ni12  1  0.35256400  0.50000000  0.23929300  1
  Ni  Ni13  1  0.00000000  0.14743600  0.23929300  1
  Ni  Ni14  1  0.00000000  0.85256400  0.23929300  1
  Ni  Ni15  1  0.64743600  0.50000000  0.23929300  1
  Ni  Ni16  1  0.14743600  0.00000000  0.76070700  1
  Ni  Ni17  1  0.85256400  0.00000000  0.76070700  1
  Ni  Ni18  1  0.50000000  0.35256400  0.76070700  1
  Ni  Ni19  1  0.50000000  0.64743600  0.76070700  1
  Ni  Ni20  1  0.77760400  0.50000000  0.72917500  1
  Ni  Ni21  1  0.00000000  0.72239600  0.72917500  1
  Ni  Ni22  1  0.00000000  0.27760400  0.72917500  1
  Ni  Ni23  1  0.22239600  0.50000000  0.72917500  1
  Ni  Ni24  1  0.72239600  0.00000000  0.27082500  1
  Ni  Ni25  1  0.27760400  0.00000000  0.27082500  1
