# generated using pymatgen
data_Na15Pb4
_symmetry_space_group_name_H-M   'P 1'
_cell_length_a   11.54592343
_cell_length_b   11.54592343
_cell_length_c   11.54592343
_cell_angle_alpha   109.47122063
_cell_angle_beta   109.47122063
_cell_angle_gamma   109.47122063
_symmetry_Int_Tables_number   1
_chemical_formula_structural   Na15Pb4
_chemical_formula_sum   'Na30 Pb8'
_cell_volume   1184.85206085
_cell_formula_units_Z   2
loop_
 _symmetry_equiv_pos_site_id
 _symmetry_equiv_pos_as_xyz
  1  'x, y, z'
loop_
 _atom_site_type_symbol
 _atom_site_label
 _atom_site_symmetry_multiplicity
 _atom_site_fract_x
 _atom_site_fract_y
 _atom_site_fract_z
 _atom_site_occupancy
  Na  Na0  1  0.62500000  0.37500000  0.25000000  1
  Na  Na1  1  0.25000000  0.62500000  0.37500000  1
  Na  Na2  1  0.75000000  0.87500000  0.12500000  1
  Na  Na3  1  0.12500000  0.75000000  0.87500000  1
  Na  Na4  1  0.37500000  0.25000000  0.62500000  1
  Na  Na5  1  0.87500000  0.12500000  0.75000000  1
  Na  Na6  1  0.08374800  0.27690600  0.11675200  1
  Na  Na7  1  0.69315700  0.03300300  0.91625200  1
  Na  Na8  1  0.88324800  0.46699700  0.16015400  1
  Na  Na9  1  0.16015400  0.88324800  0.46699700  1
  Na  Na10  1  0.33984600  0.80684300  0.72309400  1
  Na  Na11  1  0.72309400  0.33984600  0.80684300  1
  Na  Na12  1  0.03300300  0.91625200  0.69315700  1
  Na  Na13  1  0.22309400  0.30684300  0.83984600  1
  Na  Na14  1  0.19315700  0.41625200  0.53300300  1
  Na  Na15  1  0.96699700  0.38324800  0.66015400  1
  Na  Na16  1  0.30684300  0.83984600  0.22309400  1
  Na  Na17  1  0.53300300  0.19315700  0.41625200  1
  Na  Na18  1  0.38324800  0.66015400  0.96699700  1
  Na  Na19  1  0.11675200  0.08374800  0.27690600  1
  Na  Na20  1  0.27690600  0.11675200  0.08374800  1
  Na  Na21  1  0.83984600  0.22309400  0.30684300  1
  Na  Na22  1  0.41625200  0.53300300  0.19315700  1
  Na  Na23  1  0.66015400  0.96699700  0.38324800  1
  Na  Na24  1  0.61675200  0.77690600  0.58374800  1
  Na  Na25  1  0.58374800  0.61675200  0.77690600  1
  Na  Na26  1  0.77690600  0.58374800  0.61675200  1
  Na  Na27  1  0.80684300  0.72309400  0.33984600  1
  Na  Na28  1  0.91625200  0.69315700  0.03300300  1
  Na  Na29  1  0.46699700  0.16015400  0.88324800  1
  Pb  Pb30  1  0.41742400  0.41742400  0.41742400  1
  Pb  Pb31  1  0.50000000  0.00000000  0.58257600  1
  Pb  Pb32  1  0.58257600  0.50000000  0.00000000  1
  Pb  Pb33  1  0.00000000  0.58257600  0.50000000  1
  Pb  Pb34  1  0.08257600  0.50000000  0.00000000  1
  Pb  Pb35  1  0.00000000  0.08257600  0.50000000  1
  Pb  Pb36  1  0.50000000  0.00000000  0.08257600  1
  Pb  Pb37  1  0.91742400  0.91742400  0.91742400  1
