# generated using pymatgen
data_Sn5BF13
_symmetry_space_group_name_H-M   'P 1'
_cell_length_a   7.77187200
_cell_length_b   13.97232900
_cell_length_c   14.53479897
_cell_angle_alpha   60.92116545
_cell_angle_beta   90.00000000
_cell_angle_gamma   90.00000000
_symmetry_Int_Tables_number   1
_chemical_formula_structural   Sn5BF13
_chemical_formula_sum   'Sn20 B4 F52'
_cell_volume   1379.40235352
_cell_formula_units_Z   4
loop_
 _symmetry_equiv_pos_site_id
 _symmetry_equiv_pos_as_xyz
  1  'x, y, z'
loop_
 _atom_site_type_symbol
 _atom_site_label
 _atom_site_symmetry_multiplicity
 _atom_site_fract_x
 _atom_site_fract_y
 _atom_site_fract_z
 _atom_site_occupancy
  Sn  Sn0  1  0.60176600  0.55672500  0.64769200  1
  Sn  Sn1  1  0.10176600  0.44327500  0.85230800  1
  Sn  Sn2  1  0.39823400  0.44327500  0.35230800  1
  Sn  Sn3  1  0.89823400  0.55672500  0.14769200  1
  Sn  Sn4  1  0.90777900  0.36916400  0.51959400  1
  Sn  Sn5  1  0.40777900  0.63083600  0.98040600  1
  Sn  Sn6  1  0.09222100  0.63083600  0.48040600  1
  Sn  Sn7  1  0.59222100  0.36916400  0.01959400  1
  Sn  Sn8  1  0.91868400  0.73106200  0.81654400  1
  Sn  Sn9  1  0.41868400  0.26893800  0.68345600  1
  Sn  Sn10  1  0.08131600  0.26893800  0.18345600  1
  Sn  Sn11  1  0.58131600  0.73106200  0.31654400  1
  Sn  Sn12  1  0.66572900  0.87586100  0.00619900  1
  Sn  Sn13  1  0.16572900  0.12413900  0.49380100  1
  Sn  Sn14  1  0.33427100  0.12413900  0.99380100  1
  Sn  Sn15  1  0.83427100  0.87586100  0.50619900  1
  Sn  Sn16  1  0.88306900  0.21036200  0.82189100  1
  Sn  Sn17  1  0.38306900  0.78963800  0.67810900  1
  Sn  Sn18  1  0.11693100  0.78963800  0.17810900  1
  Sn  Sn19  1  0.61693100  0.21036200  0.32189100  1
  B  B20  1  0.68740100  0.06273400  0.63908200  1
  B  B21  1  0.18740100  0.93726600  0.86091800  1
  B  B22  1  0.31259900  0.93726600  0.36091800  1
  B  B23  1  0.81259900  0.06273400  0.13908200  1
  F  F24  1  0.50881700  0.19720400  0.86518700  1
  F  F25  1  0.00881700  0.80279600  0.63481300  1
  F  F26  1  0.49118300  0.80279600  0.13481300  1
  F  F27  1  0.99118300  0.19720400  0.36518700  1
  F  F28  1  0.69543800  0.30000500  0.68170200  1
  F  F29  1  0.19543800  0.69999500  0.81829800  1
  F  F30  1  0.30456200  0.69999500  0.31829800  1
  F  F31  1  0.80456200  0.30000500  0.18170200  1
  F  F32  1  0.86726800  0.36244100  0.82525400  1
  F  F33  1  0.36726800  0.63755900  0.67474600  1
  F  F34  1  0.13273200  0.63755900  0.17474600  1
  F  F35  1  0.63273200  0.36244100  0.32525400  1
  F  F36  1  0.49095100  0.37512300  0.50731300  1
  F  F37  1  0.99095100  0.62487700  0.99268700  1
  F  F38  1  0.50904900  0.62487700  0.49268700  1
  F  F39  1  0.00904900  0.37512300  0.00731300  1
  F  F40  1  0.86689300  0.51641200  0.54586800  1
  F  F41  1  0.36689300  0.48358800  0.95413200  1
  F  F42  1  0.13310700  0.48358800  0.45413200  1
  F  F43  1  0.63310700  0.51641200  0.04586800  1
  F  F44  1  0.90710200  0.57423500  0.81933400  1
  F  F45  1  0.40710200  0.42576500  0.68066600  1
  F  F46  1  0.09289800  0.42576500  0.18066600  1
  F  F47  1  0.59289800  0.57423500  0.31933400  1
  F  F48  1  0.53143000  0.69889400  0.82564300  1
  F  F49  1  0.03143000  0.30110600  0.67435700  1
  F  F50  1  0.46857000  0.30110600  0.17435700  1
  F  F51  1  0.96857000  0.69889400  0.32564300  1
  F  F52  1  0.64312700  0.73591900  0.98786400  1
  F  F53  1  0.14312700  0.26408100  0.51213600  1
  F  F54  1  0.35687300  0.26408100  0.01213600  1
  F  F55  1  0.85687300  0.73591900  0.48786400  1
  F  F56  1  0.65483000  0.76503700  0.62399300  1
  F  F57  1  0.15483000  0.23496300  0.87600700  1
  F  F58  1  0.34517000  0.23496300  0.37600700  1
  F  F59  1  0.84517000  0.76503700  0.12399300  1
  F  F60  1  0.54217000  0.11573400  0.57462900  1
  F  F61  1  0.04217000  0.88426600  0.92537100  1
  F  F62  1  0.45783000  0.88426600  0.42537100  1
  F  F63  1  0.95783000  0.11573400  0.07462900  1
  F  F64  1  0.83844800  0.12376100  0.58727200  1
  F  F65  1  0.33844800  0.87623900  0.91272800  1
  F  F66  1  0.16155200  0.87623900  0.41272800  1
  F  F67  1  0.66155200  0.12376100  0.08727200  1
  F  F68  1  0.70202700  0.95535600  0.65228500  1
  F  F69  1  0.20202700  0.04464400  0.84771500  1
  F  F70  1  0.29797300  0.04464400  0.34771500  1
  F  F71  1  0.79797300  0.95535600  0.15228500  1
  F  F72  1  0.66907700  0.05873800  0.73729000  1
  F  F73  1  0.16907700  0.94126200  0.76271000  1
  F  F74  1  0.33092300  0.94126200  0.26271000  1
  F  F75  1  0.83092300  0.05873800  0.23729000  1
