# generated using pymatgen
data_Na4BeAlSi4ClO12
_symmetry_space_group_name_H-M   'P 1'
_cell_length_a   7.62803000
_cell_length_b   7.62803000
_cell_length_c   7.62803000
_cell_angle_alpha   110.17446254
_cell_angle_beta   110.17446254
_cell_angle_gamma   108.07371070
_symmetry_Int_Tables_number   1
_chemical_formula_structural   Na4BeAlSi4ClO12
_chemical_formula_sum   'Na4 Be1 Al1 Si4 Cl1 O12'
_cell_volume   341.52463853
_cell_formula_units_Z   1
loop_
 _symmetry_equiv_pos_site_id
 _symmetry_equiv_pos_as_xyz
  1  'x, y, z'
loop_
 _atom_site_type_symbol
 _atom_site_label
 _atom_site_symmetry_multiplicity
 _atom_site_fract_x
 _atom_site_fract_y
 _atom_site_fract_z
 _atom_site_occupancy
  Na  Na0  1  0.66264300  0.01609800  0.04109600  1
  Na  Na1  1  0.97500200  0.62154700  0.95890400  1
  Na  Na2  1  0.98390200  0.02499800  0.64654500  1
  Na  Na3  1  0.37845300  0.33735700  0.35345500  1
  Be  Be4  1  0.75000000  0.25000000  0.50000000  1
  Al  Al5  1  0.25000000  0.75000000  0.50000000  1
  Si  Si6  1  0.51740000  0.25095900  0.75933300  1
  Si  Si7  1  0.74904100  0.50837400  0.26644100  1
  Si  Si8  1  0.49162600  0.75806700  0.24066700  1
  Si  Si9  1  0.24193300  0.48260000  0.73355900  1
  Cl  Cl10  1  0.00000000  0.00000000  0.00000000  1
  O  O11  1  0.69800500  0.31198200  0.30904800  1
  O  O12  1  0.70849900  0.42398600  0.01663500  1
  O  O13  1  0.30813600  0.29150100  0.71548700  1
  O  O14  1  0.68801800  0.99706600  0.38602300  1
  O  O15  1  0.00293400  0.38895700  0.69095200  1
  O  O16  1  0.40735100  0.69186400  0.98336500  1
  O  O17  1  0.61104300  0.30199500  0.61397700  1
  O  O18  1  0.28622300  0.56226600  0.57264000  1
  O  O19  1  0.43773400  0.01037400  0.72395700  1
  O  O20  1  0.28641700  0.71377700  0.27604300  1
  O  O21  1  0.98962600  0.71358300  0.42736000  1
  O  O22  1  0.57601400  0.59264900  0.28451300  1
