# generated using pymatgen
data_BaTe2F10
_symmetry_space_group_name_H-M   'P 1'
_cell_length_a   9.16643353
_cell_length_b   9.16643353
_cell_length_c   10.48028974
_cell_angle_alpha   68.33754334
_cell_angle_beta   68.33754334
_cell_angle_gamma   31.34520407
_symmetry_Int_Tables_number   1
_chemical_formula_structural   BaTe2F10
_chemical_formula_sum   'Ba2 Te4 F20'
_cell_volume   423.07353748
_cell_formula_units_Z   2
loop_
 _symmetry_equiv_pos_site_id
 _symmetry_equiv_pos_as_xyz
  1  'x, y, z'
loop_
 _atom_site_type_symbol
 _atom_site_label
 _atom_site_symmetry_multiplicity
 _atom_site_fract_x
 _atom_site_fract_y
 _atom_site_fract_z
 _atom_site_occupancy
  Ba  Ba0  1  0.95717200  0.04282800  0.25000000  1
  Ba  Ba1  1  0.04282800  0.95717200  0.75000000  1
  Te  Te2  1  0.60264500  0.71387000  0.43166200  1
  Te  Te3  1  0.28613000  0.39735500  0.06833800  1
  Te  Te4  1  0.39735500  0.28613000  0.56833800  1
  Te  Te5  1  0.71387000  0.60264500  0.93166200  1
  F  F6  1  0.44806500  0.95691500  0.25555200  1
  F  F7  1  0.04308500  0.55193500  0.24444800  1
  F  F8  1  0.55193500  0.04308500  0.74444800  1
  F  F9  1  0.95691500  0.44806500  0.75555200  1
  F  F10  1  0.81174300  0.40179500  0.34420000  1
  F  F11  1  0.59820500  0.18825700  0.15580000  1
  F  F12  1  0.50718000  0.64058200  0.12207100  1
  F  F13  1  0.35941800  0.49282000  0.37792900  1
  F  F14  1  0.49282000  0.35941800  0.87792900  1
  F  F15  1  0.64058200  0.50718000  0.62207100  1
  F  F16  1  0.05789100  0.27767600  0.03720700  1
  F  F17  1  0.72232400  0.94210900  0.46279300  1
  F  F18  1  0.94210900  0.72232400  0.96279300  1
  F  F19  1  0.27767600  0.05789100  0.53720700  1
  F  F20  1  0.82157400  0.30073500  0.94710700  1
  F  F21  1  0.69926500  0.17842600  0.55289300  1
  F  F22  1  0.17842600  0.69926500  0.05289300  1
  F  F23  1  0.30073500  0.82157400  0.44710700  1
  F  F24  1  0.40179500  0.81174300  0.84420000  1
  F  F25  1  0.18825700  0.59820500  0.65580000  1
