# generated using pymatgen
data_PH4I
_symmetry_space_group_name_H-M   'P 1'
_cell_length_a   6.41996300
_cell_length_b   6.41996300
_cell_length_c   4.66734600
_cell_angle_alpha   90.00000000
_cell_angle_beta   90.00000000
_cell_angle_gamma   90.00000000
_symmetry_Int_Tables_number   1
_chemical_formula_structural   PH4I
_chemical_formula_sum   'P2 H8 I2'
_cell_volume   192.36898232
_cell_formula_units_Z   2
loop_
 _symmetry_equiv_pos_site_id
 _symmetry_equiv_pos_as_xyz
  1  'x, y, z'
loop_
 _atom_site_type_symbol
 _atom_site_label
 _atom_site_symmetry_multiplicity
 _atom_site_fract_x
 _atom_site_fract_y
 _atom_site_fract_z
 _atom_site_occupancy
  P  P0  1  0.50000000  0.50000000  0.00000000  1
  P  P1  1  0.00000000  0.00000000  0.00000000  1
  H  H2  1  0.50000000  0.67932000  0.17705500  1
  H  H3  1  0.17932000  0.00000000  0.17705500  1
  H  H4  1  0.82068000  0.00000000  0.17705500  1
  H  H5  1  0.50000000  0.32068000  0.17705500  1
  H  H6  1  0.00000000  0.17932000  0.82294500  1
  H  H7  1  0.00000000  0.82068000  0.82294500  1
  H  H8  1  0.67932000  0.50000000  0.82294500  1
  H  H9  1  0.32068000  0.50000000  0.82294500  1
  I  I10  1  0.00000000  0.50000000  0.39644900  1
  I  I11  1  0.50000000  0.00000000  0.60355100  1
