# generated using pymatgen
data_Mn(GaS2)2
_symmetry_space_group_name_H-M   'P 1'
_cell_length_a   6.48127720
_cell_length_b   6.48127720
_cell_length_c   6.48127720
_cell_angle_alpha   130.25706336
_cell_angle_beta   130.25706336
_cell_angle_gamma   72.99613999
_symmetry_Int_Tables_number   1
_chemical_formula_structural   Mn(GaS2)2
_chemical_formula_sum   'Mn1 Ga2 S4'
_cell_volume   154.85919030
_cell_formula_units_Z   1
loop_
 _symmetry_equiv_pos_site_id
 _symmetry_equiv_pos_as_xyz
  1  'x, y, z'
loop_
 _atom_site_type_symbol
 _atom_site_label
 _atom_site_symmetry_multiplicity
 _atom_site_fract_x
 _atom_site_fract_y
 _atom_site_fract_z
 _atom_site_occupancy
  Mn  Mn0  1  0.50000000  0.50000000  0.00000000  1
  Ga  Ga1  1  0.00000000  0.00000000  0.00000000  1
  Ga  Ga2  1  0.25000000  0.75000000  0.50000000  1
  S  S3  1  0.62959700  0.62392300  0.51601900  1
  S  S4  1  0.10790500  0.11357900  0.48398100  1
  S  S5  1  0.88642100  0.37040300  0.99432600  1
  S  S6  1  0.37607700  0.89209500  0.00567400  1
