# generated using pymatgen
data_K2Si2O5
_symmetry_space_group_name_H-M   'P 1'
_cell_length_a   10.10588892
_cell_length_b   10.10588892
_cell_length_c   10.10100476
_cell_angle_alpha   68.61792388
_cell_angle_beta   68.61792388
_cell_angle_gamma   68.81756681
_symmetry_Int_Tables_number   1
_chemical_formula_structural   K2Si2O5
_chemical_formula_sum   'K12 Si12 O30'
_cell_volume   862.88679511
_cell_formula_units_Z   6
loop_
 _symmetry_equiv_pos_site_id
 _symmetry_equiv_pos_as_xyz
  1  'x, y, z'
loop_
 _atom_site_type_symbol
 _atom_site_label
 _atom_site_symmetry_multiplicity
 _atom_site_fract_x
 _atom_site_fract_y
 _atom_site_fract_z
 _atom_site_occupancy
  K  K0  1  0.61523500  0.09918500  0.92991800  1
  K  K1  1  0.09918500  0.61523500  0.42991800  1
  K  K2  1  0.28622700  0.83460900  0.62391200  1
  K  K3  1  0.83460900  0.28622700  0.12391200  1
  K  K4  1  0.23105200  0.20263400  0.02120700  1
  K  K5  1  0.20263400  0.23105200  0.52120700  1
  K  K6  1  0.43512900  0.96124600  0.78330600  1
  K  K7  1  0.96124600  0.43512900  0.28330600  1
  K  K8  1  0.63793500  0.68373000  0.96643900  1
  K  K9  1  0.68373000  0.63793500  0.46643900  1
  K  K10  1  0.67599700  0.14410600  0.52056000  1
  K  K11  1  0.14410600  0.67599700  0.02056000  1
  Si  Si12  1  0.51400000  0.48679800  0.32596000  1
  Si  Si13  1  0.84577300  0.38489400  0.73690900  1
  Si  Si14  1  0.38489400  0.84577300  0.23690900  1
  Si  Si15  1  0.99397000  0.04526100  0.87485100  1
  Si  Si16  1  0.04526100  0.99397000  0.37485100  1
  Si  Si17  1  0.87430400  0.90982400  0.22107400  1
  Si  Si18  1  0.90982400  0.87430400  0.72107400  1
  Si  Si19  1  0.02602800  0.52207200  0.82416900  1
  Si  Si20  1  0.52207200  0.02602800  0.32416900  1
  Si  Si21  1  0.39685000  0.36073600  0.16706700  1
  Si  Si22  1  0.36073600  0.39685000  0.66706700  1
  Si  Si23  1  0.48679800  0.51400000  0.82596000  1
  O  O24  1  0.88355600  0.47454700  0.82374800  1
  O  O25  1  0.03028000  0.48177600  0.98979200  1
  O  O26  1  0.48177600  0.03028000  0.48979200  1
  O  O27  1  0.43608000  0.17686300  0.21718000  1
  O  O28  1  0.17686300  0.43608000  0.71718000  1
  O  O29  1  0.93841400  0.92343200  0.84709300  1
  O  O30  1  0.92343200  0.93841400  0.34709300  1
  O  O31  1  0.23411600  0.43962100  0.24274900  1
  O  O32  1  0.43962100  0.23411600  0.74274900  1
  O  O33  1  0.92976200  0.41594200  0.56690100  1
  O  O34  1  0.41594200  0.92976200  0.06690100  1
  O  O35  1  0.90471800  0.73830600  0.24636000  1
  O  O36  1  0.20947900  0.87255000  0.33916300  1
  O  O37  1  0.87255000  0.20947900  0.83916300  1
  O  O38  1  0.99875500  0.96558200  0.55774800  1
  O  O39  1  0.96558200  0.99875500  0.05774800  1
  O  O40  1  0.39365300  0.43261400  0.48461300  1
  O  O41  1  0.43261400  0.39365300  0.98461300  1
  O  O42  1  0.40728500  0.52106200  0.70260000  1
  O  O43  1  0.52106200  0.40728500  0.20260000  1
  O  O44  1  0.04136500  0.15967900  0.28620700  1
  O  O45  1  0.15967900  0.04136500  0.78620700  1
  O  O46  1  0.67692800  0.44466700  0.33916900  1
  O  O47  1  0.44466700  0.67692800  0.83916900  1
  O  O48  1  0.44208000  0.66476000  0.26328000  1
  O  O49  1  0.66476000  0.44208000  0.76328000  1
  O  O50  1  0.47454700  0.88355600  0.32374800  1
  O  O51  1  0.69947000  0.00788100  0.23335700  1
  O  O52  1  0.00788100  0.69947000  0.73335700  1
  O  O53  1  0.73830600  0.90471800  0.74636000  1
