# generated using pymatgen
data_Ga4Bi2O9
_symmetry_space_group_name_H-M   'P 1'
_cell_length_a   6.00486800
_cell_length_b   8.03925800
_cell_length_c   8.44455200
_cell_angle_alpha   90.00000000
_cell_angle_beta   90.00000000
_cell_angle_gamma   90.00000000
_symmetry_Int_Tables_number   1
_chemical_formula_structural   Ga4Bi2O9
_chemical_formula_sum   'Ga8 Bi4 O18'
_cell_volume   407.65807179
_cell_formula_units_Z   2
loop_
 _symmetry_equiv_pos_site_id
 _symmetry_equiv_pos_as_xyz
  1  'x, y, z'
loop_
 _atom_site_type_symbol
 _atom_site_label
 _atom_site_symmetry_multiplicity
 _atom_site_fract_x
 _atom_site_fract_y
 _atom_site_fract_z
 _atom_site_occupancy
  Ga  Ga0  1  0.50000000  0.14855800  0.66230300  1
  Ga  Ga1  1  0.50000000  0.85144200  0.33769700  1
  Ga  Ga2  1  0.50000000  0.64855800  0.83769700  1
  Ga  Ga3  1  0.50000000  0.35144200  0.16230300  1
  Ga  Ga4  1  0.25866100  0.50000000  0.50000000  1
  Ga  Ga5  1  0.74133900  0.00000000  0.00000000  1
  Ga  Ga6  1  0.74133900  0.50000000  0.50000000  1
  Ga  Ga7  1  0.25866100  0.00000000  0.00000000  1
  Bi  Bi8  1  0.00000000  0.32323000  0.82663400  1
  Bi  Bi9  1  0.00000000  0.67677000  0.17336600  1
  Bi  Bi10  1  0.00000000  0.82323000  0.67336600  1
  Bi  Bi11  1  0.00000000  0.17677000  0.32663400  1
  O  O12  1  0.50000000  0.50000000  0.00000000  1
  O  O13  1  0.50000000  0.00000000  0.50000000  1
  O  O14  1  0.24356600  0.87311200  0.20952000  1
  O  O15  1  0.24356600  0.12688800  0.79048000  1
  O  O16  1  0.75643400  0.37311200  0.29048000  1
  O  O17  1  0.75643400  0.62688800  0.70952000  1
  O  O18  1  0.75643400  0.12688800  0.79048000  1
  O  O19  1  0.75643400  0.87311200  0.20952000  1
  O  O20  1  0.24356600  0.62688800  0.70952000  1
  O  O21  1  0.24356600  0.37311200  0.29048000  1
  O  O22  1  0.50000000  0.36746700  0.59156100  1
  O  O23  1  0.50000000  0.63253300  0.40843900  1
  O  O24  1  0.00000000  0.14970300  0.06446200  1
  O  O25  1  0.00000000  0.85029700  0.93553800  1
  O  O26  1  0.00000000  0.64970300  0.43553800  1
  O  O27  1  0.00000000  0.35029700  0.56446200  1
  O  O28  1  0.50000000  0.13253300  0.09156100  1
  O  O29  1  0.50000000  0.86746700  0.90843900  1
