# generated using pymatgen
data_GeS
_symmetry_space_group_name_H-M   'P 1'
_cell_length_a   3.66588100
_cell_length_b   4.45453300
_cell_length_c   10.76962200
_cell_angle_alpha   90.00000000
_cell_angle_beta   90.00000000
_cell_angle_gamma   90.00000000
_symmetry_Int_Tables_number   1
_chemical_formula_structural   GeS
_chemical_formula_sum   'Ge4 S4'
_cell_volume   175.86564290
_cell_formula_units_Z   4
loop_
 _symmetry_equiv_pos_site_id
 _symmetry_equiv_pos_as_xyz
  1  'x, y, z'
loop_
 _atom_site_type_symbol
 _atom_site_label
 _atom_site_symmetry_multiplicity
 _atom_site_fract_x
 _atom_site_fract_y
 _atom_site_fract_z
 _atom_site_occupancy
  Ge  Ge0  1  0.25000000  0.36467200  0.87429300  1
  Ge  Ge1  1  0.75000000  0.63532800  0.12570700  1
  Ge  Ge2  1  0.75000000  0.86467200  0.62570700  1
  Ge  Ge3  1  0.25000000  0.13532800  0.37429300  1
  S  S4  1  0.25000000  0.50214900  0.65275500  1
  S  S5  1  0.75000000  0.49785100  0.34724500  1
  S  S6  1  0.75000000  0.00214900  0.84724500  1
  S  S7  1  0.25000000  0.99785100  0.15275500  1
