# generated using pymatgen
data_RbTlF4
_symmetry_space_group_name_H-M   'P 1'
_cell_length_a   6.45444400
_cell_length_b   8.47228600
_cell_length_c   8.56395900
_cell_angle_alpha   90.00000000
_cell_angle_beta   90.00000000
_cell_angle_gamma   90.00000000
_symmetry_Int_Tables_number   1
_chemical_formula_structural   RbTlF4
_chemical_formula_sum   'Rb4 Tl4 F16'
_cell_volume   468.31063936
_cell_formula_units_Z   4
loop_
 _symmetry_equiv_pos_site_id
 _symmetry_equiv_pos_as_xyz
  1  'x, y, z'
loop_
 _atom_site_type_symbol
 _atom_site_label
 _atom_site_symmetry_multiplicity
 _atom_site_fract_x
 _atom_site_fract_y
 _atom_site_fract_z
 _atom_site_occupancy
  Rb  Rb0  1  0.49077500  0.18993700  0.75000000  1
  Rb  Rb1  1  0.50922500  0.81006300  0.25000000  1
  Rb  Rb2  1  0.50922500  0.68993700  0.75000000  1
  Rb  Rb3  1  0.49077500  0.31006300  0.25000000  1
  Tl  Tl4  1  0.00000000  0.00000000  0.00000000  1
  Tl  Tl5  1  0.00000000  0.00000000  0.50000000  1
  Tl  Tl6  1  0.00000000  0.50000000  0.00000000  1
  Tl  Tl7  1  0.00000000  0.50000000  0.50000000  1
  F  F8  1  0.70084800  0.42434400  0.56498100  1
  F  F9  1  0.29915200  0.57565600  0.06498100  1
  F  F10  1  0.29915200  0.92434400  0.56498100  1
  F  F11  1  0.70084800  0.07565600  0.06498100  1
  F  F12  1  0.29915200  0.57565600  0.43501900  1
  F  F13  1  0.70084800  0.42434400  0.93501900  1
  F  F14  1  0.70084800  0.07565600  0.43501900  1
  F  F15  1  0.29915200  0.92434400  0.93501900  1
  F  F16  1  0.13306700  0.25000000  0.00000000  1
  F  F17  1  0.86693300  0.75000000  0.50000000  1
  F  F18  1  0.86693300  0.75000000  0.00000000  1
  F  F19  1  0.13306700  0.25000000  0.50000000  1
  F  F20  1  0.88887400  0.02464700  0.75000000  1
  F  F21  1  0.11112600  0.97535300  0.25000000  1
  F  F22  1  0.11112600  0.52464700  0.75000000  1
  F  F23  1  0.88887400  0.47535300  0.25000000  1
