# generated using pymatgen
data_MoS2Cl3
_symmetry_space_group_name_H-M   'P 1'
_cell_length_a   7.71384800
_cell_length_b   6.25299600
_cell_length_c   14.36656879
_cell_angle_alpha   65.79503491
_cell_angle_beta   90.00000000
_cell_angle_gamma   90.00000000
_symmetry_Int_Tables_number   1
_chemical_formula_structural   MoS2Cl3
_chemical_formula_sum   'Mo4 S8 Cl12'
_cell_volume   632.04413043
_cell_formula_units_Z   4
loop_
 _symmetry_equiv_pos_site_id
 _symmetry_equiv_pos_as_xyz
  1  'x, y, z'
loop_
 _atom_site_type_symbol
 _atom_site_label
 _atom_site_symmetry_multiplicity
 _atom_site_fract_x
 _atom_site_fract_y
 _atom_site_fract_z
 _atom_site_occupancy
  Mo  Mo0  1  0.59333400  0.70185700  0.99482800  1
  Mo  Mo1  1  0.09333400  0.29814300  0.50517200  1
  Mo  Mo2  1  0.40666600  0.29814300  0.00517200  1
  Mo  Mo3  1  0.90666600  0.70185700  0.49482800  1
  S  S4  1  0.71667100  0.31486700  0.04793100  1
  S  S5  1  0.28332900  0.68513300  0.95206900  1
  S  S6  1  0.78332900  0.31486700  0.54793100  1
  S  S7  1  0.21667100  0.68513300  0.45206900  1
  S  S8  1  0.04893400  0.65886500  0.35148300  1
  S  S9  1  0.54893400  0.34113500  0.14851700  1
  S  S10  1  0.95106600  0.34113500  0.64851700  1
  S  S11  1  0.45106600  0.65886500  0.85148300  1
  Cl  Cl12  1  0.67903500  0.76452900  0.36512200  1
  Cl  Cl13  1  0.82096500  0.76452900  0.86512200  1
  Cl  Cl14  1  0.17903500  0.23547100  0.13487800  1
  Cl  Cl15  1  0.32096500  0.23547100  0.63487800  1
  Cl  Cl16  1  0.92830800  0.14181100  0.38952700  1
  Cl  Cl17  1  0.42830800  0.85818900  0.11047300  1
  Cl  Cl18  1  0.07169200  0.85818900  0.61047300  1
  Cl  Cl19  1  0.57169200  0.14181100  0.88952700  1
  Cl  Cl20  1  0.66950400  0.77558800  0.58370100  1
  Cl  Cl21  1  0.16950400  0.22441200  0.91629900  1
  Cl  Cl22  1  0.33049600  0.22441200  0.41629900  1
  Cl  Cl23  1  0.83049600  0.77558800  0.08370100  1
