# generated using pymatgen
data_NiSnH12(OF)6
_symmetry_space_group_name_H-M   'P 1'
_cell_length_a   6.58856802
_cell_length_b   14.06869172
_cell_length_c   13.18052698
_cell_angle_alpha   111.40565470
_cell_angle_beta   83.63588442
_cell_angle_gamma   98.93152739
_symmetry_Int_Tables_number   1
_chemical_formula_structural   NiSnH12(OF)6
_chemical_formula_sum   'Ni4 Sn4 H48 O24 F24'
_cell_volume   1121.71697349
_cell_formula_units_Z   4
loop_
 _symmetry_equiv_pos_site_id
 _symmetry_equiv_pos_as_xyz
  1  'x, y, z'
loop_
 _atom_site_type_symbol
 _atom_site_label
 _atom_site_symmetry_multiplicity
 _atom_site_fract_x
 _atom_site_fract_y
 _atom_site_fract_z
 _atom_site_occupancy
  Ni  Ni0  1  0.50012800  0.25041700  0.37518600  1
  Ni  Ni1  1  0.49984400  0.74958800  0.62471700  1
  Ni  Ni2  1  0.50011300  0.24973900  0.87481900  1
  Ni  Ni3  1  0.49997400  0.75026600  0.12528800  1
  Sn  Sn4  1  0.00000400  0.99999900  0.49999900  1
  Sn  Sn5  1  0.00004100  0.50001400  0.74989100  1
  Sn  Sn6  1  0.00000600  0.99999900  0.00000200  1
  Sn  Sn7  1  0.99996400  0.49999300  0.25011500  1
  H  H8  1  0.68173100  0.27518200  0.18843400  1
  H  H9  1  0.68165400  0.77519100  0.43859100  1
  H  H10  1  0.68182200  0.27514300  0.68862000  1
  H  H11  1  0.68182200  0.77516100  0.93849300  1
  H  H12  1  0.89828500  0.34089200  0.39530600  1
  H  H13  1  0.89788800  0.84078100  0.64521100  1
  H  H14  1  0.89798400  0.34087600  0.89525000  1
  H  H15  1  0.89822000  0.84090800  0.14529800  1
  H  H16  1  0.55037600  0.44924100  0.38360800  1
  H  H17  1  0.55041100  0.94886600  0.63374200  1
  H  H18  1  0.55036500  0.44890000  0.88370900  1
  H  H19  1  0.55030400  0.94924700  0.13360000  1
  H  H20  1  0.31835800  0.22482600  0.56142700  1
  H  H21  1  0.31827800  0.72483500  0.81158400  1
  H  H22  1  0.31818500  0.22484300  0.06151400  1
  H  H23  1  0.31818700  0.72486300  0.31138800  1
  H  H24  1  0.10206000  0.15920600  0.35479100  1
  H  H25  1  0.10165800  0.65909400  0.60469600  1
  H  H26  1  0.10179100  0.15909700  0.85470500  1
  H  H27  1  0.10203000  0.65913300  0.10475300  1
  H  H28  1  0.44959900  0.05111000  0.36626400  1
  H  H29  1  0.44963300  0.55073300  0.61639800  1
  H  H30  1  0.44970600  0.05075300  0.86640700  1
  H  H31  1  0.44964600  0.55110300  0.11629500  1
  H  H32  1  0.66674600  0.15742400  0.17592000  1
  H  H33  1  0.66710800  0.65730000  0.42547000  1
  H  H34  1  0.66737000  0.15723300  0.67548300  1
  H  H35  1  0.66691500  0.65741400  0.92601200  1
  H  H36  1  0.80605400  0.33352000  0.50949000  1
  H  H37  1  0.80547700  0.83337500  0.75928000  1
  H  H38  1  0.80562500  0.33348800  0.00934700  1
  H  H39  1  0.80604600  0.83358100  0.25947700  1
  H  H40  1  0.33292800  0.34269300  0.57451400  1
  H  H41  1  0.33328900  0.84256900  0.82406300  1
  H  H42  1  0.33309900  0.34259400  0.07398700  1
  H  H43  1  0.33264900  0.84277500  0.32451600  1
  H  H44  1  0.19444200  0.16660300  0.24069100  1
  H  H45  1  0.19386200  0.66645700  0.49048100  1
  H  H46  1  0.19396300  0.16642500  0.74053200  1
  H  H47  1  0.19438500  0.66652100  0.99066300  1
  H  H48  1  0.68520900  0.09712600  0.38194500  1
  H  H49  1  0.68527000  0.59703100  0.63208500  1
  H  H50  1  0.68537800  0.09691300  0.88210200  1
  H  H51  1  0.68527500  0.59721100  0.13201200  1
  H  H52  1  0.31472300  0.40300100  0.36792700  1
  H  H53  1  0.31478400  0.90290600  0.61806800  1
  H  H54  1  0.31474400  0.40279000  0.86799300  1
  H  H55  1  0.31464400  0.90308500  0.11790600  1
  O  O56  1  0.79427700  0.30246000  0.43000200  1
  O  O57  1  0.79403200  0.80217700  0.67978300  1
  O  O58  1  0.79423400  0.30224700  0.92984800  1
  O  O59  1  0.79421100  0.80248500  0.17999800  1
  O  O60  1  0.60473100  0.22143800  0.21368300  1
  O  O61  1  0.60466800  0.72117400  0.46340700  1
  O  O62  1  0.60474500  0.22107400  0.71334100  1
  O  O63  1  0.60468700  0.72138200  0.96367100  1
  O  O64  1  0.39530900  0.27880800  0.53654700  1
  O  O65  1  0.39524300  0.77854400  0.78627100  1
  O  O66  1  0.39532100  0.27862300  0.03634000  1
  O  O67  1  0.39526900  0.77893200  0.28667100  1
  O  O68  1  0.20586700  0.19781100  0.32019200  1
  O  O69  1  0.20561000  0.69753100  0.56997300  1
  O  O70  1  0.20581800  0.19751800  0.82001100  1
  O  O71  1  0.20579300  0.69776100  0.07016300  1
  O  O72  1  0.55734400  0.10314100  0.35387100  1
  O  O73  1  0.55746200  0.60255800  0.60358900  1
  O  O74  1  0.55764200  0.10255700  0.85361900  1
  O  O75  1  0.55735600  0.60318600  0.10396900  1
  O  O76  1  0.44251900  0.39741800  0.39639000  1
  O  O77  1  0.44264200  0.89683500  0.64610600  1
  O  O78  1  0.44266700  0.39680900  0.89603000  1
  O  O79  1  0.44237900  0.89744000  0.14638900  1
  F  F80  1  0.83441300  0.37452500  0.65163400  1
  F  F81  1  0.83416900  0.87453500  0.90175200  1
  F  F82  1  0.83421100  0.37447700  0.15198300  1
  F  F83  1  0.83411700  0.87453500  0.40192900  1
  F  F84  1  0.07087500  0.41710200  0.33412700  1
  F  F85  1  0.07112000  0.91707300  0.58400300  1
  F  F86  1  0.07097600  0.41710100  0.83387700  1
  F  F87  1  0.07115600  0.91716000  0.08395300  1
  F  F88  1  0.74907600  0.03550300  0.10079100  1
  F  F89  1  0.74896800  0.53548400  0.35079200  1
  F  F90  1  0.74911200  0.03543400  0.60071400  1
  F  F91  1  0.74906800  0.53555800  0.85051700  1
  F  F92  1  0.16584400  0.12546600  0.09825800  1
  F  F93  1  0.16560100  0.62548300  0.34837700  1
  F  F94  1  0.16587900  0.12545500  0.59806800  1
  F  F95  1  0.16577700  0.62552800  0.84802600  1
  F  F96  1  0.92889800  0.08292800  0.41599600  1
  F  F97  1  0.92914400  0.58291100  0.66587300  1
  F  F98  1  0.92885800  0.08284400  0.91606000  1
  F  F99  1  0.92903400  0.58290700  0.16613400  1
  F  F100  1  0.25104300  0.46453000  0.64921900  1
  F  F101  1  0.25094300  0.96450700  0.89921600  1
  F  F102  1  0.25094300  0.46445200  0.14949000  1
  F  F103  1  0.25089600  0.96456100  0.39928100  1
