# generated using pymatgen
data_LiInTe2
_symmetry_space_group_name_H-M   'P 1'
_cell_length_a   7.87941571
_cell_length_b   7.87941571
_cell_length_c   7.87941571
_cell_angle_alpha   130.95088918
_cell_angle_beta   130.95088918
_cell_angle_gamma   71.89111743
_symmetry_Int_Tables_number   1
_chemical_formula_structural   LiInTe2
_chemical_formula_sum   'Li2 In2 Te4'
_cell_volume   272.94144160
_cell_formula_units_Z   2
loop_
 _symmetry_equiv_pos_site_id
 _symmetry_equiv_pos_as_xyz
  1  'x, y, z'
loop_
 _atom_site_type_symbol
 _atom_site_label
 _atom_site_symmetry_multiplicity
 _atom_site_fract_x
 _atom_site_fract_y
 _atom_site_fract_z
 _atom_site_occupancy
  Li  Li0  1  0.25000000  0.75000000  0.50000000  1
  Li  Li1  1  0.50000000  0.50000000  0.00000000  1
  In  In2  1  0.75000000  0.25000000  0.50000000  1
  In  In3  1  0.00000000  0.00000000  0.00000000  1
  Te  Te4  1  0.87500000  0.86739100  0.49239100  1
  Te  Te5  1  0.13260900  0.62500000  0.00760900  1
  Te  Te6  1  0.61739100  0.12500000  0.99239100  1
  Te  Te7  1  0.37500000  0.38260900  0.50760900  1
