# generated using pymatgen
data_KCu4(AsO4)3
_symmetry_space_group_name_H-M   'P 1'
_cell_length_a   8.84231606
_cell_length_b   8.84231606
_cell_length_c   7.54950744
_cell_angle_alpha   70.28960790
_cell_angle_beta   70.28960790
_cell_angle_gamma   90.67865041
_symmetry_Int_Tables_number   1
_chemical_formula_structural   KCu4(AsO4)3
_chemical_formula_sum   'K2 Cu8 As6 O24'
_cell_volume   517.84825794
_cell_formula_units_Z   2
loop_
 _symmetry_equiv_pos_site_id
 _symmetry_equiv_pos_as_xyz
  1  'x, y, z'
loop_
 _atom_site_type_symbol
 _atom_site_label
 _atom_site_symmetry_multiplicity
 _atom_site_fract_x
 _atom_site_fract_y
 _atom_site_fract_z
 _atom_site_occupancy
  K  K0  1  0.01232400  0.98767600  0.75000000  1
  K  K1  1  0.98767600  0.01232400  0.25000000  1
  Cu  Cu2  1  0.61766100  0.93234500  0.64440400  1
  Cu  Cu3  1  0.50508500  0.49491500  0.25000000  1
  Cu  Cu4  1  0.73747200  0.26252800  0.75000000  1
  Cu  Cu5  1  0.93234500  0.61766100  0.14440400  1
  Cu  Cu6  1  0.26252800  0.73747200  0.25000000  1
  Cu  Cu7  1  0.49491500  0.50508500  0.75000000  1
  Cu  Cu8  1  0.06765500  0.38233900  0.85559600  1
  Cu  Cu9  1  0.38233900  0.06765500  0.35559600  1
  As  As10  1  0.35212400  0.11323100  0.87612000  1
  As  As11  1  0.11323100  0.35212400  0.37612000  1
  As  As12  1  0.88676900  0.64787600  0.62388000  1
  As  As13  1  0.72371700  0.27628300  0.25000000  1
  As  As14  1  0.27628300  0.72371700  0.75000000  1
  As  As15  1  0.64787600  0.88676900  0.12388000  1
  O  O16  1  0.17448000  0.18553300  0.86737300  1
  O  O17  1  0.82552000  0.81446700  0.13262700  1
  O  O18  1  0.58366600  0.97249100  0.30702500  1
  O  O19  1  0.97249100  0.58366600  0.80702500  1
  O  O20  1  0.49937600  0.72589400  0.17989300  1
  O  O21  1  0.48085200  0.72347800  0.74127600  1
  O  O22  1  0.72589400  0.49937600  0.67989300  1
  O  O23  1  0.50062400  0.27410600  0.82010700  1
  O  O24  1  0.15529300  0.74892000  0.96642800  1
  O  O25  1  0.18553300  0.17448000  0.36737300  1
  O  O26  1  0.51914800  0.27652200  0.25872400  1
  O  O27  1  0.68597300  0.02095200  0.88043900  1
  O  O28  1  0.97904800  0.31402700  0.61956100  1
  O  O29  1  0.02095200  0.68597300  0.38043900  1
  O  O30  1  0.84470700  0.25108000  0.03357200  1
  O  O31  1  0.27410600  0.50062400  0.32010700  1
  O  O32  1  0.74892000  0.15529300  0.46642800  1
  O  O33  1  0.27652200  0.51914800  0.75872400  1
  O  O34  1  0.41633400  0.02750900  0.69297500  1
  O  O35  1  0.31402700  0.97904800  0.11956100  1
  O  O36  1  0.02750900  0.41633400  0.19297500  1
  O  O37  1  0.25108000  0.84470700  0.53357200  1
  O  O38  1  0.72347800  0.48085200  0.24127600  1
  O  O39  1  0.81446700  0.82552000  0.63262700  1
