# generated using pymatgen
data_U4Te3O4
_symmetry_space_group_name_H-M   'P 1'
_cell_length_a   14.28369564
_cell_length_b   14.28369564
_cell_length_c   14.28369564
_cell_angle_alpha   164.04669679
_cell_angle_beta   164.04669679
_cell_angle_gamma   22.63548280
_symmetry_Int_Tables_number   1
_chemical_formula_structural   U4Te3O4
_chemical_formula_sum   'U4 Te3 O4'
_cell_volume   220.11092292
_cell_formula_units_Z   1
loop_
 _symmetry_equiv_pos_site_id
 _symmetry_equiv_pos_as_xyz
  1  'x, y, z'
loop_
 _atom_site_type_symbol
 _atom_site_label
 _atom_site_symmetry_multiplicity
 _atom_site_fract_x
 _atom_site_fract_y
 _atom_site_fract_z
 _atom_site_occupancy
  U  U0  1  0.56822900  0.56822900  0.00000000  1
  U  U1  1  0.43177100  0.43177100  0.00000000  1
  U  U2  1  0.84385900  0.84385900  0.00000000  1
  U  U3  1  0.15614100  0.15614100  0.00000000  1
  Te  Te4  1  0.00000000  0.00000000  0.00000000  1
  Te  Te5  1  0.28939200  0.28939200  0.00000000  1
  Te  Te6  1  0.71060800  0.71060800  0.00000000  1
  O  O7  1  0.39196200  0.89196200  0.50000000  1
  O  O8  1  0.89196200  0.39196200  0.50000000  1
  O  O9  1  0.60803800  0.10803800  0.50000000  1
  O  O10  1  0.10803800  0.60803800  0.50000000  1
