# generated using pymatgen
data_Na2(GaSb)3
_symmetry_space_group_name_H-M   'P 1'
_cell_length_a   4.35379200
_cell_length_b   7.35779300
_cell_length_c   27.26659100
_cell_angle_alpha   90.00000000
_cell_angle_beta   90.00000000
_cell_angle_gamma   90.00000000
_symmetry_Int_Tables_number   1
_chemical_formula_structural   Na2(GaSb)3
_chemical_formula_sum   'Na8 Ga12 Sb12'
_cell_volume   873.46616428
_cell_formula_units_Z   4
loop_
 _symmetry_equiv_pos_site_id
 _symmetry_equiv_pos_as_xyz
  1  'x, y, z'
loop_
 _atom_site_type_symbol
 _atom_site_label
 _atom_site_symmetry_multiplicity
 _atom_site_fract_x
 _atom_site_fract_y
 _atom_site_fract_z
 _atom_site_occupancy
  Na  Na0  1  0.25000000  0.22113300  0.49609800  1
  Na  Na1  1  0.75000000  0.77886700  0.50390200  1
  Na  Na2  1  0.75000000  0.72113300  0.00390200  1
  Na  Na3  1  0.25000000  0.27886700  0.99609800  1
  Na  Na4  1  0.25000000  0.24947100  0.81643400  1
  Na  Na5  1  0.75000000  0.75052900  0.18356600  1
  Na  Na6  1  0.75000000  0.74947100  0.68356600  1
  Na  Na7  1  0.25000000  0.25052900  0.31643400  1
  Ga  Ga8  1  0.25000000  0.54753900  0.61843000  1
  Ga  Ga9  1  0.75000000  0.45246100  0.38157000  1
  Ga  Ga10  1  0.75000000  0.04753900  0.88157000  1
  Ga  Ga11  1  0.25000000  0.95246100  0.11843000  1
  Ga  Ga12  1  0.25000000  0.07159000  0.20721100  1
  Ga  Ga13  1  0.75000000  0.92841000  0.79278900  1
  Ga  Ga14  1  0.75000000  0.57159000  0.29278900  1
  Ga  Ga15  1  0.25000000  0.42841000  0.70721100  1
  Ga  Ga16  1  0.75000000  0.39702400  0.12263400  1
  Ga  Ga17  1  0.25000000  0.60297600  0.87736600  1
  Ga  Ga18  1  0.25000000  0.89702400  0.37736600  1
  Ga  Ga19  1  0.75000000  0.10297600  0.62263400  1
  Sb  Sb20  1  0.75000000  0.20483600  0.71996100  1
  Sb  Sb21  1  0.25000000  0.79516400  0.28003900  1
  Sb  Sb22  1  0.25000000  0.70483600  0.78003900  1
  Sb  Sb23  1  0.75000000  0.29516400  0.21996100  1
  Sb  Sb24  1  0.25000000  0.90945600  0.59310000  1
  Sb  Sb25  1  0.75000000  0.09054400  0.40690000  1
  Sb  Sb26  1  0.75000000  0.40945600  0.90690000  1
  Sb  Sb27  1  0.25000000  0.59054400  0.09310000  1
  Sb  Sb28  1  0.75000000  0.41277200  0.57198000  1
  Sb  Sb29  1  0.25000000  0.58722800  0.42802000  1
  Sb  Sb30  1  0.25000000  0.91277200  0.92802000  1
  Sb  Sb31  1  0.75000000  0.08722800  0.07198000  1
