# generated using pymatgen
data_BrNO3
_symmetry_space_group_name_H-M   'P 1'
_cell_length_a   4.31504900
_cell_length_b   7.28894800
_cell_length_c   11.58025200
_cell_angle_alpha   90.00000000
_cell_angle_beta   90.00000000
_cell_angle_gamma   90.00000000
_symmetry_Int_Tables_number   1
_chemical_formula_structural   BrNO3
_chemical_formula_sum   'Br4 N4 O12'
_cell_volume   364.22402882
_cell_formula_units_Z   4
loop_
 _symmetry_equiv_pos_site_id
 _symmetry_equiv_pos_as_xyz
  1  'x, y, z'
loop_
 _atom_site_type_symbol
 _atom_site_label
 _atom_site_symmetry_multiplicity
 _atom_site_fract_x
 _atom_site_fract_y
 _atom_site_fract_z
 _atom_site_occupancy
  Br  Br0  1  0.24886500  0.98475200  0.78126900  1
  Br  Br1  1  0.74886500  0.51524800  0.21873100  1
  Br  Br2  1  0.75113500  0.48475200  0.71873100  1
  Br  Br3  1  0.25113500  0.01524800  0.28126900  1
  N  N4  1  0.18592100  0.98825000  0.53591200  1
  N  N5  1  0.68592100  0.51175000  0.46408800  1
  N  N6  1  0.81407900  0.48825000  0.96408800  1
  N  N7  1  0.31407900  0.01175000  0.03591200  1
  O  O8  1  0.10585000  0.90057400  0.04001800  1
  O  O9  1  0.60585000  0.59942600  0.95998200  1
  O  O10  1  0.89415000  0.40057400  0.45998200  1
  O  O11  1  0.39415000  0.09942600  0.54001800  1
  O  O12  1  0.43859400  0.09156400  0.12894700  1
  O  O13  1  0.93859400  0.40843600  0.87105300  1
  O  O14  1  0.56140600  0.59156400  0.37105300  1
  O  O15  1  0.06140600  0.90843600  0.62894700  1
  O  O16  1  0.44823500  0.07138900  0.94365700  1
  O  O17  1  0.94823500  0.42861100  0.05634300  1
  O  O18  1  0.55176500  0.57138900  0.55634300  1
  O  O19  1  0.05176500  0.92861100  0.44365700  1
