# generated using pymatgen
data_Cd4P2Br3
_symmetry_space_group_name_H-M   'P 1'
_cell_length_a   12.66163100
_cell_length_b   12.66163100
_cell_length_c   12.66163100
_cell_angle_alpha   90.00000000
_cell_angle_beta   90.00000000
_cell_angle_gamma   90.00000000
_symmetry_Int_Tables_number   1
_chemical_formula_structural   Cd4P2Br3
_chemical_formula_sum   'Cd32 P16 Br24'
_cell_volume   2029.87342555
_cell_formula_units_Z   8
loop_
 _symmetry_equiv_pos_site_id
 _symmetry_equiv_pos_as_xyz
  1  'x, y, z'
loop_
 _atom_site_type_symbol
 _atom_site_label
 _atom_site_symmetry_multiplicity
 _atom_site_fract_x
 _atom_site_fract_y
 _atom_site_fract_z
 _atom_site_occupancy
  Cd  Cd0  1  0.03612400  0.99550200  0.25450700  1
  Cd  Cd1  1  0.25450700  0.03612400  0.99550200  1
  Cd  Cd2  1  0.99550200  0.25450700  0.03612400  1
  Cd  Cd3  1  0.50449800  0.74549300  0.53612400  1
  Cd  Cd4  1  0.75450700  0.46387600  0.00449800  1
  Cd  Cd5  1  0.00449800  0.75450700  0.46387600  1
  Cd  Cd6  1  0.24549300  0.96387600  0.49550200  1
  Cd  Cd7  1  0.74549300  0.53612400  0.50449800  1
  Cd  Cd8  1  0.49550200  0.24549300  0.96387600  1
  Cd  Cd9  1  0.53612400  0.50449800  0.74549300  1
  Cd  Cd10  1  0.96387600  0.49550200  0.24549300  1
  Cd  Cd11  1  0.46387600  0.00449800  0.75450700  1
  Cd  Cd12  1  0.96387600  0.00449800  0.74549300  1
  Cd  Cd13  1  0.74549300  0.96387600  0.00449800  1
  Cd  Cd14  1  0.00449800  0.74549300  0.96387600  1
  Cd  Cd15  1  0.49550200  0.25450700  0.46387600  1
  Cd  Cd16  1  0.24549300  0.53612400  0.99550200  1
  Cd  Cd17  1  0.99550200  0.24549300  0.53612400  1
  Cd  Cd18  1  0.75450700  0.03612400  0.50449800  1
  Cd  Cd19  1  0.25450700  0.46387600  0.49550200  1
  Cd  Cd20  1  0.50449800  0.75450700  0.03612400  1
  Cd  Cd21  1  0.46387600  0.49550200  0.25450700  1
  Cd  Cd22  1  0.03612400  0.50449800  0.75450700  1
  Cd  Cd23  1  0.53612400  0.99550200  0.24549300  1
  Cd  Cd24  1  0.22349400  0.22349400  0.22349400  1
  Cd  Cd25  1  0.27650600  0.77650600  0.72349400  1
  Cd  Cd26  1  0.72349400  0.27650600  0.77650600  1
  Cd  Cd27  1  0.77650600  0.72349400  0.27650600  1
  Cd  Cd28  1  0.77650600  0.77650600  0.77650600  1
  Cd  Cd29  1  0.72349400  0.22349400  0.27650600  1
  Cd  Cd30  1  0.27650600  0.72349400  0.22349400  1
  Cd  Cd31  1  0.22349400  0.27650600  0.72349400  1
  P  P32  1  0.10933100  0.10933100  0.10933100  1
  P  P33  1  0.39066900  0.89066900  0.60933100  1
  P  P34  1  0.60933100  0.39066900  0.89066900  1
  P  P35  1  0.89066900  0.60933100  0.39066900  1
  P  P36  1  0.89066900  0.89066900  0.89066900  1
  P  P37  1  0.60933100  0.10933100  0.39066900  1
  P  P38  1  0.39066900  0.60933100  0.10933100  1
  P  P39  1  0.10933100  0.39066900  0.60933100  1
  P  P40  1  0.44978500  0.44978500  0.44978500  1
  P  P41  1  0.05021500  0.55021500  0.94978500  1
  P  P42  1  0.94978500  0.05021500  0.55021500  1
  P  P43  1  0.55021500  0.94978500  0.05021500  1
  P  P44  1  0.55021500  0.55021500  0.55021500  1
  P  P45  1  0.94978500  0.44978500  0.05021500  1
  P  P46  1  0.05021500  0.94978500  0.44978500  1
  P  P47  1  0.44978500  0.05021500  0.94978500  1
  Br  Br48  1  0.18388900  0.43426900  0.26908600  1
  Br  Br49  1  0.26908600  0.18388900  0.43426900  1
  Br  Br50  1  0.43426900  0.26908600  0.18388900  1
  Br  Br51  1  0.06573100  0.73091400  0.68388900  1
  Br  Br52  1  0.76908600  0.31611100  0.56573100  1
  Br  Br53  1  0.56573100  0.76908600  0.31611100  1
  Br  Br54  1  0.23091400  0.81611100  0.93426900  1
  Br  Br55  1  0.73091400  0.68388900  0.06573100  1
  Br  Br56  1  0.93426900  0.23091400  0.81611100  1
  Br  Br57  1  0.68388900  0.06573100  0.73091400  1
  Br  Br58  1  0.81611100  0.93426900  0.23091400  1
  Br  Br59  1  0.31611100  0.56573100  0.76908600  1
  Br  Br60  1  0.81611100  0.56573100  0.73091400  1
  Br  Br61  1  0.73091400  0.81611100  0.56573100  1
  Br  Br62  1  0.56573100  0.73091400  0.81611100  1
  Br  Br63  1  0.93426900  0.26908600  0.31611100  1
  Br  Br64  1  0.23091400  0.68388900  0.43426900  1
  Br  Br65  1  0.43426900  0.23091400  0.68388900  1
  Br  Br66  1  0.76908600  0.18388900  0.06573100  1
  Br  Br67  1  0.26908600  0.31611100  0.93426900  1
  Br  Br68  1  0.06573100  0.76908600  0.18388900  1
  Br  Br69  1  0.31611100  0.93426900  0.26908600  1
  Br  Br70  1  0.18388900  0.06573100  0.76908600  1
  Br  Br71  1  0.68388900  0.43426900  0.23091400  1
