# generated using pymatgen
data_ZnSiPbO4
_symmetry_space_group_name_H-M   'P 1'
_cell_length_a   5.14558700
_cell_length_b   8.36671300
_cell_length_c   19.30335200
_cell_angle_alpha   90.00000000
_cell_angle_beta   90.00000000
_cell_angle_gamma   90.00000000
_symmetry_Int_Tables_number   1
_chemical_formula_structural   ZnSiPbO4
_chemical_formula_sum   'Zn8 Si8 Pb8 O32'
_cell_volume   831.04114729
_cell_formula_units_Z   8
loop_
 _symmetry_equiv_pos_site_id
 _symmetry_equiv_pos_as_xyz
  1  'x, y, z'
loop_
 _atom_site_type_symbol
 _atom_site_label
 _atom_site_symmetry_multiplicity
 _atom_site_fract_x
 _atom_site_fract_y
 _atom_site_fract_z
 _atom_site_occupancy
  Zn  Zn0  1  0.72112500  0.00032700  0.44228100  1
  Zn  Zn1  1  0.22112500  0.99967300  0.55771900  1
  Zn  Zn2  1  0.22112500  0.49967300  0.94228100  1
  Zn  Zn3  1  0.72112500  0.50032700  0.05771900  1
  Zn  Zn4  1  0.71992800  0.31978700  0.34447800  1
  Zn  Zn5  1  0.21992800  0.68021300  0.65552200  1
  Zn  Zn6  1  0.21992800  0.18021300  0.84447800  1
  Zn  Zn7  1  0.71992800  0.81978700  0.15552200  1
  Si  Si8  1  0.21069400  0.22961600  0.42745600  1
  Si  Si9  1  0.71069400  0.77038400  0.57254400  1
  Si  Si10  1  0.71069400  0.27038400  0.92745600  1
  Si  Si11  1  0.21069400  0.72961600  0.07254400  1
  Si  Si12  1  0.72615500  0.70132600  0.32224200  1
  Si  Si13  1  0.22615500  0.29867400  0.67775800  1
  Si  Si14  1  0.22615500  0.79867400  0.82224200  1
  Si  Si15  1  0.72615500  0.20132600  0.17775800  1
  Pb  Pb16  1  0.28659300  0.64727700  0.44050100  1
  Pb  Pb17  1  0.78659300  0.35272300  0.55949900  1
  Pb  Pb18  1  0.78659300  0.85272300  0.94050100  1
  Pb  Pb19  1  0.28659300  0.14727700  0.05949900  1
  Pb  Pb20  1  0.25331400  0.54108100  0.23176200  1
  Pb  Pb21  1  0.75331400  0.45891900  0.76823800  1
  Pb  Pb22  1  0.75331400  0.95891900  0.73176200  1
  Pb  Pb23  1  0.25331400  0.04108100  0.26823800  1
  O  O24  1  0.52805300  0.20162400  0.41985500  1
  O  O25  1  0.02805300  0.79837600  0.58014500  1
  O  O26  1  0.02805300  0.29837600  0.91985500  1
  O  O27  1  0.52805300  0.70162400  0.08014500  1
  O  O28  1  0.14791000  0.38880300  0.47388700  1
  O  O29  1  0.64791000  0.61119700  0.52611300  1
  O  O30  1  0.64791000  0.11119700  0.97388700  1
  O  O31  1  0.14791000  0.88880300  0.02611300  1
  O  O32  1  0.08178200  0.06992300  0.46548500  1
  O  O33  1  0.58178200  0.93007700  0.53451500  1
  O  O34  1  0.58178200  0.43007700  0.96548500  1
  O  O35  1  0.08178200  0.56992300  0.03451500  1
  O  O36  1  0.08386400  0.24584400  0.34901400  1
  O  O37  1  0.58386400  0.75415600  0.65098600  1
  O  O38  1  0.58386400  0.25415600  0.84901400  1
  O  O39  1  0.08386400  0.74584400  0.15098600  1
  O  O40  1  0.04048500  0.67606000  0.31930500  1
  O  O41  1  0.54048500  0.32394000  0.68069500  1
  O  O42  1  0.54048500  0.82394000  0.81930500  1
  O  O43  1  0.04048500  0.17606000  0.18069500  1
  O  O44  1  0.57796200  0.53738100  0.35316900  1
  O  O45  1  0.07796200  0.46261900  0.64683100  1
  O  O46  1  0.07796200  0.96261900  0.85316900  1
  O  O47  1  0.57796200  0.03738100  0.14683100  1
  O  O48  1  0.59867700  0.22280000  0.25640000  1
  O  O49  1  0.09867700  0.77720000  0.74360000  1
  O  O50  1  0.09867700  0.27720000  0.75640000  1
  O  O51  1  0.59867700  0.72280000  0.24360000  1
  O  O52  1  0.63445900  0.34942000  0.12872100  1
  O  O53  1  0.13445900  0.65058000  0.87127900  1
  O  O54  1  0.13445900  0.15058000  0.62872100  1
  O  O55  1  0.63445900  0.84942000  0.37127900  1
