# generated using pymatgen
data_Sc2GeO5
_symmetry_space_group_name_H-M   'P 1'
_cell_length_a   7.64409129
_cell_length_b   7.64409129
_cell_length_c   10.76477823
_cell_angle_alpha   87.51123790
_cell_angle_beta   87.51123790
_cell_angle_gamma   87.71423477
_symmetry_Int_Tables_number   1
_chemical_formula_structural   Sc2GeO5
_chemical_formula_sum   'Sc12 Ge6 O30'
_cell_volume   627.36776451
_cell_formula_units_Z   6
loop_
 _symmetry_equiv_pos_site_id
 _symmetry_equiv_pos_as_xyz
  1  'x, y, z'
loop_
 _atom_site_type_symbol
 _atom_site_label
 _atom_site_symmetry_multiplicity
 _atom_site_fract_x
 _atom_site_fract_y
 _atom_site_fract_z
 _atom_site_occupancy
  Sc  Sc0  1  0.00600000  0.30404900  0.06155900  1
  Sc  Sc1  1  0.69595100  0.99400000  0.43844100  1
  Sc  Sc2  1  0.99400000  0.69595100  0.93844100  1
  Sc  Sc3  1  0.30404900  0.00600000  0.56155900  1
  Sc  Sc4  1  0.34827900  0.63000000  0.42942400  1
  Sc  Sc5  1  0.37000000  0.65172100  0.07057600  1
  Sc  Sc6  1  0.65172100  0.37000000  0.57057600  1
  Sc  Sc7  1  0.63000000  0.34827900  0.92942400  1
  Sc  Sc8  1  0.00715000  0.63928600  0.24539400  1
  Sc  Sc9  1  0.36071400  0.99285000  0.25460600  1
  Sc  Sc10  1  0.99285000  0.36071400  0.75460600  1
  Sc  Sc11  1  0.63928600  0.00715000  0.74539400  1
  Ge  Ge12  1  0.64346800  0.35653200  0.25000000  1
  Ge  Ge13  1  0.35653200  0.64346800  0.75000000  1
  Ge  Ge14  1  0.06113400  0.27436100  0.45615800  1
  Ge  Ge15  1  0.72563900  0.93886600  0.04384200  1
  Ge  Ge16  1  0.93886600  0.72563900  0.54384200  1
  Ge  Ge17  1  0.27436100  0.06113400  0.95615800  1
  O  O18  1  0.12515500  0.48163900  0.39589600  1
  O  O19  1  0.51836100  0.87484500  0.10410400  1
  O  O20  1  0.87484500  0.51836100  0.60410400  1
  O  O21  1  0.48163900  0.12515500  0.89589600  1
  O  O22  1  0.86921700  0.77797600  0.38787000  1
  O  O23  1  0.22202400  0.13078300  0.11213000  1
  O  O24  1  0.13078300  0.22202400  0.61213000  1
  O  O25  1  0.77797600  0.86921700  0.88787000  1
  O  O26  1  0.88971400  0.80111100  0.11345700  1
  O  O27  1  0.19888900  0.11028600  0.38654300  1
  O  O28  1  0.11028600  0.19888900  0.88654300  1
  O  O29  1  0.80111100  0.88971400  0.61345700  1
  O  O30  1  0.13045500  0.53672500  0.07539200  1
  O  O31  1  0.46327500  0.86954500  0.42460800  1
  O  O32  1  0.86954500  0.46327500  0.92460800  1
  O  O33  1  0.53672500  0.13045500  0.57539200  1
  O  O34  1  0.86760000  0.40606300  0.21943900  1
  O  O35  1  0.59393700  0.13240000  0.28056100  1
  O  O36  1  0.22494000  0.83812700  0.95390200  1
  O  O37  1  0.16187300  0.77506000  0.54609800  1
  O  O38  1  0.77506000  0.16187300  0.04609800  1
  O  O39  1  0.83812700  0.22494000  0.45390200  1
  O  O40  1  0.73757200  0.26242800  0.75000000  1
  O  O41  1  0.26242800  0.73757200  0.25000000  1
  O  O42  1  0.46431700  0.55986000  0.88551800  1
  O  O43  1  0.44014000  0.53568300  0.61448200  1
  O  O44  1  0.53568300  0.44014000  0.11448200  1
  O  O45  1  0.55986000  0.46431700  0.38551800  1
  O  O46  1  0.40606300  0.86760000  0.71943900  1
  O  O47  1  0.13240000  0.59393700  0.78056100  1
