# generated using pymatgen
data_Ta2Te5Pd3
_symmetry_space_group_name_H-M   'P 1'
_cell_length_a   3.74368200
_cell_length_b   15.13721200
_cell_length_c   18.84224200
_cell_angle_alpha   90.00000000
_cell_angle_beta   90.00000000
_cell_angle_gamma   90.00000000
_symmetry_Int_Tables_number   1
_chemical_formula_structural   Ta2Te5Pd3
_chemical_formula_sum   'Ta8 Te20 Pd12'
_cell_volume   1067.76928019
_cell_formula_units_Z   4
loop_
 _symmetry_equiv_pos_site_id
 _symmetry_equiv_pos_as_xyz
  1  'x, y, z'
loop_
 _atom_site_type_symbol
 _atom_site_label
 _atom_site_symmetry_multiplicity
 _atom_site_fract_x
 _atom_site_fract_y
 _atom_site_fract_z
 _atom_site_occupancy
  Ta  Ta0  1  0.25000000  0.24936500  0.41578800  1
  Ta  Ta1  1  0.75000000  0.75063500  0.58421200  1
  Ta  Ta2  1  0.25000000  0.74936500  0.08421200  1
  Ta  Ta3  1  0.75000000  0.25063500  0.91578800  1
  Ta  Ta4  1  0.25000000  0.25509900  0.66759700  1
  Ta  Ta5  1  0.75000000  0.74490100  0.33240300  1
  Ta  Ta6  1  0.25000000  0.75509900  0.83240300  1
  Ta  Ta7  1  0.75000000  0.24490100  0.16759700  1
  Te  Te8  1  0.25000000  0.11492100  0.21871200  1
  Te  Te9  1  0.75000000  0.88507900  0.78128800  1
  Te  Te10  1  0.25000000  0.61492100  0.28128800  1
  Te  Te11  1  0.75000000  0.37785100  0.36220700  1
  Te  Te12  1  0.75000000  0.38507900  0.71871200  1
  Te  Te13  1  0.25000000  0.12214900  0.86220700  1
  Te  Te14  1  0.75000000  0.87785100  0.13779300  1
  Te  Te15  1  0.25000000  0.62214900  0.63779300  1
  Te  Te16  1  0.25000000  0.38628400  0.14696300  1
  Te  Te17  1  0.75000000  0.61371600  0.85303700  1
  Te  Te18  1  0.25000000  0.88628400  0.35303700  1
  Te  Te19  1  0.75000000  0.11371600  0.64696300  1
  Te  Te20  1  0.75000000  0.14445500  0.04031400  1
  Te  Te21  1  0.25000000  0.85554500  0.95968600  1
  Te  Te22  1  0.75000000  0.64445500  0.45968600  1
  Te  Te23  1  0.25000000  0.35554500  0.54031400  1
  Te  Te24  1  0.25000000  0.39111100  0.93907700  1
  Te  Te25  1  0.75000000  0.60888900  0.06092300  1
  Te  Te26  1  0.25000000  0.89111100  0.56092300  1
  Te  Te27  1  0.75000000  0.10888900  0.43907700  1
  Pd  Pd28  1  0.25000000  0.31609500  0.81024300  1
  Pd  Pd29  1  0.25000000  0.30525700  0.27319800  1
  Pd  Pd30  1  0.75000000  0.69474300  0.72680200  1
  Pd  Pd31  1  0.25000000  0.80525700  0.22680200  1
  Pd  Pd32  1  0.75000000  0.19474300  0.77319800  1
  Pd  Pd33  1  0.75000000  0.68390500  0.18975700  1
  Pd  Pd34  1  0.25000000  0.81609500  0.68975700  1
  Pd  Pd35  1  0.75000000  0.18390500  0.31024300  1
  Pd  Pd36  1  0.25000000  0.27032400  0.04149700  1
  Pd  Pd37  1  0.75000000  0.72967600  0.95850300  1
  Pd  Pd38  1  0.25000000  0.77032400  0.45850300  1
  Pd  Pd39  1  0.75000000  0.22967600  0.54149700  1
