# generated using pymatgen
data_CsIn5S8
_symmetry_space_group_name_H-M   'P 1'
_cell_length_a   9.87440626
_cell_length_b   9.87440626
_cell_length_c   9.46527776
_cell_angle_alpha   78.37594019
_cell_angle_beta   78.37594019
_cell_angle_gamma   22.97749965
_symmetry_Int_Tables_number   1
_chemical_formula_structural   CsIn5S8
_chemical_formula_sum   'Cs1 In5 S8'
_cell_volume   352.57519834
_cell_formula_units_Z   1
loop_
 _symmetry_equiv_pos_site_id
 _symmetry_equiv_pos_as_xyz
  1  'x, y, z'
loop_
 _atom_site_type_symbol
 _atom_site_label
 _atom_site_symmetry_multiplicity
 _atom_site_fract_x
 _atom_site_fract_y
 _atom_site_fract_z
 _atom_site_occupancy
  Cs  Cs0  1  0.50000000  0.50000000  0.50000000  1
  In  In1  1  0.00000000  0.00000000  0.00000000  1
  In  In2  1  0.65024700  0.65024700  0.06915200  1
  In  In3  1  0.34975300  0.34975300  0.93084800  1
  In  In4  1  0.71029400  0.71029400  0.66008900  1
  In  In5  1  0.28970600  0.28970600  0.33991100  1
  S  S6  1  0.16714700  0.16714700  0.51765200  1
  S  S7  1  0.07824600  0.07824600  0.19622100  1
  S  S8  1  0.92175400  0.92175400  0.80377900  1
  S  S9  1  0.41786100  0.41786100  0.13527800  1
  S  S10  1  0.58213900  0.58213900  0.86472200  1
  S  S11  1  0.23540100  0.23540100  0.84764600  1
  S  S12  1  0.76459900  0.76459900  0.15235400  1
  S  S13  1  0.83285300  0.83285300  0.48234800  1
