# generated using pymatgen
data_Cs3Sb2I9
_symmetry_space_group_name_H-M   'P 1'
_cell_length_a   8.57241151
_cell_length_b   8.57241151
_cell_length_c   21.73089300
_cell_angle_alpha   90.00000000
_cell_angle_beta   90.00000000
_cell_angle_gamma   119.99999623
_symmetry_Int_Tables_number   1
_chemical_formula_structural   Cs3Sb2I9
_chemical_formula_sum   'Cs6 Sb4 I18'
_cell_volume   1382.97472549
_cell_formula_units_Z   2
loop_
 _symmetry_equiv_pos_site_id
 _symmetry_equiv_pos_as_xyz
  1  'x, y, z'
loop_
 _atom_site_type_symbol
 _atom_site_label
 _atom_site_symmetry_multiplicity
 _atom_site_fract_x
 _atom_site_fract_y
 _atom_site_fract_z
 _atom_site_occupancy
  Cs  Cs0  1  0.66666700  0.33333300  0.07716100  1
  Cs  Cs1  1  0.33333300  0.66666700  0.57716100  1
  Cs  Cs2  1  0.33333300  0.66666700  0.92283900  1
  Cs  Cs3  1  0.66666700  0.33333300  0.42283900  1
  Cs  Cs4  1  0.00000000  0.00000000  0.25000000  1
  Cs  Cs5  1  0.00000000  0.00000000  0.75000000  1
  Sb  Sb6  1  0.66666700  0.33333300  0.84307000  1
  Sb  Sb7  1  0.66666700  0.33333300  0.65693000  1
  Sb  Sb8  1  0.33333300  0.66666700  0.15693000  1
  Sb  Sb9  1  0.33333300  0.66666700  0.34307000  1
  I  I10  1  0.16783800  0.83216200  0.08374200  1
  I  I11  1  0.83216200  0.66432500  0.91625800  1
  I  I12  1  0.83216200  0.16783800  0.91625800  1
  I  I13  1  0.83216200  0.66432500  0.58374200  1
  I  I14  1  0.33567500  0.16783800  0.91625800  1
  I  I15  1  0.66432500  0.83216200  0.41625800  1
  I  I16  1  0.16783800  0.33567500  0.41625800  1
  I  I17  1  0.16783800  0.83216200  0.41625800  1
  I  I18  1  0.50150100  0.00300200  0.25000000  1
  I  I19  1  0.49849900  0.50150100  0.75000000  1
  I  I20  1  0.00300200  0.50150100  0.75000000  1
  I  I21  1  0.99699800  0.49849900  0.25000000  1
  I  I22  1  0.50150100  0.49849900  0.25000000  1
  I  I23  1  0.49849900  0.99699800  0.75000000  1
  I  I24  1  0.33567500  0.16783800  0.58374200  1
  I  I25  1  0.83216200  0.16783800  0.58374200  1
  I  I26  1  0.16783800  0.33567500  0.08374200  1
  I  I27  1  0.66432500  0.83216200  0.08374200  1
