# generated using pymatgen
data_Gd2B3C2
_symmetry_space_group_name_H-M   'P 1'
_cell_length_a   7.06495353
_cell_length_b   7.06495353
_cell_length_c   3.71988600
_cell_angle_alpha   90.00000000
_cell_angle_beta   90.00000000
_cell_angle_gamma   151.96608062
_symmetry_Int_Tables_number   1
_chemical_formula_structural   Gd2B3C2
_chemical_formula_sum   'Gd2 B3 C2'
_cell_volume   87.26512980
_cell_formula_units_Z   1
loop_
 _symmetry_equiv_pos_site_id
 _symmetry_equiv_pos_as_xyz
  1  'x, y, z'
loop_
 _atom_site_type_symbol
 _atom_site_label
 _atom_site_symmetry_multiplicity
 _atom_site_fract_x
 _atom_site_fract_y
 _atom_site_fract_z
 _atom_site_occupancy
  Gd  Gd0  1  0.86514800  0.13485200  0.00000000  1
  Gd  Gd1  1  0.13485200  0.86514800  0.00000000  1
  B  B2  1  0.28262600  0.71737400  0.50000000  1
  B  B3  1  0.71737400  0.28262600  0.50000000  1
  B  B4  1  0.50000000  0.50000000  0.50000000  1
  C  C5  1  0.39482700  0.60517300  0.50000000  1
  C  C6  1  0.60517300  0.39482700  0.50000000  1
