# generated using pymatgen
data_Rb2ZrTe3
_symmetry_space_group_name_H-M   'P 1'
_cell_length_a   14.57732400
_cell_length_b   6.99717600
_cell_length_c   9.97171176
_cell_angle_alpha   71.99729577
_cell_angle_beta   90.00000000
_cell_angle_gamma   90.00000000
_symmetry_Int_Tables_number   1
_chemical_formula_structural   Rb2ZrTe3
_chemical_formula_sum   'Rb8 Zr4 Te12'
_cell_volume   967.31959588
_cell_formula_units_Z   4
loop_
 _symmetry_equiv_pos_site_id
 _symmetry_equiv_pos_as_xyz
  1  'x, y, z'
loop_
 _atom_site_type_symbol
 _atom_site_label
 _atom_site_symmetry_multiplicity
 _atom_site_fract_x
 _atom_site_fract_y
 _atom_site_fract_z
 _atom_site_occupancy
  Rb  Rb0  1  0.95459000  0.67798800  0.64815600  1
  Rb  Rb1  1  0.45459000  0.82201200  0.35184400  1
  Rb  Rb2  1  0.04541000  0.32201200  0.35184400  1
  Rb  Rb3  1  0.54541000  0.17798800  0.64815600  1
  Rb  Rb4  1  0.86461500  0.07972900  0.90547800  1
  Rb  Rb5  1  0.36461500  0.42027100  0.09452200  1
  Rb  Rb6  1  0.13538500  0.92027100  0.09452200  1
  Rb  Rb7  1  0.63538500  0.57972900  0.90547800  1
  Zr  Zr8  1  0.74834800  0.67055300  0.29664400  1
  Zr  Zr9  1  0.24834800  0.82944700  0.70335600  1
  Zr  Zr10  1  0.25165200  0.32944700  0.70335600  1
  Zr  Zr11  1  0.75165200  0.17055300  0.29664400  1
  Te  Te12  1  0.91201300  0.91037100  0.27337100  1
  Te  Te13  1  0.41201300  0.58962900  0.72662900  1
  Te  Te14  1  0.08798700  0.08962900  0.72662900  1
  Te  Te15  1  0.58798700  0.41037100  0.27337100  1
  Te  Te16  1  0.81171200  0.30102800  0.52659800  1
  Te  Te17  1  0.31171200  0.19897200  0.47340200  1
  Te  Te18  1  0.18828800  0.69897200  0.47340200  1
  Te  Te19  1  0.68828800  0.80102800  0.52659800  1
  Te  Te20  1  0.84912100  0.49321400  0.09496100  1
  Te  Te21  1  0.34912100  0.00678600  0.90503900  1
  Te  Te22  1  0.15087900  0.50678600  0.90503900  1
  Te  Te23  1  0.65087900  0.99321400  0.09496100  1
