# generated using pymatgen
data_Na4I2O
_symmetry_space_group_name_H-M   'P 1'
_cell_length_a   8.71928625
_cell_length_b   8.71928625
_cell_length_c   8.71928625
_cell_angle_alpha   148.67763962
_cell_angle_beta   148.67763962
_cell_angle_gamma   44.88602118
_symmetry_Int_Tables_number   1
_chemical_formula_structural   Na4I2O
_chemical_formula_sum   'Na4 I2 O1'
_cell_volume   178.59013310
_cell_formula_units_Z   1
loop_
 _symmetry_equiv_pos_site_id
 _symmetry_equiv_pos_as_xyz
  1  'x, y, z'
loop_
 _atom_site_type_symbol
 _atom_site_label
 _atom_site_symmetry_multiplicity
 _atom_site_fract_x
 _atom_site_fract_y
 _atom_site_fract_z
 _atom_site_occupancy
  Na  Na0  1  0.14276500  0.14276500  0.00000000  1
  Na  Na1  1  0.50000000  0.00000000  0.50000000  1
  Na  Na2  1  0.85723500  0.85723500  0.00000000  1
  Na  Na3  1  0.00000000  0.50000000  0.50000000  1
  I  I4  1  0.34677300  0.34677300  0.00000000  1
  I  I5  1  0.65322700  0.65322700  0.00000000  1
  O  O6  1  0.00000000  0.00000000  0.00000000  1
