# generated using pymatgen
data_LiMn6P7O24
_symmetry_space_group_name_H-M   'P 1'
_cell_length_a   27.15620700
_cell_length_b   5.46016200
_cell_length_c   6.64708436
_cell_angle_alpha   72.25327368
_cell_angle_beta   90.00000000
_cell_angle_gamma   90.00000000
_symmetry_Int_Tables_number   1
_chemical_formula_structural   LiMn6P7O24
_chemical_formula_sum   'Li2 Mn12 P14 O48'
_cell_volume   938.70956449
_cell_formula_units_Z   2
loop_
 _symmetry_equiv_pos_site_id
 _symmetry_equiv_pos_as_xyz
  1  'x, y, z'
loop_
 _atom_site_type_symbol
 _atom_site_label
 _atom_site_symmetry_multiplicity
 _atom_site_fract_x
 _atom_site_fract_y
 _atom_site_fract_z
 _atom_site_occupancy
  Li  Li0  1  0.75000000  0.89556400  0.45542300  1
  Li  Li1  1  0.25000000  0.10443600  0.54457700  1
  Mn  Mn2  1  0.45477900  0.81244100  0.68605200  1
  Mn  Mn3  1  0.04522100  0.81244100  0.68605200  1
  Mn  Mn4  1  0.31894100  0.87242400  0.28082100  1
  Mn  Mn5  1  0.18105900  0.87242400  0.28082100  1
  Mn  Mn6  1  0.90228400  0.79120500  0.08773200  1
  Mn  Mn7  1  0.59771600  0.79120500  0.08773200  1
  Mn  Mn8  1  0.40228400  0.20879500  0.91226800  1
  Mn  Mn9  1  0.09771600  0.20879500  0.91226800  1
  Mn  Mn10  1  0.81894100  0.12757600  0.71917900  1
  Mn  Mn11  1  0.68105900  0.12757600  0.71917900  1
  Mn  Mn12  1  0.95477900  0.18755900  0.31394800  1
  Mn  Mn13  1  0.54522100  0.18755900  0.31394800  1
  P  P14  1  0.66791100  0.24825400  0.18782000  1
  P  P15  1  0.83208900  0.24825400  0.18782000  1
  P  P16  1  0.10869900  0.31681800  0.38182600  1
  P  P17  1  0.39130100  0.31681800  0.38182600  1
  P  P18  1  0.25000000  0.47518500  0.09669200  1
  P  P19  1  0.52413200  0.29311300  0.79473900  1
  P  P20  1  0.97586800  0.29311300  0.79473900  1
  P  P21  1  0.02413200  0.70688700  0.20526100  1
  P  P22  1  0.47586800  0.70688700  0.20526100  1
  P  P23  1  0.75000000  0.52481500  0.90330800  1
  P  P24  1  0.60869900  0.68318200  0.61817400  1
  P  P25  1  0.89130100  0.68318200  0.61817400  1
  P  P26  1  0.33208900  0.75174600  0.81218000  1
  P  P27  1  0.16791100  0.75174600  0.81218000  1
  O  O28  1  0.59485600  0.85838800  0.39662400  1
  O  O29  1  0.83626400  0.06649100  0.05216400  1
  O  O30  1  0.54734500  0.13012300  0.00329000  1
  O  O31  1  0.95265500  0.13012300  0.00329000  1
  O  O32  1  0.97775500  0.14854000  0.63009000  1
  O  O33  1  0.37788500  0.15618200  0.23406200  1
  O  O34  1  0.69429300  0.12121600  0.39708000  1
  O  O35  1  0.80570700  0.12121600  0.39708000  1
  O  O36  1  0.25000000  0.19490300  0.23358800  1
  O  O37  1  0.09485600  0.14161200  0.60337600  1
  O  O38  1  0.40514400  0.14161200  0.60337600  1
  O  O39  1  0.52224500  0.14854000  0.63009000  1
  O  O40  1  0.33626400  0.93350900  0.94783600  1
  O  O41  1  0.16373600  0.93350900  0.94783600  1
  O  O42  1  0.45265500  0.86987700  0.99671000  1
  O  O43  1  0.04734500  0.86987700  0.99671000  1
  O  O44  1  0.87788500  0.84381800  0.76593800  1
  O  O45  1  0.62211500  0.84381800  0.76593800  1
  O  O46  1  0.30570700  0.87878400  0.60292000  1
  O  O47  1  0.19429300  0.87878400  0.60292000  1
  O  O48  1  0.75000000  0.80509700  0.76641200  1
  O  O49  1  0.90514400  0.85838800  0.39662400  1
  O  O50  1  0.66373600  0.06649100  0.05216400  1
  O  O51  1  0.47775500  0.85146000  0.36991000  1
  O  O52  1  0.02224500  0.85146000  0.36991000  1
  O  O53  1  0.37952600  0.61061800  0.79278600  1
  O  O54  1  0.12047400  0.61061800  0.79278600  1
  O  O55  1  0.29619200  0.51127300  0.94400400  1
  O  O56  1  0.20380800  0.51127300  0.94400400  1
  O  O57  1  0.94285900  0.54896600  0.71141300  1
  O  O58  1  0.55714100  0.54896600  0.71141300  1
  O  O59  1  0.25000000  0.67455700  0.21472500  1
  O  O60  1  0.47405300  0.41022200  0.82448700  1
  O  O61  1  0.02594700  0.41022200  0.82448700  1
  O  O62  1  0.85293900  0.48524400  0.61557800  1
  O  O63  1  0.64706100  0.48524400  0.61557800  1
  O  O64  1  0.35293900  0.51475600  0.38442200  1
  O  O65  1  0.14706100  0.51475600  0.38442200  1
  O  O66  1  0.97405300  0.58977800  0.17551300  1
  O  O67  1  0.52594700  0.58977800  0.17551300  1
  O  O68  1  0.75000000  0.32544300  0.78527500  1
  O  O69  1  0.44285900  0.45103400  0.28858700  1
  O  O70  1  0.05714100  0.45103400  0.28858700  1
  O  O71  1  0.79619200  0.48872700  0.05599600  1
  O  O72  1  0.70380800  0.48872700  0.05599600  1
  O  O73  1  0.87952600  0.38938200  0.20721400  1
  O  O74  1  0.62047400  0.38938200  0.20721400  1
  O  O75  1  0.12211500  0.15618200  0.23406200  1
