# generated using pymatgen
data_TbGeRu
_symmetry_space_group_name_H-M   'P 1'
_cell_length_a   4.45582100
_cell_length_b   7.08296000
_cell_length_c   7.24994300
_cell_angle_alpha   90.00000000
_cell_angle_beta   90.00000000
_cell_angle_gamma   90.00000000
_symmetry_Int_Tables_number   1
_chemical_formula_structural   TbGeRu
_chemical_formula_sum   'Tb4 Ge4 Ru4'
_cell_volume   228.81111491
_cell_formula_units_Z   4
loop_
 _symmetry_equiv_pos_site_id
 _symmetry_equiv_pos_as_xyz
  1  'x, y, z'
loop_
 _atom_site_type_symbol
 _atom_site_label
 _atom_site_symmetry_multiplicity
 _atom_site_fract_x
 _atom_site_fract_y
 _atom_site_fract_z
 _atom_site_occupancy
  Tb  Tb0  1  0.25000000  0.48442900  0.69129000  1
  Tb  Tb1  1  0.75000000  0.51557100  0.30871000  1
  Tb  Tb2  1  0.25000000  0.98442900  0.80871000  1
  Tb  Tb3  1  0.75000000  0.01557100  0.19129000  1
  Ge  Ge4  1  0.25000000  0.29857100  0.10645400  1
  Ge  Ge5  1  0.75000000  0.70142900  0.89354600  1
  Ge  Ge6  1  0.25000000  0.79857100  0.39354600  1
  Ge  Ge7  1  0.75000000  0.20142900  0.60645400  1
  Ru  Ru8  1  0.75000000  0.84549900  0.56426000  1
  Ru  Ru9  1  0.25000000  0.15450100  0.43574000  1
  Ru  Ru10  1  0.75000000  0.34549900  0.93574000  1
  Ru  Ru11  1  0.25000000  0.65450100  0.06426000  1
