# generated using pymatgen
data_Ca2N
_symmetry_space_group_name_H-M   'P 1'
_cell_length_a   6.74241484
_cell_length_b   6.74241484
_cell_length_c   6.74241453
_cell_angle_alpha   31.04755714
_cell_angle_beta   31.04755714
_cell_angle_gamma   31.04755241
_symmetry_Int_Tables_number   1
_chemical_formula_structural   Ca2N
_chemical_formula_sum   'Ca2 N1'
_cell_volume   72.33292338
_cell_formula_units_Z   1
loop_
 _symmetry_equiv_pos_site_id
 _symmetry_equiv_pos_as_xyz
  1  'x, y, z'
loop_
 _atom_site_type_symbol
 _atom_site_label
 _atom_site_symmetry_multiplicity
 _atom_site_fract_x
 _atom_site_fract_y
 _atom_site_fract_z
 _atom_site_occupancy
  Ca  Ca0  1  0.73192600  0.73192600  0.73192600  1
  Ca  Ca1  1  0.26807400  0.26807400  0.26807400  1
  N  N2  1  0.00000000  0.00000000  0.00000000  1
