# generated using pymatgen
data_Zr2Be17
_symmetry_space_group_name_H-M   'P 1'
_cell_length_a   5.67458390
_cell_length_b   5.67458390
_cell_length_c   5.67458371
_cell_angle_alpha   82.93918750
_cell_angle_beta   82.93918750
_cell_angle_gamma   82.93918499
_symmetry_Int_Tables_number   1
_chemical_formula_structural   Zr2Be17
_chemical_formula_sum   'Zr2 Be17'
_cell_volume   178.88420270
_cell_formula_units_Z   1
loop_
 _symmetry_equiv_pos_site_id
 _symmetry_equiv_pos_as_xyz
  1  'x, y, z'
loop_
 _atom_site_type_symbol
 _atom_site_label
 _atom_site_symmetry_multiplicity
 _atom_site_fract_x
 _atom_site_fract_y
 _atom_site_fract_z
 _atom_site_occupancy
  Zr  Zr0  1  0.16262900  0.16262900  0.16262900  1
  Zr  Zr1  1  0.83737100  0.83737100  0.83737100  1
  Be  Be2  1  0.40346300  0.40346300  0.40346300  1
  Be  Be3  1  0.59653700  0.59653700  0.59653700  1
  Be  Be4  1  0.50000000  0.50000000  0.00000000  1
  Be  Be5  1  0.50000000  0.00000000  0.50000000  1
  Be  Be6  1  0.00000000  0.50000000  0.50000000  1
  Be  Be7  1  0.21330800  0.78669200  0.50000000  1
  Be  Be8  1  0.78669200  0.50000000  0.21330800  1
  Be  Be9  1  0.50000000  0.21330800  0.78669200  1
  Be  Be10  1  0.78669200  0.21330800  0.50000000  1
  Be  Be11  1  0.21330800  0.50000000  0.78669200  1
  Be  Be12  1  0.50000000  0.78669200  0.21330800  1
  Be  Be13  1  0.65943900  0.15709700  0.15709700  1
  Be  Be14  1  0.15709700  0.15709700  0.65943900  1
  Be  Be15  1  0.15709700  0.65943900  0.15709700  1
  Be  Be16  1  0.84290300  0.34056100  0.84290300  1
  Be  Be17  1  0.34056100  0.84290300  0.84290300  1
  Be  Be18  1  0.84290300  0.84290300  0.34056100  1
