# generated using pymatgen
data_UBrO2
_symmetry_space_group_name_H-M   'P 1'
_cell_length_a   10.82564913
_cell_length_b   10.82564913
_cell_length_c   4.00998300
_cell_angle_alpha   90.00000000
_cell_angle_beta   90.00000000
_cell_angle_gamma   157.90597535
_symmetry_Int_Tables_number   1
_chemical_formula_structural   UBrO2
_chemical_formula_sum   'U2 Br2 O4'
_cell_volume   176.76068174
_cell_formula_units_Z   2
loop_
 _symmetry_equiv_pos_site_id
 _symmetry_equiv_pos_as_xyz
  1  'x, y, z'
loop_
 _atom_site_type_symbol
 _atom_site_label
 _atom_site_symmetry_multiplicity
 _atom_site_fract_x
 _atom_site_fract_y
 _atom_site_fract_z
 _atom_site_occupancy
  U  U0  1  0.92563800  0.07436200  0.25000000  1
  U  U1  1  0.07436200  0.92563800  0.75000000  1
  Br  Br2  1  0.82275800  0.17724200  0.75000000  1
  Br  Br3  1  0.17724200  0.82275800  0.25000000  1
  O  O4  1  0.42373600  0.57626400  0.25000000  1
  O  O5  1  0.57626400  0.42373600  0.75000000  1
  O  O6  1  0.96547900  0.03452100  0.75000000  1
  O  O7  1  0.03452100  0.96547900  0.25000000  1
