# generated using pymatgen
data_TcO2F3
_symmetry_space_group_name_H-M   'P 1'
_cell_length_a   8.07179300
_cell_length_b   8.11233211
_cell_length_c   11.96838513
_cell_angle_alpha   88.69128809
_cell_angle_beta   89.72795332
_cell_angle_gamma   85.09835151
_symmetry_Int_Tables_number   1
_chemical_formula_structural   TcO2F3
_chemical_formula_sum   'Tc8 O16 F24'
_cell_volume   780.62972487
_cell_formula_units_Z   8
loop_
 _symmetry_equiv_pos_site_id
 _symmetry_equiv_pos_as_xyz
  1  'x, y, z'
loop_
 _atom_site_type_symbol
 _atom_site_label
 _atom_site_symmetry_multiplicity
 _atom_site_fract_x
 _atom_site_fract_y
 _atom_site_fract_z
 _atom_site_occupancy
  Tc  Tc0  1  0.46859500  0.27359100  0.58533300  1
  Tc  Tc1  1  0.53140500  0.72640900  0.41466700  1
  Tc  Tc2  1  0.08627600  0.24872800  0.37008500  1
  Tc  Tc3  1  0.91372400  0.75127200  0.62991500  1
  Tc  Tc4  1  0.44629300  0.24745900  0.12111100  1
  Tc  Tc5  1  0.55370700  0.75254100  0.87888900  1
  Tc  Tc6  1  0.04995000  0.21515500  0.90563900  1
  Tc  Tc7  1  0.95005000  0.78484500  0.09436100  1
  O  O8  1  0.40566400  0.78366500  0.97806800  1
  O  O9  1  0.01979100  0.22004100  0.50266000  1
  O  O10  1  0.57600600  0.33524600  0.69547000  1
  O  O11  1  0.98020900  0.77995900  0.49734000  1
  O  O12  1  0.90849400  0.26116400  0.29557100  1
  O  O13  1  0.09150600  0.73883600  0.70442900  1
  O  O14  1  0.58212400  0.91578900  0.37284000  1
  O  O15  1  0.13324000  0.78648600  0.16138000  1
  O  O16  1  0.86676000  0.21351400  0.83862000  1
  O  O17  1  0.86678000  0.61917700  0.15276600  1
  O  O18  1  0.13322000  0.38082300  0.84723400  1
  O  O19  1  0.55273000  0.31524300  0.22953800  1
  O  O20  1  0.44727000  0.68475700  0.77046200  1
  O  O21  1  0.42399400  0.66475400  0.30453000  1
  O  O22  1  0.41787600  0.08421100  0.62716000  1
  O  O23  1  0.59433600  0.21633500  0.02193200  1
  F  F24  1  0.43692900  0.02816400  0.16828400  1
  F  F25  1  0.64759000  0.54629800  0.93121400  1
  F  F26  1  0.35241000  0.45370200  0.06878600  1
  F  F27  1  0.00000000  0.00000000  0.00000000  1
  F  F28  1  0.56307100  0.97183600  0.83171600  1
  F  F29  1  0.26631100  0.17052400  0.00828900  1
  F  F30  1  0.73368900  0.82947600  0.99171100  1
  F  F31  1  0.77502000  0.72512200  0.77849000  1
  F  F32  1  0.22498000  0.27487800  0.22151000  1
  F  F33  1  0.96891200  0.31440300  0.03627900  1
  F  F34  1  0.26541300  0.39108400  0.61942600  1
  F  F35  1  0.84371400  0.97306300  0.65577200  1
  F  F36  1  0.15628600  0.02693700  0.34422800  1
  F  F37  1  0.88869800  0.52469100  0.62548200  1
  F  F38  1  0.11130200  0.47530900  0.37451800  1
  F  F39  1  0.03108800  0.68559700  0.96372100  1
  F  F40  1  0.17072800  0.05263000  0.82249700  1
  F  F41  1  0.82927200  0.94737000  0.17750300  1
  F  F42  1  0.50000000  0.50000000  0.50000000  1
  F  F43  1  0.66383300  0.75716500  0.56692300  1
  F  F44  1  0.33616700  0.24283500  0.43307700  1
  F  F45  1  0.73458700  0.60891600  0.38057400  1
  F  F46  1  0.64663400  0.20808900  0.49233400  1
  F  F47  1  0.35336600  0.79191100  0.50766600  1
