# generated using pymatgen
data_BaSi7N10
_symmetry_space_group_name_H-M   'P 1'
_cell_length_a   6.77019000
_cell_length_b   6.92472000
_cell_length_c   9.69746343
_cell_angle_alpha   73.82528597
_cell_angle_beta   90.00000000
_cell_angle_gamma   90.00000000
_symmetry_Int_Tables_number   1
_chemical_formula_structural   BaSi7N10
_chemical_formula_sum   'Ba2 Si14 N20'
_cell_volume   436.63740390
_cell_formula_units_Z   2
loop_
 _symmetry_equiv_pos_site_id
 _symmetry_equiv_pos_as_xyz
  1  'x, y, z'
loop_
 _atom_site_type_symbol
 _atom_site_label
 _atom_site_symmetry_multiplicity
 _atom_site_fract_x
 _atom_site_fract_y
 _atom_site_fract_z
 _atom_site_occupancy
  Ba  Ba0  1  0.59404700  0.28939700  0.78777500  1
  Ba  Ba1  1  0.40595300  0.28939700  0.28777500  1
  Si  Si2  1  0.86548500  0.99515300  0.46829500  1
  Si  Si3  1  0.13451500  0.99515300  0.96829500  1
  Si  Si4  1  0.87133900  0.81240700  0.77344600  1
  Si  Si5  1  0.12866100  0.81240700  0.27344600  1
  Si  Si6  1  0.11861700  0.62509000  0.57713500  1
  Si  Si7  1  0.88138300  0.62509000  0.07713500  1
  Si  Si8  1  0.10653500  0.43801600  0.88817100  1
  Si  Si9  1  0.89346500  0.43801600  0.38817100  1
  Si  Si10  1  0.12411500  0.17797200  0.65341200  1
  Si  Si11  1  0.87588500  0.17797200  0.15341200  1
  Si  Si12  1  0.47290500  0.86898100  0.63257700  1
  Si  Si13  1  0.52709500  0.86898100  0.13257700  1
  Si  Si14  1  0.47232100  0.68586000  0.94435800  1
  Si  Si15  1  0.52767900  0.68586000  0.44435800  1
  N  N16  1  0.91566200  0.03245100  0.63712200  1
  N  N17  1  0.08433800  0.03245100  0.13712200  1
  N  N18  1  0.88889100  0.21658100  0.32940700  1
  N  N19  1  0.11110900  0.21658100  0.82940700  1
  N  N20  1  0.92280400  0.40735300  0.02399900  1
  N  N21  1  0.07719600  0.40735300  0.52399900  1
  N  N22  1  0.00008000  0.61402300  0.73717100  1
  N  N23  1  0.99992000  0.61402300  0.23717100  1
  N  N24  1  0.03674700  0.82651700  0.43708800  1
  N  N25  1  0.96325300  0.82651700  0.93708800  1
  N  N26  1  0.61707500  0.77519800  0.78848300  1
  N  N27  1  0.38292500  0.77519800  0.28848300  1
  N  N28  1  0.34141900  0.07397800  0.63051100  1
  N  N29  1  0.65858100  0.07397800  0.13051100  1
  N  N30  1  0.33303400  0.48717100  0.94275300  1
  N  N31  1  0.66696600  0.48717100  0.44275300  1
  N  N32  1  0.36756400  0.89709100  0.98505900  1
  N  N33  1  0.63243600  0.89709100  0.48505900  1
  N  N34  1  0.63069600  0.65120200  0.09499700  1
  N  N35  1  0.36930400  0.65120200  0.59499700  1
