# generated using pymatgen
data_AlBr3
_symmetry_space_group_name_H-M   'P 1'
_cell_length_a   7.58205300
_cell_length_b   7.90794000
_cell_length_c   11.25677315
_cell_angle_alpha   81.93617794
_cell_angle_beta   90.00000000
_cell_angle_gamma   90.00000000
_symmetry_Int_Tables_number   1
_chemical_formula_structural   AlBr3
_chemical_formula_sum   'Al4 Br12'
_cell_volume   668.26483355
_cell_formula_units_Z   4
loop_
 _symmetry_equiv_pos_site_id
 _symmetry_equiv_pos_as_xyz
  1  'x, y, z'
loop_
 _atom_site_type_symbol
 _atom_site_label
 _atom_site_symmetry_multiplicity
 _atom_site_fract_x
 _atom_site_fract_y
 _atom_site_fract_z
 _atom_site_occupancy
  Al  Al0  1  0.08861200  0.19158900  0.44923500  1
  Al  Al1  1  0.58861200  0.80841100  0.05076500  1
  Al  Al2  1  0.91138800  0.80841100  0.55076500  1
  Al  Al3  1  0.41138800  0.19158900  0.94923500  1
  Br  Br4  1  0.92106300  0.39037600  0.33798600  1
  Br  Br5  1  0.42106300  0.60962400  0.16201400  1
  Br  Br6  1  0.07893700  0.60962400  0.66201400  1
  Br  Br7  1  0.57893700  0.39037600  0.83798600  1
  Br  Br8  1  0.37379900  0.24602700  0.48703100  1
  Br  Br9  1  0.87379900  0.75397300  0.01296900  1
  Br  Br10  1  0.62620100  0.75397300  0.51296900  1
  Br  Br11  1  0.12620100  0.24602700  0.98703100  1
  Br  Br12  1  0.06454900  0.92226700  0.36496800  1
  Br  Br13  1  0.56454900  0.07773300  0.13503200  1
  Br  Br14  1  0.93545100  0.07773300  0.63503200  1
  Br  Br15  1  0.43545100  0.92226700  0.86496800  1
