# generated using pymatgen
data_CsNbO3
_symmetry_space_group_name_H-M   'P 1'
_cell_length_a   16.19646500
_cell_length_b   5.20611600
_cell_length_c   9.41493268
_cell_angle_alpha   86.94665507
_cell_angle_beta   90.00000000
_cell_angle_gamma   90.00000000
_symmetry_Int_Tables_number   1
_chemical_formula_structural   CsNbO3
_chemical_formula_sum   'Cs8 Nb8 O24'
_cell_volume   792.74648095
_cell_formula_units_Z   8
loop_
 _symmetry_equiv_pos_site_id
 _symmetry_equiv_pos_as_xyz
  1  'x, y, z'
loop_
 _atom_site_type_symbol
 _atom_site_label
 _atom_site_symmetry_multiplicity
 _atom_site_fract_x
 _atom_site_fract_y
 _atom_site_fract_z
 _atom_site_occupancy
  Cs  Cs0  1  0.39369600  0.11359500  0.01228900  1
  Cs  Cs1  1  0.89369600  0.88640500  0.48771100  1
  Cs  Cs2  1  0.60630400  0.88640500  0.98771100  1
  Cs  Cs3  1  0.10630400  0.11359500  0.51228900  1
  Cs  Cs4  1  0.24236800  0.59632000  0.79348600  1
  Cs  Cs5  1  0.74236800  0.40368000  0.70651400  1
  Cs  Cs6  1  0.75763200  0.40368000  0.20651400  1
  Cs  Cs7  1  0.25763200  0.59632000  0.29348600  1
  Nb  Nb8  1  0.50222600  0.52864000  0.68416000  1
  Nb  Nb9  1  0.00222600  0.47136000  0.81584000  1
  Nb  Nb10  1  0.49777400  0.47136000  0.31584000  1
  Nb  Nb11  1  0.99777400  0.52864000  0.18416000  1
  Nb  Nb12  1  0.39545600  0.03854500  0.55291300  1
  Nb  Nb13  1  0.89545600  0.96145500  0.94708700  1
  Nb  Nb14  1  0.60454400  0.96145500  0.44708700  1
  Nb  Nb15  1  0.10454400  0.03854500  0.05291300  1
  O  O16  1  0.39921300  0.25207700  0.37112800  1
  O  O17  1  0.89921300  0.74792300  0.12887200  1
  O  O18  1  0.60078700  0.74792300  0.62887200  1
  O  O19  1  0.10078700  0.25207700  0.87112800  1
  O  O20  1  0.28783100  0.93810700  0.54458600  1
  O  O21  1  0.78783100  0.06189300  0.95541400  1
  O  O22  1  0.71216900  0.06189300  0.45541400  1
  O  O23  1  0.21216900  0.93810700  0.04458600  1
  O  O24  1  0.43535900  0.82139600  0.73381600  1
  O  O25  1  0.93535900  0.17860400  0.76618400  1
  O  O26  1  0.56464100  0.17860400  0.26618400  1
  O  O27  1  0.06464100  0.82139600  0.23381600  1
  O  O28  1  0.46392200  0.74937100  0.45951700  1
  O  O29  1  0.96392200  0.25062900  0.04048300  1
  O  O30  1  0.53607800  0.25062900  0.54048300  1
  O  O31  1  0.03607800  0.74937100  0.95951700  1
  O  O32  1  0.10814300  0.32695500  0.17495600  1
  O  O33  1  0.60814300  0.67304500  0.32504400  1
  O  O34  1  0.89185700  0.67304500  0.82504400  1
  O  O35  1  0.39185700  0.32695500  0.67495600  1
  O  O36  1  0.95465000  0.39457200  0.35013300  1
  O  O37  1  0.45465000  0.60542800  0.14986700  1
  O  O38  1  0.04535000  0.60542800  0.64986700  1
  O  O39  1  0.54535000  0.39457200  0.85013300  1
