# generated using pymatgen
data_NaBi(PO3)4
_symmetry_space_group_name_H-M   'P 1'
_cell_length_a   13.30596800
_cell_length_b   7.29915800
_cell_length_c   12.33407752
_cell_angle_alpha   54.04438912
_cell_angle_beta   90.00000000
_cell_angle_gamma   90.00000000
_symmetry_Int_Tables_number   1
_chemical_formula_structural   NaBi(PO3)4
_chemical_formula_sum   'Na4 Bi4 P16 O48'
_cell_volume   969.67860520
_cell_formula_units_Z   4
loop_
 _symmetry_equiv_pos_site_id
 _symmetry_equiv_pos_as_xyz
  1  'x, y, z'
loop_
 _atom_site_type_symbol
 _atom_site_label
 _atom_site_symmetry_multiplicity
 _atom_site_fract_x
 _atom_site_fract_y
 _atom_site_fract_z
 _atom_site_occupancy
  Na  Na0  1  0.77857200  0.93462400  0.56369800  1
  Na  Na1  1  0.27857200  0.06537600  0.93630200  1
  Na  Na2  1  0.22142800  0.06537600  0.43630200  1
  Na  Na3  1  0.72142800  0.93462400  0.06369800  1
  Bi  Bi4  1  0.78087500  0.53440500  0.47770300  1
  Bi  Bi5  1  0.28087500  0.46559500  0.02229700  1
  Bi  Bi6  1  0.21912500  0.46559500  0.52229700  1
  Bi  Bi7  1  0.71912500  0.53440500  0.97770300  1
  P  P8  1  0.61410300  0.11330100  0.76436800  1
  P  P9  1  0.87199900  0.34212400  0.80365900  1
  P  P10  1  0.62800100  0.34212400  0.30365900  1
  P  P11  1  0.12800100  0.65787600  0.19634100  1
  P  P12  1  0.60126200  0.00820700  0.24139400  1
  P  P13  1  0.10126200  0.99179300  0.25860600  1
  P  P14  1  0.39873800  0.99179300  0.75860600  1
  P  P15  1  0.89873800  0.00820700  0.74139400  1
  P  P16  1  0.37199900  0.65787600  0.69634100  1
  P  P17  1  0.11410300  0.88669900  0.73563200  1
  P  P18  1  0.91006500  0.56984300  0.20016500  1
  P  P19  1  0.88589700  0.11330100  0.26436800  1
  P  P20  1  0.58993500  0.56984300  0.70016500  1
  P  P21  1  0.08993500  0.43015700  0.79983500  1
  P  P22  1  0.41006500  0.43015700  0.29983500  1
  P  P23  1  0.38589700  0.88669900  0.23563200  1
  O  O24  1  0.47799200  0.64760800  0.63679100  1
  O  O25  1  0.97799200  0.35239200  0.86320900  1
  O  O26  1  0.52200800  0.35239200  0.36320900  1
  O  O27  1  0.02200800  0.64760800  0.13679100  1
  O  O28  1  0.66031400  0.66060100  0.58386800  1
  O  O29  1  0.16031400  0.33939900  0.91613200  1
  O  O30  1  0.33968600  0.33939900  0.41613200  1
  O  O31  1  0.83968600  0.66060100  0.08386800  1
  O  O32  1  0.29070500  0.68234800  0.60387200  1
  O  O33  1  0.79070500  0.31765200  0.89612800  1
  O  O34  1  0.70929500  0.31765200  0.39612800  1
  O  O35  1  0.20929500  0.68234800  0.10387200  1
  O  O36  1  0.66498600  0.80126800  0.29213500  1
  O  O37  1  0.16498600  0.19873200  0.20786500  1
  O  O38  1  0.33501400  0.19873200  0.70786500  1
  O  O39  1  0.83501400  0.80126800  0.79213500  1
  O  O40  1  0.36578100  0.47286200  0.84402400  1
  O  O41  1  0.64528300  0.90682100  0.89905600  1
  O  O42  1  0.86578100  0.52713800  0.65597600  1
  O  O43  1  0.13421900  0.47286200  0.34402400  1
  O  O44  1  0.60859300  0.63516200  0.79360700  1
  O  O45  1  0.10859300  0.36483800  0.70639300  1
  O  O46  1  0.39140700  0.36483800  0.20639300  1
  O  O47  1  0.89140700  0.63516200  0.29360700  1
  O  O48  1  0.81240300  0.21112000  0.15118700  1
  O  O49  1  0.31240300  0.78888000  0.34881300  1
  O  O50  1  0.18759700  0.78888000  0.84881300  1
  O  O51  1  0.68759700  0.21112000  0.65118700  1
  O  O52  1  0.12425300  0.90263200  0.16937000  1
  O  O53  1  0.62425300  0.09736800  0.33063000  1
  O  O54  1  0.87574700  0.09736800  0.83063000  1
  O  O55  1  0.37574700  0.90263200  0.66937000  1
  O  O56  1  0.98736900  0.07258900  0.21189800  1
  O  O57  1  0.48736900  0.92741100  0.28810200  1
  O  O58  1  0.01263100  0.92741100  0.78810200  1
  O  O59  1  0.51263100  0.07258900  0.71189800  1
  O  O60  1  0.89196100  0.19285800  0.59286300  1
  O  O61  1  0.39196100  0.80714200  0.90713700  1
  O  O62  1  0.10803900  0.80714200  0.40713700  1
  O  O63  1  0.60803900  0.19285800  0.09286300  1
  O  O64  1  0.91911400  0.29766000  0.28984300  1
  O  O65  1  0.41911400  0.70234000  0.21015700  1
  O  O66  1  0.08088600  0.70234000  0.71015700  1
  O  O67  1  0.58088600  0.29766000  0.78984300  1
  O  O68  1  0.85471700  0.90682100  0.39905600  1
  O  O69  1  0.35471700  0.09317900  0.10094400  1
  O  O70  1  0.14528300  0.09317900  0.60094400  1
  O  O71  1  0.63421900  0.52713800  0.15597600  1
