# generated using pymatgen
data_Li8Pb3
_symmetry_space_group_name_H-M   'P 1'
_cell_length_a   11.10074124
_cell_length_b   11.10074124
_cell_length_c   11.10074154
_cell_angle_alpha   24.79131383
_cell_angle_beta   24.79131383
_cell_angle_gamma   24.79130881
_symmetry_Int_Tables_number   1
_chemical_formula_structural   Li8Pb3
_chemical_formula_sum   'Li8 Pb3'
_cell_volume   211.53643706
_cell_formula_units_Z   1
loop_
 _symmetry_equiv_pos_site_id
 _symmetry_equiv_pos_as_xyz
  1  'x, y, z'
loop_
 _atom_site_type_symbol
 _atom_site_label
 _atom_site_symmetry_multiplicity
 _atom_site_fract_x
 _atom_site_fract_y
 _atom_site_fract_z
 _atom_site_occupancy
  Li  Li0  1  0.91101300  0.91101300  0.91101300  1
  Li  Li1  1  0.08898700  0.08898700  0.08898700  1
  Li  Li2  1  0.82074600  0.82074600  0.82074600  1
  Li  Li3  1  0.36159300  0.36159300  0.36159300  1
  Li  Li4  1  0.63840700  0.63840700  0.63840700  1
  Li  Li5  1  0.27283500  0.27283500  0.27283500  1
  Li  Li6  1  0.72716500  0.72716500  0.72716500  1
  Li  Li7  1  0.17925400  0.17925400  0.17925400  1
  Pb  Pb8  1  0.54734000  0.54734000  0.54734000  1
  Pb  Pb9  1  0.45266000  0.45266000  0.45266000  1
  Pb  Pb10  1  0.00000000  0.00000000  0.00000000  1
