# generated using pymatgen
data_Cd2H3ClO3
_symmetry_space_group_name_H-M   'P 1'
_cell_length_a   6.92518400
_cell_length_b   7.59971000
_cell_length_c   10.04201800
_cell_angle_alpha   90.00000000
_cell_angle_beta   90.00000000
_cell_angle_gamma   90.00000000
_symmetry_Int_Tables_number   1
_chemical_formula_structural   Cd2H3ClO3
_chemical_formula_sum   'Cd8 H12 Cl4 O12'
_cell_volume   528.50528268
_cell_formula_units_Z   4
loop_
 _symmetry_equiv_pos_site_id
 _symmetry_equiv_pos_as_xyz
  1  'x, y, z'
loop_
 _atom_site_type_symbol
 _atom_site_label
 _atom_site_symmetry_multiplicity
 _atom_site_fract_x
 _atom_site_fract_y
 _atom_site_fract_z
 _atom_site_occupancy
  Cd  Cd0  1  0.30914900  0.75000000  0.76241000  1
  Cd  Cd1  1  0.80914900  0.75000000  0.73759000  1
  Cd  Cd2  1  0.69085100  0.25000000  0.23759000  1
  Cd  Cd3  1  0.19085100  0.25000000  0.26241000  1
  Cd  Cd4  1  0.50000000  0.00000000  0.50000000  1
  Cd  Cd5  1  0.00000000  0.50000000  0.00000000  1
  Cd  Cd6  1  0.50000000  0.50000000  0.50000000  1
  Cd  Cd7  1  0.00000000  0.00000000  0.00000000  1
  H  H8  1  0.92656800  0.95390500  0.27959100  1
  H  H9  1  0.42656800  0.54609500  0.22040900  1
  H  H10  1  0.07343200  0.45390500  0.72040900  1
  H  H11  1  0.57343200  0.04609500  0.77959100  1
  H  H12  1  0.07343200  0.04609500  0.72040900  1
  H  H13  1  0.57343200  0.45390500  0.77959100  1
  H  H14  1  0.92656800  0.54609500  0.27959100  1
  H  H15  1  0.42656800  0.95390500  0.22040900  1
  H  H16  1  0.19230500  0.75000000  0.48690300  1
  H  H17  1  0.69230500  0.75000000  0.01309700  1
  H  H18  1  0.80769500  0.25000000  0.51309700  1
  H  H19  1  0.30769500  0.25000000  0.98690300  1
  Cl  Cl20  1  0.18986800  0.25000000  0.53860600  1
  Cl  Cl21  1  0.68986800  0.25000000  0.96139400  1
  Cl  Cl22  1  0.81013200  0.75000000  0.46139400  1
  Cl  Cl23  1  0.31013200  0.75000000  0.03860600  1
  O  O24  1  0.17890100  0.25000000  0.02650600  1
  O  O25  1  0.67890100  0.25000000  0.47349400  1
  O  O26  1  0.82109900  0.75000000  0.97349400  1
  O  O27  1  0.32109900  0.75000000  0.52650600  1
  O  O28  1  0.44329100  0.05394800  0.28048700  1
  O  O29  1  0.94329100  0.44605200  0.21951300  1
  O  O30  1  0.55670900  0.55394800  0.71951300  1
  O  O31  1  0.05670900  0.94605200  0.78048700  1
  O  O32  1  0.55670900  0.94605200  0.71951300  1
  O  O33  1  0.05670900  0.55394800  0.78048700  1
  O  O34  1  0.44329100  0.44605200  0.28048700  1
  O  O35  1  0.94329100  0.05394800  0.21951300  1
