# generated using pymatgen
data_SnS
_symmetry_space_group_name_H-M   'P 1'
_cell_length_a   4.02397200
_cell_length_b   4.44251100
_cell_length_c   11.43265200
_cell_angle_alpha   90.00000000
_cell_angle_beta   90.00000000
_cell_angle_gamma   90.00000000
_symmetry_Int_Tables_number   1
_chemical_formula_structural   SnS
_chemical_formula_sum   'Sn4 S4'
_cell_volume   204.37625934
_cell_formula_units_Z   4
loop_
 _symmetry_equiv_pos_site_id
 _symmetry_equiv_pos_as_xyz
  1  'x, y, z'
loop_
 _atom_site_type_symbol
 _atom_site_label
 _atom_site_symmetry_multiplicity
 _atom_site_fract_x
 _atom_site_fract_y
 _atom_site_fract_z
 _atom_site_occupancy
  Sn  Sn0  1  0.25000000  0.37397600  0.62123800  1
  Sn  Sn1  1  0.75000000  0.62602400  0.37876200  1
  Sn  Sn2  1  0.75000000  0.87397600  0.87876200  1
  Sn  Sn3  1  0.25000000  0.12602400  0.12123800  1
  S  S4  1  0.25000000  0.01986700  0.34983000  1
  S  S5  1  0.75000000  0.98013300  0.65017000  1
  S  S6  1  0.75000000  0.51986700  0.15017000  1
  S  S7  1  0.25000000  0.48013300  0.84983000  1
