# generated using pymatgen
data_Nb3ICl6
_symmetry_space_group_name_H-M   'P 1'
_cell_length_a   12.89166300
_cell_length_b   12.89166300
_cell_length_c   12.89166300
_cell_angle_alpha   90.00000000
_cell_angle_beta   90.00000000
_cell_angle_gamma   90.00000000
_symmetry_Int_Tables_number   1
_chemical_formula_structural   Nb3ICl6
_chemical_formula_sum   'Nb24 I8 Cl48'
_cell_volume   2142.52960878
_cell_formula_units_Z   8
loop_
 _symmetry_equiv_pos_site_id
 _symmetry_equiv_pos_as_xyz
  1  'x, y, z'
loop_
 _atom_site_type_symbol
 _atom_site_label
 _atom_site_symmetry_multiplicity
 _atom_site_fract_x
 _atom_site_fract_y
 _atom_site_fract_z
 _atom_site_occupancy
  Nb  Nb0  1  0.55910100  0.04263900  0.14291200  1
  Nb  Nb1  1  0.14291200  0.55910100  0.04263900  1
  Nb  Nb2  1  0.04263900  0.14291200  0.55910100  1
  Nb  Nb3  1  0.45736100  0.85708800  0.05910100  1
  Nb  Nb4  1  0.64291200  0.94089900  0.95736100  1
  Nb  Nb5  1  0.95736100  0.64291200  0.94089900  1
  Nb  Nb6  1  0.35708800  0.44089900  0.54263900  1
  Nb  Nb7  1  0.85708800  0.05910100  0.45736100  1
  Nb  Nb8  1  0.54263900  0.35708800  0.44089900  1
  Nb  Nb9  1  0.05910100  0.45736100  0.85708800  1
  Nb  Nb10  1  0.44089900  0.54263900  0.35708800  1
  Nb  Nb11  1  0.94089900  0.95736100  0.64291200  1
  Nb  Nb12  1  0.44089900  0.95736100  0.85708800  1
  Nb  Nb13  1  0.85708800  0.44089900  0.95736100  1
  Nb  Nb14  1  0.95736100  0.85708800  0.44089900  1
  Nb  Nb15  1  0.54263900  0.14291200  0.94089900  1
  Nb  Nb16  1  0.35708800  0.05910100  0.04263900  1
  Nb  Nb17  1  0.04263900  0.35708800  0.05910100  1
  Nb  Nb18  1  0.64291200  0.55910100  0.45736100  1
  Nb  Nb19  1  0.14291200  0.94089900  0.54263900  1
  Nb  Nb20  1  0.45736100  0.64291200  0.55910100  1
  Nb  Nb21  1  0.94089900  0.54263900  0.14291200  1
  Nb  Nb22  1  0.55910100  0.45736100  0.64291200  1
  Nb  Nb23  1  0.05910100  0.04263900  0.35708800  1
  I  I24  1  0.12988500  0.12988500  0.12988500  1
  I  I25  1  0.37011500  0.87011500  0.62988500  1
  I  I26  1  0.62988500  0.37011500  0.87011500  1
  I  I27  1  0.87011500  0.62988500  0.37011500  1
  I  I28  1  0.87011500  0.87011500  0.87011500  1
  I  I29  1  0.62988500  0.12988500  0.37011500  1
  I  I30  1  0.37011500  0.62988500  0.12988500  1
  I  I31  1  0.12988500  0.37011500  0.62988500  1
  Cl  Cl32  1  0.62100300  0.21727700  0.09881100  1
  Cl  Cl33  1  0.09881100  0.62100300  0.21727700  1
  Cl  Cl34  1  0.21727700  0.09881100  0.62100300  1
  Cl  Cl35  1  0.28272300  0.90118900  0.12100300  1
  Cl  Cl36  1  0.59881100  0.87899700  0.78272300  1
  Cl  Cl37  1  0.78272300  0.59881100  0.87899700  1
  Cl  Cl38  1  0.40118900  0.37899700  0.71727700  1
  Cl  Cl39  1  0.90118900  0.12100300  0.28272300  1
  Cl  Cl40  1  0.71727700  0.40118900  0.37899700  1
  Cl  Cl41  1  0.12100300  0.28272300  0.90118900  1
  Cl  Cl42  1  0.37899700  0.71727700  0.40118900  1
  Cl  Cl43  1  0.87899700  0.78272300  0.59881100  1
  Cl  Cl44  1  0.37899700  0.78272300  0.90118900  1
  Cl  Cl45  1  0.90118900  0.37899700  0.78272300  1
  Cl  Cl46  1  0.78272300  0.90118900  0.37899700  1
  Cl  Cl47  1  0.71727700  0.09881100  0.87899700  1
  Cl  Cl48  1  0.40118900  0.12100300  0.21727700  1
  Cl  Cl49  1  0.21727700  0.40118900  0.12100300  1
  Cl  Cl50  1  0.59881100  0.62100300  0.28272300  1
  Cl  Cl51  1  0.09881100  0.87899700  0.71727700  1
  Cl  Cl52  1  0.28272300  0.59881100  0.62100300  1
  Cl  Cl53  1  0.87899700  0.71727700  0.09881100  1
  Cl  Cl54  1  0.62100300  0.28272300  0.59881100  1
  Cl  Cl55  1  0.12100300  0.21727700  0.40118900  1
  Cl  Cl56  1  0.73902000  0.97946800  0.11810900  1
  Cl  Cl57  1  0.11810900  0.73902000  0.97946800  1
  Cl  Cl58  1  0.97946800  0.11810900  0.73902000  1
  Cl  Cl59  1  0.52053200  0.88189100  0.23902000  1
  Cl  Cl60  1  0.61810900  0.76098000  0.02053200  1
  Cl  Cl61  1  0.02053200  0.61810900  0.76098000  1
  Cl  Cl62  1  0.38189100  0.26098000  0.47946800  1
  Cl  Cl63  1  0.88189100  0.23902000  0.52053200  1
  Cl  Cl64  1  0.47946800  0.38189100  0.26098000  1
  Cl  Cl65  1  0.23902000  0.52053200  0.88189100  1
  Cl  Cl66  1  0.26098000  0.47946800  0.38189100  1
  Cl  Cl67  1  0.76098000  0.02053200  0.61810900  1
  Cl  Cl68  1  0.26098000  0.02053200  0.88189100  1
  Cl  Cl69  1  0.88189100  0.26098000  0.02053200  1
  Cl  Cl70  1  0.02053200  0.88189100  0.26098000  1
  Cl  Cl71  1  0.47946800  0.11810900  0.76098000  1
  Cl  Cl72  1  0.38189100  0.23902000  0.97946800  1
  Cl  Cl73  1  0.97946800  0.38189100  0.23902000  1
  Cl  Cl74  1  0.61810900  0.73902000  0.52053200  1
  Cl  Cl75  1  0.11810900  0.76098000  0.47946800  1
  Cl  Cl76  1  0.52053200  0.61810900  0.73902000  1
  Cl  Cl77  1  0.76098000  0.47946800  0.11810900  1
  Cl  Cl78  1  0.73902000  0.52053200  0.61810900  1
  Cl  Cl79  1  0.23902000  0.97946800  0.38189100  1
