# generated using pymatgen
data_InI
_symmetry_space_group_name_H-M   'P 1'
_cell_length_a   6.93873501
_cell_length_b   6.93873501
_cell_length_c   4.95236900
_cell_angle_alpha   90.00000000
_cell_angle_beta   90.00000000
_cell_angle_gamma   139.01051192
_symmetry_Int_Tables_number   1
_chemical_formula_structural   InI
_chemical_formula_sum   'In2 I2'
_cell_volume   156.39571164
_cell_formula_units_Z   2
loop_
 _symmetry_equiv_pos_site_id
 _symmetry_equiv_pos_as_xyz
  1  'x, y, z'
loop_
 _atom_site_type_symbol
 _atom_site_label
 _atom_site_symmetry_multiplicity
 _atom_site_fract_x
 _atom_site_fract_y
 _atom_site_fract_z
 _atom_site_occupancy
  In  In0  1  0.39541000  0.60459000  0.75000000  1
  In  In1  1  0.60459000  0.39541000  0.25000000  1
  I  I2  1  0.14279100  0.85720900  0.75000000  1
  I  I3  1  0.85720900  0.14279100  0.25000000  1
