# generated using pymatgen
data_NaAlI4
_symmetry_space_group_name_H-M   'P 1'
_cell_length_a   8.39506500
_cell_length_b   8.47068900
_cell_length_c   15.16941500
_cell_angle_alpha   90.00000000
_cell_angle_beta   90.00000000
_cell_angle_gamma   90.00000000
_symmetry_Int_Tables_number   1
_chemical_formula_structural   NaAlI4
_chemical_formula_sum   'Na4 Al4 I16'
_cell_volume   1078.72720814
_cell_formula_units_Z   4
loop_
 _symmetry_equiv_pos_site_id
 _symmetry_equiv_pos_as_xyz
  1  'x, y, z'
loop_
 _atom_site_type_symbol
 _atom_site_label
 _atom_site_symmetry_multiplicity
 _atom_site_fract_x
 _atom_site_fract_y
 _atom_site_fract_z
 _atom_site_occupancy
  Na  Na0  1  0.25000000  0.44592400  0.15048900  1
  Na  Na1  1  0.75000000  0.94592400  0.34951100  1
  Na  Na2  1  0.75000000  0.55407600  0.84951100  1
  Na  Na3  1  0.25000000  0.05407600  0.65048900  1
  Al  Al4  1  0.25000000  0.30329600  0.89822500  1
  Al  Al5  1  0.75000000  0.80329600  0.60177500  1
  Al  Al6  1  0.75000000  0.69670400  0.10177500  1
  Al  Al7  1  0.25000000  0.19670400  0.39822500  1
  I  I8  1  0.25000000  0.12796800  0.03482500  1
  I  I9  1  0.75000000  0.62796800  0.46517500  1
  I  I10  1  0.75000000  0.87203200  0.96517500  1
  I  I11  1  0.25000000  0.37203200  0.53482500  1
  I  I12  1  0.25000000  0.90710000  0.44777500  1
  I  I13  1  0.75000000  0.40710000  0.05222500  1
  I  I14  1  0.75000000  0.09290000  0.55222500  1
  I  I15  1  0.25000000  0.59290000  0.94777500  1
  I  I16  1  0.99426400  0.75553200  0.19986600  1
  I  I17  1  0.00573600  0.25553200  0.30013400  1
  I  I18  1  0.49426400  0.24446800  0.80013400  1
  I  I19  1  0.50573600  0.74446800  0.69986600  1
  I  I20  1  0.00573600  0.24446800  0.80013400  1
  I  I21  1  0.99426400  0.74446800  0.69986600  1
  I  I22  1  0.50573600  0.75553200  0.19986600  1
  I  I23  1  0.49426400  0.25553200  0.30013400  1
