# generated using pymatgen
data_TiCuSi
_symmetry_space_group_name_H-M   'P 1'
_cell_length_a   3.72535200
_cell_length_b   6.21610700
_cell_length_c   7.17358900
_cell_angle_alpha   90.00000000
_cell_angle_beta   90.00000000
_cell_angle_gamma   90.00000000
_symmetry_Int_Tables_number   1
_chemical_formula_structural   TiCuSi
_chemical_formula_sum   'Ti4 Cu4 Si4'
_cell_volume   166.12013939
_cell_formula_units_Z   4
loop_
 _symmetry_equiv_pos_site_id
 _symmetry_equiv_pos_as_xyz
  1  'x, y, z'
loop_
 _atom_site_type_symbol
 _atom_site_label
 _atom_site_symmetry_multiplicity
 _atom_site_fract_x
 _atom_site_fract_y
 _atom_site_fract_z
 _atom_site_occupancy
  Ti  Ti0  1  0.75000000  0.47826400  0.32096900  1
  Ti  Ti1  1  0.25000000  0.02173600  0.82096900  1
  Ti  Ti2  1  0.75000000  0.97826400  0.17903100  1
  Ti  Ti3  1  0.25000000  0.52173600  0.67903100  1
  Cu  Cu4  1  0.25000000  0.65028700  0.06471600  1
  Cu  Cu5  1  0.25000000  0.15028700  0.43528400  1
  Cu  Cu6  1  0.75000000  0.84971300  0.56471600  1
  Cu  Cu7  1  0.75000000  0.34971300  0.93528400  1
  Si  Si8  1  0.25000000  0.26570600  0.12159700  1
  Si  Si9  1  0.25000000  0.76570600  0.37840300  1
  Si  Si10  1  0.75000000  0.73429400  0.87840300  1
  Si  Si11  1  0.75000000  0.23429400  0.62159700  1
