# generated using pymatgen
data_ThB2O5
_symmetry_space_group_name_H-M   'P 1'
_cell_length_a   6.76213915
_cell_length_b   6.76213915
_cell_length_c   10.51945719
_cell_angle_alpha   80.02783820
_cell_angle_beta   80.02783820
_cell_angle_gamma   62.38564270
_symmetry_Int_Tables_number   1
_chemical_formula_structural   ThB2O5
_chemical_formula_sum   'Th4 B8 O20'
_cell_volume   417.39945930
_cell_formula_units_Z   4
loop_
 _symmetry_equiv_pos_site_id
 _symmetry_equiv_pos_as_xyz
  1  'x, y, z'
loop_
 _atom_site_type_symbol
 _atom_site_label
 _atom_site_symmetry_multiplicity
 _atom_site_fract_x
 _atom_site_fract_y
 _atom_site_fract_z
 _atom_site_occupancy
  Th  Th0  1  0.38777900  0.97825700  0.19198500  1
  Th  Th1  1  0.02174300  0.61222100  0.30801500  1
  Th  Th2  1  0.61222100  0.02174300  0.80801500  1
  Th  Th3  1  0.97825700  0.38777900  0.69198500  1
  B  B4  1  0.76911800  0.27810900  0.50335500  1
  B  B5  1  0.56560300  0.16411300  0.35844900  1
  B  B6  1  0.83588700  0.43439700  0.14155100  1
  B  B7  1  0.43439700  0.83588700  0.64155100  1
  B  B8  1  0.16411300  0.56560300  0.85844900  1
  B  B9  1  0.72189100  0.23088200  0.99664500  1
  B  B10  1  0.23088200  0.72189100  0.49664500  1
  B  B11  1  0.27810900  0.76911800  0.00335500  1
  O  O12  1  0.63996100  0.28012300  0.41584400  1
  O  O13  1  0.28012300  0.63996100  0.91584400  1
  O  O14  1  0.36003900  0.71987700  0.58415600  1
  O  O15  1  0.71987700  0.36003900  0.08415600  1
  O  O16  1  0.27510000  0.35849200  0.81128300  1
  O  O17  1  0.64150800  0.72490000  0.68871700  1
  O  O18  1  0.72490000  0.64150800  0.18871700  1
  O  O19  1  0.35849200  0.27510000  0.31128300  1
  O  O20  1  0.05755300  0.31263100  0.16354800  1
  O  O21  1  0.68736900  0.94244700  0.33645200  1
  O  O22  1  0.94244700  0.68736900  0.83645200  1
  O  O23  1  0.31263100  0.05755300  0.66354800  1
  O  O24  1  0.39775900  0.89257400  0.97074500  1
  O  O25  1  0.10742600  0.60224100  0.52925500  1
  O  O26  1  0.60224100  0.10742600  0.02925500  1
  O  O27  1  0.89257400  0.39775900  0.47074500  1
  O  O28  1  0.82423700  0.22515000  0.87129500  1
  O  O29  1  0.77485000  0.17576300  0.62870500  1
  O  O30  1  0.17576300  0.77485000  0.12870500  1
  O  O31  1  0.22515000  0.82423700  0.37129500  1
