# generated using pymatgen
data_SrHClO
_symmetry_space_group_name_H-M   'P 1'
_cell_length_a   4.18258537
_cell_length_b   4.18258537
_cell_length_c   10.07966500
_cell_angle_alpha   90.00000000
_cell_angle_beta   90.00000000
_cell_angle_gamma   119.99999001
_symmetry_Int_Tables_number   1
_chemical_formula_structural   SrHClO
_chemical_formula_sum   'Sr2 H2 Cl2 O2'
_cell_volume   152.70962180
_cell_formula_units_Z   2
loop_
 _symmetry_equiv_pos_site_id
 _symmetry_equiv_pos_as_xyz
  1  'x, y, z'
loop_
 _atom_site_type_symbol
 _atom_site_label
 _atom_site_symmetry_multiplicity
 _atom_site_fract_x
 _atom_site_fract_y
 _atom_site_fract_z
 _atom_site_occupancy
  Sr  Sr0  1  0.66666700  0.33333300  0.19722400  1
  Sr  Sr1  1  0.33333300  0.66666700  0.69722400  1
  H  H2  1  0.00000000  0.00000000  0.86025000  1
  H  H3  1  0.00000000  0.00000000  0.36025000  1
  Cl  Cl4  1  0.33333300  0.66666700  0.01061600  1
  Cl  Cl5  1  0.66666700  0.33333300  0.51061600  1
  O  O6  1  0.00000000  0.00000000  0.26341000  1
  O  O7  1  0.00000000  0.00000000  0.76341000  1
