# generated using pymatgen
data_WS9Cl4
_symmetry_space_group_name_H-M   'P 1'
_cell_length_a   18.24022500
_cell_length_b   18.24022500
_cell_length_c   11.34687600
_cell_angle_alpha   90.00000000
_cell_angle_beta   90.00000000
_cell_angle_gamma   90.00000000
_symmetry_Int_Tables_number   1
_chemical_formula_structural   WS9Cl4
_chemical_formula_sum   'W8 S72 Cl32'
_cell_volume   3775.17154843
_cell_formula_units_Z   8
loop_
 _symmetry_equiv_pos_site_id
 _symmetry_equiv_pos_as_xyz
  1  'x, y, z'
loop_
 _atom_site_type_symbol
 _atom_site_label
 _atom_site_symmetry_multiplicity
 _atom_site_fract_x
 _atom_site_fract_y
 _atom_site_fract_z
 _atom_site_occupancy
  W  W0  1  0.14190400  0.78371400  0.08772000  1
  W  W1  1  0.21628600  0.14190400  0.91228000  1
  W  W2  1  0.78371400  0.85809600  0.91228000  1
  W  W3  1  0.85809600  0.21628600  0.08772000  1
  W  W4  1  0.64190400  0.71628600  0.41228000  1
  W  W5  1  0.35809600  0.28371400  0.41228000  1
  W  W6  1  0.28371400  0.64190400  0.58772000  1
  W  W7  1  0.71628600  0.35809600  0.58772000  1
  S  S8  1  0.20807100  0.79871400  0.23758100  1
  S  S9  1  0.20128600  0.20807100  0.76241900  1
  S  S10  1  0.79871400  0.79192900  0.76241900  1
  S  S11  1  0.79192900  0.20128600  0.23758100  1
  S  S12  1  0.70807100  0.70128600  0.26241900  1
  S  S13  1  0.29192900  0.29871400  0.26241900  1
  S  S14  1  0.29871400  0.70807100  0.73758100  1
  S  S15  1  0.70128600  0.29192900  0.73758100  1
  S  S16  1  0.01844400  0.76221900  0.83771100  1
  S  S17  1  0.23778100  0.01844400  0.16228900  1
  S  S18  1  0.76221900  0.98155600  0.16228900  1
  S  S19  1  0.98155600  0.23778100  0.83771100  1
  S  S20  1  0.51844400  0.73778100  0.66228900  1
  S  S21  1  0.48155600  0.26221900  0.66228900  1
  S  S22  1  0.26221900  0.51844400  0.33771100  1
  S  S23  1  0.73778100  0.48155600  0.33771100  1
  S  S24  1  0.03791500  0.65594800  0.78213700  1
  S  S25  1  0.34405200  0.03791500  0.21786300  1
  S  S26  1  0.65594800  0.96208500  0.21786300  1
  S  S27  1  0.96208500  0.34405200  0.78213700  1
  S  S28  1  0.53791500  0.84405200  0.71786300  1
  S  S29  1  0.46208500  0.15594800  0.71786300  1
  S  S30  1  0.15594800  0.53791500  0.28213700  1
  S  S31  1  0.84405200  0.46208500  0.28213700  1
  S  S32  1  0.94579400  0.61817700  0.69679100  1
  S  S33  1  0.38182300  0.94579400  0.30320900  1
  S  S34  1  0.61817700  0.05420600  0.30320900  1
  S  S35  1  0.05420600  0.38182300  0.69679100  1
  S  S36  1  0.44579400  0.88182300  0.80320900  1
  S  S37  1  0.55420600  0.11817700  0.80320900  1
  S  S38  1  0.11817700  0.44579400  0.19679100  1
  S  S39  1  0.88182300  0.55420600  0.19679100  1
  S  S40  1  0.95889600  0.63086700  0.51708800  1
  S  S41  1  0.36913300  0.95889600  0.48291200  1
  S  S42  1  0.63086700  0.04110400  0.48291200  1
  S  S43  1  0.04110400  0.36913300  0.51708800  1
  S  S44  1  0.45889600  0.86913300  0.98291200  1
  S  S45  1  0.54110400  0.13086700  0.98291200  1
  S  S46  1  0.13086700  0.45889600  0.01708800  1
  S  S47  1  0.86913300  0.54110400  0.01708800  1
  S  S48  1  0.90794400  0.72624300  0.46429500  1
  S  S49  1  0.27375700  0.90794400  0.53570500  1
  S  S50  1  0.72624300  0.09205600  0.53570500  1
  S  S51  1  0.09205600  0.27375700  0.46429500  1
  S  S52  1  0.40794400  0.77375700  0.03570500  1
  S  S53  1  0.59205600  0.22624300  0.03570500  1
  S  S54  1  0.22624300  0.40794400  0.96429500  1
  S  S55  1  0.77375700  0.59205600  0.96429500  1
  S  S56  1  0.98445100  0.80920400  0.45305300  1
  S  S57  1  0.19079600  0.98445100  0.54694700  1
  S  S58  1  0.80920400  0.01554900  0.54694700  1
  S  S59  1  0.01554900  0.19079600  0.45305300  1
  S  S60  1  0.48445100  0.69079600  0.04694700  1
  S  S61  1  0.51554900  0.30920400  0.04694700  1
  S  S62  1  0.30920400  0.48445100  0.95305300  1
  S  S63  1  0.69079600  0.51554900  0.95305300  1
  S  S64  1  0.98168100  0.87037500  0.60632700  1
  S  S65  1  0.12962500  0.98168100  0.39367300  1
  S  S66  1  0.87037500  0.01831900  0.39367300  1
  S  S67  1  0.01831900  0.12962500  0.60632700  1
  S  S68  1  0.48168100  0.62962500  0.89367300  1
  S  S69  1  0.51831900  0.37037500  0.89367300  1
  S  S70  1  0.37037500  0.48168100  0.10632700  1
  S  S71  1  0.62962500  0.51831900  0.10632700  1
  S  S72  1  0.06327400  0.83527300  0.71814400  1
  S  S73  1  0.16472700  0.06327400  0.28185600  1
  S  S74  1  0.83527300  0.93672600  0.28185600  1
  S  S75  1  0.93672600  0.16472700  0.71814400  1
  S  S76  1  0.56327400  0.66472700  0.78185600  1
  S  S77  1  0.43672600  0.33527300  0.78185600  1
  S  S78  1  0.33527300  0.56327400  0.21814400  1
  S  S79  1  0.66472700  0.43672600  0.21814400  1
  Cl  Cl80  1  0.06168000  0.88111700  0.09748800  1
  Cl  Cl81  1  0.11888300  0.06168000  0.90251200  1
  Cl  Cl82  1  0.88111700  0.93832000  0.90251200  1
  Cl  Cl83  1  0.93832000  0.11888300  0.09748800  1
  Cl  Cl84  1  0.56168000  0.61888300  0.40251200  1
  Cl  Cl85  1  0.43832000  0.38111700  0.40251200  1
  Cl  Cl86  1  0.38111700  0.56168000  0.59748800  1
  Cl  Cl87  1  0.61888300  0.43832000  0.59748800  1
  Cl  Cl88  1  0.04714700  0.71128400  0.15614400  1
  Cl  Cl89  1  0.28871600  0.04714700  0.84385600  1
  Cl  Cl90  1  0.71128400  0.95285300  0.84385600  1
  Cl  Cl91  1  0.95285300  0.28871600  0.15614400  1
  Cl  Cl92  1  0.54714700  0.78871600  0.34385600  1
  Cl  Cl93  1  0.45285300  0.21128400  0.34385600  1
  Cl  Cl94  1  0.21128400  0.54714700  0.65614400  1
  Cl  Cl95  1  0.78871600  0.45285300  0.65614400  1
  Cl  Cl96  1  0.18898000  0.67895400  0.00276800  1
  Cl  Cl97  1  0.32104600  0.18898000  0.99723200  1
  Cl  Cl98  1  0.67895400  0.81102000  0.99723200  1
  Cl  Cl99  1  0.81102000  0.32104600  0.00276800  1
  Cl  Cl100  1  0.68898000  0.82104600  0.49723200  1
  Cl  Cl101  1  0.31102000  0.17895400  0.49723200  1
  Cl  Cl102  1  0.17895400  0.68898000  0.50276800  1
  Cl  Cl103  1  0.82104600  0.31102000  0.50276800  1
  Cl  Cl104  1  0.20394800  0.84873700  0.94422700  1
  Cl  Cl105  1  0.15126300  0.20394800  0.05577300  1
  Cl  Cl106  1  0.84873700  0.79605200  0.05577300  1
  Cl  Cl107  1  0.79605200  0.15126300  0.94422700  1
  Cl  Cl108  1  0.70394800  0.65126300  0.55577300  1
  Cl  Cl109  1  0.29605200  0.34873700  0.55577300  1
  Cl  Cl110  1  0.34873700  0.70394800  0.44422700  1
  Cl  Cl111  1  0.65126300  0.29605200  0.44422700  1
