# generated using pymatgen
data_K3BiO3
_symmetry_space_group_name_H-M   'P 1'
_cell_length_a   9.43095776
_cell_length_b   9.43095776
_cell_length_c   9.43095776
_cell_angle_alpha   109.47122063
_cell_angle_beta   109.47122063
_cell_angle_gamma   109.47122063
_symmetry_Int_Tables_number   1
_chemical_formula_structural   K3BiO3
_chemical_formula_sum   'K12 Bi4 O12'
_cell_volume   645.72188818
_cell_formula_units_Z   4
loop_
 _symmetry_equiv_pos_site_id
 _symmetry_equiv_pos_as_xyz
  1  'x, y, z'
loop_
 _atom_site_type_symbol
 _atom_site_label
 _atom_site_symmetry_multiplicity
 _atom_site_fract_x
 _atom_site_fract_y
 _atom_site_fract_z
 _atom_site_occupancy
  K  K0  1  0.73065400  0.24556800  0.73065400  1
  K  K1  1  0.26934600  0.00000000  0.51491400  1
  K  K2  1  0.00000000  0.26934600  0.51491400  1
  K  K3  1  0.48508600  0.48508600  0.75443200  1
  K  K4  1  0.00000000  0.51491400  0.26934600  1
  K  K5  1  0.51491400  0.00000000  0.26934600  1
  K  K6  1  0.48508600  0.75443200  0.48508600  1
  K  K7  1  0.26934600  0.51491400  0.00000000  1
  K  K8  1  0.51491400  0.26934600  0.00000000  1
  K  K9  1  0.73065400  0.73065400  0.24556800  1
  K  K10  1  0.24556800  0.73065400  0.73065400  1
  K  K11  1  0.75443200  0.48508600  0.48508600  1
  Bi  Bi12  1  0.29629200  0.29629200  0.29629200  1
  Bi  Bi13  1  0.00000000  0.70370800  0.00000000  1
  Bi  Bi14  1  0.70370800  0.00000000  0.00000000  1
  Bi  Bi15  1  0.00000000  0.00000000  0.70370800  1
  O  O16  1  0.47168500  0.47168500  0.26180500  1
  O  O17  1  0.00000000  0.79012100  0.52831500  1
  O  O18  1  0.79012100  0.00000000  0.52831500  1
  O  O19  1  0.20987900  0.73819500  0.20987900  1
  O  O20  1  0.00000000  0.52831500  0.79012100  1
  O  O21  1  0.52831500  0.00000000  0.79012100  1
  O  O22  1  0.47168500  0.26180500  0.47168500  1
  O  O23  1  0.79012100  0.52831500  0.00000000  1
  O  O24  1  0.52831500  0.79012100  0.00000000  1
  O  O25  1  0.20987900  0.20987900  0.73819500  1
  O  O26  1  0.73819500  0.20987900  0.20987900  1
  O  O27  1  0.26180500  0.47168500  0.47168500  1
