# generated using pymatgen
data_LuHCl
_symmetry_space_group_name_H-M   'P 1'
_cell_length_a   9.47242734
_cell_length_b   9.47242734
_cell_length_c   9.47242760
_cell_angle_alpha   22.24253242
_cell_angle_beta   22.24253242
_cell_angle_gamma   22.24252898
_symmetry_Int_Tables_number   1
_chemical_formula_structural   LuHCl
_chemical_formula_sum   'Lu2 H2 Cl2'
_cell_volume   106.78944013
_cell_formula_units_Z   2
loop_
 _symmetry_equiv_pos_site_id
 _symmetry_equiv_pos_as_xyz
  1  'x, y, z'
loop_
 _atom_site_type_symbol
 _atom_site_label
 _atom_site_symmetry_multiplicity
 _atom_site_fract_x
 _atom_site_fract_y
 _atom_site_fract_z
 _atom_site_occupancy
  Lu  Lu0  1  0.88049300  0.88049300  0.88049300  1
  Lu  Lu1  1  0.11950700  0.11950700  0.11950700  1
  H  H2  1  0.80365400  0.80365400  0.80365400  1
  H  H3  1  0.19634600  0.19634600  0.19634600  1
  Cl  Cl4  1  0.39231700  0.39231700  0.39231700  1
  Cl  Cl5  1  0.60768300  0.60768300  0.60768300  1
