# generated using pymatgen
data_Hg3(SeI)2
_symmetry_space_group_name_H-M   'P 1'
_cell_length_a   12.27374922
_cell_length_b   12.27374922
_cell_length_c   12.27374922
_cell_angle_alpha   132.08624690
_cell_angle_beta   131.51692793
_cell_angle_gamma   70.54357885
_symmetry_Int_Tables_number   1
_chemical_formula_structural   Hg3(SeI)2
_chemical_formula_sum   'Hg12 Se8 I8'
_cell_volume   1006.66974055
_cell_formula_units_Z   4
loop_
 _symmetry_equiv_pos_site_id
 _symmetry_equiv_pos_as_xyz
  1  'x, y, z'
loop_
 _atom_site_type_symbol
 _atom_site_label
 _atom_site_symmetry_multiplicity
 _atom_site_fract_x
 _atom_site_fract_y
 _atom_site_fract_z
 _atom_site_occupancy
  Hg  Hg0  1  0.15124800  0.65124800  0.00000000  1
  Hg  Hg1  1  0.34875200  0.34875200  0.50000000  1
  Hg  Hg2  1  0.84875200  0.34875200  0.00000000  1
  Hg  Hg3  1  0.65124800  0.65124800  0.50000000  1
  Hg  Hg4  1  0.02949500  0.74511800  0.27461300  1
  Hg  Hg5  1  0.47050500  0.74511800  0.71562300  1
  Hg  Hg6  1  0.52949500  0.25488200  0.28437700  1
  Hg  Hg7  1  0.97050500  0.25488200  0.72538700  1
  Hg  Hg8  1  0.11673300  0.06687100  0.95013700  1
  Hg  Hg9  1  0.38326700  0.33340400  0.95013700  1
  Hg  Hg10  1  0.88326700  0.93312900  0.04986300  1
  Hg  Hg11  1  0.61673300  0.66659600  0.04986300  1
  Se  Se12  1  0.13017200  0.88371200  0.25871600  1
  Se  Se13  1  0.36982800  0.62854400  0.75353900  1
  Se  Se14  1  0.37500500  0.11628800  0.24646100  1
  Se  Se15  1  0.12499500  0.37145600  0.74128400  1
  Se  Se16  1  0.86982800  0.11628800  0.74128400  1
  Se  Se17  1  0.63017200  0.37145600  0.24646100  1
  Se  Se18  1  0.62499500  0.88371200  0.75353900  1
  Se  Se19  1  0.87500500  0.62854400  0.25871600  1
  I  I20  1  0.99923000  0.74474200  0.74551200  1
  I  I21  1  0.50077000  0.24628200  0.74551200  1
  I  I22  1  0.00077000  0.25525800  0.25448800  1
  I  I23  1  0.49923000  0.75371800  0.25448800  1
  I  I24  1  0.75000000  0.48416200  0.73416200  1
  I  I25  1  0.25000000  0.51583800  0.26583800  1
  I  I26  1  0.75000000  0.00293300  0.25293300  1
  I  I27  1  0.25000000  0.99706700  0.74706700  1
