# generated using pymatgen
data_MgPb2WO6
_symmetry_space_group_name_H-M   'P 1'
_cell_length_a   5.80099800
_cell_length_b   8.05258500
_cell_length_c   11.60754700
_cell_angle_alpha   90.00000000
_cell_angle_beta   90.00000000
_cell_angle_gamma   90.00000000
_symmetry_Int_Tables_number   1
_chemical_formula_structural   MgPb2WO6
_chemical_formula_sum   'Mg4 Pb8 W4 O24'
_cell_volume   542.22368520
_cell_formula_units_Z   4
loop_
 _symmetry_equiv_pos_site_id
 _symmetry_equiv_pos_as_xyz
  1  'x, y, z'
loop_
 _atom_site_type_symbol
 _atom_site_label
 _atom_site_symmetry_multiplicity
 _atom_site_fract_x
 _atom_site_fract_y
 _atom_site_fract_z
 _atom_site_occupancy
  Mg  Mg0  1  0.24433000  0.75000000  0.37972200  1
  Mg  Mg1  1  0.74433000  0.25000000  0.12027800  1
  Mg  Mg2  1  0.75567000  0.25000000  0.62027800  1
  Mg  Mg3  1  0.25567000  0.75000000  0.87972200  1
  Pb  Pb4  1  0.70873500  0.49470100  0.35466900  1
  Pb  Pb5  1  0.20873500  0.50529900  0.14533100  1
  Pb  Pb6  1  0.29126500  0.99470100  0.64533100  1
  Pb  Pb7  1  0.79126500  0.00529900  0.85466900  1
  Pb  Pb8  1  0.29126500  0.50529900  0.64533100  1
  Pb  Pb9  1  0.79126500  0.49470100  0.85466900  1
  Pb  Pb10  1  0.70873500  0.00529900  0.35466900  1
  Pb  Pb11  1  0.20873500  0.99470100  0.14533100  1
  W  W12  1  0.74601000  0.75000000  0.11660700  1
  W  W13  1  0.24601000  0.25000000  0.38339300  1
  W  W14  1  0.25399000  0.25000000  0.88339300  1
  W  W15  1  0.75399000  0.75000000  0.61660700  1
  O  O16  1  0.96264200  0.75000000  0.75146000  1
  O  O17  1  0.46264200  0.25000000  0.74854000  1
  O  O18  1  0.03735800  0.25000000  0.24854000  1
  O  O19  1  0.53735800  0.75000000  0.25146000  1
  O  O20  1  0.47740000  0.75000000  0.73550300  1
  O  O21  1  0.97740000  0.25000000  0.76449700  1
  O  O22  1  0.52260000  0.25000000  0.26449700  1
  O  O23  1  0.02260000  0.75000000  0.23550300  1
  O  O24  1  0.99539200  0.75000000  0.51026200  1
  O  O25  1  0.49539200  0.25000000  0.98973800  1
  O  O26  1  0.00460800  0.25000000  0.48973800  1
  O  O27  1  0.50460800  0.75000000  0.01026200  1
  O  O28  1  0.51499000  0.75000000  0.50132300  1
  O  O29  1  0.01499000  0.25000000  0.99867700  1
  O  O30  1  0.48501000  0.25000000  0.49867700  1
  O  O31  1  0.98501000  0.75000000  0.00132300  1
  O  O32  1  0.77086700  0.50834300  0.13389300  1
  O  O33  1  0.27086700  0.49165700  0.36610700  1
  O  O34  1  0.22913300  0.00834300  0.86610700  1
  O  O35  1  0.72913300  0.99165700  0.63389300  1
  O  O36  1  0.22913300  0.49165700  0.86610700  1
  O  O37  1  0.72913300  0.50834300  0.63389300  1
  O  O38  1  0.77086700  0.99165700  0.13389300  1
  O  O39  1  0.27086700  0.00834300  0.36610700  1
