# generated using pymatgen
data_Cs2Sb4S7
_symmetry_space_group_name_H-M   'P 1'
_cell_length_a   12.49294300
_cell_length_b   11.59672200
_cell_length_c   12.15637418
_cell_angle_alpha   80.09127049
_cell_angle_beta   90.00000000
_cell_angle_gamma   90.00000000
_symmetry_Int_Tables_number   1
_chemical_formula_structural   Cs2Sb4S7
_chemical_formula_sum   'Cs8 Sb16 S28'
_cell_volume   1734.90996373
_cell_formula_units_Z   4
loop_
 _symmetry_equiv_pos_site_id
 _symmetry_equiv_pos_as_xyz
  1  'x, y, z'
loop_
 _atom_site_type_symbol
 _atom_site_label
 _atom_site_symmetry_multiplicity
 _atom_site_fract_x
 _atom_site_fract_y
 _atom_site_fract_z
 _atom_site_occupancy
  Cs  Cs0  1  0.92932800  0.98085200  0.67142100  1
  Cs  Cs1  1  0.42932800  0.01914800  0.82857900  1
  Cs  Cs2  1  0.07067200  0.01914800  0.32857900  1
  Cs  Cs3  1  0.57067200  0.98085200  0.17142100  1
  Cs  Cs4  1  0.45514900  0.54736100  0.30566600  1
  Cs  Cs5  1  0.95514900  0.45263900  0.19433400  1
  Cs  Cs6  1  0.54485100  0.45263900  0.69433400  1
  Cs  Cs7  1  0.04485100  0.54736100  0.80566600  1
  Sb  Sb8  1  0.34065600  0.63914700  0.92463200  1
  Sb  Sb9  1  0.84065600  0.36085300  0.57536800  1
  Sb  Sb10  1  0.65934400  0.36085300  0.07536800  1
  Sb  Sb11  1  0.15934400  0.63914700  0.42463200  1
  Sb  Sb12  1  0.14300200  0.79950600  0.05157000  1
  Sb  Sb13  1  0.64300200  0.20049400  0.44843000  1
  Sb  Sb14  1  0.85699800  0.20049400  0.94843000  1
  Sb  Sb15  1  0.35699800  0.79950600  0.55157000  1
  Sb  Sb16  1  0.85466800  0.84666500  0.08878900  1
  Sb  Sb17  1  0.35466800  0.15333500  0.41121100  1
  Sb  Sb18  1  0.14533200  0.15333500  0.91121100  1
  Sb  Sb19  1  0.64533200  0.84666500  0.58878900  1
  Sb  Sb20  1  0.64108800  0.70593300  0.94748900  1
  Sb  Sb21  1  0.14108800  0.29406700  0.55251100  1
  Sb  Sb22  1  0.35891200  0.29406700  0.05251100  1
  Sb  Sb23  1  0.85891200  0.70593300  0.44748900  1
  S  S24  1  0.22852300  0.79882000  0.84036300  1
  S  S25  1  0.72852300  0.20118000  0.65963700  1
  S  S26  1  0.77147700  0.20118000  0.15963700  1
  S  S27  1  0.27147700  0.79882000  0.34036300  1
  S  S28  1  0.20560000  0.59162300  0.08201200  1
  S  S29  1  0.70560000  0.40837700  0.41798800  1
  S  S30  1  0.79440000  0.40837700  0.91798800  1
  S  S31  1  0.29440000  0.59162300  0.58201200  1
  S  S32  1  0.97588000  0.80383700  0.93869600  1
  S  S33  1  0.47588000  0.19616300  0.56130400  1
  S  S34  1  0.02412000  0.19616300  0.06130400  1
  S  S35  1  0.52412000  0.80383700  0.43869600  1
  S  S36  1  0.00512500  0.75478400  0.22200800  1
  S  S37  1  0.50512500  0.24521600  0.27799200  1
  S  S38  1  0.99487500  0.24521600  0.77799200  1
  S  S39  1  0.49487500  0.75478400  0.72200800  1
  S  S40  1  0.74020300  0.66939800  0.13323700  1
  S  S41  1  0.24020300  0.33060200  0.36676300  1
  S  S42  1  0.25979700  0.33060200  0.86676300  1
  S  S43  1  0.75979700  0.66939800  0.63323700  1
  S  S44  1  0.70457300  0.90317100  0.90086900  1
  S  S45  1  0.20457300  0.09682900  0.59913100  1
  S  S46  1  0.29542700  0.09682900  0.09913100  1
  S  S47  1  0.79542700  0.90317100  0.40086900  1
  S  S48  1  0.03431200  0.73848900  0.54003900  1
  S  S49  1  0.53431200  0.26151100  0.95996100  1
  S  S50  1  0.96568800  0.26151100  0.45996100  1
  S  S51  1  0.46568800  0.73848900  0.04003900  1
