# generated using pymatgen
data_KClO4
_symmetry_space_group_name_H-M   'P 1'
_cell_length_a   5.79013400
_cell_length_b   7.41812900
_cell_length_c   9.02232600
_cell_angle_alpha   90.00000000
_cell_angle_beta   90.00000000
_cell_angle_gamma   90.00000000
_symmetry_Int_Tables_number   1
_chemical_formula_structural   KClO4
_chemical_formula_sum   'K4 Cl4 O16'
_cell_volume   387.52659393
_cell_formula_units_Z   4
loop_
 _symmetry_equiv_pos_site_id
 _symmetry_equiv_pos_as_xyz
  1  'x, y, z'
loop_
 _atom_site_type_symbol
 _atom_site_label
 _atom_site_symmetry_multiplicity
 _atom_site_fract_x
 _atom_site_fract_y
 _atom_site_fract_z
 _atom_site_occupancy
  K  K0  1  0.25000000  0.16116500  0.68013900  1
  K  K1  1  0.75000000  0.83883500  0.31986100  1
  K  K2  1  0.75000000  0.66116500  0.81986100  1
  K  K3  1  0.25000000  0.33883500  0.18013900  1
  Cl  Cl4  1  0.25000000  0.68842900  0.56951700  1
  Cl  Cl5  1  0.75000000  0.31157100  0.43048300  1
  Cl  Cl6  1  0.75000000  0.18842900  0.93048300  1
  Cl  Cl7  1  0.25000000  0.81157100  0.06951700  1
  O  O8  1  0.25000000  0.59543200  0.42793800  1
  O  O9  1  0.75000000  0.40456800  0.57206200  1
  O  O10  1  0.75000000  0.09543200  0.07206200  1
  O  O11  1  0.25000000  0.90456800  0.92793800  1
  O  O12  1  0.54394800  0.19644300  0.41919500  1
  O  O13  1  0.04394800  0.80355700  0.58080500  1
  O  O14  1  0.45605200  0.69644300  0.08080500  1
  O  O15  1  0.95605200  0.30355700  0.91919500  1
  O  O16  1  0.25000000  0.94060700  0.19184900  1
  O  O17  1  0.75000000  0.05939300  0.80815100  1
  O  O18  1  0.75000000  0.44060700  0.30815100  1
  O  O19  1  0.25000000  0.55939300  0.69184900  1
  O  O20  1  0.04394800  0.69644300  0.08080500  1
  O  O21  1  0.54394800  0.30355700  0.91919500  1
  O  O22  1  0.95605200  0.19644300  0.41919500  1
  O  O23  1  0.45605200  0.80355700  0.58080500  1
