# generated using pymatgen
data_CeReB4
_symmetry_space_group_name_H-M   'P 1'
_cell_length_a   3.67941400
_cell_length_b   6.01276900
_cell_length_c   11.65361400
_cell_angle_alpha   90.00000000
_cell_angle_beta   90.00000000
_cell_angle_gamma   90.00000000
_symmetry_Int_Tables_number   1
_chemical_formula_structural   CeReB4
_chemical_formula_sum   'Ce4 Re4 B16'
_cell_volume   257.81833820
_cell_formula_units_Z   4
loop_
 _symmetry_equiv_pos_site_id
 _symmetry_equiv_pos_as_xyz
  1  'x, y, z'
loop_
 _atom_site_type_symbol
 _atom_site_label
 _atom_site_symmetry_multiplicity
 _atom_site_fract_x
 _atom_site_fract_y
 _atom_site_fract_z
 _atom_site_occupancy
  Ce  Ce0  1  0.00000000  0.12686500  0.15027600  1
  Ce  Ce1  1  0.00000000  0.87313500  0.84972400  1
  Ce  Ce2  1  0.00000000  0.62686500  0.34972400  1
  Ce  Ce3  1  0.00000000  0.37313500  0.65027600  1
  Re  Re4  1  0.00000000  0.13590900  0.40902000  1
  Re  Re5  1  0.00000000  0.86409100  0.59098000  1
  Re  Re6  1  0.00000000  0.63590900  0.09098000  1
  Re  Re7  1  0.00000000  0.36409100  0.90902000  1
  B  B8  1  0.50000000  0.52451700  0.80946000  1
  B  B9  1  0.50000000  0.47548300  0.19054000  1
  B  B10  1  0.50000000  0.02451700  0.69054000  1
  B  B11  1  0.50000000  0.97548300  0.30946000  1
  B  B12  1  0.50000000  0.38805100  0.04610100  1
  B  B13  1  0.50000000  0.61194900  0.95389900  1
  B  B14  1  0.50000000  0.88805100  0.45389900  1
  B  B15  1  0.50000000  0.11194900  0.54610100  1
  B  B16  1  0.50000000  0.21421300  0.81501300  1
  B  B17  1  0.50000000  0.78578700  0.18498700  1
  B  B18  1  0.50000000  0.71421300  0.68498700  1
  B  B19  1  0.50000000  0.28578700  0.31501300  1
  B  B20  1  0.50000000  0.13784500  0.96861800  1
  B  B21  1  0.50000000  0.86215500  0.03138200  1
  B  B22  1  0.50000000  0.63784500  0.53138200  1
  B  B23  1  0.50000000  0.36215500  0.46861800  1
