# generated using pymatgen
data_Ba3NiRu2O9
_symmetry_space_group_name_H-M   'P 1'
_cell_length_a   5.83360018
_cell_length_b   5.83360018
_cell_length_c   14.35386500
_cell_angle_alpha   90.00000000
_cell_angle_beta   90.00000000
_cell_angle_gamma   120.00000201
_symmetry_Int_Tables_number   1
_chemical_formula_structural   Ba3NiRu2O9
_chemical_formula_sum   'Ba6 Ni2 Ru4 O18'
_cell_volume   423.03159087
_cell_formula_units_Z   2
loop_
 _symmetry_equiv_pos_site_id
 _symmetry_equiv_pos_as_xyz
  1  'x, y, z'
loop_
 _atom_site_type_symbol
 _atom_site_label
 _atom_site_symmetry_multiplicity
 _atom_site_fract_x
 _atom_site_fract_y
 _atom_site_fract_z
 _atom_site_occupancy
  Ba  Ba0  1  0.33333300  0.66666700  0.41082200  1
  Ba  Ba1  1  0.66666700  0.33333300  0.91082200  1
  Ba  Ba2  1  0.66666700  0.33333300  0.58917800  1
  Ba  Ba3  1  0.33333300  0.66666700  0.08917800  1
  Ba  Ba4  1  0.00000000  0.00000000  0.75000000  1
  Ba  Ba5  1  0.00000000  0.00000000  0.25000000  1
  Ni  Ni6  1  0.00000000  0.00000000  0.50000000  1
  Ni  Ni7  1  0.00000000  0.00000000  0.00000000  1
  Ru  Ru8  1  0.33333300  0.66666700  0.65368300  1
  Ru  Ru9  1  0.66666700  0.33333300  0.15368300  1
  Ru  Ru10  1  0.66666700  0.33333300  0.34631700  1
  Ru  Ru11  1  0.33333300  0.66666700  0.84631700  1
  O  O12  1  0.82961300  0.17038700  0.41697400  1
  O  O13  1  0.82961300  0.65922500  0.41697400  1
  O  O14  1  0.34077500  0.17038700  0.41697400  1
  O  O15  1  0.65922500  0.82961300  0.91697400  1
  O  O16  1  0.17038700  0.34077500  0.58302600  1
  O  O17  1  0.17038700  0.82961300  0.91697400  1
  O  O18  1  0.17038700  0.34077500  0.91697400  1
  O  O19  1  0.82961300  0.17038700  0.08302600  1
  O  O20  1  0.34077500  0.17038700  0.08302600  1
  O  O21  1  0.65922500  0.82961300  0.58302600  1
  O  O22  1  0.17038700  0.82961300  0.58302600  1
  O  O23  1  0.82961300  0.65922500  0.08302600  1
  O  O24  1  0.51554000  0.03107900  0.25000000  1
  O  O25  1  0.48446000  0.51554000  0.75000000  1
  O  O26  1  0.03107900  0.51554000  0.75000000  1
  O  O27  1  0.96892100  0.48446000  0.25000000  1
  O  O28  1  0.51554000  0.48446000  0.25000000  1
  O  O29  1  0.48446000  0.96892100  0.75000000  1
