# generated using pymatgen
data_Ba2Ti13O22
_symmetry_space_group_name_H-M   'P 1'
_cell_length_a   7.72741137
_cell_length_b   7.72741137
_cell_length_c   14.22865200
_cell_angle_alpha   90.00000000
_cell_angle_beta   90.00000000
_cell_angle_gamma   98.57878766
_symmetry_Int_Tables_number   1
_chemical_formula_structural   Ba2Ti13O22
_chemical_formula_sum   'Ba4 Ti26 O44'
_cell_volume   840.12790152
_cell_formula_units_Z   2
loop_
 _symmetry_equiv_pos_site_id
 _symmetry_equiv_pos_as_xyz
  1  'x, y, z'
loop_
 _atom_site_type_symbol
 _atom_site_label
 _atom_site_symmetry_multiplicity
 _atom_site_fract_x
 _atom_site_fract_y
 _atom_site_fract_z
 _atom_site_occupancy
  Ba  Ba0  1  0.66668700  0.66668700  0.91225400  1
  Ba  Ba1  1  0.83331300  0.83331300  0.41225400  1
  Ba  Ba2  1  0.16668700  0.16668700  0.58774600  1
  Ba  Ba3  1  0.33331300  0.33331300  0.08774600  1
  Ti  Ti4  1  0.29833900  0.55757500  0.32594200  1
  Ti  Ti5  1  0.20166100  0.94242500  0.82594200  1
  Ti  Ti6  1  0.05757500  0.79833900  0.17405800  1
  Ti  Ti7  1  0.44242500  0.70166100  0.67405800  1
  Ti  Ti8  1  0.70166100  0.44242500  0.67405800  1
  Ti  Ti9  1  0.79833900  0.05757500  0.17405800  1
  Ti  Ti10  1  0.94242500  0.20166100  0.82594200  1
  Ti  Ti11  1  0.55757500  0.29833900  0.32594200  1
  Ti  Ti12  1  0.75602600  0.24397400  0.50000000  1
  Ti  Ti13  1  0.74397400  0.25602600  0.00000000  1
  Ti  Ti14  1  0.24397400  0.75602600  0.50000000  1
  Ti  Ti15  1  0.25602600  0.74397400  0.00000000  1
  Ti  Ti16  1  0.92172400  0.42627600  0.15318200  1
  Ti  Ti17  1  0.57827600  0.07372400  0.65318200  1
  Ti  Ti18  1  0.92627600  0.42172400  0.34681800  1
  Ti  Ti19  1  0.57372400  0.07827600  0.84681800  1
  Ti  Ti20  1  0.07827600  0.57372400  0.84681800  1
  Ti  Ti21  1  0.42172400  0.92627600  0.34681800  1
  Ti  Ti22  1  0.07372400  0.57827600  0.65318200  1
  Ti  Ti23  1  0.42627600  0.92172400  0.15318200  1
  Ti  Ti24  1  0.50000000  0.50000000  0.50000000  1
  Ti  Ti25  1  0.00000000  0.00000000  0.00000000  1
  Ti  Ti26  1  0.83275600  0.83275600  0.66657700  1
  Ti  Ti27  1  0.66724400  0.66724400  0.16657700  1
  Ti  Ti28  1  0.33275600  0.33275600  0.83342300  1
  Ti  Ti29  1  0.16724400  0.16724400  0.33342300  1
  O  O30  1  0.97155600  0.21318000  0.42005900  1
  O  O31  1  0.52844400  0.28682000  0.92005900  1
  O  O32  1  0.71318000  0.47155600  0.07994100  1
  O  O33  1  0.78682000  0.02844400  0.57994100  1
  O  O34  1  0.02844400  0.78682000  0.57994100  1
  O  O35  1  0.47155600  0.71318000  0.07994100  1
  O  O36  1  0.28682000  0.52844400  0.92005900  1
  O  O37  1  0.21318000  0.97155600  0.42005900  1
  O  O38  1  0.12520400  0.38217200  0.25234200  1
  O  O39  1  0.37479600  0.11782800  0.75234200  1
  O  O40  1  0.88217200  0.62520400  0.24765800  1
  O  O41  1  0.61782800  0.87479600  0.74765800  1
  O  O42  1  0.87479600  0.61782800  0.74765800  1
  O  O43  1  0.62520400  0.88217200  0.24765800  1
  O  O44  1  0.11782800  0.37479600  0.75234200  1
  O  O45  1  0.38217200  0.12520400  0.25234200  1
  O  O46  1  0.65775000  0.65775000  0.59422900  1
  O  O47  1  0.84225000  0.84225000  0.09422900  1
  O  O48  1  0.15775000  0.15775000  0.90577100  1
  O  O49  1  0.34225000  0.34225000  0.40577100  1
  O  O50  1  0.96439600  0.21268500  0.08001300  1
  O  O51  1  0.53560400  0.28731500  0.58001300  1
  O  O52  1  0.71268500  0.46439600  0.41998700  1
  O  O53  1  0.78731500  0.03560400  0.91998700  1
  O  O54  1  0.03560400  0.78731500  0.91998700  1
  O  O55  1  0.46439600  0.71268500  0.41998700  1
  O  O56  1  0.28731500  0.53560400  0.58001300  1
  O  O57  1  0.21268500  0.96439600  0.08001300  1
  O  O58  1  0.77072900  0.27072900  0.25000000  1
  O  O59  1  0.72927100  0.22927100  0.75000000  1
  O  O60  1  0.59831800  0.09851900  0.41017500  1
  O  O61  1  0.90168200  0.40148100  0.91017500  1
  O  O62  1  0.59851900  0.09831800  0.08982500  1
  O  O63  1  0.90148100  0.40168200  0.58982500  1
  O  O64  1  0.40168200  0.90148100  0.58982500  1
  O  O65  1  0.09831800  0.59851900  0.08982500  1
  O  O66  1  0.40148100  0.90168200  0.91017500  1
  O  O67  1  0.09851900  0.59831800  0.41017500  1
  O  O68  1  0.00433200  0.00433200  0.25172200  1
  O  O69  1  0.49566800  0.49566800  0.75172200  1
  O  O70  1  0.50433200  0.50433200  0.24827800  1
  O  O71  1  0.99566800  0.99566800  0.74827800  1
  O  O72  1  0.27072900  0.77072900  0.25000000  1
  O  O73  1  0.22927100  0.72927100  0.75000000  1
