# generated using pymatgen
data_PBr3
_symmetry_space_group_name_H-M   'P 1'
_cell_length_a   6.96102800
_cell_length_b   9.35527200
_cell_length_c   10.97076500
_cell_angle_alpha   90.00000000
_cell_angle_beta   90.00000000
_cell_angle_gamma   90.00000000
_symmetry_Int_Tables_number   1
_chemical_formula_structural   PBr3
_chemical_formula_sum   'P4 Br12'
_cell_volume   714.44156299
_cell_formula_units_Z   4
loop_
 _symmetry_equiv_pos_site_id
 _symmetry_equiv_pos_as_xyz
  1  'x, y, z'
loop_
 _atom_site_type_symbol
 _atom_site_label
 _atom_site_symmetry_multiplicity
 _atom_site_fract_x
 _atom_site_fract_y
 _atom_site_fract_z
 _atom_site_occupancy
  P  P0  1  0.02839900  0.04941400  0.25000000  1
  P  P1  1  0.52839900  0.45058600  0.75000000  1
  P  P2  1  0.47160100  0.54941400  0.25000000  1
  P  P3  1  0.97160100  0.95058600  0.75000000  1
  Br  Br4  1  0.13846000  0.17873900  0.09155800  1
  Br  Br5  1  0.63846000  0.32126100  0.90844200  1
  Br  Br6  1  0.36154000  0.67873900  0.40844200  1
  Br  Br7  1  0.86154000  0.82126100  0.59155800  1
  Br  Br8  1  0.86154000  0.82126100  0.90844200  1
  Br  Br9  1  0.36154000  0.67873900  0.09155800  1
  Br  Br10  1  0.63846000  0.32126100  0.59155800  1
  Br  Br11  1  0.13846000  0.17873900  0.40844200  1
  Br  Br12  1  0.71356000  0.10458700  0.25000000  1
  Br  Br13  1  0.21356000  0.39541300  0.75000000  1
  Br  Br14  1  0.78644000  0.60458700  0.25000000  1
  Br  Br15  1  0.28644000  0.89541300  0.75000000  1
