# generated using pymatgen
data_CsBi3S5
_symmetry_space_group_name_H-M   'P 1'
_cell_length_a   4.12107100
_cell_length_b   12.24950900
_cell_length_c   21.51404000
_cell_angle_alpha   90.00000000
_cell_angle_beta   90.00000000
_cell_angle_gamma   90.00000000
_symmetry_Int_Tables_number   1
_chemical_formula_structural   CsBi3S5
_chemical_formula_sum   'Cs4 Bi12 S20'
_cell_volume   1086.05232513
_cell_formula_units_Z   4
loop_
 _symmetry_equiv_pos_site_id
 _symmetry_equiv_pos_as_xyz
  1  'x, y, z'
loop_
 _atom_site_type_symbol
 _atom_site_label
 _atom_site_symmetry_multiplicity
 _atom_site_fract_x
 _atom_site_fract_y
 _atom_site_fract_z
 _atom_site_occupancy
  Cs  Cs0  1  0.75000000  0.00451200  0.88840900  1
  Cs  Cs1  1  0.25000000  0.99548800  0.11159100  1
  Cs  Cs2  1  0.75000000  0.50451200  0.61159100  1
  Cs  Cs3  1  0.25000000  0.49548800  0.38840900  1
  Bi  Bi4  1  0.25000000  0.87000200  0.64585600  1
  Bi  Bi5  1  0.75000000  0.12999800  0.35414400  1
  Bi  Bi6  1  0.25000000  0.37000200  0.85414400  1
  Bi  Bi7  1  0.75000000  0.62999800  0.14585600  1
  Bi  Bi8  1  0.25000000  0.66462100  0.97383700  1
  Bi  Bi9  1  0.75000000  0.33537900  0.02616300  1
  Bi  Bi10  1  0.25000000  0.16462100  0.52616300  1
  Bi  Bi11  1  0.75000000  0.83537900  0.47383700  1
  Bi  Bi12  1  0.75000000  0.64693900  0.80828800  1
  Bi  Bi13  1  0.25000000  0.35306100  0.19171200  1
  Bi  Bi14  1  0.75000000  0.14693900  0.69171200  1
  Bi  Bi15  1  0.25000000  0.85306100  0.30828800  1
  S  S16  1  0.25000000  0.72009900  0.52699900  1
  S  S17  1  0.75000000  0.27990100  0.47300100  1
  S  S18  1  0.25000000  0.22009900  0.97300100  1
  S  S19  1  0.75000000  0.77990100  0.02699900  1
  S  S20  1  0.25000000  0.01455900  0.73977600  1
  S  S21  1  0.75000000  0.98544100  0.26022400  1
  S  S22  1  0.25000000  0.51455900  0.76022400  1
  S  S23  1  0.75000000  0.48544100  0.23977600  1
  S  S24  1  0.25000000  0.98912600  0.41695300  1
  S  S25  1  0.75000000  0.01087400  0.58304700  1
  S  S26  1  0.25000000  0.48912600  0.08304700  1
  S  S27  1  0.75000000  0.51087400  0.91695300  1
  S  S28  1  0.25000000  0.75040400  0.19180400  1
  S  S29  1  0.75000000  0.24959600  0.80819600  1
  S  S30  1  0.25000000  0.25040400  0.30819600  1
  S  S31  1  0.75000000  0.74959600  0.69180400  1
  S  S32  1  0.75000000  0.72575400  0.36823800  1
  S  S33  1  0.25000000  0.27424600  0.63176200  1
  S  S34  1  0.75000000  0.22575400  0.13176200  1
  S  S35  1  0.25000000  0.77424600  0.86823800  1
