# generated using pymatgen
data_K3NO4
_symmetry_space_group_name_H-M   'P 1'
_cell_length_a   5.78571100
_cell_length_b   8.08163300
_cell_length_c   11.01401800
_cell_angle_alpha   90.00000000
_cell_angle_beta   90.00000000
_cell_angle_gamma   90.00000000
_symmetry_Int_Tables_number   1
_chemical_formula_structural   K3NO4
_chemical_formula_sum   'K12 N4 O16'
_cell_volume   514.99337595
_cell_formula_units_Z   4
loop_
 _symmetry_equiv_pos_site_id
 _symmetry_equiv_pos_as_xyz
  1  'x, y, z'
loop_
 _atom_site_type_symbol
 _atom_site_label
 _atom_site_symmetry_multiplicity
 _atom_site_fract_x
 _atom_site_fract_y
 _atom_site_fract_z
 _atom_site_occupancy
  K  K0  1  0.67319600  0.49126900  0.35553400  1
  K  K1  1  0.17319600  0.50873100  0.14446600  1
  K  K2  1  0.32680400  0.99126900  0.64446600  1
  K  K3  1  0.82680400  0.00873100  0.85553400  1
  K  K4  1  0.32680400  0.50873100  0.64446600  1
  K  K5  1  0.82680400  0.49126900  0.85553400  1
  K  K6  1  0.67319600  0.00873100  0.35553400  1
  K  K7  1  0.17319600  0.99126900  0.14446600  1
  K  K8  1  0.87482600  0.75000000  0.56722500  1
  K  K9  1  0.37482600  0.25000000  0.93277500  1
  K  K10  1  0.12517400  0.25000000  0.43277500  1
  K  K11  1  0.62517400  0.75000000  0.06722500  1
  N  N12  1  0.28635900  0.75000000  0.38357500  1
  N  N13  1  0.21364100  0.75000000  0.88357500  1
  N  N14  1  0.71364100  0.25000000  0.61642500  1
  N  N15  1  0.78635900  0.25000000  0.11642500  1
  O  O16  1  0.35064300  0.60732900  0.89171200  1
  O  O17  1  0.85064300  0.39267100  0.60828800  1
  O  O18  1  0.64935700  0.10732900  0.10828800  1
  O  O19  1  0.14935700  0.89267100  0.39171200  1
  O  O20  1  0.09332200  0.75000000  0.77262700  1
  O  O21  1  0.59332200  0.25000000  0.72737300  1
  O  O22  1  0.90667800  0.25000000  0.22737300  1
  O  O23  1  0.40667800  0.75000000  0.27262700  1
  O  O24  1  0.64935700  0.39267100  0.10828800  1
  O  O25  1  0.85064300  0.10732900  0.60828800  1
  O  O26  1  0.35064300  0.89267100  0.89171200  1
  O  O27  1  0.14935700  0.60732900  0.39171200  1
  O  O28  1  0.44871100  0.75000000  0.47946800  1
  O  O29  1  0.94871100  0.25000000  0.02053200  1
  O  O30  1  0.55128900  0.25000000  0.52053200  1
  O  O31  1  0.05128900  0.75000000  0.97946800  1
