# generated using pymatgen
data_KTiF4
_symmetry_space_group_name_H-M   'P 1'
_cell_length_a   7.81958600
_cell_length_b   8.00857000
_cell_length_c   12.50309800
_cell_angle_alpha   90.00000000
_cell_angle_beta   90.00000000
_cell_angle_gamma   90.00000000
_symmetry_Int_Tables_number   1
_chemical_formula_structural   KTiF4
_chemical_formula_sum   'K8 Ti8 F32'
_cell_volume   782.99028138
_cell_formula_units_Z   8
loop_
 _symmetry_equiv_pos_site_id
 _symmetry_equiv_pos_as_xyz
  1  'x, y, z'
loop_
 _atom_site_type_symbol
 _atom_site_label
 _atom_site_symmetry_multiplicity
 _atom_site_fract_x
 _atom_site_fract_y
 _atom_site_fract_z
 _atom_site_occupancy
  K  K0  1  0.25000000  0.87708700  0.98561300  1
  K  K1  1  0.75000000  0.12291300  0.01438700  1
  K  K2  1  0.75000000  0.37708700  0.51438700  1
  K  K3  1  0.25000000  0.62291300  0.48561300  1
  K  K4  1  0.25000000  0.37579700  0.97342500  1
  K  K5  1  0.75000000  0.62420300  0.02657500  1
  K  K6  1  0.75000000  0.87579700  0.52657500  1
  K  K7  1  0.25000000  0.12420300  0.47342500  1
  Ti  Ti8  1  0.50059300  0.62743300  0.75181000  1
  Ti  Ti9  1  0.00059300  0.37256700  0.24819000  1
  Ti  Ti10  1  0.49940700  0.12743300  0.74819000  1
  Ti  Ti11  1  0.99940700  0.87256700  0.25181000  1
  Ti  Ti12  1  0.49940700  0.37256700  0.24819000  1
  Ti  Ti13  1  0.99940700  0.62743300  0.75181000  1
  Ti  Ti14  1  0.50059300  0.87256700  0.25181000  1
  Ti  Ti15  1  0.00059300  0.12743300  0.74819000  1
  F  F16  1  0.25000000  0.84060500  0.21631200  1
  F  F17  1  0.75000000  0.15939500  0.78368800  1
  F  F18  1  0.75000000  0.34060500  0.28368800  1
  F  F19  1  0.25000000  0.65939500  0.71631200  1
  F  F20  1  0.25000000  0.40352500  0.21122100  1
  F  F21  1  0.75000000  0.59647500  0.78877900  1
  F  F22  1  0.75000000  0.90352500  0.28877900  1
  F  F23  1  0.25000000  0.09647500  0.71122100  1
  F  F24  1  0.53414800  0.87739700  0.74663700  1
  F  F25  1  0.03414800  0.12260300  0.25336300  1
  F  F26  1  0.46585200  0.37739700  0.75336300  1
  F  F27  1  0.96585200  0.62260300  0.24663700  1
  F  F28  1  0.46585200  0.12260300  0.25336300  1
  F  F29  1  0.96585200  0.87739700  0.74663700  1
  F  F30  1  0.53414800  0.62260300  0.24663700  1
  F  F31  1  0.03414800  0.37739700  0.75336300  1
  F  F32  1  0.05112200  0.11789700  0.89940100  1
  F  F33  1  0.55112200  0.88210300  0.10059900  1
  F  F34  1  0.94887800  0.61789700  0.60059900  1
  F  F35  1  0.44887800  0.38210300  0.39940100  1
  F  F36  1  0.94887800  0.88210300  0.10059900  1
  F  F37  1  0.44887800  0.11789700  0.89940100  1
  F  F38  1  0.05112200  0.38210300  0.39940100  1
  F  F39  1  0.55112200  0.61789700  0.60059900  1
  F  F40  1  0.04861700  0.63465900  0.90341600  1
  F  F41  1  0.54861700  0.36534100  0.09658400  1
  F  F42  1  0.95138300  0.13465900  0.59658400  1
  F  F43  1  0.45138300  0.86534100  0.40341600  1
  F  F44  1  0.95138300  0.36534100  0.09658400  1
  F  F45  1  0.45138300  0.63465900  0.90341600  1
  F  F46  1  0.04861700  0.86534100  0.40341600  1
  F  F47  1  0.54861700  0.13465900  0.59658400  1
