# generated using pymatgen
data_TaBi4ClO8
_symmetry_space_group_name_H-M   'P 1'
_cell_length_a   5.52436600
_cell_length_b   5.58979400
_cell_length_c   29.42567400
_cell_angle_alpha   90.00000000
_cell_angle_beta   90.00000000
_cell_angle_gamma   90.00000000
_symmetry_Int_Tables_number   1
_chemical_formula_structural   TaBi4ClO8
_chemical_formula_sum   'Ta4 Bi16 Cl4 O32'
_cell_volume   908.66681173
_cell_formula_units_Z   4
loop_
 _symmetry_equiv_pos_site_id
 _symmetry_equiv_pos_as_xyz
  1  'x, y, z'
loop_
 _atom_site_type_symbol
 _atom_site_label
 _atom_site_symmetry_multiplicity
 _atom_site_fract_x
 _atom_site_fract_y
 _atom_site_fract_z
 _atom_site_occupancy
  Ta  Ta0  1  0.00000000  0.98863800  0.75000000  1
  Ta  Ta1  1  0.50000000  0.48863800  0.75000000  1
  Ta  Ta2  1  0.00000000  0.01136200  0.25000000  1
  Ta  Ta3  1  0.50000000  0.51136200  0.25000000  1
  Bi  Bi4  1  0.48965200  0.47726900  0.06873300  1
  Bi  Bi5  1  0.47680600  0.06342400  0.84284300  1
  Bi  Bi6  1  0.97680600  0.56342400  0.65715700  1
  Bi  Bi7  1  0.47680600  0.93657600  0.34284300  1
  Bi  Bi8  1  0.97680600  0.43657600  0.15715700  1
  Bi  Bi9  1  0.51034800  0.52273100  0.93126700  1
  Bi  Bi10  1  0.01034800  0.02273100  0.56873300  1
  Bi  Bi11  1  0.51034800  0.47726900  0.43126700  1
  Bi  Bi12  1  0.02319400  0.43657600  0.34284300  1
  Bi  Bi13  1  0.52319400  0.06342400  0.65715700  1
  Bi  Bi14  1  0.02319400  0.56342400  0.84284300  1
  Bi  Bi15  1  0.52319400  0.93657600  0.15715700  1
  Bi  Bi16  1  0.98965200  0.02273100  0.93126700  1
  Bi  Bi17  1  0.48965200  0.52273100  0.56873300  1
  Bi  Bi18  1  0.98965200  0.97726900  0.43126700  1
  Bi  Bi19  1  0.01034800  0.97726900  0.06873300  1
  Cl  Cl20  1  0.50000000  0.00000000  0.50000000  1
  Cl  Cl21  1  0.00000000  0.50000000  0.50000000  1
  Cl  Cl22  1  0.50000000  0.00000000  0.00000000  1
  Cl  Cl23  1  0.00000000  0.50000000  0.00000000  1
  O  O24  1  0.24646000  0.29091900  0.23491300  1
  O  O25  1  0.74646000  0.20908100  0.76508700  1
  O  O26  1  0.24646000  0.70908100  0.73491300  1
  O  O27  1  0.74646000  0.79091900  0.26508700  1
  O  O28  1  0.75354000  0.29091900  0.26508700  1
  O  O29  1  0.25354000  0.20908100  0.73491300  1
  O  O30  1  0.75354000  0.70908100  0.76508700  1
  O  O31  1  0.25354000  0.79091900  0.23491300  1
  O  O32  1  0.39981400  0.56146100  0.31471100  1
  O  O33  1  0.89981400  0.93853900  0.68528900  1
  O  O34  1  0.39981400  0.43853900  0.81471100  1
  O  O35  1  0.89981400  0.06146100  0.18528900  1
  O  O36  1  0.60018600  0.56146100  0.18528900  1
  O  O37  1  0.10018600  0.93853900  0.81471100  1
  O  O38  1  0.60018600  0.43853900  0.68528900  1
  O  O39  1  0.10018600  0.06146100  0.31471100  1
  O  O40  1  0.74719200  0.23782000  0.10553000  1
  O  O41  1  0.24719200  0.26218000  0.89447000  1
  O  O42  1  0.74719200  0.76218000  0.60553000  1
  O  O43  1  0.24719200  0.73782000  0.39447000  1
  O  O44  1  0.24418000  0.23091100  0.10682100  1
  O  O45  1  0.74418000  0.26908900  0.89317900  1
  O  O46  1  0.24418000  0.76908900  0.60682100  1
  O  O47  1  0.74418000  0.73091100  0.39317900  1
  O  O48  1  0.75582000  0.23091100  0.39317900  1
  O  O49  1  0.25582000  0.26908900  0.60682100  1
  O  O50  1  0.75582000  0.76908900  0.89317900  1
  O  O51  1  0.25582000  0.73091100  0.10682100  1
  O  O52  1  0.25280800  0.23782000  0.39447000  1
  O  O53  1  0.75280800  0.26218000  0.60553000  1
  O  O54  1  0.25280800  0.76218000  0.89447000  1
  O  O55  1  0.75280800  0.73782000  0.10553000  1
