# generated using pymatgen
data_As2SO6
_symmetry_space_group_name_H-M   'P 1'
_cell_length_a   4.85663200
_cell_length_b   5.07932900
_cell_length_c   11.57712600
_cell_angle_alpha   90.00000000
_cell_angle_beta   90.00000000
_cell_angle_gamma   90.00000000
_symmetry_Int_Tables_number   1
_chemical_formula_structural   As2SO6
_chemical_formula_sum   'As4 S2 O12'
_cell_volume   285.58954271
_cell_formula_units_Z   2
loop_
 _symmetry_equiv_pos_site_id
 _symmetry_equiv_pos_as_xyz
  1  'x, y, z'
loop_
 _atom_site_type_symbol
 _atom_site_label
 _atom_site_symmetry_multiplicity
 _atom_site_fract_x
 _atom_site_fract_y
 _atom_site_fract_z
 _atom_site_occupancy
  As  As0  1  0.75983700  0.83149100  0.30920900  1
  As  As1  1  0.24016300  0.83149100  0.69079100  1
  As  As2  1  0.25983700  0.16850900  0.19079100  1
  As  As3  1  0.74016300  0.16850900  0.80920900  1
  S  S4  1  0.00000000  0.79600000  0.00000000  1
  S  S5  1  0.50000000  0.20400000  0.50000000  1
  O  O6  1  0.88571100  0.64270700  0.09464100  1
  O  O7  1  0.11428900  0.64270700  0.90535900  1
  O  O8  1  0.38571100  0.35729300  0.40535900  1
  O  O9  1  0.61428900  0.35729300  0.59464100  1
  O  O10  1  0.41385200  0.87926700  0.25940200  1
  O  O11  1  0.58614800  0.87926700  0.74059800  1
  O  O12  1  0.27234300  0.01602800  0.54376500  1
  O  O13  1  0.72765700  0.01602800  0.45623500  1
  O  O14  1  0.77234300  0.98397200  0.95623500  1
  O  O15  1  0.22765700  0.98397200  0.04376500  1
  O  O16  1  0.08614800  0.12073300  0.75940200  1
  O  O17  1  0.91385200  0.12073300  0.24059800  1
