# generated using pymatgen
data_CeCu2
_symmetry_space_group_name_H-M   'P 1'
_cell_length_a   5.48262679
_cell_length_b   5.48262679
_cell_length_c   5.48262679
_cell_angle_alpha   132.72993052
_cell_angle_beta   105.42782862
_cell_angle_gamma   93.17765788
_symmetry_Int_Tables_number   1
_chemical_formula_structural   CeCu2
_chemical_formula_sum   'Ce2 Cu4'
_cell_volume   110.02707496
_cell_formula_units_Z   2
loop_
 _symmetry_equiv_pos_site_id
 _symmetry_equiv_pos_as_xyz
  1  'x, y, z'
loop_
 _atom_site_type_symbol
 _atom_site_label
 _atom_site_symmetry_multiplicity
 _atom_site_fract_x
 _atom_site_fract_y
 _atom_site_fract_z
 _atom_site_occupancy
  Ce  Ce0  1  0.72577000  0.47577000  0.25000000  1
  Ce  Ce1  1  0.27423000  0.52423000  0.75000000  1
  Cu  Cu2  1  0.70124400  0.16606700  0.53517600  1
  Cu  Cu3  1  0.29875600  0.83393300  0.46482400  1
  Cu  Cu4  1  0.13089100  0.16606700  0.96482400  1
  Cu  Cu5  1  0.86910900  0.83393300  0.03517600  1
