# generated using pymatgen
data_LiVPO5
_symmetry_space_group_name_H-M   'P 1'
_cell_length_a   6.36792900
_cell_length_b   7.29442200
_cell_length_c   7.55397900
_cell_angle_alpha   90.00000000
_cell_angle_beta   90.00000000
_cell_angle_gamma   90.00000000
_symmetry_Int_Tables_number   1
_chemical_formula_structural   LiVPO5
_chemical_formula_sum   'Li4 V4 P4 O20'
_cell_volume   350.88505450
_cell_formula_units_Z   4
loop_
 _symmetry_equiv_pos_site_id
 _symmetry_equiv_pos_as_xyz
  1  'x, y, z'
loop_
 _atom_site_type_symbol
 _atom_site_label
 _atom_site_symmetry_multiplicity
 _atom_site_fract_x
 _atom_site_fract_y
 _atom_site_fract_z
 _atom_site_occupancy
  Li  Li0  1  0.00000000  0.50000000  0.50000000  1
  Li  Li1  1  0.50000000  0.00000000  0.00000000  1
  Li  Li2  1  0.50000000  0.50000000  0.50000000  1
  Li  Li3  1  0.00000000  0.00000000  0.00000000  1
  V  V4  1  0.25000000  0.21943300  0.67104900  1
  V  V5  1  0.25000000  0.28056700  0.17104900  1
  V  V6  1  0.75000000  0.78056700  0.32895100  1
  V  V7  1  0.75000000  0.71943300  0.82895100  1
  P  P8  1  0.25000000  0.62374800  0.87449600  1
  P  P9  1  0.25000000  0.87625200  0.37449600  1
  P  P10  1  0.75000000  0.37625200  0.12550400  1
  P  P11  1  0.75000000  0.12374800  0.62550400  1
  O  O12  1  0.25000000  0.99017800  0.54417900  1
  O  O13  1  0.25000000  0.50982200  0.04417900  1
  O  O14  1  0.75000000  0.00982200  0.45582100  1
  O  O15  1  0.75000000  0.49017800  0.95582100  1
  O  O16  1  0.55638200  0.25314900  0.62876200  1
  O  O17  1  0.94361800  0.24685100  0.12876200  1
  O  O18  1  0.05638200  0.74685100  0.37123800  1
  O  O19  1  0.44361800  0.75314900  0.87123800  1
  O  O20  1  0.44361800  0.74685100  0.37123800  1
  O  O21  1  0.05638200  0.75314900  0.87123800  1
  O  O22  1  0.94361800  0.25314900  0.62876200  1
  O  O23  1  0.55638200  0.24685100  0.12876200  1
  O  O24  1  0.25000000  0.49905400  0.70709200  1
  O  O25  1  0.25000000  0.00094600  0.20709200  1
  O  O26  1  0.75000000  0.50094600  0.29290800  1
  O  O27  1  0.75000000  0.99905400  0.79290800  1
  O  O28  1  0.25000000  0.15393800  0.88666700  1
  O  O29  1  0.25000000  0.34606200  0.38666700  1
  O  O30  1  0.75000000  0.84606200  0.11333300  1
  O  O31  1  0.75000000  0.65393800  0.61333300  1
