# generated using pymatgen
data_OsF6
_symmetry_space_group_name_H-M   'P 1'
_cell_length_a   5.16077000
_cell_length_b   8.90317600
_cell_length_c   9.77993000
_cell_angle_alpha   90.00000000
_cell_angle_beta   90.00000000
_cell_angle_gamma   90.00000000
_symmetry_Int_Tables_number   1
_chemical_formula_structural   OsF6
_chemical_formula_sum   'Os4 F24'
_cell_volume   449.36082615
_cell_formula_units_Z   4
loop_
 _symmetry_equiv_pos_site_id
 _symmetry_equiv_pos_as_xyz
  1  'x, y, z'
loop_
 _atom_site_type_symbol
 _atom_site_label
 _atom_site_symmetry_multiplicity
 _atom_site_fract_x
 _atom_site_fract_y
 _atom_site_fract_z
 _atom_site_occupancy
  Os  Os0  1  0.59078700  0.75000000  0.12697600  1
  Os  Os1  1  0.09078700  0.25000000  0.37302400  1
  Os  Os2  1  0.40921300  0.25000000  0.87302400  1
  Os  Os3  1  0.90921300  0.75000000  0.62697600  1
  F  F4  1  0.25671400  0.10161200  0.98184800  1
  F  F5  1  0.75671400  0.89838800  0.51815200  1
  F  F6  1  0.74328600  0.60161200  0.01815200  1
  F  F7  1  0.24328600  0.39838800  0.48184800  1
  F  F8  1  0.61736500  0.75000000  0.74057700  1
  F  F9  1  0.11736500  0.25000000  0.75942300  1
  F  F10  1  0.38263500  0.25000000  0.25942300  1
  F  F11  1  0.88263500  0.75000000  0.24057700  1
  F  F12  1  0.06104500  0.60152500  0.73573800  1
  F  F13  1  0.56104500  0.39847500  0.76426200  1
  F  F14  1  0.93895500  0.10152500  0.26426200  1
  F  F15  1  0.43895500  0.89847500  0.23573800  1
  F  F16  1  0.93895500  0.39847500  0.26426200  1
  F  F17  1  0.43895500  0.60152500  0.23573800  1
  F  F18  1  0.06104500  0.89847500  0.73573800  1
  F  F19  1  0.56104500  0.10152500  0.76426200  1
  F  F20  1  0.20046700  0.75000000  0.51324500  1
  F  F21  1  0.70046700  0.25000000  0.98675500  1
  F  F22  1  0.79953300  0.25000000  0.48675500  1
  F  F23  1  0.29953300  0.75000000  0.01324500  1
  F  F24  1  0.75671400  0.60161200  0.51815200  1
  F  F25  1  0.25671400  0.39838800  0.98184800  1
  F  F26  1  0.24328600  0.10161200  0.48184800  1
  F  F27  1  0.74328600  0.89838800  0.01815200  1
