# generated using pymatgen
data_NaLiSe
_symmetry_space_group_name_H-M   'P 1'
_cell_length_a   4.27993900
_cell_length_b   7.20731300
_cell_length_c   7.77681900
_cell_angle_alpha   90.00000000
_cell_angle_beta   90.00000000
_cell_angle_gamma   90.00000000
_symmetry_Int_Tables_number   1
_chemical_formula_structural   NaLiSe
_chemical_formula_sum   'Na4 Li4 Se4'
_cell_volume   239.89044689
_cell_formula_units_Z   4
loop_
 _symmetry_equiv_pos_site_id
 _symmetry_equiv_pos_as_xyz
  1  'x, y, z'
loop_
 _atom_site_type_symbol
 _atom_site_label
 _atom_site_symmetry_multiplicity
 _atom_site_fract_x
 _atom_site_fract_y
 _atom_site_fract_z
 _atom_site_occupancy
  Na  Na0  1  0.75000000  0.48536800  0.68341200  1
  Na  Na1  1  0.25000000  0.51463200  0.31658800  1
  Na  Na2  1  0.75000000  0.98536800  0.81658800  1
  Na  Na3  1  0.25000000  0.01463200  0.18341200  1
  Li  Li4  1  0.75000000  0.35649200  0.07178900  1
  Li  Li5  1  0.25000000  0.64350800  0.92821100  1
  Li  Li6  1  0.75000000  0.85649200  0.42821100  1
  Li  Li7  1  0.25000000  0.14350800  0.57178900  1
  Se  Se8  1  0.75000000  0.72123500  0.10701400  1
  Se  Se9  1  0.25000000  0.27876500  0.89298600  1
  Se  Se10  1  0.75000000  0.22123500  0.39298600  1
  Se  Se11  1  0.25000000  0.77876500  0.60701400  1
