# generated using pymatgen
data_Ca3AsBr3
_symmetry_space_group_name_H-M   'P 1'
_cell_length_a   5.96588800
_cell_length_b   5.96588800
_cell_length_c   5.96588800
_cell_angle_alpha   90.00000000
_cell_angle_beta   90.00000000
_cell_angle_gamma   90.00000000
_symmetry_Int_Tables_number   1
_chemical_formula_structural   Ca3AsBr3
_chemical_formula_sum   'Ca3 As1 Br3'
_cell_volume   212.33680962
_cell_formula_units_Z   1
loop_
 _symmetry_equiv_pos_site_id
 _symmetry_equiv_pos_as_xyz
  1  'x, y, z'
loop_
 _atom_site_type_symbol
 _atom_site_label
 _atom_site_symmetry_multiplicity
 _atom_site_fract_x
 _atom_site_fract_y
 _atom_site_fract_z
 _atom_site_occupancy
  Ca  Ca0  1  0.50000000  0.00000000  0.00000000  1
  Ca  Ca1  1  0.00000000  0.50000000  0.00000000  1
  Ca  Ca2  1  0.00000000  0.00000000  0.50000000  1
  As  As3  1  0.00000000  0.00000000  0.00000000  1
  Br  Br4  1  0.00000000  0.50000000  0.50000000  1
  Br  Br5  1  0.50000000  0.00000000  0.50000000  1
  Br  Br6  1  0.50000000  0.50000000  0.00000000  1
