# generated using pymatgen
data_KPd2F5
_symmetry_space_group_name_H-M   'P 1'
_cell_length_a   6.32204800
_cell_length_b   7.58459700
_cell_length_c   10.87041300
_cell_angle_alpha   90.00000000
_cell_angle_beta   90.00000000
_cell_angle_gamma   90.00000000
_symmetry_Int_Tables_number   1
_chemical_formula_structural   KPd2F5
_chemical_formula_sum   'K4 Pd8 F20'
_cell_volume   521.23832845
_cell_formula_units_Z   4
loop_
 _symmetry_equiv_pos_site_id
 _symmetry_equiv_pos_as_xyz
  1  'x, y, z'
loop_
 _atom_site_type_symbol
 _atom_site_label
 _atom_site_symmetry_multiplicity
 _atom_site_fract_x
 _atom_site_fract_y
 _atom_site_fract_z
 _atom_site_occupancy
  K  K0  1  0.01492300  0.25000000  0.36808200  1
  K  K1  1  0.51492300  0.25000000  0.13191800  1
  K  K2  1  0.98507700  0.75000000  0.63191800  1
  K  K3  1  0.48507700  0.75000000  0.86808200  1
  Pd  Pd4  1  0.50000000  0.00000000  0.50000000  1
  Pd  Pd5  1  0.00000000  0.50000000  0.00000000  1
  Pd  Pd6  1  0.50000000  0.50000000  0.50000000  1
  Pd  Pd7  1  0.00000000  0.00000000  0.00000000  1
  Pd  Pd8  1  0.19041400  0.25000000  0.71438400  1
  Pd  Pd9  1  0.69041400  0.25000000  0.78561600  1
  Pd  Pd10  1  0.80958600  0.75000000  0.28561600  1
  Pd  Pd11  1  0.30958600  0.75000000  0.21438400  1
  F  F12  1  0.69947800  0.05559000  0.66068600  1
  F  F13  1  0.19947800  0.44441000  0.83931400  1
  F  F14  1  0.30052200  0.55559000  0.33931400  1
  F  F15  1  0.80052200  0.94441000  0.16068600  1
  F  F16  1  0.30052200  0.94441000  0.33931400  1
  F  F17  1  0.80052200  0.55559000  0.16068600  1
  F  F18  1  0.69947800  0.44441000  0.66068600  1
  F  F19  1  0.19947800  0.05559000  0.83931400  1
  F  F20  1  0.81160500  0.93270000  0.41899900  1
  F  F21  1  0.31160500  0.56730000  0.08100100  1
  F  F22  1  0.18839500  0.43270000  0.58100100  1
  F  F23  1  0.68839500  0.06730000  0.91899900  1
  F  F24  1  0.04673400  0.25000000  0.09640100  1
  F  F25  1  0.54673400  0.25000000  0.40359900  1
  F  F26  1  0.95326600  0.75000000  0.90359900  1
  F  F27  1  0.45326600  0.75000000  0.59640100  1
  F  F28  1  0.31160500  0.93270000  0.08100100  1
  F  F29  1  0.81160500  0.56730000  0.41899900  1
  F  F30  1  0.68839500  0.43270000  0.91899900  1
  F  F31  1  0.18839500  0.06730000  0.58100100  1
