# generated using pymatgen
data_DyNi
_symmetry_space_group_name_H-M   'P 1'
_cell_length_a   4.16946300
_cell_length_b   5.42254300
_cell_length_c   7.03310900
_cell_angle_alpha   90.00000000
_cell_angle_beta   90.00000000
_cell_angle_gamma   90.00000000
_symmetry_Int_Tables_number   1
_chemical_formula_structural   DyNi
_chemical_formula_sum   'Dy4 Ni4'
_cell_volume   159.01221127
_cell_formula_units_Z   4
loop_
 _symmetry_equiv_pos_site_id
 _symmetry_equiv_pos_as_xyz
  1  'x, y, z'
loop_
 _atom_site_type_symbol
 _atom_site_label
 _atom_site_symmetry_multiplicity
 _atom_site_fract_x
 _atom_site_fract_y
 _atom_site_fract_z
 _atom_site_occupancy
  Dy  Dy0  1  0.25000000  0.36615500  0.68030600  1
  Dy  Dy1  1  0.75000000  0.63384500  0.31969400  1
  Dy  Dy2  1  0.75000000  0.86615500  0.81969400  1
  Dy  Dy3  1  0.25000000  0.13384500  0.18030600  1
  Ni  Ni4  1  0.25000000  0.87284700  0.53724600  1
  Ni  Ni5  1  0.75000000  0.12715300  0.46275400  1
  Ni  Ni6  1  0.75000000  0.37284700  0.96275400  1
  Ni  Ni7  1  0.25000000  0.62715300  0.03724600  1
