# generated using pymatgen
data_EuSnPd
_symmetry_space_group_name_H-M   'P 1'
_cell_length_a   4.73474600
_cell_length_b   7.57235600
_cell_length_c   8.12781900
_cell_angle_alpha   90.00000000
_cell_angle_beta   90.00000000
_cell_angle_gamma   90.00000000
_symmetry_Int_Tables_number   1
_chemical_formula_structural   EuSnPd
_chemical_formula_sum   'Eu4 Sn4 Pd4'
_cell_volume   291.40817616
_cell_formula_units_Z   4
loop_
 _symmetry_equiv_pos_site_id
 _symmetry_equiv_pos_as_xyz
  1  'x, y, z'
loop_
 _atom_site_type_symbol
 _atom_site_label
 _atom_site_symmetry_multiplicity
 _atom_site_fract_x
 _atom_site_fract_y
 _atom_site_fract_z
 _atom_site_occupancy
  Eu  Eu0  1  0.25000000  0.52259700  0.18540100  1
  Eu  Eu1  1  0.75000000  0.47740300  0.81459900  1
  Eu  Eu2  1  0.25000000  0.02259700  0.31459900  1
  Eu  Eu3  1  0.75000000  0.97740300  0.68540100  1
  Sn  Sn4  1  0.25000000  0.16482100  0.92595300  1
  Sn  Sn5  1  0.75000000  0.33517900  0.42595300  1
  Sn  Sn6  1  0.25000000  0.66482100  0.57404700  1
  Sn  Sn7  1  0.75000000  0.83517900  0.07404700  1
  Pd  Pd8  1  0.75000000  0.20792600  0.10575900  1
  Pd  Pd9  1  0.25000000  0.29207400  0.60575900  1
  Pd  Pd10  1  0.75000000  0.70792600  0.39424100  1
  Pd  Pd11  1  0.25000000  0.79207400  0.89424100  1
