# generated using pymatgen
data_CeAlPd
_symmetry_space_group_name_H-M   'P 1'
_cell_length_a   7.18294539
_cell_length_b   7.18294539
_cell_length_c   4.17949800
_cell_angle_alpha   90.00000000
_cell_angle_beta   90.00000000
_cell_angle_gamma   119.99999434
_symmetry_Int_Tables_number   1
_chemical_formula_structural   CeAlPd
_chemical_formula_sum   'Ce3 Al3 Pd3'
_cell_volume   186.74969744
_cell_formula_units_Z   3
loop_
 _symmetry_equiv_pos_site_id
 _symmetry_equiv_pos_as_xyz
  1  'x, y, z'
loop_
 _atom_site_type_symbol
 _atom_site_label
 _atom_site_symmetry_multiplicity
 _atom_site_fract_x
 _atom_site_fract_y
 _atom_site_fract_z
 _atom_site_occupancy
  Ce  Ce0  1  0.00000000  0.57769700  0.50000000  1
  Ce  Ce1  1  0.42230300  0.42230300  0.50000000  1
  Ce  Ce2  1  0.57769700  0.00000000  0.50000000  1
  Al  Al3  1  0.00000000  0.23335500  0.00000000  1
  Al  Al4  1  0.76664500  0.76664500  0.00000000  1
  Al  Al5  1  0.23335500  0.00000000  0.00000000  1
  Pd  Pd6  1  0.00000000  0.00000000  0.50000000  1
  Pd  Pd7  1  0.33333300  0.66666700  0.00000000  1
  Pd  Pd8  1  0.66666700  0.33333300  0.00000000  1
