# generated using pymatgen
data_Bi2(MoO4)3
_symmetry_space_group_name_H-M   'P 1'
_cell_length_a   11.63430600
_cell_length_b   7.83609400
_cell_length_c   12.01985758
_cell_angle_alpha   66.63673206
_cell_angle_beta   90.00000000
_cell_angle_gamma   90.00000000
_symmetry_Int_Tables_number   1
_chemical_formula_structural   Bi2(MoO4)3
_chemical_formula_sum   'Bi8 Mo12 O48'
_cell_volume   1005.97317999
_cell_formula_units_Z   4
loop_
 _symmetry_equiv_pos_site_id
 _symmetry_equiv_pos_as_xyz
  1  'x, y, z'
loop_
 _atom_site_type_symbol
 _atom_site_label
 _atom_site_symmetry_multiplicity
 _atom_site_fract_x
 _atom_site_fract_y
 _atom_site_fract_z
 _atom_site_occupancy
  Bi  Bi0  1  0.63197600  0.90796300  0.42054600  1
  Bi  Bi1  1  0.13197600  0.09203700  0.07945400  1
  Bi  Bi2  1  0.36802400  0.09203700  0.57945400  1
  Bi  Bi3  1  0.86802400  0.90796300  0.92054600  1
  Bi  Bi4  1  0.86697000  0.25347100  0.24518900  1
  Bi  Bi5  1  0.36697000  0.74652900  0.25481100  1
  Bi  Bi6  1  0.13303000  0.74652900  0.75481100  1
  Bi  Bi7  1  0.63303000  0.25347100  0.74518900  1
  Mo  Mo8  1  0.86391500  0.73497700  0.29678500  1
  Mo  Mo9  1  0.36391500  0.26502300  0.20321500  1
  Mo  Mo10  1  0.13608500  0.26502300  0.70321500  1
  Mo  Mo11  1  0.63608500  0.73497700  0.79678500  1
  Mo  Mo12  1  0.64798200  0.42423000  0.39090200  1
  Mo  Mo13  1  0.14798200  0.57577000  0.10909800  1
  Mo  Mo14  1  0.35201800  0.57577000  0.60909800  1
  Mo  Mo15  1  0.85201800  0.42423000  0.89090200  1
  Mo  Mo16  1  0.61343400  0.04490200  0.08194300  1
  Mo  Mo17  1  0.11343400  0.95509800  0.41805700  1
  Mo  Mo18  1  0.38656600  0.95509800  0.91805700  1
  Mo  Mo19  1  0.88656600  0.04490200  0.58194300  1
  O  O20  1  0.97137200  0.68621600  0.40382700  1
  O  O21  1  0.47137200  0.31378400  0.09617300  1
  O  O22  1  0.02862800  0.31378400  0.59617300  1
  O  O23  1  0.52862800  0.68621600  0.90382700  1
  O  O24  1  0.93557300  0.84209700  0.15474100  1
  O  O25  1  0.43557300  0.15790300  0.34525900  1
  O  O26  1  0.06442700  0.15790300  0.84525900  1
  O  O27  1  0.56442700  0.84209700  0.65474100  1
  O  O28  1  0.95301000  0.14176000  0.42540100  1
  O  O29  1  0.45301000  0.85824000  0.07459900  1
  O  O30  1  0.04699000  0.85824000  0.57459900  1
  O  O31  1  0.54699000  0.14176000  0.92540100  1
  O  O32  1  0.93790100  0.30274500  0.02323200  1
  O  O33  1  0.43790100  0.69725500  0.47676800  1
  O  O34  1  0.06209900  0.69725500  0.97676800  1
  O  O35  1  0.56209900  0.30274500  0.52323200  1
  O  O36  1  0.79237000  0.95172900  0.30375900  1
  O  O37  1  0.80797900  0.50988600  0.28919800  1
  O  O38  1  0.19202100  0.49011400  0.71080200  1
  O  O39  1  0.69202100  0.50988600  0.78919800  1
  O  O40  1  0.95598600  0.53720400  0.78192400  1
  O  O41  1  0.45598600  0.46279600  0.71807600  1
  O  O42  1  0.04401400  0.46279600  0.21807600  1
  O  O43  1  0.54401300  0.53720400  0.28192400  1
  O  O44  1  0.94838800  0.93909100  0.73974500  1
  O  O45  1  0.44838800  0.06090900  0.76025500  1
  O  O46  1  0.05161200  0.06090900  0.26025500  1
  O  O47  1  0.55161200  0.93909100  0.23974500  1
  O  O48  1  0.80582200  0.21634200  0.85393300  1
  O  O49  1  0.30582200  0.78365800  0.64606700  1
  O  O50  1  0.19417800  0.78365800  0.14606700  1
  O  O51  1  0.69417800  0.21634200  0.35393300  1
  O  O52  1  0.78920600  0.87722000  0.57287700  1
  O  O53  1  0.28920600  0.12278000  0.92712300  1
  O  O54  1  0.21079400  0.12278000  0.42712300  1
  O  O55  1  0.71079400  0.87722000  0.07287700  1
  O  O56  1  0.79542600  0.22788500  0.57698400  1
  O  O57  1  0.29542600  0.77211500  0.92301600  1
  O  O58  1  0.20457400  0.77211500  0.42301600  1
  O  O59  1  0.70457400  0.22788500  0.07698400  1
  O  O60  1  0.79202000  0.62750000  0.92450300  1
  O  O61  1  0.29202000  0.37250000  0.57549700  1
  O  O62  1  0.20798000  0.37250000  0.07549700  1
  O  O63  1  0.70798000  0.62750000  0.42450300  1
  O  O64  1  0.70763000  0.95172900  0.80375900  1
  O  O65  1  0.20763000  0.04827100  0.69624100  1
  O  O66  1  0.29237000  0.04827100  0.19624100  1
  O  O67  1  0.30797900  0.49011400  0.21080200  1
