# generated using pymatgen
data_HoGeIr
_symmetry_space_group_name_H-M   'P 1'
_cell_length_a   4.30541100
_cell_length_b   6.84854200
_cell_length_c   7.62765200
_cell_angle_alpha   90.00000000
_cell_angle_beta   90.00000000
_cell_angle_gamma   90.00000000
_symmetry_Int_Tables_number   1
_chemical_formula_structural   HoGeIr
_chemical_formula_sum   'Ho4 Ge4 Ir4'
_cell_volume   224.90733027
_cell_formula_units_Z   4
loop_
 _symmetry_equiv_pos_site_id
 _symmetry_equiv_pos_as_xyz
  1  'x, y, z'
loop_
 _atom_site_type_symbol
 _atom_site_label
 _atom_site_symmetry_multiplicity
 _atom_site_fract_x
 _atom_site_fract_y
 _atom_site_fract_z
 _atom_site_occupancy
  Ho  Ho0  1  0.25000000  0.00568500  0.30642300  1
  Ho  Ho1  1  0.25000000  0.50568500  0.19357700  1
  Ho  Ho2  1  0.75000000  0.99431500  0.69357700  1
  Ho  Ho3  1  0.75000000  0.49431500  0.80642300  1
  Ge  Ge4  1  0.25000000  0.28931600  0.60953700  1
  Ge  Ge5  1  0.25000000  0.78931600  0.89046300  1
  Ge  Ge6  1  0.75000000  0.71068400  0.39046300  1
  Ge  Ge7  1  0.75000000  0.21068400  0.10953700  1
  Ir  Ir8  1  0.25000000  0.15944700  0.93428400  1
  Ir  Ir9  1  0.25000000  0.65944700  0.56571600  1
  Ir  Ir10  1  0.75000000  0.84055300  0.06571600  1
  Ir  Ir11  1  0.75000000  0.34055300  0.43428400  1
