# generated using pymatgen
data_Ta2NiS5
_symmetry_space_group_name_H-M   'P 1'
_cell_length_a   6.81899809
_cell_length_b   6.81899809
_cell_length_c   15.21199700
_cell_angle_alpha   90.00000000
_cell_angle_beta   90.00000000
_cell_angle_gamma   150.86727702
_symmetry_Int_Tables_number   1
_chemical_formula_structural   Ta2NiS5
_chemical_formula_sum   'Ta4 Ni2 S10'
_cell_volume   344.35672422
_cell_formula_units_Z   2
loop_
 _symmetry_equiv_pos_site_id
 _symmetry_equiv_pos_as_xyz
  1  'x, y, z'
loop_
 _atom_site_type_symbol
 _atom_site_label
 _atom_site_symmetry_multiplicity
 _atom_site_fract_x
 _atom_site_fract_y
 _atom_site_fract_z
 _atom_site_occupancy
  Ta  Ta0  1  0.77758400  0.22241600  0.60870700  1
  Ta  Ta1  1  0.22241600  0.77758400  0.39129300  1
  Ta  Ta2  1  0.22241600  0.77758400  0.10870700  1
  Ta  Ta3  1  0.77758400  0.22241600  0.89129300  1
  Ni  Ni4  1  0.70016600  0.29983400  0.25000000  1
  Ni  Ni5  1  0.29983400  0.70016600  0.75000000  1
  S  S6  1  0.31188300  0.68811700  0.25000000  1
  S  S7  1  0.68811700  0.31188300  0.75000000  1
  S  S8  1  0.84326800  0.15673200  0.44984000  1
  S  S9  1  0.15673200  0.84326800  0.55016000  1
  S  S10  1  0.15673200  0.84326800  0.94984000  1
  S  S11  1  0.84326800  0.15673200  0.05016000  1
  S  S12  1  0.40521600  0.59478400  0.86450800  1
  S  S13  1  0.59478400  0.40521600  0.13549200  1
  S  S14  1  0.59478400  0.40521600  0.36450800  1
  S  S15  1  0.40521600  0.59478400  0.63549200  1
