# generated using pymatgen
data_Rb2UCl5
_symmetry_space_group_name_H-M   'P 1'
_cell_length_a   8.37602500
_cell_length_b   9.01061800
_cell_length_c   13.46713100
_cell_angle_alpha   90.00000000
_cell_angle_beta   90.00000000
_cell_angle_gamma   90.00000000
_symmetry_Int_Tables_number   1
_chemical_formula_structural   Rb2UCl5
_chemical_formula_sum   'Rb8 U4 Cl20'
_cell_volume   1016.40695470
_cell_formula_units_Z   4
loop_
 _symmetry_equiv_pos_site_id
 _symmetry_equiv_pos_as_xyz
  1  'x, y, z'
loop_
 _atom_site_type_symbol
 _atom_site_label
 _atom_site_symmetry_multiplicity
 _atom_site_fract_x
 _atom_site_fract_y
 _atom_site_fract_z
 _atom_site_occupancy
  Rb  Rb0  1  0.44404200  0.50540800  0.67004800  1
  Rb  Rb1  1  0.94404200  0.49459200  0.82995200  1
  Rb  Rb2  1  0.55595800  0.00540800  0.32995200  1
  Rb  Rb3  1  0.05595800  0.99459200  0.17004800  1
  Rb  Rb4  1  0.94404200  0.00540800  0.82995200  1
  Rb  Rb5  1  0.44404200  0.99459200  0.67004800  1
  Rb  Rb6  1  0.05595800  0.50540800  0.17004800  1
  Rb  Rb7  1  0.55595800  0.49459200  0.32995200  1
  U  U8  1  0.93421800  0.75000000  0.50268300  1
  U  U9  1  0.43421800  0.25000000  0.99731700  1
  U  U10  1  0.06578200  0.25000000  0.49731700  1
  U  U11  1  0.56578200  0.75000000  0.00268300  1
  Cl  Cl12  1  0.33956200  0.95912300  0.92796300  1
  Cl  Cl13  1  0.83956200  0.04087700  0.57203700  1
  Cl  Cl14  1  0.66043800  0.45912300  0.07203700  1
  Cl  Cl15  1  0.16043800  0.54087700  0.42796300  1
  Cl  Cl16  1  0.66043800  0.04087700  0.07203700  1
  Cl  Cl17  1  0.16043800  0.95912300  0.42796300  1
  Cl  Cl18  1  0.33956200  0.54087700  0.92796300  1
  Cl  Cl19  1  0.83956200  0.45912300  0.57203700  1
  Cl  Cl20  1  0.38276100  0.75000000  0.17562000  1
  Cl  Cl21  1  0.88276100  0.25000000  0.32438000  1
  Cl  Cl22  1  0.61723900  0.25000000  0.82438000  1
  Cl  Cl23  1  0.11723900  0.75000000  0.67562000  1
  Cl  Cl24  1  0.09524500  0.25000000  0.99027500  1
  Cl  Cl25  1  0.59524500  0.75000000  0.50972500  1
  Cl  Cl26  1  0.90475500  0.75000000  0.00972500  1
  Cl  Cl27  1  0.40475500  0.25000000  0.49027500  1
  Cl  Cl28  1  0.65323900  0.75000000  0.80310300  1
  Cl  Cl29  1  0.15323900  0.25000000  0.69689700  1
  Cl  Cl30  1  0.34676100  0.25000000  0.19689700  1
  Cl  Cl31  1  0.84676100  0.75000000  0.30310300  1
