# generated using pymatgen
data_BaB4O7
_symmetry_space_group_name_H-M   'P 1'
_cell_length_a   8.36510800
_cell_length_b   10.73786200
_cell_length_c   13.17748481
_cell_angle_alpha   74.95841230
_cell_angle_beta   90.00000000
_cell_angle_gamma   90.00000000
_symmetry_Int_Tables_number   1
_chemical_formula_structural   BaB4O7
_chemical_formula_sum   'Ba8 B32 O56'
_cell_volume   1143.09173537
_cell_formula_units_Z   8
loop_
 _symmetry_equiv_pos_site_id
 _symmetry_equiv_pos_as_xyz
  1  'x, y, z'
loop_
 _atom_site_type_symbol
 _atom_site_label
 _atom_site_symmetry_multiplicity
 _atom_site_fract_x
 _atom_site_fract_y
 _atom_site_fract_z
 _atom_site_occupancy
  Ba  Ba0  1  0.61821600  0.10764300  0.29611200  1
  Ba  Ba1  1  0.11821600  0.89235700  0.20388800  1
  Ba  Ba2  1  0.38178400  0.89235700  0.70388800  1
  Ba  Ba3  1  0.88178400  0.10764300  0.79611200  1
  Ba  Ba4  1  0.23739100  0.46162500  0.39363400  1
  Ba  Ba5  1  0.73739100  0.53837500  0.10636600  1
  Ba  Ba6  1  0.76260900  0.53837500  0.60636600  1
  Ba  Ba7  1  0.26260900  0.46162500  0.89363400  1
  B  B8  1  0.71602200  0.01027100  0.55219500  1
  B  B9  1  0.09165600  0.13790500  0.49305000  1
  B  B10  1  0.59165600  0.86209500  0.00695000  1
  B  B11  1  0.90834400  0.86209500  0.50695000  1
  B  B12  1  0.40834400  0.13790500  0.99305000  1
  B  B13  1  0.82519600  0.39711100  0.39371400  1
  B  B14  1  0.32519600  0.60288900  0.10628600  1
  B  B15  1  0.17480400  0.60288900  0.60628600  1
  B  B16  1  0.67480400  0.39711100  0.89371400  1
  B  B17  1  0.21602200  0.98972900  0.94780500  1
  B  B18  1  0.28397800  0.98972900  0.44780500  1
  B  B19  1  0.78397800  0.01027100  0.05219500  1
  B  B20  1  0.30650600  0.18295100  0.80581400  1
  B  B21  1  0.80650600  0.81704900  0.69418600  1
  B  B22  1  0.69349400  0.81704900  0.19418600  1
  B  B23  1  0.19349400  0.18295100  0.30581400  1
  B  B24  1  0.63701400  0.24624300  0.51645300  1
  B  B25  1  0.13701400  0.75375700  0.98354700  1
  B  B26  1  0.36298600  0.75375700  0.48354700  1
  B  B27  1  0.86298600  0.24624300  0.01645300  1
  B  B28  1  0.38253700  0.27775700  0.61914500  1
  B  B29  1  0.88253700  0.72224300  0.88085500  1
  B  B30  1  0.61746300  0.72224300  0.38085500  1
  B  B31  1  0.11746300  0.27775700  0.11914500  1
  B  B32  1  0.13755100  0.36732700  0.68741800  1
  B  B33  1  0.63755100  0.63267300  0.81258200  1
  B  B34  1  0.86244900  0.63267300  0.31258200  1
  B  B35  1  0.36244900  0.36732700  0.18741800  1
  B  B36  1  0.91829600  0.28757600  0.57359900  1
  B  B37  1  0.41829600  0.71242400  0.92640100  1
  B  B38  1  0.08170400  0.71242400  0.42640100  1
  B  B39  1  0.58170400  0.28757600  0.07359900  1
  O  O40  1  0.25367500  0.36104800  0.60473800  1
  O  O41  1  0.80601900  0.31718500  0.90743200  1
  O  O42  1  0.30601900  0.68281500  0.59256800  1
  O  O43  1  0.19398100  0.68281500  0.09256800  1
  O  O44  1  0.69398100  0.31718500  0.40743200  1
  O  O45  1  0.41535100  0.20389300  0.88942900  1
  O  O46  1  0.91535100  0.79610700  0.61057100  1
  O  O47  1  0.58464900  0.79610700  0.11057100  1
  O  O48  1  0.74911100  0.25806900  0.59804200  1
  O  O49  1  0.24911100  0.74193100  0.90195800  1
  O  O50  1  0.25088900  0.74193100  0.40195800  1
  O  O51  1  0.75088900  0.25806900  0.09804200  1
  O  O52  1  0.61118400  0.10907000  0.51386900  1
  O  O53  1  0.11118400  0.89093000  0.98613100  1
  O  O54  1  0.38881600  0.89093000  0.48613100  1
  O  O55  1  0.88881600  0.10907000  0.01386900  1
  O  O56  1  0.48153300  0.30200700  0.53293500  1
  O  O57  1  0.98153300  0.69799300  0.96706500  1
  O  O58  1  0.51846700  0.69799300  0.46706500  1
  O  O59  1  0.01846700  0.30200700  0.03293500  1
  O  O60  1  0.40121500  0.18108500  0.71078400  1
  O  O61  1  0.90121500  0.81891500  0.78921600  1
  O  O62  1  0.59878500  0.81891500  0.28921600  1
  O  O63  1  0.09878500  0.18108500  0.21078400  1
  O  O64  1  0.22545200  0.05171900  0.84271600  1
  O  O65  1  0.72545200  0.94828100  0.65728400  1
  O  O66  1  0.77454800  0.94828100  0.15728400  1
  O  O67  1  0.27454800  0.05171900  0.34271600  1
  O  O68  1  0.64638900  0.49344500  0.80214500  1
  O  O69  1  0.14638900  0.50655500  0.69785500  1
  O  O70  1  0.35361100  0.50655500  0.19785500  1
  O  O71  1  0.85361100  0.49344500  0.30214500  1
  O  O72  1  0.08464900  0.20389300  0.38942900  1
  O  O73  1  0.75367500  0.63895200  0.89526200  1
  O  O74  1  0.74632500  0.63895200  0.39526200  1
  O  O75  1  0.24632500  0.36104800  0.10473800  1
  O  O76  1  0.19659600  0.03153200  0.52348100  1
  O  O77  1  0.69659600  0.96846800  0.97651900  1
  O  O78  1  0.80340400  0.96846800  0.47651900  1
  O  O79  1  0.30340400  0.03153200  0.02348100  1
  O  O80  1  0.52517900  0.33668800  0.16142500  1
  O  O81  1  0.50798900  0.83279000  0.92774900  1
  O  O82  1  0.99201100  0.83279000  0.42774900  1
  O  O83  1  0.49201100  0.16721000  0.07225100  1
  O  O84  1  0.18326400  0.28151800  0.78852100  1
  O  O85  1  0.68326400  0.71848200  0.71147900  1
  O  O86  1  0.81673600  0.71848200  0.21147900  1
  O  O87  1  0.31673600  0.28151800  0.28852100  1
  O  O88  1  0.56550800  0.38775000  0.97399800  1
  O  O89  1  0.06550800  0.61225000  0.52600200  1
  O  O90  1  0.43449200  0.61225000  0.02600200  1
  O  O91  1  0.93449200  0.38775000  0.47399800  1
  O  O92  1  0.97482100  0.33668800  0.66142500  1
  O  O93  1  0.47482100  0.66331200  0.83857500  1
  O  O94  1  0.02517900  0.66331200  0.33857500  1
  O  O95  1  0.00798900  0.16721000  0.57225100  1
