# generated using pymatgen
data_P3Pb5O12F
_symmetry_space_group_name_H-M   'P 1'
_cell_length_a   10.02957324
_cell_length_b   10.02957324
_cell_length_c   7.48452100
_cell_angle_alpha   90.00000000
_cell_angle_beta   90.00000000
_cell_angle_gamma   119.99999501
_symmetry_Int_Tables_number   1
_chemical_formula_structural   P3Pb5O12F
_chemical_formula_sum   'P6 Pb10 O24 F2'
_cell_volume   652.01798206
_cell_formula_units_Z   2
loop_
 _symmetry_equiv_pos_site_id
 _symmetry_equiv_pos_as_xyz
  1  'x, y, z'
loop_
 _atom_site_type_symbol
 _atom_site_label
 _atom_site_symmetry_multiplicity
 _atom_site_fract_x
 _atom_site_fract_y
 _atom_site_fract_z
 _atom_site_occupancy
  P  P0  1  0.62904500  0.02997500  0.25000000  1
  P  P1  1  0.97002500  0.59907100  0.25000000  1
  P  P2  1  0.37095500  0.97002500  0.75000000  1
  P  P3  1  0.02997500  0.40092900  0.75000000  1
  P  P4  1  0.40092900  0.37095500  0.25000000  1
  P  P5  1  0.59907100  0.62904500  0.75000000  1
  Pb  Pb6  1  0.66666700  0.33333300  0.50232800  1
  Pb  Pb7  1  0.66666700  0.33333300  0.99767200  1
  Pb  Pb8  1  0.99538200  0.24562200  0.25000000  1
  Pb  Pb9  1  0.75437800  0.74976100  0.25000000  1
  Pb  Pb10  1  0.33333300  0.66666700  0.00232800  1
  Pb  Pb11  1  0.25023900  0.00461800  0.25000000  1
  Pb  Pb12  1  0.24562200  0.25023900  0.75000000  1
  Pb  Pb13  1  0.74976100  0.99538200  0.75000000  1
  Pb  Pb14  1  0.00461800  0.75437800  0.75000000  1
  Pb  Pb15  1  0.33333300  0.66666700  0.49767200  1
  O  O16  1  0.58210300  0.46356500  0.25000000  1
  O  O17  1  0.41789700  0.53643500  0.75000000  1
  O  O18  1  0.08341300  0.34697400  0.58239700  1
  O  O19  1  0.91658700  0.65302600  0.08239700  1
  O  O20  1  0.26356100  0.91658700  0.58239700  1
  O  O21  1  0.73643900  0.08341300  0.41760300  1
  O  O22  1  0.65302600  0.73643900  0.91760300  1
  O  O23  1  0.66299700  0.51665000  0.75000000  1
  O  O24  1  0.48335000  0.14634700  0.75000000  1
  O  O25  1  0.53643500  0.11853800  0.25000000  1
  O  O26  1  0.33700300  0.48335000  0.25000000  1
  O  O27  1  0.51665000  0.85365300  0.25000000  1
  O  O28  1  0.34697400  0.26356100  0.41760300  1
  O  O29  1  0.88146200  0.41789700  0.25000000  1
  O  O30  1  0.65302600  0.73643900  0.58239700  1
  O  O31  1  0.26356100  0.91658700  0.91760300  1
  O  O32  1  0.11853800  0.58210300  0.75000000  1
  O  O33  1  0.08341300  0.34697400  0.91760300  1
  O  O34  1  0.46356500  0.88146200  0.75000000  1
  O  O35  1  0.91658700  0.65302600  0.41760300  1
  O  O36  1  0.73643900  0.08341300  0.08239700  1
  O  O37  1  0.14634700  0.66299700  0.25000000  1
  O  O38  1  0.34697400  0.26356100  0.08239700  1
  O  O39  1  0.85365300  0.33700300  0.75000000  1
  F  F40  1  0.00000000  0.00000000  0.25000000  1
  F  F41  1  0.00000000  0.00000000  0.75000000  1
