# generated using pymatgen
data_Na4SnTe4
_symmetry_space_group_name_H-M   'P 1'
_cell_length_a   8.74652800
_cell_length_b   8.89146500
_cell_length_c   15.41019700
_cell_angle_alpha   90.00000000
_cell_angle_beta   90.00000000
_cell_angle_gamma   90.00000000
_symmetry_Int_Tables_number   1
_chemical_formula_structural   Na4SnTe4
_chemical_formula_sum   'Na16 Sn4 Te16'
_cell_volume   1198.44250784
_cell_formula_units_Z   4
loop_
 _symmetry_equiv_pos_site_id
 _symmetry_equiv_pos_as_xyz
  1  'x, y, z'
loop_
 _atom_site_type_symbol
 _atom_site_label
 _atom_site_symmetry_multiplicity
 _atom_site_fract_x
 _atom_site_fract_y
 _atom_site_fract_z
 _atom_site_occupancy
  Na  Na0  1  0.98559000  0.96012100  0.58387100  1
  Na  Na1  1  0.48559000  0.53987900  0.41612900  1
  Na  Na2  1  0.01441000  0.46012100  0.91612900  1
  Na  Na3  1  0.51441000  0.03987900  0.08387100  1
  Na  Na4  1  0.62472900  0.76860600  0.63345700  1
  Na  Na5  1  0.12472900  0.73139400  0.36654300  1
  Na  Na6  1  0.37527100  0.26860600  0.86654300  1
  Na  Na7  1  0.87527100  0.23139400  0.13345700  1
  Na  Na8  1  0.66724200  0.63074700  0.13357500  1
  Na  Na9  1  0.16724200  0.86925300  0.86642500  1
  Na  Na10  1  0.33275800  0.13074700  0.36642500  1
  Na  Na11  1  0.83275800  0.36925300  0.63357500  1
  Na  Na12  1  0.88075700  0.35688600  0.37144000  1
  Na  Na13  1  0.38075700  0.14311400  0.62856000  1
  Na  Na14  1  0.11924300  0.85688600  0.12856000  1
  Na  Na15  1  0.61924300  0.64311400  0.87144000  1
  Sn  Sn16  1  0.77896400  0.06920700  0.87337200  1
  Sn  Sn17  1  0.27896400  0.43079300  0.12662800  1
  Sn  Sn18  1  0.22103600  0.56920700  0.62662800  1
  Sn  Sn19  1  0.72103600  0.93079300  0.37337200  1
  Te  Te20  1  0.81294500  0.68022600  0.46922600  1
  Te  Te21  1  0.31294500  0.81977400  0.53077400  1
  Te  Te22  1  0.18705500  0.18022600  0.03077400  1
  Te  Te23  1  0.68705500  0.31977400  0.96922600  1
  Te  Te24  1  0.48491300  0.84808000  0.26165200  1
  Te  Te25  1  0.98491300  0.65192000  0.73834800  1
  Te  Te26  1  0.51508700  0.34808000  0.23834800  1
  Te  Te27  1  0.01508700  0.15192000  0.76165200  1
  Te  Te28  1  0.64514100  0.16242500  0.48846800  1
  Te  Te29  1  0.14514100  0.33757500  0.51153200  1
  Te  Te30  1  0.35485900  0.66242500  0.01153200  1
  Te  Te31  1  0.85485900  0.83757500  0.98846800  1
  Te  Te32  1  0.98464700  0.03910700  0.29106400  1
  Te  Te33  1  0.48464700  0.46089300  0.70893600  1
  Te  Te34  1  0.01535300  0.53910700  0.20893600  1
  Te  Te35  1  0.51535300  0.96089300  0.79106400  1
