# generated using pymatgen
data_Bi2(PSe3)3
_symmetry_space_group_name_H-M   'P 1'
_cell_length_a   7.63246600
_cell_length_b   9.66254000
_cell_length_c   23.59912664
_cell_angle_alpha   67.25797147
_cell_angle_beta   90.00000000
_cell_angle_gamma   90.00000000
_symmetry_Int_Tables_number   1
_chemical_formula_structural   Bi2(PSe3)3
_chemical_formula_sum   'Bi8 P12 Se36'
_cell_volume   1605.10342647
_cell_formula_units_Z   4
loop_
 _symmetry_equiv_pos_site_id
 _symmetry_equiv_pos_as_xyz
  1  'x, y, z'
loop_
 _atom_site_type_symbol
 _atom_site_label
 _atom_site_symmetry_multiplicity
 _atom_site_fract_x
 _atom_site_fract_y
 _atom_site_fract_z
 _atom_site_occupancy
  Bi  Bi0  1  0.81005600  0.39045700  0.85120900  1
  Bi  Bi1  1  0.31005600  0.60954300  0.64879100  1
  Bi  Bi2  1  0.18994400  0.60954300  0.14879100  1
  Bi  Bi3  1  0.68994400  0.39045700  0.35120900  1
  Bi  Bi4  1  0.91514800  0.06875200  0.16146200  1
  Bi  Bi5  1  0.41514800  0.93124800  0.33853800  1
  Bi  Bi6  1  0.08485200  0.93124800  0.83853800  1
  Bi  Bi7  1  0.58485200  0.06875200  0.66146200  1
  P  P8  1  0.94442600  0.57500400  0.95323100  1
  P  P9  1  0.44442600  0.42499600  0.54676900  1
  P  P10  1  0.05557400  0.42499600  0.04676900  1
  P  P11  1  0.55557400  0.57500400  0.45323100  1
  P  P12  1  0.06160300  0.92209900  0.64631600  1
  P  P13  1  0.56160300  0.07790100  0.85368400  1
  P  P14  1  0.93839700  0.07790100  0.35368400  1
  P  P15  1  0.43839700  0.92209900  0.14631600  1
  P  P16  1  0.15750400  0.24689300  0.31377900  1
  P  P17  1  0.65750400  0.75310700  0.18622100  1
  P  P18  1  0.84249600  0.75310700  0.68622100  1
  P  P19  1  0.34249600  0.24689300  0.81377900  1
  Se  Se20  1  0.74058400  0.77990200  0.76856300  1
  Se  Se21  1  0.04407700  0.47178600  0.29652800  1
  Se  Se22  1  0.45592300  0.47178600  0.79652800  1
  Se  Se23  1  0.95592300  0.52821400  0.70347200  1
  Se  Se24  1  0.85804700  0.83745800  0.11108200  1
  Se  Se25  1  0.35804700  0.16254200  0.38891800  1
  Se  Se26  1  0.14195300  0.16254200  0.88891800  1
  Se  Se27  1  0.64195300  0.83745800  0.61108200  1
  Se  Se28  1  0.23712100  0.84922700  0.21943500  1
  Se  Se29  1  0.73712100  0.15077300  0.28056500  1
  Se  Se30  1  0.76287900  0.15077300  0.78056500  1
  Se  Se31  1  0.54407700  0.52821400  0.20347200  1
  Se  Se32  1  0.55522100  0.14690600  0.12221600  1
  Se  Se33  1  0.05522100  0.85309400  0.37778400  1
  Se  Se34  1  0.44477900  0.85309400  0.87778400  1
  Se  Se35  1  0.94477900  0.14690600  0.62221600  1
  Se  Se36  1  0.34746600  0.87463400  0.06616100  1
  Se  Se37  1  0.84746600  0.12536600  0.43383900  1
  Se  Se38  1  0.65253400  0.12536600  0.93383900  1
  Se  Se39  1  0.15253400  0.87463400  0.56616100  1
  Se  Se40  1  0.58352000  0.80121900  0.45567200  1
  Se  Se41  1  0.08352000  0.19878100  0.04432800  1
  Se  Se42  1  0.41648000  0.19878100  0.54432800  1
  Se  Se43  1  0.91648000  0.80121900  0.95567200  1
  Se  Se44  1  0.37001000  0.57256500  0.38210300  1
  Se  Se45  1  0.87001000  0.42743500  0.11789700  1
  Se  Se46  1  0.62999000  0.42743500  0.61789700  1
  Se  Se47  1  0.12999000  0.57256500  0.88210300  1
  Se  Se48  1  0.81107600  0.47226200  0.44707600  1
  Se  Se49  1  0.31107600  0.52773800  0.05292400  1
  Se  Se50  1  0.18892400  0.52773800  0.55292400  1
  Se  Se51  1  0.68892400  0.47226200  0.94707600  1
  Se  Se52  1  0.25941600  0.22009800  0.23143700  1
  Se  Se53  1  0.75941600  0.77990200  0.26856300  1
  Se  Se54  1  0.26287900  0.84922700  0.71943500  1
  Se  Se55  1  0.24058400  0.22009800  0.73143700  1
