# generated using pymatgen
data_NdMnO3
_symmetry_space_group_name_H-M   'P 1'
_cell_length_a   5.50227800
_cell_length_b   5.92061500
_cell_length_c   7.66844700
_cell_angle_alpha   90.00000000
_cell_angle_beta   90.00000000
_cell_angle_gamma   90.00000000
_symmetry_Int_Tables_number   1
_chemical_formula_structural   NdMnO3
_chemical_formula_sum   'Nd4 Mn4 O12'
_cell_volume   249.81399842
_cell_formula_units_Z   4
loop_
 _symmetry_equiv_pos_site_id
 _symmetry_equiv_pos_as_xyz
  1  'x, y, z'
loop_
 _atom_site_type_symbol
 _atom_site_label
 _atom_site_symmetry_multiplicity
 _atom_site_fract_x
 _atom_site_fract_y
 _atom_site_fract_z
 _atom_site_occupancy
  Nd  Nd0  1  0.51542300  0.42787300  0.25000000  1
  Nd  Nd1  1  0.98457700  0.92787300  0.25000000  1
  Nd  Nd2  1  0.48457700  0.57212700  0.75000000  1
  Nd  Nd3  1  0.01542300  0.07212700  0.75000000  1
  Mn  Mn4  1  0.00000000  0.50000000  0.00000000  1
  Mn  Mn5  1  0.50000000  0.00000000  0.50000000  1
  Mn  Mn6  1  0.00000000  0.50000000  0.50000000  1
  Mn  Mn7  1  0.50000000  0.00000000  0.00000000  1
  O  O8  1  0.40200000  0.02722200  0.25000000  1
  O  O9  1  0.09800000  0.52722200  0.25000000  1
  O  O10  1  0.59800000  0.97277800  0.75000000  1
  O  O11  1  0.90200000  0.47277800  0.75000000  1
  O  O12  1  0.78683100  0.18359900  0.04869700  1
  O  O13  1  0.71316900  0.68359900  0.45130300  1
  O  O14  1  0.21316900  0.81640100  0.54869700  1
  O  O15  1  0.28683100  0.31640100  0.95130300  1
  O  O16  1  0.21316900  0.81640100  0.95130300  1
  O  O17  1  0.28683100  0.31640100  0.54869700  1
  O  O18  1  0.78683100  0.18359900  0.45130300  1
  O  O19  1  0.71316900  0.68359900  0.04869700  1
