# generated using pymatgen
data_Sr2GeN2
_symmetry_space_group_name_H-M   'P 1'
_cell_length_a   11.85993500
_cell_length_b   11.85993500
_cell_length_c   5.42653200
_cell_angle_alpha   90.00000000
_cell_angle_beta   90.00000000
_cell_angle_gamma   90.00000000
_symmetry_Int_Tables_number   1
_chemical_formula_structural   Sr2GeN2
_chemical_formula_sum   'Sr16 Ge8 N16'
_cell_volume   763.28545390
_cell_formula_units_Z   8
loop_
 _symmetry_equiv_pos_site_id
 _symmetry_equiv_pos_as_xyz
  1  'x, y, z'
loop_
 _atom_site_type_symbol
 _atom_site_label
 _atom_site_symmetry_multiplicity
 _atom_site_fract_x
 _atom_site_fract_y
 _atom_site_fract_z
 _atom_site_occupancy
  Sr  Sr0  1  0.47795800  0.15144100  0.50000000  1
  Sr  Sr1  1  0.52204200  0.84855900  0.50000000  1
  Sr  Sr2  1  0.84855900  0.47795800  0.00000000  1
  Sr  Sr3  1  0.15144100  0.52204200  0.00000000  1
  Sr  Sr4  1  0.65144100  0.97795800  0.00000000  1
  Sr  Sr5  1  0.97795800  0.34855900  0.50000000  1
  Sr  Sr6  1  0.02204200  0.65144100  0.50000000  1
  Sr  Sr7  1  0.34855900  0.02204200  0.00000000  1
  Sr  Sr8  1  0.13359900  0.08018800  0.50000000  1
  Sr  Sr9  1  0.86640100  0.91981200  0.50000000  1
  Sr  Sr10  1  0.91981200  0.13359900  0.00000000  1
  Sr  Sr11  1  0.08018800  0.86640100  0.00000000  1
  Sr  Sr12  1  0.58018800  0.63359900  0.00000000  1
  Sr  Sr13  1  0.63359900  0.41981200  0.50000000  1
  Sr  Sr14  1  0.36640100  0.58018800  0.50000000  1
  Sr  Sr15  1  0.41981200  0.36640100  0.00000000  1
  Ge  Ge16  1  0.15100000  0.25597900  0.00000000  1
  Ge  Ge17  1  0.25597900  0.84900000  0.50000000  1
  Ge  Ge18  1  0.74402100  0.15100000  0.50000000  1
  Ge  Ge19  1  0.84900000  0.74402100  0.00000000  1
  Ge  Ge20  1  0.34900000  0.75597900  0.00000000  1
  Ge  Ge21  1  0.65100000  0.24402100  0.00000000  1
  Ge  Ge22  1  0.75597900  0.65100000  0.50000000  1
  Ge  Ge23  1  0.24402100  0.34900000  0.50000000  1
  N  N24  1  0.16510400  0.48848800  0.50000000  1
  N  N25  1  0.83489600  0.51151200  0.50000000  1
  N  N26  1  0.51151200  0.16510400  0.00000000  1
  N  N27  1  0.48848800  0.83489600  0.00000000  1
  N  N28  1  0.98848800  0.66510400  0.00000000  1
  N  N29  1  0.66510400  0.01151200  0.50000000  1
  N  N30  1  0.33489600  0.98848800  0.50000000  1
  N  N31  1  0.01151200  0.33489600  0.00000000  1
  N  N32  1  0.40137000  0.36618500  0.50000000  1
  N  N33  1  0.59863000  0.63381500  0.50000000  1
  N  N34  1  0.63381500  0.40137000  0.00000000  1
  N  N35  1  0.36618500  0.59863000  0.00000000  1
  N  N36  1  0.86618500  0.90137000  0.00000000  1
  N  N37  1  0.90137000  0.13381500  0.50000000  1
  N  N38  1  0.09863000  0.86618500  0.50000000  1
  N  N39  1  0.13381500  0.09863000  0.00000000  1
