# generated using pymatgen
data_Sr3(InP2)2
_symmetry_space_group_name_H-M   'P 1'
_cell_length_a   4.33345700
_cell_length_b   6.94813500
_cell_length_c   16.38222200
_cell_angle_alpha   90.00000000
_cell_angle_beta   90.00000000
_cell_angle_gamma   90.00000000
_symmetry_Int_Tables_number   1
_chemical_formula_structural   Sr3(InP2)2
_chemical_formula_sum   'Sr6 In4 P8'
_cell_volume   493.25960004
_cell_formula_units_Z   2
loop_
 _symmetry_equiv_pos_site_id
 _symmetry_equiv_pos_as_xyz
  1  'x, y, z'
loop_
 _atom_site_type_symbol
 _atom_site_label
 _atom_site_symmetry_multiplicity
 _atom_site_fract_x
 _atom_site_fract_y
 _atom_site_fract_z
 _atom_site_occupancy
  Sr  Sr0  1  0.50000000  0.50000000  0.50000000  1
  Sr  Sr1  1  0.00000000  0.29210200  0.80149400  1
  Sr  Sr2  1  0.50000000  0.20789800  0.30149400  1
  Sr  Sr3  1  0.50000000  0.79210200  0.69850600  1
  Sr  Sr4  1  0.00000000  0.70789800  0.19850600  1
  Sr  Sr5  1  0.00000000  0.00000000  0.00000000  1
  In  In6  1  0.50000000  0.36745100  0.08520500  1
  In  In7  1  0.00000000  0.13254900  0.58520500  1
  In  In8  1  0.00000000  0.86745100  0.41479500  1
  In  In9  1  0.50000000  0.63254900  0.91479500  1
  P  P10  1  0.50000000  0.74754500  0.33378800  1
  P  P11  1  0.50000000  0.26016000  0.93184000  1
  P  P12  1  0.00000000  0.23984000  0.43184000  1
  P  P13  1  0.00000000  0.76016000  0.56816000  1
  P  P14  1  0.50000000  0.73984000  0.06816000  1
  P  P15  1  0.00000000  0.75245500  0.83378800  1
  P  P16  1  0.50000000  0.25245500  0.66621200  1
  P  P17  1  0.00000000  0.24754500  0.16621200  1
