# generated using pymatgen
data_Tl5Se2Br
_symmetry_space_group_name_H-M   'P 1'
_cell_length_a   9.17061412
_cell_length_b   9.17061412
_cell_length_c   9.17061412
_cell_angle_alpha   122.66441441
_cell_angle_beta   122.66441441
_cell_angle_gamma   85.44390214
_symmetry_Int_Tables_number   1
_chemical_formula_structural   Tl5Se2Br
_chemical_formula_sum   'Tl10 Se4 Br2'
_cell_volume   521.59441431
_cell_formula_units_Z   2
loop_
 _symmetry_equiv_pos_site_id
 _symmetry_equiv_pos_as_xyz
  1  'x, y, z'
loop_
 _atom_site_type_symbol
 _atom_site_label
 _atom_site_symmetry_multiplicity
 _atom_site_fract_x
 _atom_site_fract_y
 _atom_site_fract_z
 _atom_site_occupancy
  Tl  Tl0  1  0.50529300  0.71141400  0.50000000  1
  Tl  Tl1  1  0.00529300  0.50529300  0.79387900  1
  Tl  Tl2  1  0.71141400  0.21141400  0.20612100  1
  Tl  Tl3  1  0.99470700  0.49470700  0.20612100  1
  Tl  Tl4  1  0.21141400  0.00529300  0.50000000  1
  Tl  Tl5  1  0.49470700  0.28858600  0.50000000  1
  Tl  Tl6  1  0.78858600  0.99470700  0.50000000  1
  Tl  Tl7  1  0.28858600  0.78858600  0.79387900  1
  Tl  Tl8  1  0.00000000  0.00000000  0.00000000  1
  Tl  Tl9  1  0.50000000  0.50000000  0.00000000  1
  Se  Se10  1  0.65838800  0.15838800  0.81677600  1
  Se  Se11  1  0.15838800  0.34161200  0.50000000  1
  Se  Se12  1  0.84161200  0.65838800  0.50000000  1
  Se  Se13  1  0.34161200  0.84161200  0.18322400  1
  Br  Br14  1  0.25000000  0.25000000  0.00000000  1
  Br  Br15  1  0.75000000  0.75000000  0.00000000  1
