# generated using pymatgen
data_Ca2Sn5Pt3
_symmetry_space_group_name_H-M   'P 1'
_cell_length_a   4.50985500
_cell_length_b   7.49949900
_cell_length_c   26.79513400
_cell_angle_alpha   90.00000000
_cell_angle_beta   90.00000000
_cell_angle_gamma   90.00000000
_symmetry_Int_Tables_number   1
_chemical_formula_structural   Ca2Sn5Pt3
_chemical_formula_sum   'Ca8 Sn20 Pt12'
_cell_volume   906.25572592
_cell_formula_units_Z   4
loop_
 _symmetry_equiv_pos_site_id
 _symmetry_equiv_pos_as_xyz
  1  'x, y, z'
loop_
 _atom_site_type_symbol
 _atom_site_label
 _atom_site_symmetry_multiplicity
 _atom_site_fract_x
 _atom_site_fract_y
 _atom_site_fract_z
 _atom_site_occupancy
  Ca  Ca0  1  0.75000000  0.25306000  0.92338400  1
  Ca  Ca1  1  0.25000000  0.74694000  0.07661600  1
  Ca  Ca2  1  0.75000000  0.75306000  0.57661600  1
  Ca  Ca3  1  0.25000000  0.24694000  0.42338400  1
  Ca  Ca4  1  0.75000000  0.28542400  0.22662700  1
  Ca  Ca5  1  0.25000000  0.71457600  0.77337300  1
  Ca  Ca6  1  0.75000000  0.78542400  0.27337300  1
  Ca  Ca7  1  0.25000000  0.21457600  0.72662700  1
  Sn  Sn8  1  0.25000000  0.46422200  0.54338500  1
  Sn  Sn9  1  0.25000000  0.03990500  0.54354600  1
  Sn  Sn10  1  0.75000000  0.96009500  0.45645400  1
  Sn  Sn11  1  0.25000000  0.53990500  0.95645400  1
  Sn  Sn12  1  0.75000000  0.46009500  0.04354600  1
  Sn  Sn13  1  0.75000000  0.37803700  0.79823600  1
  Sn  Sn14  1  0.75000000  0.53577800  0.45661500  1
  Sn  Sn15  1  0.25000000  0.96422200  0.95661500  1
  Sn  Sn16  1  0.75000000  0.03577800  0.04338500  1
  Sn  Sn17  1  0.25000000  0.78789300  0.36898000  1
  Sn  Sn18  1  0.75000000  0.21210700  0.63102000  1
  Sn  Sn19  1  0.25000000  0.28789300  0.13102000  1
  Sn  Sn20  1  0.75000000  0.90750500  0.15305900  1
  Sn  Sn21  1  0.25000000  0.62196300  0.20176400  1
  Sn  Sn22  1  0.75000000  0.87803700  0.70176400  1
  Sn  Sn23  1  0.25000000  0.12196300  0.29823600  1
  Sn  Sn24  1  0.25000000  0.59249500  0.65305900  1
  Sn  Sn25  1  0.25000000  0.09249500  0.84694100  1
  Sn  Sn26  1  0.75000000  0.40750500  0.34694100  1
  Sn  Sn27  1  0.75000000  0.71210700  0.86898000  1
  Pt  Pt28  1  0.75000000  0.00043600  0.79957600  1
  Pt  Pt29  1  0.25000000  0.74394100  0.47260000  1
  Pt  Pt30  1  0.75000000  0.25605900  0.52740000  1
  Pt  Pt31  1  0.25000000  0.24394100  0.02740000  1
  Pt  Pt32  1  0.75000000  0.75605900  0.97260000  1
  Pt  Pt33  1  0.25000000  0.95960500  0.64280700  1
  Pt  Pt34  1  0.75000000  0.04039500  0.35719300  1
  Pt  Pt35  1  0.25000000  0.45960500  0.85719300  1
  Pt  Pt36  1  0.75000000  0.54039500  0.14280700  1
  Pt  Pt37  1  0.25000000  0.49956400  0.29957600  1
  Pt  Pt38  1  0.75000000  0.50043600  0.70042400  1
  Pt  Pt39  1  0.25000000  0.99956400  0.20042400  1
