# generated using pymatgen
data_NiBr2
_symmetry_space_group_name_H-M   'P 1'
_cell_length_a   6.58886885
_cell_length_b   6.58886885
_cell_length_c   6.58886889
_cell_angle_alpha   32.38840550
_cell_angle_beta   32.38840550
_cell_angle_gamma   32.38841273
_symmetry_Int_Tables_number   1
_chemical_formula_structural   NiBr2
_chemical_formula_sum   'Ni1 Br2'
_cell_volume   72.96690490
_cell_formula_units_Z   1
loop_
 _symmetry_equiv_pos_site_id
 _symmetry_equiv_pos_as_xyz
  1  'x, y, z'
loop_
 _atom_site_type_symbol
 _atom_site_label
 _atom_site_symmetry_multiplicity
 _atom_site_fract_x
 _atom_site_fract_y
 _atom_site_fract_z
 _atom_site_occupancy
  Ni  Ni0  1  0.00000000  0.00000000  0.00000000  1
  Br  Br1  1  0.25844000  0.25844000  0.25844000  1
  Br  Br2  1  0.74156000  0.74156000  0.74156000  1
