# generated using pymatgen
data_Cd2Ge7O16
_symmetry_space_group_name_H-M   'P 1'
_cell_length_a   11.46441600
_cell_length_b   11.46441600
_cell_length_c   4.71242100
_cell_angle_alpha   90.00000000
_cell_angle_beta   90.00000000
_cell_angle_gamma   90.00000000
_symmetry_Int_Tables_number   1
_chemical_formula_structural   Cd2Ge7O16
_chemical_formula_sum   'Cd4 Ge14 O32'
_cell_volume   619.36684807
_cell_formula_units_Z   2
loop_
 _symmetry_equiv_pos_site_id
 _symmetry_equiv_pos_as_xyz
  1  'x, y, z'
loop_
 _atom_site_type_symbol
 _atom_site_label
 _atom_site_symmetry_multiplicity
 _atom_site_fract_x
 _atom_site_fract_y
 _atom_site_fract_z
 _atom_site_occupancy
  Cd  Cd0  1  0.83678800  0.66321200  0.00000000  1
  Cd  Cd1  1  0.33678800  0.83678800  0.00000000  1
  Cd  Cd2  1  0.66321200  0.16321200  0.00000000  1
  Cd  Cd3  1  0.16321200  0.33678800  0.00000000  1
  Ge  Ge4  1  0.56941200  0.68499800  0.50990900  1
  Ge  Ge5  1  0.43058800  0.31500200  0.50990900  1
  Ge  Ge6  1  0.31500200  0.56941200  0.49009100  1
  Ge  Ge7  1  0.68499800  0.43058800  0.49009100  1
  Ge  Ge8  1  0.93058800  0.18499800  0.50990900  1
  Ge  Ge9  1  0.81500200  0.93058800  0.49009100  1
  Ge  Ge10  1  0.18499800  0.06941200  0.49009100  1
  Ge  Ge11  1  0.06941200  0.81500200  0.50990900  1
  Ge  Ge12  1  0.63571600  0.86428400  0.00000000  1
  Ge  Ge13  1  0.13571600  0.63571600  0.00000000  1
  Ge  Ge14  1  0.86428400  0.36428400  0.00000000  1
  Ge  Ge15  1  0.36428400  0.13571600  0.00000000  1
  Ge  Ge16  1  0.50000000  0.00000000  0.50000000  1
  Ge  Ge17  1  0.00000000  0.50000000  0.50000000  1
  O  O18  1  0.63878100  0.56449000  0.33409600  1
  O  O19  1  0.36121900  0.43551000  0.33409600  1
  O  O20  1  0.43551000  0.63878100  0.66590400  1
  O  O21  1  0.56449000  0.36121900  0.66590400  1
  O  O22  1  0.86121900  0.06449000  0.33409600  1
  O  O23  1  0.93551000  0.86121900  0.66590400  1
  O  O24  1  0.06449000  0.13878100  0.66590400  1
  O  O25  1  0.13878100  0.93551000  0.33409600  1
  O  O26  1  0.67349300  0.73131000  0.77140600  1
  O  O27  1  0.32650700  0.26869000  0.77140600  1
  O  O28  1  0.26869000  0.67349300  0.22859400  1
  O  O29  1  0.73131000  0.32650700  0.22859400  1
  O  O30  1  0.82650700  0.23131000  0.77140600  1
  O  O31  1  0.76869000  0.82650700  0.22859400  1
  O  O32  1  0.23131000  0.17349300  0.22859400  1
  O  O33  1  0.17349300  0.76869000  0.77140600  1
  O  O34  1  0.53076700  0.78036200  0.22807800  1
  O  O35  1  0.46923300  0.21963800  0.22807800  1
  O  O36  1  0.00065200  0.61851100  0.74800600  1
  O  O37  1  0.38148900  0.00065200  0.25199400  1
  O  O38  1  0.61851100  0.99934800  0.25199400  1
  O  O39  1  0.99934800  0.38148900  0.74800600  1
  O  O40  1  0.88148900  0.49934800  0.25199400  1
  O  O41  1  0.11851100  0.50065200  0.25199400  1
  O  O42  1  0.49934800  0.11851100  0.74800600  1
  O  O43  1  0.50065200  0.88148900  0.74800600  1
  O  O44  1  0.03076700  0.71963800  0.22807800  1
  O  O45  1  0.28036200  0.03076700  0.77192200  1
  O  O46  1  0.71963800  0.96923300  0.77192200  1
  O  O47  1  0.96923300  0.28036200  0.22807800  1
  O  O48  1  0.78036200  0.46923300  0.77192200  1
  O  O49  1  0.21963800  0.53076700  0.77192200  1
