# generated using pymatgen
data_Sm2O3
_symmetry_space_group_name_H-M   'P 1'
_cell_length_a   9.52588627
_cell_length_b   9.52588627
_cell_length_c   9.52588627
_cell_angle_alpha   109.47122063
_cell_angle_beta   109.47122063
_cell_angle_gamma   109.47122063
_symmetry_Int_Tables_number   1
_chemical_formula_structural   Sm2O3
_chemical_formula_sum   'Sm16 O24'
_cell_volume   665.41760240
_cell_formula_units_Z   8
loop_
 _symmetry_equiv_pos_site_id
 _symmetry_equiv_pos_as_xyz
  1  'x, y, z'
loop_
 _atom_site_type_symbol
 _atom_site_label
 _atom_site_symmetry_multiplicity
 _atom_site_fract_x
 _atom_site_fract_y
 _atom_site_fract_z
 _atom_site_occupancy
  Sm  Sm0  1  0.50000000  0.00000000  0.50000000  1
  Sm  Sm1  1  0.00000000  0.50000000  0.50000000  1
  Sm  Sm2  1  0.00000000  0.00000000  0.00000000  1
  Sm  Sm3  1  0.50000000  0.50000000  0.00000000  1
  Sm  Sm4  1  0.21863700  0.75000000  0.96863700  1
  Sm  Sm5  1  0.96863700  0.21863700  0.75000000  1
  Sm  Sm6  1  0.25000000  0.53136300  0.28136300  1
  Sm  Sm7  1  0.53136300  0.28136300  0.25000000  1
  Sm  Sm8  1  0.75000000  0.96863700  0.21863700  1
  Sm  Sm9  1  0.28136300  0.25000000  0.53136300  1
  Sm  Sm10  1  0.78136300  0.25000000  0.03136300  1
  Sm  Sm11  1  0.03136300  0.78136300  0.25000000  1
  Sm  Sm12  1  0.75000000  0.46863700  0.71863700  1
  Sm  Sm13  1  0.46863700  0.71863700  0.75000000  1
  Sm  Sm14  1  0.25000000  0.03136300  0.78136300  1
  Sm  Sm15  1  0.71863700  0.75000000  0.46863700  1
  O  O16  1  0.51193500  0.77132200  0.54099700  1
  O  O17  1  0.24061300  0.76967500  0.72867800  1
  O  O18  1  0.97093800  0.95900300  0.73032500  1
  O  O19  1  0.95900300  0.73032500  0.97093800  1
  O  O20  1  0.52906200  0.25938700  0.98806500  1
  O  O21  1  0.54099700  0.51193500  0.77132200  1
  O  O22  1  0.77132200  0.54099700  0.51193500  1
  O  O23  1  0.72867800  0.24061300  0.76967500  1
  O  O24  1  0.25938700  0.98806500  0.52906200  1
  O  O25  1  0.73032500  0.97093800  0.95900300  1
  O  O26  1  0.98806500  0.52906200  0.25938700  1
  O  O27  1  0.76967500  0.72867800  0.24061300  1
  O  O28  1  0.48806500  0.22867800  0.45900300  1
  O  O29  1  0.75938700  0.23032500  0.27132200  1
  O  O30  1  0.02906200  0.04099700  0.26967500  1
  O  O31  1  0.04099700  0.26967500  0.02906200  1
  O  O32  1  0.47093800  0.74061300  0.01193500  1
  O  O33  1  0.45900300  0.48806500  0.22867800  1
  O  O34  1  0.22867800  0.45900300  0.48806500  1
  O  O35  1  0.27132200  0.75938700  0.23032500  1
  O  O36  1  0.74061300  0.01193500  0.47093800  1
  O  O37  1  0.26967500  0.02906200  0.04099700  1
  O  O38  1  0.01193500  0.47093800  0.74061300  1
  O  O39  1  0.23032500  0.27132200  0.75938700  1
