# generated using pymatgen
data_AsPd5
_symmetry_space_group_name_H-M   'P 1'
_cell_length_a   4.82103153
_cell_length_b   4.82103153
_cell_length_c   8.59702924
_cell_angle_alpha   84.96440491
_cell_angle_beta   84.96440491
_cell_angle_gamma   108.76287584
_symmetry_Int_Tables_number   1
_chemical_formula_structural   AsPd5
_chemical_formula_sum   'As2 Pd10'
_cell_volume   187.03536235
_cell_formula_units_Z   2
loop_
 _symmetry_equiv_pos_site_id
 _symmetry_equiv_pos_as_xyz
  1  'x, y, z'
loop_
 _atom_site_type_symbol
 _atom_site_label
 _atom_site_symmetry_multiplicity
 _atom_site_fract_x
 _atom_site_fract_y
 _atom_site_fract_z
 _atom_site_occupancy
  As  As0  1  0.77265500  0.77265500  0.71268300  1
  As  As1  1  0.22734500  0.22734500  0.28731700  1
  Pd  Pd2  1  0.27595300  0.79675700  0.82588400  1
  Pd  Pd3  1  0.20324300  0.72404700  0.17411600  1
  Pd  Pd4  1  0.79675700  0.27595300  0.82588400  1
  Pd  Pd5  1  0.72404700  0.20324300  0.17411600  1
  Pd  Pd6  1  0.35419000  0.35419000  0.64798600  1
  Pd  Pd7  1  0.64581000  0.64581000  0.35201400  1
  Pd  Pd8  1  0.25673500  0.25673500  0.99312700  1
  Pd  Pd9  1  0.74326500  0.74326500  0.00687300  1
  Pd  Pd10  1  0.81589600  0.18410400  0.50000000  1
  Pd  Pd11  1  0.18410400  0.81589600  0.50000000  1
