# generated using pymatgen
data_BeH8SO8
_symmetry_space_group_name_H-M   'P 1'
_cell_length_a   7.90431500
_cell_length_b   7.90431500
_cell_length_c   7.90431500
_cell_angle_alpha   119.10836129
_cell_angle_beta   119.10836129
_cell_angle_gamma   91.55142851
_symmetry_Int_Tables_number   1
_chemical_formula_structural   BeH8SO8
_chemical_formula_sum   'Be2 H16 S2 O16'
_cell_volume   353.76869927
_cell_formula_units_Z   2
loop_
 _symmetry_equiv_pos_site_id
 _symmetry_equiv_pos_as_xyz
  1  'x, y, z'
loop_
 _atom_site_type_symbol
 _atom_site_label
 _atom_site_symmetry_multiplicity
 _atom_site_fract_x
 _atom_site_fract_y
 _atom_site_fract_z
 _atom_site_occupancy
  Be  Be0  1  0.75000000  0.25000000  0.50000000  1
  Be  Be1  1  0.25000000  0.75000000  0.50000000  1
  H  H2  1  0.91935600  0.51063700  0.15824900  1
  H  H3  1  0.59230600  0.36259200  0.69111000  1
  H  H4  1  0.35238800  0.76110700  0.84175100  1
  H  H5  1  0.48936300  0.64761200  0.40871900  1
  H  H6  1  0.23889300  0.08064400  0.59128100  1
  H  H7  1  0.85238800  0.01063700  0.59128100  1
  H  H8  1  0.98936300  0.58064400  0.84175100  1
  H  H9  1  0.73889300  0.14761200  0.15824900  1
  H  H10  1  0.41935600  0.26110700  0.40871900  1
  H  H11  1  0.09230600  0.40119500  0.22971300  1
  H  H12  1  0.17148200  0.86259200  0.77028700  1
  H  H13  1  0.59880500  0.82851800  0.69111000  1
  H  H14  1  0.13740800  0.90769400  0.30889000  1
  H  H15  1  0.67148200  0.90119500  0.30889000  1
  H  H16  1  0.09880500  0.40769400  0.77028700  1
  H  H17  1  0.63740800  0.32851800  0.22971300  1
  S  S18  1  0.00000000  0.00000000  0.00000000  1
  S  S19  1  0.50000000  0.50000000  0.00000000  1
  O  O20  1  0.55202200  0.50782200  0.21292800  1
  O  O21  1  0.06887900  0.53450600  0.25864600  1
  O  O22  1  0.18976700  0.93112100  0.46562700  1
  O  O23  1  0.77585900  0.03450600  0.46562700  1
  O  O24  1  0.96549400  0.43112100  0.74135400  1
  O  O25  1  0.68976700  0.22414100  0.25864600  1
  O  O26  1  0.56887900  0.31023300  0.53437300  1
  O  O27  1  0.66090600  0.44797800  0.95580100  1
  O  O28  1  0.49217800  0.70510500  0.04419900  1
  O  O29  1  0.27585900  0.81023300  0.74135400  1
  O  O30  1  0.29489500  0.33909400  0.78707200  1
  O  O31  1  0.99217800  0.94797800  0.78707200  1
  O  O32  1  0.05202200  0.83909400  0.04419900  1
  O  O33  1  0.79489500  0.00782200  0.95580100  1
  O  O34  1  0.16090600  0.20510500  0.21292800  1
  O  O35  1  0.46549400  0.72414100  0.53437300  1
