# generated using pymatgen
data_Na4Ga2S5
_symmetry_space_group_name_H-M   'P 1'
_cell_length_a   6.17845700
_cell_length_b   8.04831300
_cell_length_c   20.11294055
_cell_angle_alpha   88.63117090
_cell_angle_beta   90.00000000
_cell_angle_gamma   90.00000000
_symmetry_Int_Tables_number   1
_chemical_formula_structural   Na4Ga2S5
_chemical_formula_sum   'Na16 Ga8 S20'
_cell_volume   999.85380949
_cell_formula_units_Z   4
loop_
 _symmetry_equiv_pos_site_id
 _symmetry_equiv_pos_as_xyz
  1  'x, y, z'
loop_
 _atom_site_type_symbol
 _atom_site_label
 _atom_site_symmetry_multiplicity
 _atom_site_fract_x
 _atom_site_fract_y
 _atom_site_fract_z
 _atom_site_occupancy
  Na  Na0  1  0.74377500  0.07615600  0.95698500  1
  Na  Na1  1  0.24377500  0.92384400  0.54301500  1
  Na  Na2  1  0.25622500  0.92384400  0.04301500  1
  Na  Na3  1  0.75622500  0.07615600  0.45698500  1
  Na  Na4  1  0.45855600  0.40198800  0.89737100  1
  Na  Na5  1  0.95855600  0.59801200  0.60262900  1
  Na  Na6  1  0.54144400  0.59801200  0.10262900  1
  Na  Na7  1  0.04144400  0.40198800  0.39737100  1
  Na  Na8  1  0.47507400  0.34656500  0.71663500  1
  Na  Na9  1  0.97507400  0.65343500  0.78336500  1
  Na  Na10  1  0.52492600  0.65343500  0.28336500  1
  Na  Na11  1  0.02492600  0.34656500  0.21663500  1
  Na  Na12  1  0.50033700  0.88837400  0.70027300  1
  Na  Na13  1  0.00033700  0.11162600  0.79972700  1
  Na  Na14  1  0.49966300  0.11162600  0.29972700  1
  Na  Na15  1  0.99966300  0.88837400  0.20027300  1
  Ga  Ga16  1  0.08659100  0.34604500  0.03655200  1
  Ga  Ga17  1  0.91340900  0.65395500  0.96344800  1
  Ga  Ga18  1  0.41340900  0.34604500  0.53655200  1
  Ga  Ga19  1  0.06737400  0.83344600  0.36572500  1
  Ga  Ga20  1  0.56737400  0.16655400  0.13427500  1
  Ga  Ga21  1  0.93262600  0.16655400  0.63427500  1
  Ga  Ga22  1  0.43262600  0.83344600  0.86572500  1
  Ga  Ga23  1  0.58659100  0.65395500  0.46344800  1
  S  S24  1  0.52372900  0.38884800  0.42614200  1
  S  S25  1  0.97627100  0.38884800  0.92614200  1
  S  S26  1  0.47627100  0.61115200  0.57385800  1
  S  S27  1  0.01566700  0.63194800  0.29268200  1
  S  S28  1  0.51566700  0.36805200  0.20731800  1
  S  S29  1  0.98433300  0.36805200  0.70731800  1
  S  S30  1  0.02372900  0.61115200  0.07385800  1
  S  S31  1  0.48433300  0.63194800  0.79268200  1
  S  S32  1  0.57061100  0.13527800  0.59762200  1
  S  S33  1  0.07061100  0.86472200  0.90237800  1
  S  S34  1  0.42938900  0.86472200  0.40237800  1
  S  S35  1  0.92938900  0.13527800  0.09762200  1
  S  S36  1  0.56368200  0.74198500  0.97009300  1
  S  S37  1  0.06368200  0.25801500  0.52990700  1
  S  S38  1  0.43631800  0.25801500  0.02990700  1
  S  S39  1  0.93631800  0.74198500  0.47009300  1
  S  S40  1  0.52271900  0.09101000  0.82765000  1
  S  S41  1  0.02271900  0.90899000  0.67235000  1
  S  S42  1  0.47728100  0.90899000  0.17235000  1
  S  S43  1  0.97728100  0.09101000  0.32765000  1
