# generated using pymatgen
data_TlBiSe2
_symmetry_space_group_name_H-M   'P 1'
_cell_length_a   8.03265633
_cell_length_b   8.03265633
_cell_length_c   8.03265640
_cell_angle_alpha   31.15736449
_cell_angle_beta   31.15736449
_cell_angle_gamma   31.15736784
_symmetry_Int_Tables_number   1
_chemical_formula_structural   TlBiSe2
_chemical_formula_sum   'Tl1 Bi1 Se2'
_cell_volume   123.11178703
_cell_formula_units_Z   1
loop_
 _symmetry_equiv_pos_site_id
 _symmetry_equiv_pos_as_xyz
  1  'x, y, z'
loop_
 _atom_site_type_symbol
 _atom_site_label
 _atom_site_symmetry_multiplicity
 _atom_site_fract_x
 _atom_site_fract_y
 _atom_site_fract_z
 _atom_site_occupancy
  Tl  Tl0  1  0.50000000  0.50000000  0.50000000  1
  Bi  Bi1  1  0.00000000  0.00000000  0.00000000  1
  Se  Se2  1  0.73887900  0.73887900  0.73887900  1
  Se  Se3  1  0.26112100  0.26112100  0.26112100  1
