# generated using pymatgen
data_FeAs4F18
_symmetry_space_group_name_H-M   'P 1'
_cell_length_a   13.17393700
_cell_length_b   7.49771100
_cell_length_c   10.43165764
_cell_angle_alpha   46.08122619
_cell_angle_beta   90.00000000
_cell_angle_gamma   90.00000000
_symmetry_Int_Tables_number   1
_chemical_formula_structural   FeAs4F18
_chemical_formula_sum   'Fe2 As8 F36'
_cell_volume   742.20762309
_cell_formula_units_Z   2
loop_
 _symmetry_equiv_pos_site_id
 _symmetry_equiv_pos_as_xyz
  1  'x, y, z'
loop_
 _atom_site_type_symbol
 _atom_site_label
 _atom_site_symmetry_multiplicity
 _atom_site_fract_x
 _atom_site_fract_y
 _atom_site_fract_z
 _atom_site_occupancy
  Fe  Fe0  1  0.00000000  0.00000000  0.00000000  1
  Fe  Fe1  1  0.50000000  0.00000000  0.50000000  1
  As  As2  1  0.21820400  0.08414000  0.48384400  1
  As  As3  1  0.71820400  0.91586000  0.01615600  1
  As  As4  1  0.50000000  0.50000000  0.00000000  1
  As  As5  1  0.00000000  0.50000000  0.50000000  1
  As  As6  1  0.50000000  0.50000000  0.50000000  1
  As  As7  1  0.00000000  0.50000000  0.00000000  1
  As  As8  1  0.28179600  0.08414000  0.98384400  1
  As  As9  1  0.78179600  0.91586000  0.51615600  1
  F  F10  1  0.74355100  0.01238100  0.31547500  1
  F  F11  1  0.24355100  0.98761900  0.18452500  1
  F  F12  1  0.25644900  0.98761900  0.68452500  1
  F  F13  1  0.75644900  0.01238100  0.81547500  1
  F  F14  1  0.96986800  0.78653800  0.94299900  1
  F  F15  1  0.46986800  0.21346200  0.55700100  1
  F  F16  1  0.03013200  0.21346200  0.05700100  1
  F  F17  1  0.53013200  0.78653800  0.44299900  1
  F  F18  1  0.87878700  0.50509300  0.92875800  1
  F  F19  1  0.37878700  0.49490700  0.57124200  1
  F  F20  1  0.12121300  0.49490700  0.07124200  1
  F  F21  1  0.62121300  0.50509300  0.42875800  1
  F  F22  1  0.04591000  0.67602200  0.78327200  1
  F  F23  1  0.54591000  0.32397800  0.71672800  1
  F  F24  1  0.95409000  0.32397800  0.21672800  1
  F  F25  1  0.45409000  0.67602200  0.28327200  1
  F  F26  1  0.75164400  0.60393600  0.64995400  1
  F  F27  1  0.25164400  0.39606400  0.85004600  1
  F  F28  1  0.96909900  0.32154100  0.73216500  1
  F  F29  1  0.46909900  0.67845900  0.76783500  1
  F  F30  1  0.03090100  0.67845900  0.26783500  1
  F  F31  1  0.53090100  0.32154100  0.23216500  1
  F  F32  1  0.05115500  0.23267000  0.55975900  1
  F  F33  1  0.55115500  0.76733000  0.94024100  1
  F  F34  1  0.94884500  0.76733000  0.44024100  1
  F  F35  1  0.44884500  0.23267000  0.05975900  1
  F  F36  1  0.88133800  0.43028100  0.47011300  1
  F  F37  1  0.38133800  0.56971900  0.02988700  1
  F  F38  1  0.11866200  0.56971900  0.52988700  1
  F  F39  1  0.61866200  0.43028100  0.97011300  1
  F  F40  1  0.24835600  0.39606400  0.35004600  1
  F  F41  1  0.74835600  0.60393600  0.14995400  1
  F  F42  1  0.65498800  0.98450800  0.55245900  1
  F  F43  1  0.15498800  0.01549200  0.94754100  1
  F  F44  1  0.84501200  0.98450800  0.05245900  1
  F  F45  1  0.34501200  0.01549200  0.44754100  1
