# generated using pymatgen
data_Ca9Zn4Bi9
_symmetry_space_group_name_H-M   'P 1'
_cell_length_a   4.69127600
_cell_length_b   12.75886600
_cell_length_c   22.27041500
_cell_angle_alpha   90.00000000
_cell_angle_beta   90.00000000
_cell_angle_gamma   90.00000000
_symmetry_Int_Tables_number   1
_chemical_formula_structural   Ca9Zn4Bi9
_chemical_formula_sum   'Ca18 Zn8 Bi18'
_cell_volume   1333.00374844
_cell_formula_units_Z   2
loop_
 _symmetry_equiv_pos_site_id
 _symmetry_equiv_pos_as_xyz
  1  'x, y, z'
loop_
 _atom_site_type_symbol
 _atom_site_label
 _atom_site_symmetry_multiplicity
 _atom_site_fract_x
 _atom_site_fract_y
 _atom_site_fract_z
 _atom_site_occupancy
  Ca  Ca0  1  0.50000000  0.50000000  0.50000000  1
  Ca  Ca1  1  0.50000000  0.00000000  0.00000000  1
  Ca  Ca2  1  0.00000000  0.87394000  0.23465600  1
  Ca  Ca3  1  0.00000000  0.12606000  0.76534400  1
  Ca  Ca4  1  0.00000000  0.37394000  0.26534400  1
  Ca  Ca5  1  0.00000000  0.62606000  0.73465600  1
  Ca  Ca6  1  0.50000000  0.70470300  0.10078400  1
  Ca  Ca7  1  0.50000000  0.29529700  0.89921600  1
  Ca  Ca8  1  0.50000000  0.20470300  0.39921600  1
  Ca  Ca9  1  0.50000000  0.79529700  0.60078400  1
  Ca  Ca10  1  0.00000000  0.92785600  0.41129900  1
  Ca  Ca11  1  0.00000000  0.07214400  0.58870100  1
  Ca  Ca12  1  0.00000000  0.42785600  0.08870100  1
  Ca  Ca13  1  0.00000000  0.57214400  0.91129900  1
  Ca  Ca14  1  0.00000000  0.63114900  0.36208400  1
  Ca  Ca15  1  0.00000000  0.36885100  0.63791600  1
  Ca  Ca16  1  0.00000000  0.13114900  0.13791600  1
  Ca  Ca17  1  0.00000000  0.86885100  0.86208400  1
  Zn  Zn18  1  0.50000000  0.72904400  0.95283200  1
  Zn  Zn19  1  0.50000000  0.27095600  0.04716800  1
  Zn  Zn20  1  0.50000000  0.22904400  0.54716800  1
  Zn  Zn21  1  0.50000000  0.77095600  0.45283200  1
  Zn  Zn22  1  0.50000000  0.88932600  0.76306500  1
  Zn  Zn23  1  0.50000000  0.11067400  0.23693500  1
  Zn  Zn24  1  0.50000000  0.38932600  0.73693500  1
  Zn  Zn25  1  0.50000000  0.61067400  0.26306500  1
  Bi  Bi26  1  0.50000000  0.00000000  0.50000000  1
  Bi  Bi27  1  0.50000000  0.50000000  0.00000000  1
  Bi  Bi28  1  0.00000000  0.61372400  0.19319300  1
  Bi  Bi29  1  0.00000000  0.38627600  0.80680700  1
  Bi  Bi30  1  0.00000000  0.11372400  0.30680700  1
  Bi  Bi31  1  0.00000000  0.88627600  0.69319300  1
  Bi  Bi32  1  0.50000000  0.80894600  0.32951000  1
  Bi  Bi33  1  0.50000000  0.19105400  0.67049000  1
  Bi  Bi34  1  0.50000000  0.30894600  0.17049000  1
  Bi  Bi35  1  0.50000000  0.69105400  0.82951000  1
  Bi  Bi36  1  0.50000000  0.95352300  0.14467700  1
  Bi  Bi37  1  0.50000000  0.04647700  0.85532300  1
  Bi  Bi38  1  0.50000000  0.45352300  0.35532300  1
  Bi  Bi39  1  0.50000000  0.54647700  0.64467700  1
  Bi  Bi40  1  0.00000000  0.80959600  0.00906100  1
  Bi  Bi41  1  0.00000000  0.19040400  0.99093900  1
  Bi  Bi42  1  0.00000000  0.30959600  0.49093900  1
  Bi  Bi43  1  0.00000000  0.69040400  0.50906100  1
