# generated using pymatgen
data_PuI3
_symmetry_space_group_name_H-M   'P 1'
_cell_length_a   8.18202611
_cell_length_b   8.18202611
_cell_length_c   10.01061800
_cell_angle_alpha   90.00000000
_cell_angle_beta   90.00000000
_cell_angle_gamma   149.92890656
_symmetry_Int_Tables_number   1
_chemical_formula_structural   PuI3
_chemical_formula_sum   'Pu2 I6'
_cell_volume   335.80305781
_cell_formula_units_Z   2
loop_
 _symmetry_equiv_pos_site_id
 _symmetry_equiv_pos_as_xyz
  1  'x, y, z'
loop_
 _atom_site_type_symbol
 _atom_site_label
 _atom_site_symmetry_multiplicity
 _atom_site_fract_x
 _atom_site_fract_y
 _atom_site_fract_z
 _atom_site_occupancy
  Pu  Pu0  1  0.26082200  0.73917800  0.25000000  1
  Pu  Pu1  1  0.73917800  0.26082200  0.75000000  1
  I  I2  1  0.65780900  0.34219100  0.43101500  1
  I  I3  1  0.34219100  0.65780900  0.56898500  1
  I  I4  1  0.09526200  0.90473800  0.75000000  1
  I  I5  1  0.90473800  0.09526200  0.25000000  1
  I  I6  1  0.65780900  0.34219100  0.06898500  1
  I  I7  1  0.34219100  0.65780900  0.93101500  1
