# generated using pymatgen
data_In2Ir
_symmetry_space_group_name_H-M   'P 1'
_cell_length_a   10.33703198
_cell_length_b   9.47525498
_cell_length_c   5.66435312
_cell_angle_alpha   81.96121555
_cell_angle_beta   65.17916701
_cell_angle_gamma   32.85961744
_symmetry_Int_Tables_number   1
_chemical_formula_structural   In2Ir
_chemical_formula_sum   'In8 Ir4'
_cell_volume   246.39978390
_cell_formula_units_Z   4
loop_
 _symmetry_equiv_pos_site_id
 _symmetry_equiv_pos_as_xyz
  1  'x, y, z'
loop_
 _atom_site_type_symbol
 _atom_site_label
 _atom_site_symmetry_multiplicity
 _atom_site_fract_x
 _atom_site_fract_y
 _atom_site_fract_z
 _atom_site_occupancy
  In  In0  1  0.59295400  0.90704600  0.59295400  1
  In  In1  1  0.90704600  0.59295400  0.90704600  1
  In  In2  1  0.91450700  0.91450700  0.08549300  1
  In  In3  1  0.34295400  0.65704600  0.34295400  1
  In  In4  1  0.08549300  0.08549300  0.91450700  1
  In  In5  1  0.16450700  0.16450700  0.33549300  1
  In  In6  1  0.65704600  0.34295400  0.65704600  1
  In  In7  1  0.33549300  0.33549300  0.16450700  1
  Ir  Ir8  1  0.62016000  0.62016000  0.87984000  1
  Ir  Ir9  1  0.37016000  0.37016000  0.62984000  1
  Ir  Ir10  1  0.87984000  0.87984000  0.62016000  1
  Ir  Ir11  1  0.62984000  0.62984000  0.37016000  1
