# generated using pymatgen
data_BaI2
_symmetry_space_group_name_H-M   'P 1'
_cell_length_a   5.41931600
_cell_length_b   9.02369800
_cell_length_c   10.84341800
_cell_angle_alpha   90.00000000
_cell_angle_beta   90.00000000
_cell_angle_gamma   90.00000000
_symmetry_Int_Tables_number   1
_chemical_formula_structural   BaI2
_chemical_formula_sum   'Ba4 I8'
_cell_volume   530.26776507
_cell_formula_units_Z   4
loop_
 _symmetry_equiv_pos_site_id
 _symmetry_equiv_pos_as_xyz
  1  'x, y, z'
loop_
 _atom_site_type_symbol
 _atom_site_label
 _atom_site_symmetry_multiplicity
 _atom_site_fract_x
 _atom_site_fract_y
 _atom_site_fract_z
 _atom_site_occupancy
  Ba  Ba0  1  0.25000000  0.24542500  0.88558000  1
  Ba  Ba1  1  0.75000000  0.75457500  0.11442000  1
  Ba  Ba2  1  0.25000000  0.74542500  0.61442000  1
  Ba  Ba3  1  0.75000000  0.25457500  0.38558000  1
  I  I4  1  0.25000000  0.02287000  0.16445100  1
  I  I5  1  0.75000000  0.97713000  0.83554900  1
  I  I6  1  0.25000000  0.52287000  0.33554900  1
  I  I7  1  0.75000000  0.47713000  0.66445100  1
  I  I8  1  0.75000000  0.35817600  0.07269000  1
  I  I9  1  0.25000000  0.64182400  0.92731000  1
  I  I10  1  0.75000000  0.85817600  0.42731000  1
  I  I11  1  0.25000000  0.14182400  0.57269000  1
