# generated using pymatgen
data_Sr2MnGaO5
_symmetry_space_group_name_H-M   'P 1'
_cell_length_a   5.44313956
_cell_length_b   5.61414198
_cell_length_c   16.34110843
_cell_angle_alpha   89.99714111
_cell_angle_beta   90.00061247
_cell_angle_gamma   90.00124069
_symmetry_Int_Tables_number   1
_chemical_formula_structural   Sr2MnGaO5
_chemical_formula_sum   'Sr8 Mn4 Ga4 O20'
_cell_volume   499.36071379
_cell_formula_units_Z   4
loop_
 _symmetry_equiv_pos_site_id
 _symmetry_equiv_pos_as_xyz
  1  'x, y, z'
loop_
 _atom_site_type_symbol
 _atom_site_label
 _atom_site_symmetry_multiplicity
 _atom_site_fract_x
 _atom_site_fract_y
 _atom_site_fract_z
 _atom_site_occupancy
  Sr  Sr0  1  0.99888500  0.48382500  0.11254200  1
  Sr  Sr1  1  0.49887200  0.98384100  0.61255300  1
  Sr  Sr2  1  0.49887000  0.01617500  0.11254700  1
  Sr  Sr3  1  0.99883300  0.51618500  0.61255700  1
  Sr  Sr4  1  0.49886800  0.01621400  0.38744800  1
  Sr  Sr5  1  0.99888400  0.51617800  0.88745700  1
  Sr  Sr6  1  0.99882000  0.48379800  0.38744500  1
  Sr  Sr7  1  0.49886500  0.98382100  0.88745500  1
  Mn  Mn8  1  0.49539200  0.49982900  0.50000700  1
  Mn  Mn9  1  0.49506400  0.50003600  0.00000300  1
  Mn  Mn10  1  0.99536300  0.99991900  0.99999300  1
  Mn  Mn11  1  0.99498500  0.00012700  0.50000800  1
  Ga  Ga12  1  0.03320300  0.93173200  0.24999900  1
  Ga  Ga13  1  0.53320500  0.43174800  0.75000200  1
  Ga  Ga14  1  0.53321000  0.56824800  0.24999400  1
  Ga  Ga15  1  0.03320500  0.06824600  0.75000000  1
  O  O16  1  0.37961800  0.87286900  0.24999300  1
  O  O17  1  0.87961600  0.37286600  0.75000600  1
  O  O18  1  0.87962200  0.62711700  0.24999200  1
  O  O19  1  0.37962000  0.12712600  0.75000700  1
  O  O20  1  0.97412100  0.04956500  0.35411300  1
  O  O21  1  0.47411300  0.54957700  0.85411700  1
  O  O22  1  0.47412600  0.45042900  0.14588400  1
  O  O23  1  0.97414300  0.95043600  0.64588100  1
  O  O24  1  0.47412900  0.45043500  0.35411800  1
  O  O25  1  0.97413300  0.95042100  0.85411800  1
  O  O26  1  0.97412600  0.04956700  0.14587900  1
  O  O27  1  0.47413200  0.54957100  0.64588100  1
  O  O28  1  0.24653400  0.75215400  0.00626800  1
  O  O29  1  0.74648500  0.25217800  0.50625600  1
  O  O30  1  0.74646900  0.74788500  0.49373700  1
  O  O31  1  0.24649100  0.24788500  0.99373600  1
  O  O32  1  0.24647400  0.75215200  0.49373200  1
  O  O33  1  0.74651200  0.25212400  0.99372900  1
  O  O34  1  0.74653600  0.74785300  0.00627500  1
  O  O35  1  0.24647500  0.24787100  0.50626800  1
