# generated using pymatgen
data_Pb2SO5
_symmetry_space_group_name_H-M   'P 1'
_cell_length_a   7.56453725
_cell_length_b   7.56453725
_cell_length_c   7.18367635
_cell_angle_alpha   67.13570222
_cell_angle_beta   67.13570222
_cell_angle_gamma   45.17374293
_symmetry_Int_Tables_number   1
_chemical_formula_structural   Pb2SO5
_chemical_formula_sum   'Pb4 S2 O10'
_cell_volume   264.47459541
_cell_formula_units_Z   2
loop_
 _symmetry_equiv_pos_site_id
 _symmetry_equiv_pos_as_xyz
  1  'x, y, z'
loop_
 _atom_site_type_symbol
 _atom_site_label
 _atom_site_symmetry_multiplicity
 _atom_site_fract_x
 _atom_site_fract_y
 _atom_site_fract_z
 _atom_site_occupancy
  Pb  Pb0  1  0.47475100  0.47475100  0.26893200  1
  Pb  Pb1  1  0.52524900  0.52524900  0.73106800  1
  Pb  Pb2  1  0.85439500  0.85439500  0.10099100  1
  Pb  Pb3  1  0.14560500  0.14560500  0.89900900  1
  S  S4  1  0.17242300  0.17242300  0.34296500  1
  S  S5  1  0.82757700  0.82757700  0.65703500  1
  O  O6  1  0.25263700  0.74736300  0.00000000  1
  O  O7  1  0.74736300  0.25263700  0.00000000  1
  O  O8  1  0.28865700  0.28865700  0.28761500  1
  O  O9  1  0.71134300  0.71134300  0.71238500  1
  O  O10  1  0.06341900  0.64372000  0.74765600  1
  O  O11  1  0.35628000  0.93658100  0.25234400  1
  O  O12  1  0.11093800  0.11093800  0.57070700  1
  O  O13  1  0.88906200  0.88906200  0.42929300  1
  O  O14  1  0.64372000  0.06341900  0.74765600  1
  O  O15  1  0.93658100  0.35628000  0.25234400  1
