# generated using pymatgen
data_KIn2F7
_symmetry_space_group_name_H-M   'P 1'
_cell_length_a   8.35054800
_cell_length_b   6.76613700
_cell_length_c   11.01815294
_cell_angle_alpha   89.97633943
_cell_angle_beta   90.00000000
_cell_angle_gamma   90.00000000
_symmetry_Int_Tables_number   1
_chemical_formula_structural   KIn2F7
_chemical_formula_sum   'K4 In8 F28'
_cell_volume   622.53607500
_cell_formula_units_Z   4
loop_
 _symmetry_equiv_pos_site_id
 _symmetry_equiv_pos_as_xyz
  1  'x, y, z'
loop_
 _atom_site_type_symbol
 _atom_site_label
 _atom_site_symmetry_multiplicity
 _atom_site_fract_x
 _atom_site_fract_y
 _atom_site_fract_z
 _atom_site_occupancy
  K  K0  1  0.75000000  0.75410000  0.25282900  1
  K  K1  1  0.25000000  0.24590000  0.74717100  1
  K  K2  1  0.75000000  0.24829900  0.74876200  1
  K  K3  1  0.25000000  0.75170100  0.25123800  1
  In  In4  1  0.50283100  0.25029900  0.05778300  1
  In  In5  1  0.00283100  0.74970100  0.94221700  1
  In  In6  1  0.49716900  0.74970100  0.94221700  1
  In  In7  1  0.99716900  0.25029900  0.05778300  1
  In  In8  1  0.99713700  0.25022900  0.44151300  1
  In  In9  1  0.49713700  0.74977100  0.55848700  1
  In  In10  1  0.00286300  0.74977100  0.55848700  1
  In  In11  1  0.50286300  0.25022900  0.44151300  1
  F  F12  1  0.52134900  0.93894800  0.10554500  1
  F  F13  1  0.02134900  0.06105200  0.89445500  1
  F  F14  1  0.47865100  0.06105200  0.89445500  1
  F  F15  1  0.97865100  0.93894800  0.10554500  1
  F  F16  1  0.52624200  0.56164600  0.10485200  1
  F  F17  1  0.02624200  0.43835400  0.89514800  1
  F  F18  1  0.47375800  0.43835400  0.89514800  1
  F  F19  1  0.97375800  0.56164600  0.10485200  1
  F  F20  1  0.50787300  0.93892500  0.39314200  1
  F  F21  1  0.00787300  0.06107500  0.60685800  1
  F  F22  1  0.49212700  0.06107500  0.60685800  1
  F  F23  1  0.99212700  0.93892500  0.39314200  1
  F  F24  1  0.75000000  0.24883400  0.01070900  1
  F  F25  1  0.25000000  0.75116600  0.98929100  1
  F  F26  1  0.75000000  0.74821600  0.91396000  1
  F  F27  1  0.25000000  0.25178400  0.08604000  1
  F  F28  1  0.75000000  0.24892000  0.47857700  1
  F  F29  1  0.25000000  0.75108000  0.52142300  1
  F  F30  1  0.75000000  0.74955800  0.56795000  1
  F  F31  1  0.25000000  0.25044200  0.43205000  1
  F  F32  1  0.95817900  0.25030700  0.24975300  1
  F  F33  1  0.45817900  0.74969300  0.75024700  1
  F  F34  1  0.04182100  0.74969300  0.75024700  1
  F  F35  1  0.54182100  0.25030700  0.24975300  1
  F  F36  1  0.99135900  0.56169400  0.39320700  1
  F  F37  1  0.49135900  0.43830600  0.60679300  1
  F  F38  1  0.00864100  0.43830600  0.60679300  1
  F  F39  1  0.50864100  0.56169400  0.39320700  1
