# generated using pymatgen
data_Sm3Si2ClO8
_symmetry_space_group_name_H-M   'P 1'
_cell_length_a   6.32324500
_cell_length_b   7.07480800
_cell_length_c   18.16531800
_cell_angle_alpha   90.00000000
_cell_angle_beta   90.00000000
_cell_angle_gamma   90.00000000
_symmetry_Int_Tables_number   1
_chemical_formula_structural   Sm3Si2ClO8
_chemical_formula_sum   'Sm12 Si8 Cl4 O32'
_cell_volume   812.63902139
_cell_formula_units_Z   4
loop_
 _symmetry_equiv_pos_site_id
 _symmetry_equiv_pos_as_xyz
  1  'x, y, z'
loop_
 _atom_site_type_symbol
 _atom_site_label
 _atom_site_symmetry_multiplicity
 _atom_site_fract_x
 _atom_site_fract_y
 _atom_site_fract_z
 _atom_site_occupancy
  Sm  Sm0  1  0.87311400  0.47718200  0.40939100  1
  Sm  Sm1  1  0.37311400  0.02281800  0.59060900  1
  Sm  Sm2  1  0.62688600  0.97718200  0.09060900  1
  Sm  Sm3  1  0.12688600  0.52281800  0.90939100  1
  Sm  Sm4  1  0.12688600  0.52281800  0.59060900  1
  Sm  Sm5  1  0.62688600  0.97718200  0.40939100  1
  Sm  Sm6  1  0.37311400  0.02281800  0.90939100  1
  Sm  Sm7  1  0.87311400  0.47718200  0.09060900  1
  Sm  Sm8  1  0.88467000  0.80583000  0.75000000  1
  Sm  Sm9  1  0.38467000  0.69417000  0.25000000  1
  Sm  Sm10  1  0.61533000  0.30583000  0.75000000  1
  Sm  Sm11  1  0.11533000  0.19417000  0.25000000  1
  Si  Si12  1  0.37889800  0.46756500  0.09993400  1
  Si  Si13  1  0.87889800  0.03243500  0.90006600  1
  Si  Si14  1  0.12110200  0.96756500  0.40006600  1
  Si  Si15  1  0.62110200  0.53243500  0.59993400  1
  Si  Si16  1  0.37889800  0.46756500  0.40006600  1
  Si  Si17  1  0.87889800  0.03243500  0.59993400  1
  Si  Si18  1  0.12110200  0.96756500  0.09993400  1
  Si  Si19  1  0.62110200  0.53243500  0.90006600  1
  Cl  Cl20  1  0.76199200  0.44493400  0.25000000  1
  Cl  Cl21  1  0.26199200  0.05506600  0.75000000  1
  Cl  Cl22  1  0.73800800  0.94493400  0.25000000  1
  Cl  Cl23  1  0.23800800  0.55506600  0.75000000  1
  O  O24  1  0.21393400  0.48223400  0.46891400  1
  O  O25  1  0.71393400  0.01776600  0.53108600  1
  O  O26  1  0.28606600  0.98223400  0.03108600  1
  O  O27  1  0.78606600  0.51776600  0.96891400  1
  O  O28  1  0.78606600  0.51776600  0.53108600  1
  O  O29  1  0.28606600  0.98223400  0.46891400  1
  O  O30  1  0.71393400  0.01776600  0.96891400  1
  O  O31  1  0.21393400  0.48223400  0.03108600  1
  O  O32  1  0.22527600  0.45477600  0.32506800  1
  O  O33  1  0.72527600  0.04522400  0.67493200  1
  O  O34  1  0.27472400  0.95477600  0.17493200  1
  O  O35  1  0.77472400  0.54522400  0.82506800  1
  O  O36  1  0.77472400  0.54522400  0.67493200  1
  O  O37  1  0.27472400  0.95477600  0.32506800  1
  O  O38  1  0.72527600  0.04522400  0.82506800  1
  O  O39  1  0.22527600  0.45477600  0.17493200  1
  O  O40  1  0.55087800  0.29662900  0.40541400  1
  O  O41  1  0.05087800  0.20337100  0.59458600  1
  O  O42  1  0.94912200  0.79662900  0.09458600  1
  O  O43  1  0.44912200  0.70337100  0.90541400  1
  O  O44  1  0.44912200  0.70337100  0.59458600  1
  O  O45  1  0.94912200  0.79662900  0.40541400  1
  O  O46  1  0.05087800  0.20337100  0.90541400  1
  O  O47  1  0.55087800  0.29662900  0.09458600  1
  O  O48  1  0.97013300  0.15454000  0.11856200  1
  O  O49  1  0.47013300  0.34546000  0.88143800  1
  O  O50  1  0.52986700  0.65454000  0.38143800  1
  O  O51  1  0.02986700  0.84546000  0.61856200  1
  O  O52  1  0.02986700  0.84546000  0.88143800  1
  O  O53  1  0.52986700  0.65454000  0.11856200  1
  O  O54  1  0.47013300  0.34546000  0.61856200  1
  O  O55  1  0.97013300  0.15454000  0.38143800  1
