# generated using pymatgen
data_PaCl5
_symmetry_space_group_name_H-M   'P 1'
_cell_length_a   7.44655003
_cell_length_b   7.44655003
_cell_length_c   8.47692126
_cell_angle_alpha   81.38941640
_cell_angle_beta   81.38941640
_cell_angle_gamma   109.73871594
_symmetry_Int_Tables_number   1
_chemical_formula_structural   PaCl5
_chemical_formula_sum   'Pa2 Cl10'
_cell_volume   427.19818226
_cell_formula_units_Z   2
loop_
 _symmetry_equiv_pos_site_id
 _symmetry_equiv_pos_as_xyz
  1  'x, y, z'
loop_
 _atom_site_type_symbol
 _atom_site_label
 _atom_site_symmetry_multiplicity
 _atom_site_fract_x
 _atom_site_fract_y
 _atom_site_fract_z
 _atom_site_occupancy
  Pa  Pa0  1  0.06863800  0.93136200  0.75000000  1
  Pa  Pa1  1  0.93136200  0.06863800  0.25000000  1
  Cl  Cl2  1  0.11670500  0.87376200  0.43646200  1
  Cl  Cl3  1  0.12623800  0.88329500  0.06353800  1
  Cl  Cl4  1  0.72549700  0.27450300  0.25000000  1
  Cl  Cl5  1  0.27450300  0.72549700  0.75000000  1
  Cl  Cl6  1  0.23822000  0.36337600  0.16924900  1
  Cl  Cl7  1  0.63662400  0.76178000  0.33075100  1
  Cl  Cl8  1  0.76178000  0.63662400  0.83075100  1
  Cl  Cl9  1  0.36337600  0.23822000  0.66924900  1
  Cl  Cl10  1  0.87376200  0.11670500  0.93646200  1
  Cl  Cl11  1  0.88329500  0.12623800  0.56353800  1
