# generated using pymatgen
data_LiNb3Cl8
_symmetry_space_group_name_H-M   'P 1'
_cell_length_a   9.36482594
_cell_length_b   9.36482594
_cell_length_c   13.65541000
_cell_angle_alpha   90.00000000
_cell_angle_beta   90.00000000
_cell_angle_gamma   91.87076367
_symmetry_Int_Tables_number   1
_chemical_formula_structural   LiNb3Cl8
_chemical_formula_sum   'Li4 Nb12 Cl32'
_cell_volume   1196.94067186
_cell_formula_units_Z   4
loop_
 _symmetry_equiv_pos_site_id
 _symmetry_equiv_pos_as_xyz
  1  'x, y, z'
loop_
 _atom_site_type_symbol
 _atom_site_label
 _atom_site_symmetry_multiplicity
 _atom_site_fract_x
 _atom_site_fract_y
 _atom_site_fract_z
 _atom_site_occupancy
  Li  Li0  1  0.41975400  0.58024600  0.41258300  1
  Li  Li1  1  0.08024600  0.91975400  0.91258300  1
  Li  Li2  1  0.58024600  0.41975400  0.58741700  1
  Li  Li3  1  0.91975400  0.08024600  0.08741700  1
  Nb  Nb4  1  0.09037700  0.90962300  0.62194700  1
  Nb  Nb5  1  0.65979400  0.65979400  0.00000000  1
  Nb  Nb6  1  0.84020600  0.84020600  0.50000000  1
  Nb  Nb7  1  0.34020600  0.34020600  0.00000000  1
  Nb  Nb8  1  0.15979400  0.15979400  0.50000000  1
  Nb  Nb9  1  0.62405100  0.37594900  0.08942800  1
  Nb  Nb10  1  0.87594900  0.12405100  0.58942800  1
  Nb  Nb11  1  0.37594900  0.62405100  0.91057200  1
  Nb  Nb12  1  0.12405100  0.87594900  0.41057200  1
  Nb  Nb13  1  0.59037700  0.40962300  0.87805300  1
  Nb  Nb14  1  0.90962300  0.09037700  0.37805300  1
  Nb  Nb15  1  0.40962300  0.59037700  0.12194700  1
  Cl  Cl16  1  0.20446600  0.42222800  0.14270400  1
  Cl  Cl17  1  0.86540700  0.86540700  0.00000000  1
  Cl  Cl18  1  0.63459300  0.63459300  0.50000000  1
  Cl  Cl19  1  0.13459300  0.13459300  0.00000000  1
  Cl  Cl20  1  0.36540700  0.36540700  0.50000000  1
  Cl  Cl21  1  0.79428100  0.20571900  0.20665100  1
  Cl  Cl22  1  0.70571900  0.29428100  0.70665100  1
  Cl  Cl23  1  0.20571900  0.79428100  0.79334900  1
  Cl  Cl24  1  0.29428100  0.70571900  0.29334900  1
  Cl  Cl25  1  0.45977000  0.54023000  0.74883600  1
  Cl  Cl26  1  0.04023000  0.95977000  0.24883600  1
  Cl  Cl27  1  0.54023000  0.45977000  0.25116400  1
  Cl  Cl28  1  0.29553400  0.07777200  0.64270400  1
  Cl  Cl29  1  0.33290000  0.04100800  0.39318900  1
  Cl  Cl30  1  0.07777200  0.29553400  0.35729600  1
  Cl  Cl31  1  0.42222800  0.20446600  0.85729600  1
  Cl  Cl32  1  0.70446600  0.92222800  0.35729600  1
  Cl  Cl33  1  0.79553400  0.57777200  0.85729600  1
  Cl  Cl34  1  0.92222800  0.70446600  0.64270400  1
  Cl  Cl35  1  0.57777200  0.79553400  0.14270400  1
  Cl  Cl36  1  0.04100800  0.33290000  0.60681100  1
  Cl  Cl37  1  0.16710000  0.45899200  0.89318900  1
  Cl  Cl38  1  0.75441700  0.24558300  0.96045000  1
  Cl  Cl39  1  0.45899200  0.16710000  0.10681100  1
  Cl  Cl40  1  0.66710000  0.95899200  0.60681100  1
  Cl  Cl41  1  0.83290000  0.54100800  0.10681100  1
  Cl  Cl42  1  0.95899200  0.66710000  0.39318900  1
  Cl  Cl43  1  0.54100800  0.83290000  0.89318900  1
  Cl  Cl44  1  0.25441700  0.74558300  0.53955000  1
  Cl  Cl45  1  0.24558300  0.75441700  0.03955000  1
  Cl  Cl46  1  0.74558300  0.25441700  0.46045000  1
  Cl  Cl47  1  0.95977000  0.04023000  0.75116400  1
