# generated using pymatgen
data_KSb2F7
_symmetry_space_group_name_H-M   'P 1'
_cell_length_a   7.64477000
_cell_length_b   8.72505700
_cell_length_c   10.99778228
_cell_angle_alpha   78.75804139
_cell_angle_beta   90.00000000
_cell_angle_gamma   90.00000000
_symmetry_Int_Tables_number   1
_chemical_formula_structural   KSb2F7
_chemical_formula_sum   'K4 Sb8 F28'
_cell_volume   719.48852807
_cell_formula_units_Z   4
loop_
 _symmetry_equiv_pos_site_id
 _symmetry_equiv_pos_as_xyz
  1  'x, y, z'
loop_
 _atom_site_type_symbol
 _atom_site_label
 _atom_site_symmetry_multiplicity
 _atom_site_fract_x
 _atom_site_fract_y
 _atom_site_fract_z
 _atom_site_occupancy
  K  K0  1  0.33589300  0.32686900  0.42934100  1
  K  K1  1  0.83589300  0.17313100  0.57065900  1
  K  K2  1  0.66410700  0.67313100  0.57065900  1
  K  K3  1  0.16410700  0.82686900  0.42934100  1
  Sb  Sb4  1  0.68374000  0.99078300  0.25875600  1
  Sb  Sb5  1  0.18374000  0.50921700  0.74124400  1
  Sb  Sb6  1  0.31626000  0.00921700  0.74124400  1
  Sb  Sb7  1  0.81626000  0.49078300  0.25875600  1
  Sb  Sb8  1  0.32173100  0.65362300  0.10776000  1
  Sb  Sb9  1  0.82173100  0.84637700  0.89224000  1
  Sb  Sb10  1  0.67826900  0.34637700  0.89224000  1
  Sb  Sb11  1  0.17826900  0.15362300  0.10776000  1
  F  F12  1  0.43380000  0.05523300  0.12720700  1
  F  F13  1  0.93380000  0.44476700  0.87279300  1
  F  F14  1  0.56620000  0.94476700  0.87279300  1
  F  F15  1  0.06620000  0.55523300  0.12720700  1
  F  F16  1  0.11126200  0.93091800  0.12643000  1
  F  F17  1  0.61126200  0.56908200  0.87357000  1
  F  F18  1  0.88873800  0.06908200  0.87357000  1
  F  F19  1  0.38873800  0.43091800  0.12643000  1
  F  F20  1  0.20281100  0.13121600  0.28738900  1
  F  F21  1  0.70281100  0.36878400  0.71261100  1
  F  F22  1  0.79718900  0.86878400  0.71261100  1
  F  F23  1  0.29718900  0.63121600  0.28738900  1
  F  F24  1  0.88236500  0.68869600  0.30772400  1
  F  F25  1  0.38236500  0.81130400  0.69227600  1
  F  F26  1  0.11763500  0.31130400  0.69227600  1
  F  F27  1  0.61763500  0.18869600  0.30772400  1
  F  F28  1  0.58705700  0.68264200  0.14944100  1
  F  F29  1  0.08705700  0.81735800  0.85055900  1
  F  F30  1  0.41294300  0.31735800  0.85055900  1
  F  F31  1  0.91294300  0.18264200  0.14944100  1
  F  F32  1  0.65781800  0.46423200  0.40781900  1
  F  F33  1  0.15781800  0.03576800  0.59218100  1
  F  F34  1  0.34218200  0.53576800  0.59218100  1
  F  F35  1  0.84218200  0.96423200  0.40781900  1
  F  F36  1  0.98949400  0.38047400  0.37987200  1
  F  F37  1  0.48949400  0.11952600  0.62012800  1
  F  F38  1  0.01050600  0.61952600  0.62012800  1
  F  F39  1  0.51050600  0.88047400  0.37987200  1
