# generated using pymatgen
data_Y5C2I9
_symmetry_space_group_name_H-M   'P 1'
_cell_length_a   17.48356200
_cell_length_b   10.93215700
_cell_length_c   14.30690899
_cell_angle_alpha   58.41131532
_cell_angle_beta   90.00000000
_cell_angle_gamma   90.00000000
_symmetry_Int_Tables_number   1
_chemical_formula_structural   Y5C2I9
_chemical_formula_sum   'Y20 C8 I36'
_cell_volume   2329.34988378
_cell_formula_units_Z   4
loop_
 _symmetry_equiv_pos_site_id
 _symmetry_equiv_pos_as_xyz
  1  'x, y, z'
loop_
 _atom_site_type_symbol
 _atom_site_label
 _atom_site_symmetry_multiplicity
 _atom_site_fract_x
 _atom_site_fract_y
 _atom_site_fract_z
 _atom_site_occupancy
  Y  Y0  1  0.44682800  0.01240800  0.24744600  1
  Y  Y1  1  0.55789200  0.33812000  0.19912800  1
  Y  Y2  1  0.94210800  0.33812000  0.69912800  1
  Y  Y3  1  0.44210800  0.66188000  0.80087200  1
  Y  Y4  1  0.55317200  0.98759200  0.75255400  1
  Y  Y5  1  0.46086600  0.15129300  0.46647200  1
  Y  Y6  1  0.05789200  0.66188000  0.30087200  1
  Y  Y7  1  0.94682800  0.98759200  0.25255400  1
  Y  Y8  1  0.67919800  0.19840800  0.44614100  1
  Y  Y9  1  0.17919800  0.80159200  0.05385900  1
  Y  Y10  1  0.32080200  0.80159200  0.55385900  1
  Y  Y11  1  0.82080200  0.19840800  0.94614100  1
  Y  Y12  1  0.96086600  0.84870700  0.03352800  1
  Y  Y13  1  0.53913400  0.84870700  0.53352800  1
  Y  Y14  1  0.03913400  0.15129300  0.96647200  1
  Y  Y15  1  0.34442900  0.98387500  0.71643300  1
  Y  Y16  1  0.84442900  0.01612500  0.78356700  1
  Y  Y17  1  0.65557100  0.01612500  0.28356700  1
  Y  Y18  1  0.05317200  0.01240800  0.74744600  1
  Y  Y19  1  0.15557100  0.98387500  0.21643300  1
  C  C20  1  0.46926200  0.93046600  0.66234700  1
  C  C21  1  0.58431900  0.12228700  0.38331300  1
  C  C22  1  0.91568100  0.12228700  0.88331300  1
  C  C23  1  0.41568100  0.87771300  0.61668700  1
  C  C24  1  0.03073800  0.93046600  0.16234700  1
  C  C25  1  0.53073800  0.06953400  0.33765300  1
  C  C26  1  0.96926200  0.06953400  0.83765300  1
  C  C27  1  0.08431900  0.87771300  0.11668700  1
  I  I28  1  0.05828500  0.31584100  0.54307300  1
  I  I29  1  0.81893400  0.49579600  0.75041900  1
  I  I30  1  0.68106600  0.49579600  0.25041900  1
  I  I31  1  0.18106600  0.50420400  0.24958100  1
  I  I32  1  0.30263200  0.09431300  0.33215100  1
  I  I33  1  0.80263200  0.90568700  0.16784900  1
  I  I34  1  0.69736800  0.90568700  0.66784900  1
  I  I35  1  0.19736800  0.09431300  0.83215100  1
  I  I36  1  0.19233100  0.90647800  0.64183600  1
  I  I37  1  0.69233100  0.09352200  0.85816400  1
  I  I38  1  0.80766900  0.09352200  0.35816400  1
  I  I39  1  0.30766900  0.90647800  0.14183600  1
  I  I40  1  0.17341200  0.28129300  0.03316700  1
  I  I41  1  0.67341200  0.71870700  0.46683300  1
  I  I42  1  0.82658800  0.71870700  0.96683300  1
  I  I43  1  0.32658800  0.28129300  0.53316700  1
  I  I44  1  0.93743400  0.53614900  0.23420600  1
  I  I45  1  0.43743400  0.46385100  0.26579400  1
  I  I46  1  0.06256600  0.46385100  0.76579400  1
  I  I47  1  0.56256600  0.53614900  0.73420600  1
  I  I48  1  0.31893400  0.50420400  0.74958100  1
  I  I49  1  0.56547800  0.90990200  0.15499800  1
  I  I50  1  0.93452200  0.90990200  0.65499800  1
  I  I51  1  0.43452200  0.09009800  0.84500200  1
  I  I52  1  0.18316400  0.70079800  0.43917700  1
  I  I53  1  0.68316400  0.29920200  0.06082300  1
  I  I54  1  0.81683600  0.29920200  0.56082300  1
  I  I55  1  0.31683600  0.70079800  0.93917700  1
  I  I56  1  0.55828500  0.68415900  0.95692700  1
  I  I57  1  0.94171500  0.68415900  0.45692700  1
  I  I58  1  0.44171500  0.31584100  0.04307300  1
  I  I59  1  0.06675600  0.70065200  0.94328400  1
  I  I60  1  0.56675600  0.29934800  0.55671600  1
  I  I61  1  0.93324400  0.29934800  0.05671600  1
  I  I62  1  0.43324400  0.70065200  0.44328400  1
  I  I63  1  0.06547800  0.09009800  0.34500200  1
