# generated using pymatgen
data_EuGa3Co2
_symmetry_space_group_name_H-M   'P 1'
_cell_length_a   6.26967752
_cell_length_b   6.26967752
_cell_length_c   5.27714200
_cell_angle_alpha   90.00000000
_cell_angle_beta   90.00000000
_cell_angle_gamma   103.90009065
_symmetry_Int_Tables_number   1
_chemical_formula_structural   EuGa3Co2
_chemical_formula_sum   'Eu2 Ga6 Co4'
_cell_volume   201.36381060
_cell_formula_units_Z   2
loop_
 _symmetry_equiv_pos_site_id
 _symmetry_equiv_pos_as_xyz
  1  'x, y, z'
loop_
 _atom_site_type_symbol
 _atom_site_label
 _atom_site_symmetry_multiplicity
 _atom_site_fract_x
 _atom_site_fract_y
 _atom_site_fract_z
 _atom_site_occupancy
  Eu  Eu0  1  0.34518100  0.34518100  0.25000000  1
  Eu  Eu1  1  0.65481900  0.65481900  0.75000000  1
  Ga  Ga2  1  0.91552700  0.52754100  0.25000000  1
  Ga  Ga3  1  0.08447300  0.47245900  0.75000000  1
  Ga  Ga4  1  0.05152000  0.05152000  0.75000000  1
  Ga  Ga5  1  0.94848000  0.94848000  0.25000000  1
  Ga  Ga6  1  0.47245900  0.08447300  0.75000000  1
  Ga  Ga7  1  0.52754100  0.91552700  0.25000000  1
  Co  Co8  1  0.20383300  0.79616700  0.00000000  1
  Co  Co9  1  0.79616700  0.20383300  0.50000000  1
  Co  Co10  1  0.79616700  0.20383300  0.00000000  1
  Co  Co11  1  0.20383300  0.79616700  0.50000000  1
