# generated using pymatgen
data_CsFeP2O7
_symmetry_space_group_name_H-M   'P 1'
_cell_length_a   10.11283900
_cell_length_b   7.80870000
_cell_length_c   8.51503516
_cell_angle_alpha   75.03671728
_cell_angle_beta   90.00000000
_cell_angle_gamma   90.00000000
_symmetry_Int_Tables_number   1
_chemical_formula_structural   CsFeP2O7
_chemical_formula_sum   'Cs4 Fe4 P8 O28'
_cell_volume   649.61573099
_cell_formula_units_Z   4
loop_
 _symmetry_equiv_pos_site_id
 _symmetry_equiv_pos_as_xyz
  1  'x, y, z'
loop_
 _atom_site_type_symbol
 _atom_site_label
 _atom_site_symmetry_multiplicity
 _atom_site_fract_x
 _atom_site_fract_y
 _atom_site_fract_z
 _atom_site_occupancy
  Cs  Cs0  1  0.20595300  0.69811900  0.46201600  1
  Cs  Cs1  1  0.70595300  0.30188100  0.03798400  1
  Cs  Cs2  1  0.79404700  0.30188100  0.53798400  1
  Cs  Cs3  1  0.29404700  0.69811900  0.96201600  1
  Fe  Fe4  1  0.10110800  0.25936700  0.25793600  1
  Fe  Fe5  1  0.60110800  0.74063300  0.24206400  1
  Fe  Fe6  1  0.89889200  0.74063300  0.74206400  1
  Fe  Fe7  1  0.39889200  0.25936700  0.75793600  1
  P  P8  1  0.87487200  0.92211600  0.31898900  1
  P  P9  1  0.37487200  0.07788400  0.18101100  1
  P  P10  1  0.12512800  0.07788400  0.68101100  1
  P  P11  1  0.62512800  0.92211600  0.81898900  1
  P  P12  1  0.09306900  0.36933200  0.83359100  1
  P  P13  1  0.59306900  0.63066800  0.66640900  1
  P  P14  1  0.90693100  0.63066800  0.16640900  1
  P  P15  1  0.40693100  0.36933200  0.33359100  1
  O  O16  1  0.72865500  0.93190600  0.26770600  1
  O  O17  1  0.22865500  0.06809400  0.23229400  1
  O  O18  1  0.27134500  0.06809400  0.73229400  1
  O  O19  1  0.77134500  0.93190600  0.76770600  1
  O  O20  1  0.93449200  0.10864100  0.27135900  1
  O  O21  1  0.43449200  0.89135900  0.22864100  1
  O  O22  1  0.06550800  0.89135900  0.72864100  1
  O  O23  1  0.56550800  0.10864100  0.77135900  1
  O  O24  1  0.89988100  0.82028100  0.49448000  1
  O  O25  1  0.39988100  0.17971900  0.00552000  1
  O  O26  1  0.10011900  0.17971900  0.50552000  1
  O  O27  1  0.60011900  0.82028100  0.99448000  1
  O  O28  1  0.04572000  0.18560200  0.79330700  1
  O  O29  1  0.54572000  0.81439800  0.70669300  1
  O  O30  1  0.95428000  0.81439800  0.20669300  1
  O  O31  1  0.45428000  0.18560200  0.29330700  1
  O  O32  1  0.49915000  0.51390100  0.23548300  1
  O  O33  1  0.99915000  0.48609900  0.26451700  1
  O  O34  1  0.50085000  0.48609900  0.76451700  1
  O  O35  1  0.00085000  0.51390100  0.73548300  1
  O  O36  1  0.26459400  0.40667100  0.27011300  1
  O  O37  1  0.76459400  0.59332900  0.22988700  1
  O  O38  1  0.73540600  0.59332900  0.72988700  1
  O  O39  1  0.23540600  0.40667100  0.77011300  1
  O  O40  1  0.41937100  0.33979900  0.51579100  1
  O  O41  1  0.91937100  0.66020100  0.98420900  1
  O  O42  1  0.58062900  0.66020100  0.48420900  1
  O  O43  1  0.08062900  0.33979900  0.01579100  1
