# generated using pymatgen
data_LaP2
_symmetry_space_group_name_H-M   'P 1'
_cell_length_a   9.40460700
_cell_length_b   9.40460700
_cell_length_c   8.84827626
_cell_angle_alpha   62.04110034
_cell_angle_beta   62.04110034
_cell_angle_gamma   96.27085933
_symmetry_Int_Tables_number   1
_chemical_formula_structural   LaP2
_chemical_formula_sum   'La8 P16'
_cell_volume   553.62085782
_cell_formula_units_Z   8
loop_
 _symmetry_equiv_pos_site_id
 _symmetry_equiv_pos_as_xyz
  1  'x, y, z'
loop_
 _atom_site_type_symbol
 _atom_site_label
 _atom_site_symmetry_multiplicity
 _atom_site_fract_x
 _atom_site_fract_y
 _atom_site_fract_z
 _atom_site_occupancy
  La  La0  1  0.59192400  0.66869300  0.44233800  1
  La  La1  1  0.66869300  0.59192400  0.94233800  1
  La  La2  1  0.44093000  0.05645700  0.50160300  1
  La  La3  1  0.05645700  0.44093000  0.00160300  1
  La  La4  1  0.06920500  0.98334200  0.35276800  1
  La  La5  1  0.98334200  0.06920500  0.85276800  1
  La  La6  1  0.67978000  0.22563700  0.69655500  1
  La  La7  1  0.22563700  0.67978000  0.19655500  1
  P  P8  1  0.27876400  0.04783900  0.90506600  1
  P  P9  1  0.04783900  0.27876400  0.40506600  1
  P  P10  1  0.35059400  0.28326600  0.89616600  1
  P  P11  1  0.28326600  0.35059400  0.39616600  1
  P  P12  1  0.20765800  0.46537400  0.58991800  1
  P  P13  1  0.46537400  0.20765800  0.08991800  1
  P  P14  1  0.41129900  0.92116200  0.25169600  1
  P  P15  1  0.92116200  0.41129900  0.75169600  1
  P  P16  1  0.43134100  0.69686000  0.80059200  1
  P  P17  1  0.69686000  0.43134100  0.30059200  1
  P  P18  1  0.68119600  0.93575900  0.59979200  1
  P  P19  1  0.93575900  0.68119600  0.09979200  1
  P  P20  1  0.04712500  0.80428200  0.75992100  1
  P  P21  1  0.80428200  0.04712500  0.25992100  1
  P  P22  1  0.86457800  0.60413400  0.54528700  1
  P  P23  1  0.60413400  0.86457800  0.04528700  1
