# generated using pymatgen
data_PrSnPt
_symmetry_space_group_name_H-M   'P 1'
_cell_length_a   7.67590102
_cell_length_b   7.67590102
_cell_length_c   4.17851900
_cell_angle_alpha   90.00000000
_cell_angle_beta   90.00000000
_cell_angle_gamma   119.99999157
_symmetry_Int_Tables_number   1
_chemical_formula_structural   PrSnPt
_chemical_formula_sum   'Pr3 Sn3 Pt3'
_cell_volume   213.21206771
_cell_formula_units_Z   3
loop_
 _symmetry_equiv_pos_site_id
 _symmetry_equiv_pos_as_xyz
  1  'x, y, z'
loop_
 _atom_site_type_symbol
 _atom_site_label
 _atom_site_symmetry_multiplicity
 _atom_site_fract_x
 _atom_site_fract_y
 _atom_site_fract_z
 _atom_site_occupancy
  Pr  Pr0  1  0.58932400  0.58932400  0.00000000  1
  Pr  Pr1  1  0.41067600  0.00000000  0.00000000  1
  Pr  Pr2  1  0.00000000  0.41067600  0.00000000  1
  Sn  Sn3  1  0.00000000  0.74762200  0.50000000  1
  Sn  Sn4  1  0.25237800  0.25237800  0.50000000  1
  Sn  Sn5  1  0.74762200  0.00000000  0.50000000  1
  Pt  Pt6  1  0.66666700  0.33333300  0.50000000  1
  Pt  Pt7  1  0.00000000  0.00000000  0.00000000  1
  Pt  Pt8  1  0.33333300  0.66666700  0.50000000  1
