# generated using pymatgen
data_Rb3BiO3
_symmetry_space_group_name_H-M   'P 1'
_cell_length_a   8.97140100
_cell_length_b   8.97140100
_cell_length_c   8.97140100
_cell_angle_alpha   90.00000000
_cell_angle_beta   90.00000000
_cell_angle_gamma   90.00000000
_symmetry_Int_Tables_number   1
_chemical_formula_structural   Rb3BiO3
_chemical_formula_sum   'Rb12 Bi4 O12'
_cell_volume   722.07250298
_cell_formula_units_Z   4
loop_
 _symmetry_equiv_pos_site_id
 _symmetry_equiv_pos_as_xyz
  1  'x, y, z'
loop_
 _atom_site_type_symbol
 _atom_site_label
 _atom_site_symmetry_multiplicity
 _atom_site_fract_x
 _atom_site_fract_y
 _atom_site_fract_z
 _atom_site_occupancy
  Rb  Rb0  1  0.28439600  0.28439600  0.28439600  1
  Rb  Rb1  1  0.21560400  0.71560400  0.78439600  1
  Rb  Rb2  1  0.78439600  0.21560400  0.71560400  1
  Rb  Rb3  1  0.71560400  0.78439600  0.21560400  1
  Rb  Rb4  1  0.71020600  0.21020600  0.28979400  1
  Rb  Rb5  1  0.78979400  0.78979400  0.78979400  1
  Rb  Rb6  1  0.97891800  0.52108200  0.47891800  1
  Rb  Rb7  1  0.52108200  0.47891800  0.97891800  1
  Rb  Rb8  1  0.47891800  0.97891800  0.52108200  1
  Rb  Rb9  1  0.02108200  0.02108200  0.02108200  1
  Rb  Rb10  1  0.21020600  0.28979400  0.71020600  1
  Rb  Rb11  1  0.28979400  0.71020600  0.21020600  1
  Bi  Bi12  1  0.48619400  0.01380600  0.98619400  1
  Bi  Bi13  1  0.01380600  0.98619400  0.48619400  1
  Bi  Bi14  1  0.98619400  0.48619400  0.01380600  1
  Bi  Bi15  1  0.51380600  0.51380600  0.51380600  1
  O  O16  1  0.43891900  0.00352400  0.21510000  1
  O  O17  1  0.93891900  0.49647600  0.78490000  1
  O  O18  1  0.56108100  0.50352400  0.28490000  1
  O  O19  1  0.49647600  0.78490000  0.93891900  1
  O  O20  1  0.00352400  0.21510000  0.43891900  1
  O  O21  1  0.21510000  0.43891900  0.00352400  1
  O  O22  1  0.50352400  0.28490000  0.56108100  1
  O  O23  1  0.99647600  0.71510000  0.06108100  1
  O  O24  1  0.71510000  0.06108100  0.99647600  1
  O  O25  1  0.06108100  0.99647600  0.71510000  1
  O  O26  1  0.28490000  0.56108100  0.50352400  1
  O  O27  1  0.78490000  0.93891900  0.49647600  1
