# generated using pymatgen
data_RbAsSe2
_symmetry_space_group_name_H-M   'P 1'
_cell_length_a   12.97010294
_cell_length_b   12.97010294
_cell_length_c   9.70024805
_cell_angle_alpha   79.07653468
_cell_angle_beta   79.07653468
_cell_angle_gamma   46.34282109
_symmetry_Int_Tables_number   1
_chemical_formula_structural   RbAsSe2
_chemical_formula_sum   'Rb8 As8 Se16'
_cell_volume   1155.23510947
_cell_formula_units_Z   8
loop_
 _symmetry_equiv_pos_site_id
 _symmetry_equiv_pos_as_xyz
  1  'x, y, z'
loop_
 _atom_site_type_symbol
 _atom_site_label
 _atom_site_symmetry_multiplicity
 _atom_site_fract_x
 _atom_site_fract_y
 _atom_site_fract_z
 _atom_site_occupancy
  Rb  Rb0  1  0.46537100  0.53462900  0.75000000  1
  Rb  Rb1  1  0.53462900  0.46537100  0.25000000  1
  Rb  Rb2  1  0.00072900  0.99927100  0.75000000  1
  Rb  Rb3  1  0.99927100  0.00072900  0.25000000  1
  Rb  Rb4  1  0.12391100  0.27127600  0.17246400  1
  Rb  Rb5  1  0.72872400  0.87608900  0.32753600  1
  Rb  Rb6  1  0.87608900  0.72872400  0.82753600  1
  Rb  Rb7  1  0.27127600  0.12391100  0.67246400  1
  As  As8  1  0.51031900  0.79500900  0.95715400  1
  As  As9  1  0.80879100  0.41006100  0.84963900  1
  As  As10  1  0.58993900  0.19120900  0.65036100  1
  As  As11  1  0.19120900  0.58993900  0.15036100  1
  As  As12  1  0.41006100  0.80879100  0.34963900  1
  As  As13  1  0.20499100  0.48968100  0.54284600  1
  As  As14  1  0.48968100  0.20499100  0.04284600  1
  As  As15  1  0.79500900  0.51031900  0.45715400  1
  Se  Se16  1  0.19113300  0.01636100  0.44196600  1
  Se  Se17  1  0.98363900  0.80886700  0.05803400  1
  Se  Se18  1  0.80886700  0.98363900  0.55803400  1
  Se  Se19  1  0.91175600  0.47957200  0.65595100  1
  Se  Se20  1  0.01636100  0.19113300  0.94196600  1
  Se  Se21  1  0.47957200  0.91175600  0.15595100  1
  Se  Se22  1  0.08824400  0.52042800  0.34404900  1
  Se  Se23  1  0.52042800  0.08824400  0.84404900  1
  Se  Se24  1  0.77558000  0.34113600  0.50738000  1
  Se  Se25  1  0.65886400  0.22442000  0.99262000  1
  Se  Se26  1  0.22442000  0.65886400  0.49262000  1
  Se  Se27  1  0.34113600  0.77558000  0.00738000  1
  Se  Se28  1  0.55832000  0.74376000  0.53422500  1
  Se  Se29  1  0.25624000  0.44168000  0.96577500  1
  Se  Se30  1  0.44168000  0.25624000  0.46577500  1
  Se  Se31  1  0.74376000  0.55832000  0.03422500  1
