# generated using pymatgen
data_Zr3AlN
_symmetry_space_group_name_H-M   'P 1'
_cell_length_a   6.02805703
_cell_length_b   6.02805703
_cell_length_c   9.03158700
_cell_angle_alpha   90.00000000
_cell_angle_beta   90.00000000
_cell_angle_gamma   147.37426998
_symmetry_Int_Tables_number   1
_chemical_formula_structural   Zr3AlN
_chemical_formula_sum   'Zr6 Al2 N2'
_cell_volume   176.94065122
_cell_formula_units_Z   2
loop_
 _symmetry_equiv_pos_site_id
 _symmetry_equiv_pos_as_xyz
  1  'x, y, z'
loop_
 _atom_site_type_symbol
 _atom_site_label
 _atom_site_symmetry_multiplicity
 _atom_site_fract_x
 _atom_site_fract_y
 _atom_site_fract_z
 _atom_site_occupancy
  Zr  Zr0  1  0.95485700  0.04514300  0.75000000  1
  Zr  Zr1  1  0.04514300  0.95485700  0.25000000  1
  Zr  Zr2  1  0.62693400  0.37306600  0.54243700  1
  Zr  Zr3  1  0.37306600  0.62693400  0.45756300  1
  Zr  Zr4  1  0.37306600  0.62693400  0.04243700  1
  Zr  Zr5  1  0.62693400  0.37306600  0.95756300  1
  Al  Al6  1  0.74768600  0.25231400  0.25000000  1
  Al  Al7  1  0.25231400  0.74768600  0.75000000  1
  N  N8  1  0.00000000  0.00000000  0.50000000  1
  N  N9  1  0.00000000  0.00000000  0.00000000  1
