# generated using pymatgen
data_Y2InCl7
_symmetry_space_group_name_H-M   'P 1'
_cell_length_a   6.98600100
_cell_length_b   12.71176000
_cell_length_c   13.23125800
_cell_angle_alpha   90.00000000
_cell_angle_beta   90.00000000
_cell_angle_gamma   90.00000000
_symmetry_Int_Tables_number   1
_chemical_formula_structural   Y2InCl7
_chemical_formula_sum   'Y8 In4 Cl28'
_cell_volume   1174.99350548
_cell_formula_units_Z   4
loop_
 _symmetry_equiv_pos_site_id
 _symmetry_equiv_pos_as_xyz
  1  'x, y, z'
loop_
 _atom_site_type_symbol
 _atom_site_label
 _atom_site_symmetry_multiplicity
 _atom_site_fract_x
 _atom_site_fract_y
 _atom_site_fract_z
 _atom_site_occupancy
  Y  Y0  1  0.25000000  0.96480900  0.73696000  1
  Y  Y1  1  0.75000000  0.03519100  0.26304000  1
  Y  Y2  1  0.75000000  0.46480900  0.76304000  1
  Y  Y3  1  0.25000000  0.53519100  0.23696000  1
  Y  Y4  1  0.25000000  0.66244200  0.74811900  1
  Y  Y5  1  0.75000000  0.33755800  0.25188100  1
  Y  Y6  1  0.75000000  0.16244200  0.75188100  1
  Y  Y7  1  0.25000000  0.83755800  0.24811900  1
  In  In8  1  0.25000000  0.30173300  0.53900200  1
  In  In9  1  0.75000000  0.69826700  0.46099800  1
  In  In10  1  0.75000000  0.80173300  0.96099800  1
  In  In11  1  0.25000000  0.19826700  0.03900200  1
  Cl  Cl12  1  0.99095000  0.45535900  0.36929700  1
  Cl  Cl13  1  0.49095000  0.54464100  0.63070300  1
  Cl  Cl14  1  0.00905000  0.95535900  0.13070300  1
  Cl  Cl15  1  0.50905000  0.04464100  0.86929700  1
  Cl  Cl16  1  0.00905000  0.54464100  0.63070300  1
  Cl  Cl17  1  0.50905000  0.45535900  0.36929700  1
  Cl  Cl18  1  0.99095000  0.04464100  0.86929700  1
  Cl  Cl19  1  0.49095000  0.95535900  0.13070300  1
  Cl  Cl20  1  0.01105000  0.41605700  0.12071400  1
  Cl  Cl21  1  0.51105000  0.58394300  0.87928600  1
  Cl  Cl22  1  0.98895000  0.91605700  0.37928600  1
  Cl  Cl23  1  0.48895000  0.08394300  0.62071400  1
  Cl  Cl24  1  0.25000000  0.68374300  0.39233300  1
  Cl  Cl25  1  0.75000000  0.31625700  0.60766700  1
  Cl  Cl26  1  0.75000000  0.18374300  0.10766700  1
  Cl  Cl27  1  0.25000000  0.81625700  0.89233300  1
  Cl  Cl28  1  0.49179300  0.68832800  0.17340300  1
  Cl  Cl29  1  0.99179300  0.31167200  0.82659700  1
  Cl  Cl30  1  0.50820700  0.18832800  0.32659700  1
  Cl  Cl31  1  0.00820700  0.81167200  0.67340300  1
  Cl  Cl32  1  0.50820700  0.31167200  0.82659700  1
  Cl  Cl33  1  0.00820700  0.68832800  0.17340300  1
  Cl  Cl34  1  0.49179300  0.81167200  0.67340300  1
  Cl  Cl35  1  0.99179300  0.18832800  0.32659700  1
  Cl  Cl36  1  0.51105000  0.91605700  0.37928600  1
  Cl  Cl37  1  0.01105000  0.08394300  0.62071400  1
  Cl  Cl38  1  0.48895000  0.41605700  0.12071400  1
  Cl  Cl39  1  0.98895000  0.58394300  0.87928600  1
