# generated using pymatgen
data_K2PrBr5
_symmetry_space_group_name_H-M   'P 1'
_cell_length_a   8.64896800
_cell_length_b   9.28755800
_cell_length_c   13.70238000
_cell_angle_alpha   90.00000000
_cell_angle_beta   90.00000000
_cell_angle_gamma   90.00000000
_symmetry_Int_Tables_number   1
_chemical_formula_structural   K2PrBr5
_chemical_formula_sum   'K8 Pr4 Br20'
_cell_volume   1100.68192972
_cell_formula_units_Z   4
loop_
 _symmetry_equiv_pos_site_id
 _symmetry_equiv_pos_as_xyz
  1  'x, y, z'
loop_
 _atom_site_type_symbol
 _atom_site_label
 _atom_site_symmetry_multiplicity
 _atom_site_fract_x
 _atom_site_fract_y
 _atom_site_fract_z
 _atom_site_occupancy
  K  K0  1  0.44332000  0.50518900  0.67232500  1
  K  K1  1  0.94332000  0.49481100  0.82767500  1
  K  K2  1  0.55668000  0.00518900  0.32767500  1
  K  K3  1  0.05668000  0.99481100  0.17232500  1
  K  K4  1  0.55668000  0.49481100  0.32767500  1
  K  K5  1  0.05668000  0.50518900  0.17232500  1
  K  K6  1  0.44332000  0.99481100  0.67232500  1
  K  K7  1  0.94332000  0.00518900  0.82767500  1
  Pr  Pr8  1  0.92199500  0.75000000  0.50588800  1
  Pr  Pr9  1  0.57800500  0.75000000  0.00588800  1
  Pr  Pr10  1  0.07800500  0.25000000  0.49411200  1
  Pr  Pr11  1  0.42199500  0.25000000  0.99411200  1
  Br  Br12  1  0.57518200  0.75000000  0.50756500  1
  Br  Br13  1  0.33304900  0.95498600  0.92423400  1
  Br  Br14  1  0.83304900  0.04501400  0.57576600  1
  Br  Br15  1  0.66695100  0.45498600  0.07576600  1
  Br  Br16  1  0.07518200  0.25000000  0.99243500  1
  Br  Br17  1  0.66018900  0.75000000  0.79520700  1
  Br  Br18  1  0.92481800  0.75000000  0.00756500  1
  Br  Br19  1  0.42481800  0.25000000  0.49243500  1
  Br  Br20  1  0.12310900  0.75000000  0.68151700  1
  Br  Br21  1  0.16018900  0.25000000  0.70479300  1
  Br  Br22  1  0.33981100  0.25000000  0.20479300  1
  Br  Br23  1  0.83981100  0.75000000  0.29520700  1
  Br  Br24  1  0.66695100  0.04501400  0.07576600  1
  Br  Br25  1  0.62310900  0.25000000  0.81848300  1
  Br  Br26  1  0.87689100  0.25000000  0.31848300  1
  Br  Br27  1  0.37689100  0.75000000  0.18151700  1
  Br  Br28  1  0.83304900  0.45498600  0.57576600  1
  Br  Br29  1  0.33304900  0.54501400  0.92423400  1
  Br  Br30  1  0.16695100  0.95498600  0.42423400  1
  Br  Br31  1  0.16695100  0.54501400  0.42423400  1
