# generated using pymatgen
data_Rb3Cu2Cl7
_symmetry_space_group_name_H-M   'P 1'
_cell_length_a   13.06570913
_cell_length_b   13.06570913
_cell_length_c   7.32366200
_cell_angle_alpha   90.00000000
_cell_angle_beta   90.00000000
_cell_angle_gamma   147.43830864
_symmetry_Int_Tables_number   1
_chemical_formula_structural   Rb3Cu2Cl7
_chemical_formula_sum   'Rb6 Cu4 Cl14'
_cell_volume   672.88976304
_cell_formula_units_Z   2
loop_
 _symmetry_equiv_pos_site_id
 _symmetry_equiv_pos_as_xyz
  1  'x, y, z'
loop_
 _atom_site_type_symbol
 _atom_site_label
 _atom_site_symmetry_multiplicity
 _atom_site_fract_x
 _atom_site_fract_y
 _atom_site_fract_z
 _atom_site_occupancy
  Rb  Rb0  1  0.82094300  0.17905700  0.50000000  1
  Rb  Rb1  1  0.17905700  0.82094300  0.50000000  1
  Rb  Rb2  1  0.67905700  0.32094300  0.00000000  1
  Rb  Rb3  1  0.32094300  0.67905700  0.00000000  1
  Rb  Rb4  1  0.00000000  0.00000000  0.50000000  1
  Rb  Rb5  1  0.50000000  0.50000000  0.00000000  1
  Cu  Cu6  1  0.59511400  0.40488600  0.50000000  1
  Cu  Cu7  1  0.40488600  0.59511400  0.50000000  1
  Cu  Cu8  1  0.90488600  0.09511400  0.00000000  1
  Cu  Cu9  1  0.09511400  0.90488600  0.00000000  1
  Cl  Cl10  1  0.30756900  0.12358300  0.78441800  1
  Cl  Cl11  1  0.12358300  0.30756900  0.21558200  1
  Cl  Cl12  1  0.69243100  0.87641700  0.78441800  1
  Cl  Cl13  1  0.87641700  0.69243100  0.21558200  1
  Cl  Cl14  1  0.19243100  0.37641700  0.71558200  1
  Cl  Cl15  1  0.37641700  0.19243100  0.28441800  1
  Cl  Cl16  1  0.80756900  0.62358300  0.71558200  1
  Cl  Cl17  1  0.62358300  0.80756900  0.28441800  1
  Cl  Cl18  1  0.68961000  0.31039000  0.50000000  1
  Cl  Cl19  1  0.31039000  0.68961000  0.50000000  1
  Cl  Cl20  1  0.50000000  0.50000000  0.50000000  1
  Cl  Cl21  1  0.00000000  0.00000000  0.00000000  1
  Cl  Cl22  1  0.18961000  0.81039000  0.00000000  1
  Cl  Cl23  1  0.81039000  0.18961000  0.00000000  1
