# generated using pymatgen
data_Pb(ClO3)2
_symmetry_space_group_name_H-M   'P 1'
_cell_length_a   8.70431665
_cell_length_b   7.45430719
_cell_length_c   7.09291891
_cell_angle_alpha   73.45608979
_cell_angle_beta   55.17889294
_cell_angle_gamma   51.36501727
_symmetry_Int_Tables_number   1
_chemical_formula_structural   Pb(ClO3)2
_chemical_formula_sum   'Pb2 Cl4 O12'
_cell_volume   293.27119285
_cell_formula_units_Z   2
loop_
 _symmetry_equiv_pos_site_id
 _symmetry_equiv_pos_as_xyz
  1  'x, y, z'
loop_
 _atom_site_type_symbol
 _atom_site_label
 _atom_site_symmetry_multiplicity
 _atom_site_fract_x
 _atom_site_fract_y
 _atom_site_fract_z
 _atom_site_occupancy
  Pb  Pb0  1  0.74584700  0.25415300  0.25415300  1
  Pb  Pb1  1  0.99584700  0.50415300  0.50415300  1
  Cl  Cl2  1  0.40964400  0.63408100  0.98644800  1
  Cl  Cl3  1  0.96982700  0.98644800  0.63408100  1
  Cl  Cl4  1  0.26355200  0.28017300  0.84035600  1
  Cl  Cl5  1  0.61591900  0.84035600  0.28017300  1
  O  O6  1  0.20572800  0.87923600  0.05086200  1
  O  O7  1  0.86417400  0.05086200  0.87923600  1
  O  O8  1  0.19913800  0.38582600  0.04427200  1
  O  O9  1  0.37076400  0.04427200  0.38582600  1
  O  O10  1  0.34329400  0.40096400  0.63466400  1
  O  O11  1  0.62107800  0.63466400  0.40096400  1
  O  O12  1  0.72997300  0.87736300  0.35502900  1
  O  O13  1  0.03763500  0.35502900  0.87736300  1
  O  O14  1  0.89497100  0.21236500  0.52002700  1
  O  O15  1  0.37263700  0.52002700  0.21236500  1
  O  O16  1  0.84903600  0.90670600  0.62892200  1
  O  O17  1  0.61533600  0.62892200  0.90670600  1
