# generated using pymatgen
data_Si3Ru2
_symmetry_space_group_name_H-M   'P 1'
_cell_length_a   5.57428700
_cell_length_b   9.00923700
_cell_length_c   11.14845700
_cell_angle_alpha   90.00000000
_cell_angle_beta   90.00000000
_cell_angle_gamma   90.00000000
_symmetry_Int_Tables_number   1
_chemical_formula_structural   Si3Ru2
_chemical_formula_sum   'Si24 Ru16'
_cell_volume   559.87632091
_cell_formula_units_Z   8
loop_
 _symmetry_equiv_pos_site_id
 _symmetry_equiv_pos_as_xyz
  1  'x, y, z'
loop_
 _atom_site_type_symbol
 _atom_site_label
 _atom_site_symmetry_multiplicity
 _atom_site_fract_x
 _atom_site_fract_y
 _atom_site_fract_z
 _atom_site_occupancy
  Si  Si0  1  0.60506400  0.10536900  0.36849800  1
  Si  Si1  1  0.10506400  0.39463100  0.13150200  1
  Si  Si2  1  0.89493600  0.10536900  0.63150200  1
  Si  Si3  1  0.39493600  0.39463100  0.86849800  1
  Si  Si4  1  0.39493600  0.89463100  0.63150200  1
  Si  Si5  1  0.89493600  0.60536900  0.86849800  1
  Si  Si6  1  0.10506400  0.89463100  0.36849800  1
  Si  Si7  1  0.60506400  0.60536900  0.13150200  1
  Si  Si8  1  0.91313200  0.06347200  0.17949700  1
  Si  Si9  1  0.41313200  0.43652800  0.32050300  1
  Si  Si10  1  0.58686800  0.06347200  0.82050300  1
  Si  Si11  1  0.08686800  0.43652800  0.67949700  1
  Si  Si12  1  0.08686800  0.93652800  0.82050300  1
  Si  Si13  1  0.58686800  0.56347200  0.67949700  1
  Si  Si14  1  0.41313200  0.93652800  0.17949700  1
  Si  Si15  1  0.91313200  0.56347200  0.32050300  1
  Si  Si16  1  0.55552300  0.70758300  0.42657300  1
  Si  Si17  1  0.05552300  0.79241700  0.07342700  1
  Si  Si18  1  0.94447700  0.70758300  0.57342700  1
  Si  Si19  1  0.44447700  0.79241700  0.92657300  1
  Si  Si20  1  0.44447700  0.29241700  0.57342700  1
  Si  Si21  1  0.94447700  0.20758300  0.92657300  1
  Si  Si22  1  0.05552300  0.29241700  0.42657300  1
  Si  Si23  1  0.55552300  0.20758300  0.07342700  1
  Ru  Ru24  1  0.75000000  0.92483200  0.50000000  1
  Ru  Ru25  1  0.25000000  0.57516800  0.00000000  1
  Ru  Ru26  1  0.25000000  0.07516800  0.50000000  1
  Ru  Ru27  1  0.75000000  0.42483200  0.00000000  1
  Ru  Ru28  1  0.75000000  0.45920400  0.50000000  1
  Ru  Ru29  1  0.25000000  0.04079600  0.00000000  1
  Ru  Ru30  1  0.25000000  0.54079600  0.50000000  1
  Ru  Ru31  1  0.75000000  0.95920400  0.00000000  1
  Ru  Ru32  1  0.76378300  0.31263500  0.25412500  1
  Ru  Ru33  1  0.26378300  0.18736500  0.24587500  1
  Ru  Ru34  1  0.73621700  0.31263500  0.74587500  1
  Ru  Ru35  1  0.23621700  0.18736500  0.75412500  1
  Ru  Ru36  1  0.23621700  0.68736500  0.74587500  1
  Ru  Ru37  1  0.73621700  0.81263500  0.75412500  1
  Ru  Ru38  1  0.26378300  0.68736500  0.25412500  1
  Ru  Ru39  1  0.76378300  0.81263500  0.24587500  1
