# generated using pymatgen
data_In7Cl9
_symmetry_space_group_name_H-M   'P 1'
_cell_length_a   12.42853500
_cell_length_b   12.42853500
_cell_length_c   12.42853500
_cell_angle_alpha   90.00000000
_cell_angle_beta   90.00000000
_cell_angle_gamma   90.00000000
_symmetry_Int_Tables_number   1
_chemical_formula_structural   In7Cl9
_chemical_formula_sum   'In28 Cl36'
_cell_volume   1919.81693799
_cell_formula_units_Z   4
loop_
 _symmetry_equiv_pos_site_id
 _symmetry_equiv_pos_as_xyz
  1  'x, y, z'
loop_
 _atom_site_type_symbol
 _atom_site_label
 _atom_site_symmetry_multiplicity
 _atom_site_fract_x
 _atom_site_fract_y
 _atom_site_fract_z
 _atom_site_occupancy
  In  In0  1  0.81780100  0.43305300  0.32885600  1
  In  In1  1  0.31780100  0.06694700  0.67114400  1
  In  In2  1  0.18219900  0.93305300  0.17114400  1
  In  In3  1  0.06694700  0.67114400  0.31780100  1
  In  In4  1  0.17114400  0.18219900  0.93305300  1
  In  In5  1  0.67114400  0.31780100  0.06694700  1
  In  In6  1  0.43305300  0.32885600  0.81780100  1
  In  In7  1  0.32885600  0.81780100  0.43305300  1
  In  In8  1  0.93305300  0.17114400  0.18219900  1
  In  In9  1  0.56694700  0.82885600  0.68219900  1
  In  In10  1  0.82885600  0.68219900  0.56694700  1
  In  In11  1  0.68219900  0.56694700  0.82885600  1
  In  In12  1  0.18219900  0.56694700  0.67114400  1
  In  In13  1  0.68219900  0.93305300  0.32885600  1
  In  In14  1  0.81780100  0.06694700  0.82885600  1
  In  In15  1  0.93305300  0.32885600  0.68219900  1
  In  In16  1  0.82885600  0.81780100  0.06694700  1
  In  In17  1  0.32885600  0.68219900  0.93305300  1
  In  In18  1  0.56694700  0.67114400  0.18219900  1
  In  In19  1  0.67114400  0.18219900  0.56694700  1
  In  In20  1  0.06694700  0.82885600  0.81780100  1
  In  In21  1  0.43305300  0.17114400  0.31780100  1
  In  In22  1  0.17114400  0.31780100  0.43305300  1
  In  In23  1  0.31780100  0.43305300  0.17114400  1
  In  In24  1  0.50000000  0.50000000  0.50000000  1
  In  In25  1  0.50000000  0.00000000  0.00000000  1
  In  In26  1  0.00000000  0.00000000  0.50000000  1
  In  In27  1  0.00000000  0.50000000  0.00000000  1
  Cl  Cl28  1  0.95009600  0.19557700  0.45687000  1
  Cl  Cl29  1  0.45009600  0.30442300  0.54313000  1
  Cl  Cl30  1  0.04990400  0.69557700  0.04313000  1
  Cl  Cl31  1  0.30442300  0.54313000  0.45009600  1
  Cl  Cl32  1  0.04313000  0.04990400  0.69557700  1
  Cl  Cl33  1  0.54313000  0.45009600  0.30442300  1
  Cl  Cl34  1  0.19557700  0.45687000  0.95009600  1
  Cl  Cl35  1  0.45687000  0.95009600  0.19557700  1
  Cl  Cl36  1  0.69557700  0.04313000  0.04990400  1
  Cl  Cl37  1  0.80442300  0.95687000  0.54990400  1
  Cl  Cl38  1  0.95687000  0.54990400  0.80442300  1
  Cl  Cl39  1  0.54990400  0.80442300  0.95687000  1
  Cl  Cl40  1  0.04990400  0.80442300  0.54313000  1
  Cl  Cl41  1  0.54990400  0.69557700  0.45687000  1
  Cl  Cl42  1  0.95009600  0.30442300  0.95687000  1
  Cl  Cl43  1  0.83296200  0.66703800  0.33296200  1
  Cl  Cl44  1  0.69557700  0.45687000  0.54990400  1
  Cl  Cl45  1  0.45687000  0.54990400  0.69557700  1
  Cl  Cl46  1  0.80442300  0.54313000  0.04990400  1
  Cl  Cl47  1  0.54313000  0.04990400  0.80442300  1
  Cl  Cl48  1  0.30442300  0.95687000  0.95009600  1
  Cl  Cl49  1  0.19557700  0.04313000  0.45009600  1
  Cl  Cl50  1  0.04313000  0.45009600  0.19557700  1
  Cl  Cl51  1  0.45009600  0.19557700  0.04313000  1
  Cl  Cl52  1  0.16703800  0.33296200  0.66703800  1
  Cl  Cl53  1  0.33296200  0.66703800  0.16703800  1
  Cl  Cl54  1  0.66703800  0.16703800  0.33296200  1
  Cl  Cl55  1  0.83296200  0.83296200  0.83296200  1
  Cl  Cl56  1  0.00000000  0.00000000  0.00000000  1
  Cl  Cl57  1  0.50000000  0.00000000  0.50000000  1
  Cl  Cl58  1  0.50000000  0.50000000  0.00000000  1
  Cl  Cl59  1  0.00000000  0.50000000  0.50000000  1
  Cl  Cl60  1  0.16703800  0.16703800  0.16703800  1
  Cl  Cl61  1  0.33296200  0.83296200  0.66703800  1
  Cl  Cl62  1  0.66703800  0.33296200  0.83296200  1
  Cl  Cl63  1  0.95687000  0.95009600  0.30442300  1
