# generated using pymatgen
data_Sn(PbO2)2
_symmetry_space_group_name_H-M   'P 1'
_cell_length_a   8.92044400
_cell_length_b   8.92044400
_cell_length_c   6.48238000
_cell_angle_alpha   90.00000000
_cell_angle_beta   90.00000000
_cell_angle_gamma   90.00000000
_symmetry_Int_Tables_number   1
_chemical_formula_structural   Sn(PbO2)2
_chemical_formula_sum   'Sn4 Pb8 O16'
_cell_volume   515.83098798
_cell_formula_units_Z   4
loop_
 _symmetry_equiv_pos_site_id
 _symmetry_equiv_pos_as_xyz
  1  'x, y, z'
loop_
 _atom_site_type_symbol
 _atom_site_label
 _atom_site_symmetry_multiplicity
 _atom_site_fract_x
 _atom_site_fract_y
 _atom_site_fract_z
 _atom_site_occupancy
  Sn  Sn0  1  0.00000000  0.50000000  0.75000000  1
  Sn  Sn1  1  0.50000000  0.00000000  0.25000000  1
  Sn  Sn2  1  0.00000000  0.50000000  0.25000000  1
  Sn  Sn3  1  0.50000000  0.00000000  0.75000000  1
  Pb  Pb4  1  0.35654500  0.66265600  0.00000000  1
  Pb  Pb5  1  0.64345500  0.33734400  0.00000000  1
  Pb  Pb6  1  0.14345500  0.16265600  0.00000000  1
  Pb  Pb7  1  0.85654500  0.83734400  0.00000000  1
  Pb  Pb8  1  0.83734400  0.14345500  0.50000000  1
  Pb  Pb9  1  0.16265600  0.85654500  0.50000000  1
  Pb  Pb10  1  0.66265600  0.64345500  0.50000000  1
  Pb  Pb11  1  0.33734400  0.35654500  0.50000000  1
  O  O12  1  0.37640800  0.09547600  0.50000000  1
  O  O13  1  0.62359200  0.90452400  0.50000000  1
  O  O14  1  0.12359200  0.59547600  0.50000000  1
  O  O15  1  0.87640800  0.40452400  0.50000000  1
  O  O16  1  0.40452400  0.12359200  0.00000000  1
  O  O17  1  0.59547600  0.87640800  0.00000000  1
  O  O18  1  0.09547600  0.62359200  0.00000000  1
  O  O19  1  0.90452400  0.37640800  0.00000000  1
  O  O20  1  0.16503200  0.33496800  0.75000000  1
  O  O21  1  0.83496800  0.66503200  0.75000000  1
  O  O22  1  0.33496800  0.83496800  0.25000000  1
  O  O23  1  0.66503200  0.16503200  0.25000000  1
  O  O24  1  0.33496800  0.83496800  0.75000000  1
  O  O25  1  0.66503200  0.16503200  0.75000000  1
  O  O26  1  0.16503200  0.33496800  0.25000000  1
  O  O27  1  0.83496800  0.66503200  0.25000000  1
