# generated using pymatgen
data_Ta2Zn3O8
_symmetry_space_group_name_H-M   'P 1'
_cell_length_a   6.18578249
_cell_length_b   6.18578249
_cell_length_c   9.65011501
_cell_angle_alpha   71.64292718
_cell_angle_beta   71.64292718
_cell_angle_gamma   87.06026848
_symmetry_Int_Tables_number   1
_chemical_formula_structural   Ta2Zn3O8
_chemical_formula_sum   'Ta4 Zn6 O16'
_cell_volume   332.15596894
_cell_formula_units_Z   2
loop_
 _symmetry_equiv_pos_site_id
 _symmetry_equiv_pos_as_xyz
  1  'x, y, z'
loop_
 _atom_site_type_symbol
 _atom_site_label
 _atom_site_symmetry_multiplicity
 _atom_site_fract_x
 _atom_site_fract_y
 _atom_site_fract_z
 _atom_site_occupancy
  Ta  Ta0  1  0.06082000  0.77844300  0.62689800  1
  Ta  Ta1  1  0.22155700  0.93918000  0.87310200  1
  Ta  Ta2  1  0.93918000  0.22155700  0.37310200  1
  Ta  Ta3  1  0.77844300  0.06082000  0.12689800  1
  Zn  Zn4  1  0.76158300  0.23841700  0.75000000  1
  Zn  Zn5  1  0.23841700  0.76158300  0.25000000  1
  Zn  Zn6  1  0.68024400  0.63747300  0.00302100  1
  Zn  Zn7  1  0.36252700  0.31975600  0.49697900  1
  Zn  Zn8  1  0.31975600  0.36252700  0.99697900  1
  Zn  Zn9  1  0.63747300  0.68024400  0.50302100  1
  O  O10  1  0.17919100  0.42506900  0.35450600  1
  O  O11  1  0.57493100  0.82080900  0.14549400  1
  O  O12  1  0.82080900  0.57493100  0.64549400  1
  O  O13  1  0.42506900  0.17919100  0.85450600  1
  O  O14  1  0.30954200  0.58594700  0.58859000  1
  O  O15  1  0.41405300  0.69045800  0.91141000  1
  O  O16  1  0.69045800  0.41405400  0.41141000  1
  O  O17  1  0.58594600  0.30954200  0.08859000  1
  O  O18  1  0.98415200  0.71727600  0.85331800  1
  O  O19  1  0.28272400  0.01584800  0.64668200  1
  O  O20  1  0.06307300  0.86216400  0.10307500  1
  O  O21  1  0.13783600  0.93692700  0.39692500  1
  O  O22  1  0.93692700  0.13783600  0.89692500  1
  O  O23  1  0.86216400  0.06307300  0.60307500  1
  O  O24  1  0.71727600  0.98415200  0.35331800  1
  O  O25  1  0.01584800  0.28272400  0.14668200  1
