# generated using pymatgen
data_OsSe2
_symmetry_space_group_name_H-M   'P 1'
_cell_length_a   6.01534900
_cell_length_b   6.01534900
_cell_length_c   6.01534900
_cell_angle_alpha   90.00000000
_cell_angle_beta   90.00000000
_cell_angle_gamma   90.00000000
_symmetry_Int_Tables_number   1
_chemical_formula_structural   OsSe2
_chemical_formula_sum   'Os4 Se8'
_cell_volume   217.66193627
_cell_formula_units_Z   4
loop_
 _symmetry_equiv_pos_site_id
 _symmetry_equiv_pos_as_xyz
  1  'x, y, z'
loop_
 _atom_site_type_symbol
 _atom_site_label
 _atom_site_symmetry_multiplicity
 _atom_site_fract_x
 _atom_site_fract_y
 _atom_site_fract_z
 _atom_site_occupancy
  Os  Os0  1  0.00000000  0.50000000  0.50000000  1
  Os  Os1  1  0.50000000  0.50000000  0.00000000  1
  Os  Os2  1  0.50000000  0.00000000  0.50000000  1
  Os  Os3  1  0.00000000  0.00000000  0.00000000  1
  Se  Se4  1  0.37760000  0.12240000  0.87760000  1
  Se  Se5  1  0.12240000  0.87760000  0.37760000  1
  Se  Se6  1  0.87760000  0.37760000  0.12240000  1
  Se  Se7  1  0.62240000  0.62240000  0.62240000  1
  Se  Se8  1  0.37760000  0.37760000  0.37760000  1
  Se  Se9  1  0.12240000  0.62240000  0.87760000  1
  Se  Se10  1  0.87760000  0.12240000  0.62240000  1
  Se  Se11  1  0.62240000  0.87760000  0.12240000  1
