# generated using pymatgen
data_CeFeSi
_symmetry_space_group_name_H-M   'P 1'
_cell_length_a   4.04814000
_cell_length_b   4.04814000
_cell_length_c   6.68487200
_cell_angle_alpha   90.00000000
_cell_angle_beta   90.00000000
_cell_angle_gamma   90.00000000
_symmetry_Int_Tables_number   1
_chemical_formula_structural   CeFeSi
_chemical_formula_sum   'Ce2 Fe2 Si2'
_cell_volume   109.54792183
_cell_formula_units_Z   2
loop_
 _symmetry_equiv_pos_site_id
 _symmetry_equiv_pos_as_xyz
  1  'x, y, z'
loop_
 _atom_site_type_symbol
 _atom_site_label
 _atom_site_symmetry_multiplicity
 _atom_site_fract_x
 _atom_site_fract_y
 _atom_site_fract_z
 _atom_site_occupancy
  Ce  Ce0  1  0.00000000  0.50000000  0.31058400  1
  Ce  Ce1  1  0.50000000  0.00000000  0.68941600  1
  Fe  Fe2  1  0.00000000  0.00000000  0.00000000  1
  Fe  Fe3  1  0.50000000  0.50000000  0.00000000  1
  Si  Si4  1  0.00000000  0.50000000  0.82244700  1
  Si  Si5  1  0.50000000  0.00000000  0.17755300  1
