# generated using pymatgen
data_Li3Fe2(PO4)3
_symmetry_space_group_name_H-M   'P 1'
_cell_length_a   8.73650800
_cell_length_b   8.67753600
_cell_length_c   14.91671564
_cell_angle_alpha   54.81237540
_cell_angle_beta   90.00000000
_cell_angle_gamma   90.00000000
_symmetry_Int_Tables_number   1
_chemical_formula_structural   Li3Fe2(PO4)3
_chemical_formula_sum   'Li12 Fe8 P12 O48'
_cell_volume   924.21442720
_cell_formula_units_Z   4
loop_
 _symmetry_equiv_pos_site_id
 _symmetry_equiv_pos_as_xyz
  1  'x, y, z'
loop_
 _atom_site_type_symbol
 _atom_site_label
 _atom_site_symmetry_multiplicity
 _atom_site_fract_x
 _atom_site_fract_y
 _atom_site_fract_z
 _atom_site_occupancy
  Li  Li0  1  0.92125200  0.37577300  0.69995800  1
  Li  Li1  1  0.07874800  0.62422700  0.30004200  1
  Li  Li2  1  0.70147000  0.67223300  0.24045200  1
  Li  Li3  1  0.77469800  0.97239900  0.81994300  1
  Li  Li4  1  0.27469800  0.02760100  0.68005700  1
  Li  Li5  1  0.20147000  0.32776700  0.25954800  1
  Li  Li6  1  0.57874800  0.37577300  0.19995800  1
  Li  Li7  1  0.42125200  0.62422700  0.80004200  1
  Li  Li8  1  0.79853000  0.67223300  0.74045200  1
  Li  Li9  1  0.29853000  0.32776700  0.75954800  1
  Li  Li10  1  0.22530200  0.02760100  0.18005700  1
  Li  Li11  1  0.72530200  0.97239900  0.31994300  1
  Fe  Fe12  1  0.53114000  0.36009000  0.39454100  1
  Fe  Fe13  1  0.03114000  0.63991000  0.10545900  1
  Fe  Fe14  1  0.45942400  0.86204000  0.89264000  1
  Fe  Fe15  1  0.95942400  0.13796000  0.60736000  1
  Fe  Fe16  1  0.04057600  0.86204000  0.39264000  1
  Fe  Fe17  1  0.54057600  0.13796000  0.10736000  1
  Fe  Fe18  1  0.96886000  0.36009000  0.89454100  1
  Fe  Fe19  1  0.46886000  0.63991000  0.60545900  1
  P  P20  1  0.11571700  0.74744600  0.64898900  1
  P  P21  1  0.39743800  0.04629300  0.35089200  1
  P  P22  1  0.25242500  0.45728300  0.00695100  1
  P  P23  1  0.74757500  0.54271700  0.99304900  1
  P  P24  1  0.60256200  0.95370700  0.64910800  1
  P  P25  1  0.88428300  0.25255400  0.35101100  1
  P  P26  1  0.10256200  0.04629300  0.85089200  1
  P  P27  1  0.38428300  0.74744600  0.14898900  1
  P  P28  1  0.75242500  0.54271700  0.49304900  1
  P  P29  1  0.61571700  0.25255400  0.85101100  1
  P  P30  1  0.89743800  0.95370700  0.14910800  1
  P  P31  1  0.24757500  0.45728300  0.50695100  1
  O  O32  1  0.83226300  0.73778700  0.43308100  1
  O  O33  1  0.40828100  0.82596200  0.02798700  1
  O  O34  1  0.21750000  0.67354400  0.18410000  1
  O  O35  1  0.37289500  0.46766100  0.43156600  1
  O  O36  1  0.59122400  0.09647200  0.83186900  1
  O  O37  1  0.68872800  0.52369100  0.40281100  1
  O  O38  1  0.88946000  0.77267000  0.15032000  1
  O  O39  1  0.86694100  0.38220400  0.56952700  1
  O  O40  1  0.13305900  0.61779600  0.43047300  1
  O  O41  1  0.11054000  0.22733000  0.84968000  1
  O  O42  1  0.31127200  0.47630900  0.59718900  1
  O  O43  1  0.40877600  0.90352800  0.16813100  1
  O  O44  1  0.62710500  0.53233900  0.56843400  1
  O  O45  1  0.78250000  0.32645600  0.81590000  1
  O  O46  1  0.59171900  0.17403800  0.97201300  1
  O  O47  1  0.02058600  0.91162200  0.23627200  1
  O  O48  1  0.73559400  0.97010800  0.18686400  1
  O  O49  1  0.97941400  0.08837800  0.76372800  1
  O  O50  1  0.94312100  0.12957200  0.03857300  1
  O  O51  1  0.49603200  0.41352900  0.78060600  1
  O  O52  1  0.99603200  0.58647100  0.71939400  1
  O  O53  1  0.44312100  0.87042800  0.46142700  1
  O  O54  1  0.33226300  0.26221300  0.06691900  1
  O  O55  1  0.23559400  0.02989200  0.31313600  1
  O  O56  1  0.09171900  0.82596200  0.52798700  1
  O  O57  1  0.52058600  0.08837800  0.26372800  1
  O  O58  1  0.28250000  0.67354400  0.68410000  1
  O  O59  1  0.12710500  0.46766100  0.93156600  1
  O  O60  1  0.81127200  0.52369100  0.90281100  1
  O  O61  1  0.61054000  0.77267000  0.65032000  1
  O  O62  1  0.90877600  0.09647200  0.33186900  1
  O  O63  1  0.63305900  0.38220400  0.06952700  1
  O  O64  1  0.36694100  0.61779600  0.93047300  1
  O  O65  1  0.09122400  0.90352800  0.66813100  1
  O  O66  1  0.38946000  0.22733000  0.34968000  1
  O  O67  1  0.18872800  0.47630900  0.09718900  1
  O  O68  1  0.87289500  0.53233900  0.06843400  1
  O  O69  1  0.71750000  0.32645600  0.31590000  1
  O  O70  1  0.47941400  0.91162200  0.73627200  1
  O  O71  1  0.90828100  0.17403800  0.47201300  1
  O  O72  1  0.26440600  0.02989200  0.81313600  1
  O  O73  1  0.66773700  0.73778700  0.93308100  1
  O  O74  1  0.55687900  0.12957200  0.53857300  1
  O  O75  1  0.00396800  0.41352900  0.28060600  1
  O  O76  1  0.50396800  0.58647100  0.21939400  1
  O  O77  1  0.05687900  0.87042800  0.96142700  1
  O  O78  1  0.16773700  0.26221300  0.56691900  1
  O  O79  1  0.76440600  0.97010800  0.68686400  1
