# generated using pymatgen
data_Rb2SnO2
_symmetry_space_group_name_H-M   'P 1'
_cell_length_a   5.88714300
_cell_length_b   7.64196100
_cell_length_c   11.43767100
_cell_angle_alpha   90.00000000
_cell_angle_beta   90.00000000
_cell_angle_gamma   90.00000000
_symmetry_Int_Tables_number   1
_chemical_formula_structural   Rb2SnO2
_chemical_formula_sum   'Rb8 Sn4 O8'
_cell_volume   514.57300873
_cell_formula_units_Z   4
loop_
 _symmetry_equiv_pos_site_id
 _symmetry_equiv_pos_as_xyz
  1  'x, y, z'
loop_
 _atom_site_type_symbol
 _atom_site_label
 _atom_site_symmetry_multiplicity
 _atom_site_fract_x
 _atom_site_fract_y
 _atom_site_fract_z
 _atom_site_occupancy
  Rb  Rb0  1  0.00107900  0.64698800  0.74155500  1
  Rb  Rb1  1  0.49892100  0.35301200  0.24155500  1
  Rb  Rb2  1  0.00288300  0.60860300  0.41768600  1
  Rb  Rb3  1  0.49711700  0.39139700  0.91768600  1
  Rb  Rb4  1  0.99711700  0.10860300  0.08231400  1
  Rb  Rb5  1  0.50288300  0.89139700  0.58231400  1
  Rb  Rb6  1  0.50107900  0.85301200  0.25844500  1
  Rb  Rb7  1  0.99892100  0.14698800  0.75844500  1
  Sn  Sn8  1  0.49561700  0.88937500  0.94339400  1
  Sn  Sn9  1  0.50438300  0.38937500  0.55660600  1
  Sn  Sn10  1  0.00438300  0.11062500  0.44339400  1
  Sn  Sn11  1  0.99561700  0.61062500  0.05660600  1
  O  O12  1  0.33767800  0.69469900  0.04764900  1
  O  O13  1  0.49639300  0.58305400  0.43486200  1
  O  O14  1  0.99639300  0.91694600  0.56513800  1
  O  O15  1  0.16232200  0.30530100  0.54764900  1
  O  O16  1  0.50360700  0.08305400  0.06513800  1
  O  O17  1  0.66232200  0.19469900  0.45235100  1
  O  O18  1  0.83767800  0.80530100  0.95235100  1
  O  O19  1  0.00360700  0.41694600  0.93486200  1
