# generated using pymatgen
data_LiVPO4
_symmetry_space_group_name_H-M   'P 1'
_cell_length_a   5.08390670
_cell_length_b   9.39992650
_cell_length_c   6.22736500
_cell_angle_alpha   90.00003886
_cell_angle_beta   90.00001371
_cell_angle_gamma   83.47502471
_symmetry_Int_Tables_number   1
_chemical_formula_structural   LiVPO4
_chemical_formula_sum   'Li4 V4 P4 O16'
_cell_volume   295.66779444
_cell_formula_units_Z   4
loop_
 _symmetry_equiv_pos_site_id
 _symmetry_equiv_pos_as_xyz
  1  'x, y, z'
loop_
 _atom_site_type_symbol
 _atom_site_label
 _atom_site_symmetry_multiplicity
 _atom_site_fract_x
 _atom_site_fract_y
 _atom_site_fract_z
 _atom_site_occupancy
  Li  Li0  1  0.25642700  0.42426600  0.75000100  1
  Li  Li1  1  0.75642800  0.92426600  0.75000000  1
  Li  Li2  1  0.25809100  0.09035300  0.25000100  1
  Li  Li3  1  0.75809300  0.59035400  0.25000000  1
  V  V4  1  0.25699200  0.75697400  0.99999400  1
  V  V5  1  0.75694500  0.25697100  0.50001500  1
  V  V6  1  0.75694900  0.25696800  0.99999300  1
  V  V7  1  0.25697100  0.75697700  0.49999100  1
  P  P8  1  0.28634700  0.08056200  0.75000200  1
  P  P9  1  0.78635200  0.58056400  0.74999800  1
  P  P10  1  0.22767900  0.43345100  0.24999800  1
  P  P11  1  0.72768500  0.93345100  0.25000100  1
  O  O12  1  0.13463000  0.13123300  0.95393200  1
  O  O13  1  0.63463600  0.63123600  0.95393100  1
  O  O14  1  0.13463400  0.13123500  0.54607100  1
  O  O15  1  0.63462900  0.63123500  0.54606800  1
  O  O16  1  0.37955500  0.38293300  0.45393800  1
  O  O17  1  0.87956400  0.88293300  0.45393700  1
  O  O18  1  0.37956400  0.38293300  0.04606300  1
  O  O19  1  0.87955800  0.88293200  0.04606300  1
  O  O20  1  0.84661000  0.41174400  0.74999900  1
  O  O21  1  0.34661100  0.91174200  0.75000300  1
  O  O22  1  0.56980500  0.13468200  0.75000300  1
  O  O23  1  0.06980400  0.63468400  0.74999600  1
  O  O24  1  0.94441300  0.37910800  0.24999700  1
  O  O25  1  0.44441400  0.87910900  0.25000400  1
  O  O26  1  0.66702800  0.10227000  0.25000500  1
  O  O27  1  0.16702500  0.60227000  0.24999600  1
