# generated using pymatgen
data_NaCeP2O7
_symmetry_space_group_name_H-M   'P 1'
_cell_length_a   5.33270600
_cell_length_b   8.71844600
_cell_length_c   12.76231200
_cell_angle_alpha   90.00000000
_cell_angle_beta   90.00000000
_cell_angle_gamma   90.00000000
_symmetry_Int_Tables_number   1
_chemical_formula_structural   NaCeP2O7
_chemical_formula_sum   'Na4 Ce4 P8 O28'
_cell_volume   593.35701421
_cell_formula_units_Z   4
loop_
 _symmetry_equiv_pos_site_id
 _symmetry_equiv_pos_as_xyz
  1  'x, y, z'
loop_
 _atom_site_type_symbol
 _atom_site_label
 _atom_site_symmetry_multiplicity
 _atom_site_fract_x
 _atom_site_fract_y
 _atom_site_fract_z
 _atom_site_occupancy
  Na  Na0  1  0.75000000  0.61876200  0.92134400  1
  Na  Na1  1  0.25000000  0.38123800  0.07865600  1
  Na  Na2  1  0.75000000  0.11876200  0.57865600  1
  Na  Na3  1  0.25000000  0.88123800  0.42134400  1
  Ce  Ce4  1  0.25000000  0.81300000  0.73621600  1
  Ce  Ce5  1  0.75000000  0.18700000  0.26378400  1
  Ce  Ce6  1  0.25000000  0.31300000  0.76378400  1
  Ce  Ce7  1  0.75000000  0.68700000  0.23621600  1
  P  P8  1  0.75000000  0.01322400  0.81789300  1
  P  P9  1  0.25000000  0.98677600  0.18210700  1
  P  P10  1  0.75000000  0.51322400  0.68210700  1
  P  P11  1  0.25000000  0.48677600  0.31789300  1
  P  P12  1  0.25000000  0.73700300  0.03356900  1
  P  P13  1  0.75000000  0.26299700  0.96643100  1
  P  P14  1  0.25000000  0.23700300  0.46643100  1
  P  P15  1  0.75000000  0.76299700  0.53356900  1
  O  O16  1  0.25000000  0.73552700  0.91438700  1
  O  O17  1  0.75000000  0.26447300  0.08561300  1
  O  O18  1  0.25000000  0.23552700  0.58561300  1
  O  O19  1  0.75000000  0.76447300  0.41438700  1
  O  O20  1  0.48686200  0.16310200  0.42057200  1
  O  O21  1  0.98686200  0.83689800  0.57942800  1
  O  O22  1  0.01313800  0.66310200  0.07942800  1
  O  O23  1  0.51313800  0.33689800  0.92057200  1
  O  O24  1  0.51313800  0.83689800  0.57942800  1
  O  O25  1  0.01313800  0.16310200  0.42057200  1
  O  O26  1  0.98686200  0.33689800  0.92057200  1
  O  O27  1  0.48686200  0.66310200  0.07942800  1
  O  O28  1  0.75000000  0.83947200  0.82357600  1
  O  O29  1  0.25000000  0.16052800  0.17642400  1
  O  O30  1  0.75000000  0.33947200  0.67642400  1
  O  O31  1  0.25000000  0.66052800  0.32357600  1
  O  O32  1  0.75000000  0.58138700  0.56424600  1
  O  O33  1  0.25000000  0.41861300  0.43575400  1
  O  O34  1  0.75000000  0.08138700  0.93575400  1
  O  O35  1  0.25000000  0.91861300  0.06424600  1
  O  O36  1  0.49304800  0.93108900  0.23557400  1
  O  O37  1  0.99304800  0.06891100  0.76442600  1
  O  O38  1  0.00695200  0.43108900  0.26442600  1
  O  O39  1  0.50695200  0.56891100  0.73557400  1
  O  O40  1  0.50695200  0.06891100  0.76442600  1
  O  O41  1  0.00695200  0.93108900  0.23557400  1
  O  O42  1  0.99304800  0.56891100  0.73557400  1
  O  O43  1  0.49304800  0.43108900  0.26442600  1
