# generated using pymatgen
data_TlP5
_symmetry_space_group_name_H-M   'P 1'
_cell_length_a   6.52119700
_cell_length_b   7.26356500
_cell_length_c   12.39594600
_cell_angle_alpha   90.00000000
_cell_angle_beta   90.00000000
_cell_angle_gamma   90.00000000
_symmetry_Int_Tables_number   1
_chemical_formula_structural   TlP5
_chemical_formula_sum   'Tl4 P20'
_cell_volume   587.16048838
_cell_formula_units_Z   4
loop_
 _symmetry_equiv_pos_site_id
 _symmetry_equiv_pos_as_xyz
  1  'x, y, z'
loop_
 _atom_site_type_symbol
 _atom_site_label
 _atom_site_symmetry_multiplicity
 _atom_site_fract_x
 _atom_site_fract_y
 _atom_site_fract_z
 _atom_site_occupancy
  Tl  Tl0  1  0.50000000  0.03143900  0.33985700  1
  Tl  Tl1  1  0.50000000  0.96856100  0.83985700  1
  Tl  Tl2  1  0.00000000  0.77520300  0.50113200  1
  Tl  Tl3  1  0.00000000  0.22479700  0.00113200  1
  P  P4  1  0.50000000  0.35741400  0.04194000  1
  P  P5  1  0.50000000  0.64258600  0.54194000  1
  P  P6  1  0.50000000  0.39013800  0.21478800  1
  P  P7  1  0.50000000  0.60986200  0.71478800  1
  P  P8  1  0.24926900  0.22853700  0.61040800  1
  P  P9  1  0.75073100  0.77146300  0.11040800  1
  P  P10  1  0.75073100  0.22853700  0.61040800  1
  P  P11  1  0.24926900  0.77146300  0.11040800  1
  P  P12  1  0.25409200  0.41128300  0.75957100  1
  P  P13  1  0.74590800  0.58871700  0.25957100  1
  P  P14  1  0.74590800  0.41128300  0.75957100  1
  P  P15  1  0.25409200  0.58871700  0.25957100  1
  P  P16  1  0.00000000  0.61268700  0.73039000  1
  P  P17  1  0.00000000  0.38731300  0.23039000  1
  P  P18  1  0.00000000  0.81233600  0.86244600  1
  P  P19  1  0.00000000  0.18766400  0.36244600  1
  P  P20  1  0.00000000  0.64299400  0.00985100  1
  P  P21  1  0.00000000  0.35700600  0.50985100  1
  P  P22  1  0.50000000  0.34764300  0.51133800  1
  P  P23  1  0.50000000  0.65235700  0.01133800  1
