# generated using pymatgen
data_NaTiSe4
_symmetry_space_group_name_H-M   'P 1'
_cell_length_a   7.41557800
_cell_length_b   13.12070400
_cell_length_c   13.14288685
_cell_angle_alpha   73.36892700
_cell_angle_beta   90.00000000
_cell_angle_gamma   90.00000000
_symmetry_Int_Tables_number   1
_chemical_formula_structural   NaTiSe4
_chemical_formula_sum   'Na8 Ti8 Se32'
_cell_volume   1225.27719114
_cell_formula_units_Z   8
loop_
 _symmetry_equiv_pos_site_id
 _symmetry_equiv_pos_as_xyz
  1  'x, y, z'
loop_
 _atom_site_type_symbol
 _atom_site_label
 _atom_site_symmetry_multiplicity
 _atom_site_fract_x
 _atom_site_fract_y
 _atom_site_fract_z
 _atom_site_occupancy
  Na  Na0  1  0.68370600  0.90366600  0.87034000  1
  Na  Na1  1  0.18370600  0.09633400  0.62966000  1
  Na  Na2  1  0.31629400  0.09633400  0.12966000  1
  Na  Na3  1  0.81629400  0.90366600  0.37034000  1
  Na  Na4  1  0.66615800  0.53748800  0.88243400  1
  Na  Na5  1  0.16615800  0.46251200  0.61756600  1
  Na  Na6  1  0.33384200  0.46251200  0.11756600  1
  Na  Na7  1  0.83384200  0.53748800  0.38243400  1
  Ti  Ti8  1  0.72817300  0.26858500  0.61489900  1
  Ti  Ti9  1  0.22817300  0.73141500  0.88510100  1
  Ti  Ti10  1  0.27182700  0.73141500  0.38510100  1
  Ti  Ti11  1  0.77182700  0.26858500  0.11489900  1
  Ti  Ti12  1  0.79903900  0.21782300  0.37424600  1
  Ti  Ti13  1  0.29903900  0.78217700  0.12575400  1
  Ti  Ti14  1  0.20096100  0.78217700  0.62575400  1
  Ti  Ti15  1  0.70096100  0.21782300  0.87424600  1
  Se  Se16  1  0.98217400  0.32417400  0.49905200  1
  Se  Se17  1  0.48217400  0.67582600  0.00094800  1
  Se  Se18  1  0.01782600  0.67582600  0.50094800  1
  Se  Se19  1  0.51782600  0.32417400  0.99905200  1
  Se  Se20  1  0.80837900  0.39736000  0.74217800  1
  Se  Se21  1  0.30837900  0.60264000  0.75782200  1
  Se  Se22  1  0.19162100  0.60264000  0.25782200  1
  Se  Se23  1  0.69162100  0.39736000  0.24217800  1
  Se  Se24  1  0.99980300  0.26770400  0.96429300  1
  Se  Se25  1  0.49980300  0.73229600  0.53570700  1
  Se  Se26  1  0.00019700  0.73229600  0.03570700  1
  Se  Se27  1  0.50019700  0.26770400  0.46429300  1
  Se  Se28  1  0.91576800  0.45018800  0.10447100  1
  Se  Se29  1  0.41576800  0.54981200  0.39552900  1
  Se  Se30  1  0.08423200  0.54981200  0.89552900  1
  Se  Se31  1  0.58423200  0.45018800  0.60447100  1
  Se  Se32  1  0.07353400  0.09145700  0.40255700  1
  Se  Se33  1  0.57353400  0.90854300  0.09744300  1
  Se  Se34  1  0.92646600  0.90854300  0.59744300  1
  Se  Se35  1  0.42646600  0.09145700  0.90255700  1
  Se  Se36  1  0.07650700  0.24899400  0.25274600  1
  Se  Se37  1  0.57650700  0.75100600  0.24725400  1
  Se  Se38  1  0.92349300  0.75100600  0.74725400  1
  Se  Se39  1  0.42349300  0.24899400  0.75274600  1
  Se  Se40  1  0.62735800  0.12249300  0.27067700  1
  Se  Se41  1  0.12735800  0.87750700  0.22932300  1
  Se  Se42  1  0.37264200  0.87750700  0.72932300  1
  Se  Se43  1  0.87264200  0.12249300  0.77067700  1
  Se  Se44  1  0.64629100  0.10398400  0.54985400  1
  Se  Se45  1  0.14629100  0.89601600  0.95014600  1
  Se  Se46  1  0.35370900  0.89601600  0.45014600  1
  Se  Se47  1  0.85370900  0.10398400  0.04985400  1
