# generated using pymatgen
data_Rb4PbO3
_symmetry_space_group_name_H-M   'P 1'
_cell_length_a   6.92891500
_cell_length_b   12.25143400
_cell_length_c   20.05215700
_cell_angle_alpha   90.00000000
_cell_angle_beta   90.00000000
_cell_angle_gamma   90.00000000
_symmetry_Int_Tables_number   1
_chemical_formula_structural   Rb4PbO3
_chemical_formula_sum   'Rb32 Pb8 O24'
_cell_volume   1702.21045941
_cell_formula_units_Z   8
loop_
 _symmetry_equiv_pos_site_id
 _symmetry_equiv_pos_as_xyz
  1  'x, y, z'
loop_
 _atom_site_type_symbol
 _atom_site_label
 _atom_site_symmetry_multiplicity
 _atom_site_fract_x
 _atom_site_fract_y
 _atom_site_fract_z
 _atom_site_occupancy
  Rb  Rb0  1  0.95644800  0.38536100  0.20287300  1
  Rb  Rb1  1  0.45644800  0.11463900  0.79712700  1
  Rb  Rb2  1  0.04355200  0.88536100  0.29712700  1
  Rb  Rb3  1  0.54355200  0.61463900  0.70287300  1
  Rb  Rb4  1  0.04355200  0.61463900  0.79712700  1
  Rb  Rb5  1  0.54355200  0.88536100  0.20287300  1
  Rb  Rb6  1  0.95644800  0.11463900  0.70287300  1
  Rb  Rb7  1  0.45644800  0.38536100  0.29712700  1
  Rb  Rb8  1  0.76635800  0.18817400  0.94334200  1
  Rb  Rb9  1  0.26635800  0.31182600  0.05665800  1
  Rb  Rb10  1  0.23364200  0.68817400  0.55665800  1
  Rb  Rb11  1  0.73364200  0.81182600  0.44334200  1
  Rb  Rb12  1  0.23364200  0.81182600  0.05665800  1
  Rb  Rb13  1  0.73364200  0.68817400  0.94334200  1
  Rb  Rb14  1  0.76635800  0.31182600  0.44334200  1
  Rb  Rb15  1  0.26635800  0.18817400  0.55665800  1
  Rb  Rb16  1  0.75036600  0.05546700  0.53487000  1
  Rb  Rb17  1  0.25036600  0.44453300  0.46513000  1
  Rb  Rb18  1  0.24963400  0.55546700  0.96513000  1
  Rb  Rb19  1  0.74963400  0.94453300  0.03487000  1
  Rb  Rb20  1  0.24963400  0.94453300  0.46513000  1
  Rb  Rb21  1  0.74963400  0.55546700  0.53487000  1
  Rb  Rb22  1  0.75036600  0.44453300  0.03487000  1
  Rb  Rb23  1  0.25036600  0.05546700  0.96513000  1
  Rb  Rb24  1  0.62597300  0.17327500  0.15164600  1
  Rb  Rb25  1  0.12597300  0.32672500  0.84835400  1
  Rb  Rb26  1  0.37402700  0.67327500  0.34835400  1
  Rb  Rb27  1  0.87402700  0.82672500  0.65164600  1
  Rb  Rb28  1  0.37402700  0.82672500  0.84835400  1
  Rb  Rb29  1  0.87402700  0.67327500  0.15164600  1
  Rb  Rb30  1  0.62597300  0.32672500  0.65164600  1
  Rb  Rb31  1  0.12597300  0.17327500  0.34835400  1
  Pb  Pb32  1  0.60779200  0.06240800  0.34913300  1
  Pb  Pb33  1  0.10779200  0.43759200  0.65086700  1
  Pb  Pb34  1  0.39220800  0.56240800  0.15086700  1
  Pb  Pb35  1  0.89220800  0.93759200  0.84913300  1
  Pb  Pb36  1  0.39220800  0.93759200  0.65086700  1
  Pb  Pb37  1  0.89220800  0.56240800  0.34913300  1
  Pb  Pb38  1  0.60779200  0.43759200  0.84913300  1
  Pb  Pb39  1  0.10779200  0.06240800  0.15086700  1
  O  O40  1  0.95507200  0.35627600  0.56733100  1
  O  O41  1  0.45507200  0.14372400  0.43266900  1
  O  O42  1  0.04492800  0.85627600  0.93266900  1
  O  O43  1  0.54492800  0.64372400  0.06733100  1
  O  O44  1  0.04492800  0.64372400  0.43266900  1
  O  O45  1  0.54492800  0.85627600  0.56733100  1
  O  O46  1  0.95507200  0.14372400  0.06733100  1
  O  O47  1  0.45507200  0.35627600  0.93266900  1
  O  O48  1  0.53924100  0.40018900  0.15657200  1
  O  O49  1  0.03924100  0.09981100  0.84342800  1
  O  O50  1  0.46075900  0.90018900  0.34342800  1
  O  O51  1  0.96075900  0.59981100  0.65657200  1
  O  O52  1  0.46075900  0.59981100  0.84342800  1
  O  O53  1  0.96075900  0.90018900  0.15657200  1
  O  O54  1  0.53924100  0.09981100  0.65657200  1
  O  O55  1  0.03924100  0.40018900  0.34342800  1
  O  O56  1  0.87782900  0.48515300  0.89962200  1
  O  O57  1  0.37782900  0.01484700  0.10037800  1
  O  O58  1  0.12217100  0.98515300  0.60037800  1
  O  O59  1  0.62217100  0.51484700  0.39962200  1
  O  O60  1  0.12217100  0.51484700  0.10037800  1
  O  O61  1  0.62217100  0.98515300  0.89962200  1
  O  O62  1  0.87782900  0.01484700  0.39962200  1
  O  O63  1  0.37782900  0.48515300  0.60037800  1
