# generated using pymatgen
data_Ca(Ni2B)6
_symmetry_space_group_name_H-M   'P 1'
_cell_length_a   6.02046974
_cell_length_b   6.02046974
_cell_length_c   6.02047069
_cell_angle_alpha   104.35243229
_cell_angle_beta   104.35243229
_cell_angle_gamma   104.35242638
_symmetry_Int_Tables_number   1
_chemical_formula_structural   Ca(Ni2B)6
_chemical_formula_sum   'Ca1 Ni12 B6'
_cell_volume   193.36585113
_cell_formula_units_Z   1
loop_
 _symmetry_equiv_pos_site_id
 _symmetry_equiv_pos_as_xyz
  1  'x, y, z'
loop_
 _atom_site_type_symbol
 _atom_site_label
 _atom_site_symmetry_multiplicity
 _atom_site_fract_x
 _atom_site_fract_y
 _atom_site_fract_z
 _atom_site_occupancy
  Ca  Ca0  1  0.00000000  0.00000000  0.00000000  1
  Ni  Ni1  1  0.50000000  0.86938000  0.13062000  1
  Ni  Ni2  1  0.45637000  0.45637000  0.18663000  1
  Ni  Ni3  1  0.18663000  0.45637000  0.45637000  1
  Ni  Ni4  1  0.54363000  0.81337000  0.54363000  1
  Ni  Ni5  1  0.81337000  0.54363000  0.54363000  1
  Ni  Ni6  1  0.54363000  0.54363000  0.81337000  1
  Ni  Ni7  1  0.13062000  0.50000000  0.86938000  1
  Ni  Ni8  1  0.86938000  0.13062000  0.50000000  1
  Ni  Ni9  1  0.50000000  0.13062000  0.86938000  1
  Ni  Ni10  1  0.86938000  0.50000000  0.13062000  1
  Ni  Ni11  1  0.13062000  0.86938000  0.50000000  1
  Ni  Ni12  1  0.45637000  0.18663000  0.45637000  1
  B  B13  1  0.76454500  0.76454500  0.33481200  1
  B  B14  1  0.33481200  0.76454500  0.76454500  1
  B  B15  1  0.76454500  0.33481200  0.76454500  1
  B  B16  1  0.66518800  0.23545500  0.23545500  1
  B  B17  1  0.23545500  0.23545500  0.66518800  1
  B  B18  1  0.23545500  0.66518800  0.23545500  1
