# generated using pymatgen
data_TlTeF5
_symmetry_space_group_name_H-M   'P 1'
_cell_length_a   4.95224300
_cell_length_b   6.28077500
_cell_length_c   17.12731100
_cell_angle_alpha   90.00000000
_cell_angle_beta   90.00000000
_cell_angle_gamma   90.00000000
_symmetry_Int_Tables_number   1
_chemical_formula_structural   TlTeF5
_chemical_formula_sum   'Tl4 Te4 F20'
_cell_volume   532.72658015
_cell_formula_units_Z   4
loop_
 _symmetry_equiv_pos_site_id
 _symmetry_equiv_pos_as_xyz
  1  'x, y, z'
loop_
 _atom_site_type_symbol
 _atom_site_label
 _atom_site_symmetry_multiplicity
 _atom_site_fract_x
 _atom_site_fract_y
 _atom_site_fract_z
 _atom_site_occupancy
  Tl  Tl0  1  0.32229700  0.75000000  0.56563200  1
  Tl  Tl1  1  0.82229700  0.25000000  0.93436800  1
  Tl  Tl2  1  0.67770300  0.25000000  0.43436800  1
  Tl  Tl3  1  0.17770300  0.75000000  0.06563200  1
  Te  Te4  1  0.04456700  0.75000000  0.33607200  1
  Te  Te5  1  0.54456700  0.25000000  0.16392800  1
  Te  Te6  1  0.95543300  0.25000000  0.66392800  1
  Te  Te7  1  0.45543300  0.75000000  0.83607200  1
  F  F8  1  0.21928200  0.47290600  0.69850000  1
  F  F9  1  0.71928200  0.52709400  0.80150000  1
  F  F10  1  0.78071800  0.97290600  0.30150000  1
  F  F11  1  0.28071800  0.02709400  0.19850000  1
  F  F12  1  0.78071800  0.52709400  0.30150000  1
  F  F13  1  0.28071800  0.47290600  0.19850000  1
  F  F14  1  0.21928200  0.02709400  0.69850000  1
  F  F15  1  0.71928200  0.97290600  0.80150000  1
  F  F16  1  0.69626600  0.75000000  0.92503500  1
  F  F17  1  0.19626600  0.25000000  0.57496500  1
  F  F18  1  0.30373400  0.25000000  0.07496500  1
  F  F19  1  0.80373400  0.75000000  0.42503500  1
  F  F20  1  0.28184900  0.97632800  0.90420000  1
  F  F21  1  0.78184900  0.02367200  0.59580000  1
  F  F22  1  0.71815100  0.47632800  0.09580000  1
  F  F23  1  0.21815100  0.52367200  0.40420000  1
  F  F24  1  0.71815100  0.02367200  0.09580000  1
  F  F25  1  0.21815100  0.97632800  0.40420000  1
  F  F26  1  0.28184900  0.52367200  0.90420000  1
  F  F27  1  0.78184900  0.47632800  0.59580000  1
