# generated using pymatgen
data_Ca2PbAu2
_symmetry_space_group_name_H-M   'P 1'
_cell_length_a   8.27664700
_cell_length_b   8.27664700
_cell_length_c   3.75126400
_cell_angle_alpha   90.00000000
_cell_angle_beta   90.00000000
_cell_angle_gamma   90.00000000
_symmetry_Int_Tables_number   1
_chemical_formula_structural   Ca2PbAu2
_chemical_formula_sum   'Ca4 Pb2 Au4'
_cell_volume   256.97240851
_cell_formula_units_Z   2
loop_
 _symmetry_equiv_pos_site_id
 _symmetry_equiv_pos_as_xyz
  1  'x, y, z'
loop_
 _atom_site_type_symbol
 _atom_site_label
 _atom_site_symmetry_multiplicity
 _atom_site_fract_x
 _atom_site_fract_y
 _atom_site_fract_z
 _atom_site_occupancy
  Ca  Ca0  1  0.67269000  0.17269000  0.50000000  1
  Ca  Ca1  1  0.17269000  0.32731000  0.50000000  1
  Ca  Ca2  1  0.82731000  0.67269000  0.50000000  1
  Ca  Ca3  1  0.32731000  0.82731000  0.50000000  1
  Pb  Pb4  1  0.00000000  0.00000000  0.00000000  1
  Pb  Pb5  1  0.50000000  0.50000000  0.00000000  1
  Au  Au6  1  0.12307000  0.62307000  0.00000000  1
  Au  Au7  1  0.62307000  0.87693000  0.00000000  1
  Au  Au8  1  0.37693000  0.12307000  0.00000000  1
  Au  Au9  1  0.87693000  0.37693000  0.00000000  1
