# generated using pymatgen
data_SrFeF5
_symmetry_space_group_name_H-M   'P 1'
_cell_length_a   7.41020700
_cell_length_b   7.15839500
_cell_length_c   14.93160250
_cell_angle_alpha   84.59639206
_cell_angle_beta   90.00000000
_cell_angle_gamma   90.00000000
_symmetry_Int_Tables_number   1
_chemical_formula_structural   SrFeF5
_chemical_formula_sum   'Sr8 Fe8 F40'
_cell_volume   788.52983275
_cell_formula_units_Z   8
loop_
 _symmetry_equiv_pos_site_id
 _symmetry_equiv_pos_as_xyz
  1  'x, y, z'
loop_
 _atom_site_type_symbol
 _atom_site_label
 _atom_site_symmetry_multiplicity
 _atom_site_fract_x
 _atom_site_fract_y
 _atom_site_fract_z
 _atom_site_occupancy
  Sr  Sr0  1  0.15792500  0.99913400  0.63753300  1
  Sr  Sr1  1  0.65792500  0.00086600  0.86246700  1
  Sr  Sr2  1  0.84207500  0.00086600  0.36246700  1
  Sr  Sr3  1  0.34207500  0.99913400  0.13753300  1
  Sr  Sr4  1  0.65434600  0.31412500  0.58708400  1
  Sr  Sr5  1  0.15434600  0.68587500  0.91291600  1
  Sr  Sr6  1  0.34565400  0.68587500  0.41291600  1
  Sr  Sr7  1  0.84565400  0.31412500  0.08708400  1
  Fe  Fe8  1  0.18423900  0.18856200  0.87525800  1
  Fe  Fe9  1  0.68423900  0.81143800  0.62474200  1
  Fe  Fe10  1  0.81576100  0.81143800  0.12474200  1
  Fe  Fe11  1  0.31576100  0.18856200  0.37525800  1
  Fe  Fe12  1  0.11663500  0.49300100  0.66133300  1
  Fe  Fe13  1  0.61663500  0.50699900  0.83866700  1
  Fe  Fe14  1  0.88336500  0.50699900  0.33866700  1
  Fe  Fe15  1  0.38336500  0.49300100  0.16133300  1
  F  F16  1  0.32187300  0.04320200  0.96718900  1
  F  F17  1  0.82187300  0.95679800  0.53281100  1
  F  F18  1  0.67812700  0.95679800  0.03281100  1
  F  F19  1  0.17812700  0.04320200  0.46718900  1
  F  F20  1  0.07552000  0.34644800  0.95877000  1
  F  F21  1  0.57552000  0.65355200  0.54123000  1
  F  F22  1  0.92448000  0.65355200  0.04123000  1
  F  F23  1  0.42448000  0.34644800  0.45877000  1
  F  F24  1  0.36373900  0.39462900  0.85607700  1
  F  F25  1  0.86373900  0.60537100  0.64392300  1
  F  F26  1  0.63626100  0.60537100  0.14392300  1
  F  F27  1  0.13626100  0.39462900  0.35607700  1
  F  F28  1  0.30955800  0.03304600  0.79375500  1
  F  F29  1  0.80955800  0.96695400  0.70624500  1
  F  F30  1  0.69044200  0.96695400  0.20624500  1
  F  F31  1  0.19044200  0.03304600  0.29375500  1
  F  F32  1  0.50459200  0.29957100  0.09857600  1
  F  F33  1  0.00459200  0.70042900  0.40142400  1
  F  F34  1  0.49540800  0.70042900  0.90142400  1
  F  F35  1  0.99540800  0.29957100  0.59857600  1
  F  F36  1  0.30595100  0.68075700  0.06757000  1
  F  F37  1  0.80595100  0.31924300  0.43243000  1
  F  F38  1  0.69404900  0.31924300  0.93243000  1
  F  F39  1  0.19404900  0.68075700  0.56757000  1
  F  F40  1  0.34056800  0.68735800  0.24169400  1
  F  F41  1  0.84056800  0.31264200  0.25830600  1
  F  F42  1  0.65943200  0.31264200  0.75830600  1
  F  F43  1  0.15943200  0.68735800  0.74169400  1
  F  F44  1  0.44564200  0.31978700  0.27205800  1
  F  F45  1  0.94564200  0.68021300  0.22794200  1
  F  F46  1  0.55435800  0.68021300  0.72794200  1
  F  F47  1  0.05435800  0.31978700  0.77205800  1
  F  F48  1  0.17084700  0.34580500  0.14900900  1
  F  F49  1  0.67084700  0.65419500  0.35099100  1
  F  F50  1  0.82915300  0.65419500  0.85099100  1
  F  F51  1  0.32915300  0.34580500  0.64900900  1
  F  F52  1  0.50769200  0.00153800  0.39001400  1
  F  F53  1  0.00769200  0.99846200  0.10998600  1
  F  F54  1  0.49230800  0.99846200  0.60998600  1
  F  F55  1  0.99230800  0.00153800  0.89001400  1
