# generated using pymatgen
data_Cd2P6O17
_symmetry_space_group_name_H-M   'P 1'
_cell_length_a   18.38817700
_cell_length_b   5.61178200
_cell_length_c   7.71471003
_cell_angle_alpha   68.63060039
_cell_angle_beta   90.00000000
_cell_angle_gamma   90.00000000
_symmetry_Int_Tables_number   1
_chemical_formula_structural   Cd2P6O17
_chemical_formula_sum   'Cd4 P12 O34'
_cell_volume   741.35397246
_cell_formula_units_Z   2
loop_
 _symmetry_equiv_pos_site_id
 _symmetry_equiv_pos_as_xyz
  1  'x, y, z'
loop_
 _atom_site_type_symbol
 _atom_site_label
 _atom_site_symmetry_multiplicity
 _atom_site_fract_x
 _atom_site_fract_y
 _atom_site_fract_z
 _atom_site_occupancy
  Cd  Cd0  1  0.07294200  0.09514400  0.14393900  1
  Cd  Cd1  1  0.57294200  0.90485600  0.35606100  1
  Cd  Cd2  1  0.92705800  0.90485600  0.85606100  1
  Cd  Cd3  1  0.42705800  0.09514400  0.64393900  1
  P  P4  1  0.02967800  0.49242300  0.69476500  1
  P  P5  1  0.52967800  0.50757700  0.80523500  1
  P  P6  1  0.97032200  0.50757700  0.30523500  1
  P  P7  1  0.47032200  0.49242300  0.19476500  1
  P  P8  1  0.16817500  0.73698100  0.58109600  1
  P  P9  1  0.66817500  0.26301900  0.91890400  1
  P  P10  1  0.83182500  0.26301900  0.41890400  1
  P  P11  1  0.33182500  0.73698100  0.08109600  1
  P  P12  1  0.17823200  0.70725600  0.97754500  1
  P  P13  1  0.67823200  0.29274400  0.52245500  1
  P  P14  1  0.82176800  0.29274400  0.02245500  1
  P  P15  1  0.32176800  0.70725600  0.47754500  1
  O  O16  1  0.01215000  0.23392900  0.83989100  1
  O  O17  1  0.51215000  0.76607100  0.66010900  1
  O  O18  1  0.98785000  0.76607100  0.16010900  1
  O  O19  1  0.48785000  0.23392900  0.33989100  1
  O  O20  1  0.01083100  0.73345600  0.72381500  1
  O  O21  1  0.51083100  0.26654400  0.77618500  1
  O  O22  1  0.98916900  0.26654400  0.27618500  1
  O  O23  1  0.48916900  0.73345600  0.22381500  1
  O  O24  1  0.00000000  0.50000000  0.50000000  1
  O  O25  1  0.50000000  0.50000000  0.00000000  1
  O  O26  1  0.11731800  0.49143500  0.65696300  1
  O  O27  1  0.61731800  0.50856500  0.84303700  1
  O  O28  1  0.88268200  0.50856500  0.34303700  1
  O  O29  1  0.38268200  0.49143500  0.15696300  1
  O  O30  1  0.13900100  0.95282100  0.42199600  1
  O  O31  1  0.63900100  0.04717900  0.07800400  1
  O  O32  1  0.23873100  0.60478100  0.53970500  1
  O  O33  1  0.73873100  0.39521900  0.96029500  1
  O  O34  1  0.76126900  0.39521900  0.46029500  1
  O  O35  1  0.26126900  0.60478100  0.03970500  1
  O  O36  1  0.33513400  0.93338600  0.53079600  1
  O  O37  1  0.83513400  0.06661400  0.96920400  1
  O  O38  1  0.66486600  0.06661400  0.46920400  1
  O  O39  1  0.16486600  0.93338600  0.03079600  1
  O  O40  1  0.36956900  0.47947100  0.53897900  1
  O  O41  1  0.86956900  0.52052900  0.96102100  1
  O  O42  1  0.63043100  0.52052900  0.46102100  1
  O  O43  1  0.13043100  0.47947100  0.03897900  1
  O  O44  1  0.31275200  0.81923200  0.25068300  1
  O  O45  1  0.81275200  0.18076800  0.24931700  1
  O  O46  1  0.68724800  0.18076800  0.74931700  1
  O  O47  1  0.18724800  0.81923200  0.75068300  1
  O  O48  1  0.36099900  0.95282100  0.92199600  1
  O  O49  1  0.86099900  0.04717900  0.57800400  1
