# generated using pymatgen
data_NiP4O11
_symmetry_space_group_name_H-M   'P 1'
_cell_length_a   8.16229200
_cell_length_b   9.54506200
_cell_length_c   13.33635833
_cell_angle_alpha   56.51325728
_cell_angle_beta   90.00000000
_cell_angle_gamma   90.00000000
_symmetry_Int_Tables_number   1
_chemical_formula_structural   NiP4O11
_chemical_formula_sum   'Ni4 P16 O44'
_cell_volume   866.56515481
_cell_formula_units_Z   4
loop_
 _symmetry_equiv_pos_site_id
 _symmetry_equiv_pos_as_xyz
  1  'x, y, z'
loop_
 _atom_site_type_symbol
 _atom_site_label
 _atom_site_symmetry_multiplicity
 _atom_site_fract_x
 _atom_site_fract_y
 _atom_site_fract_z
 _atom_site_occupancy
  Ni  Ni0  1  0.48620500  0.75253000  0.28187100  1
  Ni  Ni1  1  0.98620500  0.24747000  0.21812900  1
  Ni  Ni2  1  0.51379500  0.24747000  0.71812900  1
  Ni  Ni3  1  0.01379500  0.75253000  0.78187100  1
  P  P4  1  0.49827700  0.33001900  0.92683700  1
  P  P5  1  0.99827700  0.66998100  0.57316300  1
  P  P6  1  0.50172300  0.66998100  0.07316300  1
  P  P7  1  0.00172300  0.33001900  0.42683700  1
  P  P8  1  0.88814700  0.68347800  0.25583700  1
  P  P9  1  0.38814700  0.31652200  0.24416300  1
  P  P10  1  0.11185300  0.31652200  0.74416300  1
  P  P11  1  0.61185300  0.68347800  0.75583700  1
  P  P12  1  0.61361900  0.13751200  0.17469300  1
  P  P13  1  0.11361900  0.86248800  0.32530700  1
  P  P14  1  0.62536600  0.66657200  0.54426800  1
  P  P15  1  0.88638100  0.13751200  0.67469300  1
  P  P16  1  0.87463400  0.66657200  0.04426800  1
  P  P17  1  0.37463400  0.33342800  0.45573200  1
  P  P18  1  0.12536600  0.33342800  0.95573200  1
  P  P19  1  0.38638100  0.86248800  0.82530700  1
  O  O20  1  0.54227100  0.77034000  0.42631100  1
  O  O21  1  0.04227100  0.22966000  0.07368900  1
  O  O22  1  0.45772900  0.22966000  0.57368900  1
  O  O23  1  0.95772900  0.77034000  0.92631100  1
  O  O24  1  0.01150900  0.53097200  0.33811500  1
  O  O25  1  0.51150900  0.46902800  0.16188500  1
  O  O26  1  0.98849100  0.46902800  0.66188500  1
  O  O27  1  0.48849100  0.53097200  0.83811500  1
  O  O28  1  0.68012000  0.72177400  0.02165100  1
  O  O29  1  0.18012000  0.27822600  0.47834900  1
  O  O30  1  0.31988000  0.27822600  0.97834900  1
  O  O31  1  0.81988000  0.72177400  0.52165100  1
  O  O32  1  0.38316600  0.51880500  0.37819500  1
  O  O33  1  0.88316600  0.48119500  0.12180500  1
  O  O34  1  0.61683400  0.48119500  0.62180500  1
  O  O35  1  0.45039700  0.17211000  0.23147200  1
  O  O36  1  0.93158300  0.74661100  0.12181400  1
  O  O37  1  0.43158300  0.25338900  0.37818600  1
  O  O38  1  0.06841700  0.25338900  0.87818600  1
  O  O39  1  0.56841700  0.74661100  0.62181400  1
  O  O40  1  0.92107100  0.98834700  0.67029700  1
  O  O41  1  0.42107100  0.01165300  0.82970300  1
  O  O42  1  0.07892900  0.01165300  0.32970300  1
  O  O43  1  0.57892900  0.98834700  0.17029700  1
  O  O44  1  0.89662900  0.30523900  0.53532400  1
  O  O45  1  0.39662900  0.69476100  0.96467600  1
  O  O46  1  0.10337100  0.69476100  0.46467600  1
  O  O47  1  0.60337100  0.30523900  0.03532400  1
  O  O48  1  0.24028900  0.84719100  0.76699300  1
  O  O49  1  0.74028900  0.15280900  0.73300700  1
  O  O50  1  0.75971100  0.15280900  0.23300700  1
  O  O51  1  0.25971100  0.84719100  0.26699300  1
  O  O52  1  0.78528900  0.63725100  0.79035800  1
  O  O53  1  0.28528900  0.36274900  0.70964200  1
  O  O54  1  0.21471100  0.36274900  0.20964200  1
  O  O55  1  0.71471100  0.63725100  0.29035800  1
  O  O56  1  0.06699500  0.75459100  0.62814800  1
  O  O57  1  0.56699500  0.24540900  0.87185200  1
  O  O58  1  0.93300500  0.24540900  0.37185200  1
  O  O59  1  0.43300500  0.75459100  0.12814800  1
  O  O60  1  0.04960300  0.17211000  0.73147200  1
  O  O61  1  0.54960300  0.82789000  0.76852800  1
  O  O62  1  0.95039700  0.82789000  0.26852800  1
  O  O63  1  0.11683400  0.51880500  0.87819500  1
