# generated using pymatgen
data_Cr2CoO4
_symmetry_space_group_name_H-M   'P 1'
_cell_length_a   5.98829558
_cell_length_b   5.98830300
_cell_length_c   5.98829097
_cell_angle_alpha   89.99998491
_cell_angle_beta   119.99997543
_cell_angle_gamma   59.99995031
_symmetry_Int_Tables_number   1
_chemical_formula_structural   Cr2CoO4
_chemical_formula_sum   'Cr4 Co2 O8'
_cell_volume   151.84296336
_cell_formula_units_Z   2
loop_
 _symmetry_equiv_pos_site_id
 _symmetry_equiv_pos_as_xyz
  1  'x, y, z'
loop_
 _atom_site_type_symbol
 _atom_site_label
 _atom_site_symmetry_multiplicity
 _atom_site_fract_x
 _atom_site_fract_y
 _atom_site_fract_z
 _atom_site_occupancy
  Cr  Cr0  1  0.50000000  0.49999800  0.50000000  1
  Cr  Cr1  1  0.50000300  0.49999700  0.00000100  1
  Cr  Cr2  1  0.99999700  0.00000300  0.49999500  1
  Cr  Cr3  1  0.99999900  0.50000100  0.49999900  1
  Co  Co4  1  0.25000000  0.12500000  0.12500100  1
  Co  Co5  1  0.75000000  0.87500000  0.87500000  1
  O  O6  1  0.47711500  0.73855700  0.73855900  1
  O  O7  1  0.52288400  0.71567200  0.26144300  1
  O  O8  1  0.97711500  0.26144300  0.26144300  1
  O  O9  1  0.97711600  0.26144200  0.71567300  1
  O  O10  1  0.02288500  0.73855700  0.73855800  1
  O  O11  1  0.02288500  0.73855800  0.28432800  1
  O  O12  1  0.52288400  0.26144300  0.26144300  1
  O  O13  1  0.47711600  0.28432800  0.73855800  1
