# generated using pymatgen
data_Zn3P2
_symmetry_space_group_name_H-M   'P 1'
_cell_length_a   8.12069100
_cell_length_b   8.12069100
_cell_length_c   11.46659000
_cell_angle_alpha   90.00000000
_cell_angle_beta   90.00000000
_cell_angle_gamma   90.00000000
_symmetry_Int_Tables_number   1
_chemical_formula_structural   Zn3P2
_chemical_formula_sum   'Zn24 P16'
_cell_volume   756.17141341
_cell_formula_units_Z   8
loop_
 _symmetry_equiv_pos_site_id
 _symmetry_equiv_pos_as_xyz
  1  'x, y, z'
loop_
 _atom_site_type_symbol
 _atom_site_label
 _atom_site_symmetry_multiplicity
 _atom_site_fract_x
 _atom_site_fract_y
 _atom_site_fract_z
 _atom_site_occupancy
  Zn  Zn0  1  0.50000000  0.71708200  0.60624900  1
  Zn  Zn1  1  0.78291800  0.00000000  0.10624900  1
  Zn  Zn2  1  0.21708200  0.00000000  0.10624900  1
  Zn  Zn3  1  0.00000000  0.78291800  0.89375100  1
  Zn  Zn4  1  0.00000000  0.21708200  0.89375100  1
  Zn  Zn5  1  0.50000000  0.28291800  0.60624900  1
  Zn  Zn6  1  0.71708200  0.50000000  0.39375100  1
  Zn  Zn7  1  0.28291800  0.50000000  0.39375100  1
  Zn  Zn8  1  0.50000000  0.78304300  0.88517000  1
  Zn  Zn9  1  0.71695700  0.00000000  0.38517000  1
  Zn  Zn10  1  0.28304300  0.00000000  0.38517000  1
  Zn  Zn11  1  0.00000000  0.71695700  0.61483000  1
  Zn  Zn12  1  0.00000000  0.28304300  0.61483000  1
  Zn  Zn13  1  0.50000000  0.21695700  0.88517000  1
  Zn  Zn14  1  0.78304300  0.50000000  0.11483000  1
  Zn  Zn15  1  0.21695700  0.50000000  0.11483000  1
  Zn  Zn16  1  0.50000000  0.74679500  0.14815500  1
  Zn  Zn17  1  0.75320500  0.00000000  0.64815500  1
  Zn  Zn18  1  0.24679500  0.00000000  0.64815500  1
  Zn  Zn19  1  0.00000000  0.75320500  0.35184500  1
  Zn  Zn20  1  0.00000000  0.24679500  0.35184500  1
  Zn  Zn21  1  0.50000000  0.25320500  0.14815500  1
  Zn  Zn22  1  0.74679500  0.50000000  0.85184500  1
  Zn  Zn23  1  0.25320500  0.50000000  0.85184500  1
  P  P24  1  0.50000000  0.50000000  0.74610600  1
  P  P25  1  0.00000000  0.00000000  0.24610600  1
  P  P26  1  0.00000000  0.00000000  0.75389400  1
  P  P27  1  0.50000000  0.50000000  0.25389400  1
  P  P28  1  0.50000000  0.00000000  0.74580100  1
  P  P29  1  0.50000000  0.00000000  0.24580100  1
  P  P30  1  0.00000000  0.50000000  0.75419900  1
  P  P31  1  0.00000000  0.50000000  0.25419900  1
  P  P32  1  0.75439100  0.75439100  0.50000000  1
  P  P33  1  0.74560900  0.25439100  0.00000000  1
  P  P34  1  0.25439100  0.74560900  0.00000000  1
  P  P35  1  0.24560900  0.24560900  0.50000000  1
  P  P36  1  0.74560900  0.74560900  0.00000000  1
  P  P37  1  0.75439100  0.24560900  0.50000000  1
  P  P38  1  0.24560900  0.75439100  0.50000000  1
  P  P39  1  0.25439100  0.25439100  0.00000000  1
