# generated using pymatgen
data_LiAuI4
_symmetry_space_group_name_H-M   'P 1'
_cell_length_a   4.46989300
_cell_length_b   7.21159800
_cell_length_c   15.08427046
_cell_angle_alpha   63.44013322
_cell_angle_beta   90.00000000
_cell_angle_gamma   90.00000000
_symmetry_Int_Tables_number   1
_chemical_formula_structural   LiAuI4
_chemical_formula_sum   'Li2 Au2 I8'
_cell_volume   434.92821973
_cell_formula_units_Z   2
loop_
 _symmetry_equiv_pos_site_id
 _symmetry_equiv_pos_as_xyz
  1  'x, y, z'
loop_
 _atom_site_type_symbol
 _atom_site_label
 _atom_site_symmetry_multiplicity
 _atom_site_fract_x
 _atom_site_fract_y
 _atom_site_fract_z
 _atom_site_occupancy
  Li  Li0  1  0.50000000  0.50000000  0.00000000  1
  Li  Li1  1  0.00000000  0.50000000  0.50000000  1
  Au  Au2  1  0.00000000  0.00000000  0.00000000  1
  Au  Au3  1  0.50000000  0.00000000  0.50000000  1
  I  I4  1  0.50732700  0.20221700  0.61197200  1
  I  I5  1  0.00732700  0.79778300  0.88802800  1
  I  I6  1  0.49267300  0.79778300  0.38802800  1
  I  I7  1  0.99267300  0.20221700  0.11197200  1
  I  I8  1  0.17156000  0.69276400  0.63814500  1
  I  I9  1  0.67156000  0.30723600  0.86185500  1
  I  I10  1  0.82844000  0.30723600  0.36185500  1
  I  I11  1  0.32844000  0.69276400  0.13814500  1
