# generated using pymatgen
data_Ti6CCl14
_symmetry_space_group_name_H-M   'P 1'
_cell_length_a   9.35832843
_cell_length_b   9.35832843
_cell_length_c   11.14377900
_cell_angle_alpha   90.00000000
_cell_angle_beta   90.00000000
_cell_angle_gamma   92.89043113
_symmetry_Int_Tables_number   1
_chemical_formula_structural   Ti6CCl14
_chemical_formula_sum   'Ti12 C2 Cl28'
_cell_volume   974.71172736
_cell_formula_units_Z   2
loop_
 _symmetry_equiv_pos_site_id
 _symmetry_equiv_pos_as_xyz
  1  'x, y, z'
loop_
 _atom_site_type_symbol
 _atom_site_label
 _atom_site_symmetry_multiplicity
 _atom_site_fract_x
 _atom_site_fract_y
 _atom_site_fract_z
 _atom_site_occupancy
  Ti  Ti0  1  0.63476800  0.63476800  0.09773600  1
  Ti  Ti1  1  0.86523200  0.86523200  0.59773600  1
  Ti  Ti2  1  0.13476800  0.13476800  0.40226400  1
  Ti  Ti3  1  0.36523200  0.36523200  0.90226400  1
  Ti  Ti4  1  0.44922400  0.67576100  0.88395900  1
  Ti  Ti5  1  0.05077600  0.82423900  0.38395900  1
  Ti  Ti6  1  0.17576100  0.94922400  0.61604100  1
  Ti  Ti7  1  0.32423900  0.55077600  0.11604100  1
  Ti  Ti8  1  0.55077600  0.32423900  0.11604100  1
  Ti  Ti9  1  0.94922400  0.17576100  0.61604100  1
  Ti  Ti10  1  0.82423900  0.05077600  0.38395900  1
  Ti  Ti11  1  0.67576100  0.44922400  0.88395900  1
  C  C12  1  0.50000000  0.50000000  0.00000000  1
  C  C13  1  0.00000000  0.00000000  0.50000000  1
  Cl  Cl14  1  0.61117200  0.11117200  0.25000000  1
  Cl  Cl15  1  0.88882800  0.38882800  0.75000000  1
  Cl  Cl16  1  0.38882800  0.88882800  0.75000000  1
  Cl  Cl17  1  0.11117200  0.61117200  0.25000000  1
  Cl  Cl18  1  0.39604700  0.15208800  0.01202500  1
  Cl  Cl19  1  0.10395300  0.34791200  0.51202500  1
  Cl  Cl20  1  0.65208800  0.89604700  0.48797500  1
  Cl  Cl21  1  0.84791200  0.60395300  0.98797500  1
  Cl  Cl22  1  0.60395300  0.84791200  0.98797500  1
  Cl  Cl23  1  0.89604700  0.65208800  0.48797500  1
  Cl  Cl24  1  0.74747300  0.25252700  0.00000000  1
  Cl  Cl25  1  0.75252700  0.24747300  0.50000000  1
  Cl  Cl26  1  0.25252700  0.74747300  0.00000000  1
  Cl  Cl27  1  0.24747300  0.75252700  0.50000000  1
  Cl  Cl28  1  0.14201000  0.14201000  0.75848200  1
  Cl  Cl29  1  0.35799000  0.35799000  0.25848200  1
  Cl  Cl30  1  0.64201000  0.64201000  0.74151800  1
  Cl  Cl31  1  0.85799000  0.85799000  0.24151800  1
  Cl  Cl32  1  0.96739900  0.20935200  0.25867400  1
  Cl  Cl33  1  0.53260100  0.29064800  0.75867400  1
  Cl  Cl34  1  0.70935200  0.46739900  0.24132600  1
  Cl  Cl35  1  0.79064800  0.03260100  0.74132600  1
  Cl  Cl36  1  0.03260100  0.79064800  0.74132600  1
  Cl  Cl37  1  0.46739900  0.70935200  0.24132600  1
  Cl  Cl38  1  0.29064800  0.53260100  0.75867400  1
  Cl  Cl39  1  0.20935200  0.96739900  0.25867400  1
  Cl  Cl40  1  0.15208800  0.39604700  0.01202500  1
  Cl  Cl41  1  0.34791200  0.10395300  0.51202500  1
