# generated using pymatgen
data_CeGe3Pd5
_symmetry_space_group_name_H-M   'P 1'
_cell_length_a   4.15028000
_cell_length_b   7.34402600
_cell_length_c   20.35038900
_cell_angle_alpha   90.00000000
_cell_angle_beta   90.00000000
_cell_angle_gamma   90.00000000
_symmetry_Int_Tables_number   1
_chemical_formula_structural   CeGe3Pd5
_chemical_formula_sum   'Ce4 Ge12 Pd20'
_cell_volume   620.27505865
_cell_formula_units_Z   4
loop_
 _symmetry_equiv_pos_site_id
 _symmetry_equiv_pos_as_xyz
  1  'x, y, z'
loop_
 _atom_site_type_symbol
 _atom_site_label
 _atom_site_symmetry_multiplicity
 _atom_site_fract_x
 _atom_site_fract_y
 _atom_site_fract_z
 _atom_site_occupancy
  Ce  Ce0  1  0.75000000  0.37684500  0.35548600  1
  Ce  Ce1  1  0.75000000  0.12315500  0.85548600  1
  Ce  Ce2  1  0.25000000  0.62315500  0.64451400  1
  Ce  Ce3  1  0.25000000  0.87684500  0.14451400  1
  Ge  Ge4  1  0.25000000  0.37745500  0.23827900  1
  Ge  Ge5  1  0.75000000  0.14915500  0.07599300  1
  Ge  Ge6  1  0.75000000  0.90567700  0.58596400  1
  Ge  Ge7  1  0.75000000  0.87745500  0.26172100  1
  Ge  Ge8  1  0.75000000  0.59432300  0.08596400  1
  Ge  Ge9  1  0.25000000  0.85084500  0.92400700  1
  Ge  Ge10  1  0.25000000  0.12254500  0.73827900  1
  Ge  Ge11  1  0.25000000  0.40567700  0.91403600  1
  Ge  Ge12  1  0.25000000  0.09432300  0.41403600  1
  Ge  Ge13  1  0.75000000  0.35084500  0.57599300  1
  Ge  Ge14  1  0.75000000  0.62254500  0.76172100  1
  Ge  Ge15  1  0.25000000  0.64915500  0.42400700  1
  Pd  Pd16  1  0.75000000  0.12082900  0.48560200  1
  Pd  Pd17  1  0.25000000  0.82290000  0.80043200  1
  Pd  Pd18  1  0.25000000  0.67710000  0.30043200  1
  Pd  Pd19  1  0.75000000  0.64568600  0.88405800  1
  Pd  Pd20  1  0.25000000  0.14568600  0.61594200  1
  Pd  Pd21  1  0.25000000  0.12850200  0.99447000  1
  Pd  Pd22  1  0.75000000  0.17710000  0.19956800  1
  Pd  Pd23  1  0.25000000  0.35431400  0.11594200  1
  Pd  Pd24  1  0.75000000  0.85431400  0.38405800  1
  Pd  Pd25  1  0.25000000  0.42669000  0.79394200  1
  Pd  Pd26  1  0.25000000  0.87917100  0.51439800  1
  Pd  Pd27  1  0.75000000  0.62850200  0.50553000  1
  Pd  Pd28  1  0.75000000  0.37917100  0.98560200  1
  Pd  Pd29  1  0.25000000  0.37149800  0.49447000  1
  Pd  Pd30  1  0.25000000  0.07331000  0.29394200  1
  Pd  Pd31  1  0.75000000  0.57331000  0.20605800  1
  Pd  Pd32  1  0.75000000  0.92669000  0.70605800  1
  Pd  Pd33  1  0.75000000  0.32290000  0.69956800  1
  Pd  Pd34  1  0.75000000  0.87149800  0.00553000  1
  Pd  Pd35  1  0.25000000  0.62082900  0.01439800  1
