# generated using pymatgen
data_Sr(FeO2)2
_symmetry_space_group_name_H-M   'P 1'
_cell_length_a   11.03096100
_cell_length_b   8.24690600
_cell_length_c   12.24303895
_cell_angle_alpha   49.73695093
_cell_angle_beta   90.00000000
_cell_angle_gamma   90.00000000
_symmetry_Int_Tables_number   1
_chemical_formula_structural   Sr(FeO2)2
_chemical_formula_sum   'Sr8 Fe16 O32'
_cell_volume   849.89780932
_cell_formula_units_Z   8
loop_
 _symmetry_equiv_pos_site_id
 _symmetry_equiv_pos_as_xyz
  1  'x, y, z'
loop_
 _atom_site_type_symbol
 _atom_site_label
 _atom_site_symmetry_multiplicity
 _atom_site_fract_x
 _atom_site_fract_y
 _atom_site_fract_z
 _atom_site_occupancy
  Sr  Sr0  1  0.39019200  0.72107400  0.27320700  1
  Sr  Sr1  1  0.89019200  0.27892600  0.22679300  1
  Sr  Sr2  1  0.60980800  0.27892600  0.72679300  1
  Sr  Sr3  1  0.10980800  0.72107400  0.77320700  1
  Sr  Sr4  1  0.84656200  0.70293700  0.29843100  1
  Sr  Sr5  1  0.34656200  0.29706300  0.20156900  1
  Sr  Sr6  1  0.15343800  0.29706300  0.70156900  1
  Sr  Sr7  1  0.65343800  0.70293700  0.79843100  1
  Fe  Fe8  1  0.61207900  0.66331900  0.09438000  1
  Fe  Fe9  1  0.11207900  0.33668100  0.40562000  1
  Fe  Fe10  1  0.38792100  0.33668100  0.90562000  1
  Fe  Fe11  1  0.88792100  0.66331900  0.59438000  1
  Fe  Fe12  1  0.38710400  0.75797000  0.56889200  1
  Fe  Fe13  1  0.88710400  0.24203000  0.93110800  1
  Fe  Fe14  1  0.61289600  0.24203000  0.43110800  1
  Fe  Fe15  1  0.11289600  0.75797000  0.06889200  1
  Fe  Fe16  1  0.63604700  0.10348200  0.09231300  1
  Fe  Fe17  1  0.13604700  0.89651800  0.40768700  1
  Fe  Fe18  1  0.36395300  0.89651800  0.90768700  1
  Fe  Fe19  1  0.86395300  0.10348200  0.59231300  1
  Fe  Fe20  1  0.63912000  0.84494600  0.43221800  1
  Fe  Fe21  1  0.13912000  0.15505400  0.06778200  1
  Fe  Fe22  1  0.36088000  0.15505400  0.56778200  1
  Fe  Fe23  1  0.86088000  0.84494600  0.93221800  1
  O  O24  1  0.48021000  0.74651300  0.44248900  1
  O  O25  1  0.98021000  0.25348700  0.05751100  1
  O  O26  1  0.51979000  0.25348700  0.55751100  1
  O  O27  1  0.01979000  0.74651300  0.94248900  1
  O  O28  1  0.52378600  0.79983800  0.92049900  1
  O  O29  1  0.02378600  0.20016200  0.57950100  1
  O  O30  1  0.47621400  0.20016200  0.07950100  1
  O  O31  1  0.97621400  0.79983800  0.42049900  1
  O  O32  1  0.21657600  0.68029800  0.58788800  1
  O  O33  1  0.71657600  0.31970200  0.91211200  1
  O  O34  1  0.78342400  0.31970200  0.41211200  1
  O  O35  1  0.28342400  0.68029800  0.08788800  1
  O  O36  1  0.75909200  0.59720300  0.04639100  1
  O  O37  1  0.25909200  0.40279700  0.45360900  1
  O  O38  1  0.24090800  0.40279700  0.95360900  1
  O  O39  1  0.74090800  0.59720300  0.54639100  1
  O  O40  1  0.53038300  0.41700800  0.25200400  1
  O  O41  1  0.03038300  0.58299200  0.24799600  1
  O  O42  1  0.46961700  0.58299200  0.74799600  1
  O  O43  1  0.96961700  0.41700800  0.75200400  1
  O  O44  1  0.72406400  0.03413800  0.25283100  1
  O  O45  1  0.22406400  0.96586200  0.24716900  1
  O  O46  1  0.27593600  0.96586200  0.74716900  1
  O  O47  1  0.77593600  0.03413800  0.75283100  1
  O  O48  1  0.86424800  0.94907300  0.03052000  1
  O  O49  1  0.36424800  0.05092700  0.46948000  1
  O  O50  1  0.13575200  0.05092700  0.96948000  1
  O  O51  1  0.63575200  0.94907300  0.53052000  1
  O  O52  1  0.88946500  0.82417800  0.65598200  1
  O  O53  1  0.38946500  0.17582200  0.84401800  1
  O  O54  1  0.11053500  0.17582200  0.34401800  1
  O  O55  1  0.61053500  0.82417800  0.15598200  1
