# generated using pymatgen
data_Sc5(Re2Si3)4
_symmetry_space_group_name_H-M   'P 1'
_cell_length_a   10.23479154
_cell_length_b   10.23479154
_cell_length_c   14.50626300
_cell_angle_alpha   90.00000000
_cell_angle_beta   90.00000000
_cell_angle_gamma   150.17311464
_symmetry_Int_Tables_number   1
_chemical_formula_structural   Sc5(Re2Si3)4
_chemical_formula_sum   'Sc10 Re16 Si24'
_cell_volume   755.79292795
_cell_formula_units_Z   2
loop_
 _symmetry_equiv_pos_site_id
 _symmetry_equiv_pos_as_xyz
  1  'x, y, z'
loop_
 _atom_site_type_symbol
 _atom_site_label
 _atom_site_symmetry_multiplicity
 _atom_site_fract_x
 _atom_site_fract_y
 _atom_site_fract_z
 _atom_site_occupancy
  Sc  Sc0  1  0.58817800  0.85936900  0.32678100  1
  Sc  Sc1  1  0.96069100  0.96069100  0.00000000  1
  Sc  Sc2  1  0.58817800  0.85936900  0.67321900  1
  Sc  Sc3  1  0.36114600  0.09299600  0.17527200  1
  Sc  Sc4  1  0.09299600  0.36114600  0.82472800  1
  Sc  Sc5  1  0.36114600  0.09299600  0.82472800  1
  Sc  Sc6  1  0.09299600  0.36114600  0.17527200  1
  Sc  Sc7  1  0.43639800  0.43639800  0.50000000  1
  Sc  Sc8  1  0.85936900  0.58817800  0.32678100  1
  Sc  Sc9  1  0.85936900  0.58817800  0.67321900  1
  Re  Re10  1  0.87111100  0.07240300  0.50000000  1
  Re  Re11  1  0.07240300  0.87111100  0.50000000  1
  Re  Re12  1  0.43822000  0.02656500  0.37590800  1
  Re  Re13  1  0.02656500  0.43822000  0.62409200  1
  Re  Re14  1  0.38891400  0.55636100  0.00000000  1
  Re  Re15  1  0.55636100  0.38891400  0.00000000  1
  Re  Re16  1  0.02656500  0.43822000  0.37590800  1
  Re  Re17  1  0.52777900  0.92996400  0.10754700  1
  Re  Re18  1  0.99902300  0.99902300  0.23086300  1
  Re  Re19  1  0.99902300  0.99902300  0.76913700  1
  Re  Re20  1  0.50682900  0.50682900  0.27939900  1
  Re  Re21  1  0.50682900  0.50682900  0.72060100  1
  Re  Re22  1  0.92996400  0.52777900  0.89245300  1
  Re  Re23  1  0.52777900  0.92996400  0.89245300  1
  Re  Re24  1  0.92996400  0.52777900  0.10754700  1
  Re  Re25  1  0.43822000  0.02656500  0.62409200  1
  Si  Si26  1  0.80124600  0.64485600  0.14864200  1
  Si  Si27  1  0.64485600  0.80124600  0.85135800  1
  Si  Si28  1  0.80124600  0.64485600  0.85135800  1
  Si  Si29  1  0.64485600  0.80124600  0.14864200  1
  Si  Si30  1  0.67373600  0.11263300  0.50000000  1
  Si  Si31  1  0.86196400  0.86196400  0.60333100  1
  Si  Si32  1  0.86196400  0.86196400  0.39666900  1
  Si  Si33  1  0.34873900  0.34873900  0.87869000  1
  Si  Si34  1  0.11263300  0.67373600  0.50000000  1
  Si  Si35  1  0.11892100  0.85689700  0.00000000  1
  Si  Si36  1  0.85689700  0.11892100  0.00000000  1
  Si  Si37  1  0.15659300  0.57223700  0.00000000  1
  Si  Si38  1  0.22827300  0.72800800  0.24218100  1
  Si  Si39  1  0.72800800  0.22827300  0.75781900  1
  Si  Si40  1  0.22827300  0.72800800  0.75781900  1
  Si  Si41  1  0.72800800  0.22827300  0.24218100  1
  Si  Si42  1  0.32913900  0.60904600  0.50000000  1
  Si  Si43  1  0.57223700  0.15659300  0.00000000  1
  Si  Si44  1  0.60904600  0.32913900  0.50000000  1
  Si  Si45  1  0.34873900  0.34873900  0.12131000  1
  Si  Si46  1  0.13603800  0.29795500  0.35326400  1
  Si  Si47  1  0.29795500  0.13603800  0.64673600  1
  Si  Si48  1  0.13603800  0.29795500  0.64673600  1
  Si  Si49  1  0.29795500  0.13603800  0.35326400  1
