# generated using pymatgen
data_Sr5Zr3F22
_symmetry_space_group_name_H-M   'P 1'
_cell_length_a   7.74544800
_cell_length_b   10.46245300
_cell_length_c   10.47596100
_cell_angle_alpha   90.00000000
_cell_angle_beta   90.00000000
_cell_angle_gamma   90.00000000
_symmetry_Int_Tables_number   1
_chemical_formula_structural   Sr5Zr3F22
_chemical_formula_sum   'Sr10 Zr6 F44'
_cell_volume   848.93401580
_cell_formula_units_Z   2
loop_
 _symmetry_equiv_pos_site_id
 _symmetry_equiv_pos_as_xyz
  1  'x, y, z'
loop_
 _atom_site_type_symbol
 _atom_site_label
 _atom_site_symmetry_multiplicity
 _atom_site_fract_x
 _atom_site_fract_y
 _atom_site_fract_z
 _atom_site_occupancy
  Sr  Sr0  1  0.26367800  0.25319000  0.79261400  1
  Sr  Sr1  1  0.76367800  0.74681000  0.70738600  1
  Sr  Sr2  1  0.73632200  0.25319000  0.20738600  1
  Sr  Sr3  1  0.23632200  0.74681000  0.29261400  1
  Sr  Sr4  1  0.00000000  0.98015000  0.00000000  1
  Sr  Sr5  1  0.50000000  0.01985000  0.50000000  1
  Sr  Sr6  1  0.50000000  0.93709200  0.00000000  1
  Sr  Sr7  1  0.00000000  0.06290800  0.50000000  1
  Sr  Sr8  1  0.50000000  0.46160600  0.50000000  1
  Sr  Sr9  1  0.00000000  0.53839400  0.00000000  1
  Zr  Zr10  1  0.75269900  0.22668500  0.78904400  1
  Zr  Zr11  1  0.25269900  0.77331500  0.71095600  1
  Zr  Zr12  1  0.24730100  0.22668500  0.21095600  1
  Zr  Zr13  1  0.74730100  0.77331500  0.28904400  1
  Zr  Zr14  1  0.00000000  0.46202100  0.50000000  1
  Zr  Zr15  1  0.50000000  0.53797900  0.00000000  1
  F  F16  1  0.71386300  0.47136500  0.10598500  1
  F  F17  1  0.21386300  0.52863500  0.39401500  1
  F  F18  1  0.28613700  0.47136500  0.89401500  1
  F  F19  1  0.78613700  0.52863500  0.60598500  1
  F  F20  1  0.73637900  0.11428000  0.38807700  1
  F  F21  1  0.23637900  0.88572000  0.11192300  1
  F  F22  1  0.26362100  0.11428000  0.61192300  1
  F  F23  1  0.76362100  0.88572000  0.88807700  1
  F  F24  1  0.71264000  0.60027200  0.89187800  1
  F  F25  1  0.21264000  0.39972800  0.60812200  1
  F  F26  1  0.28736000  0.60027200  0.10812200  1
  F  F27  1  0.78736000  0.39972800  0.39187800  1
  F  F28  1  0.91189400  0.62892600  0.38926100  1
  F  F29  1  0.41189400  0.37107400  0.11073900  1
  F  F30  1  0.56803000  0.63510500  0.34915100  1
  F  F31  1  0.08810600  0.62892600  0.61073900  1
  F  F32  1  0.74039000  0.07764100  0.65358100  1
  F  F33  1  0.24039000  0.92235900  0.84641900  1
  F  F34  1  0.25961000  0.07764100  0.34641900  1
  F  F35  1  0.75961000  0.92235900  0.15358100  1
  F  F36  1  0.98845500  0.12601800  0.79966600  1
  F  F37  1  0.48845500  0.87398200  0.70033400  1
  F  F38  1  0.01154500  0.12601800  0.20033400  1
  F  F39  1  0.51154500  0.87398200  0.29966600  1
  F  F40  1  0.52682400  0.12524900  0.84275600  1
  F  F41  1  0.02682400  0.87475100  0.65724400  1
  F  F42  1  0.47317600  0.12524900  0.15724400  1
  F  F43  1  0.97317600  0.87475100  0.34275600  1
  F  F44  1  0.78204900  0.16865500  0.98387600  1
  F  F45  1  0.28204900  0.83134500  0.51612400  1
  F  F46  1  0.21795100  0.16865500  0.01612400  1
  F  F47  1  0.71795100  0.83134500  0.48387600  1
  F  F48  1  0.56433300  0.29536300  0.65892800  1
  F  F49  1  0.06433300  0.70463700  0.84107200  1
  F  F50  1  0.43566700  0.29536300  0.34107200  1
  F  F51  1  0.93566700  0.70463700  0.15892800  1
  F  F52  1  0.91024800  0.29526500  0.61134900  1
  F  F53  1  0.41024800  0.70473500  0.88865100  1
  F  F54  1  0.08975200  0.29526500  0.38865100  1
  F  F55  1  0.58975200  0.70473500  0.11134900  1
  F  F56  1  0.93197000  0.36489500  0.84915100  1
  F  F57  1  0.43197000  0.63510500  0.65084900  1
  F  F58  1  0.06803000  0.36489500  0.15084900  1
  F  F59  1  0.58810600  0.37107400  0.88926100  1
