# generated using pymatgen
data_K5GaSe4
_symmetry_space_group_name_H-M   'P 1'
_cell_length_a   12.78246300
_cell_length_b   13.04715800
_cell_length_c   15.90900900
_cell_angle_alpha   90.00000000
_cell_angle_beta   90.00000000
_cell_angle_gamma   90.00000000
_symmetry_Int_Tables_number   1
_chemical_formula_structural   K5GaSe4
_chemical_formula_sum   'K40 Ga8 Se32'
_cell_volume   2653.22202311
_cell_formula_units_Z   8
loop_
 _symmetry_equiv_pos_site_id
 _symmetry_equiv_pos_as_xyz
  1  'x, y, z'
loop_
 _atom_site_type_symbol
 _atom_site_label
 _atom_site_symmetry_multiplicity
 _atom_site_fract_x
 _atom_site_fract_y
 _atom_site_fract_z
 _atom_site_occupancy
  K  K0  1  0.05402800  0.34001100  0.27802900  1
  K  K1  1  0.55402800  0.15998900  0.72197100  1
  K  K2  1  0.94597200  0.84001100  0.22197100  1
  K  K3  1  0.44597200  0.65998900  0.77802900  1
  K  K4  1  0.94597200  0.65998900  0.72197100  1
  K  K5  1  0.44597200  0.84001100  0.27802900  1
  K  K6  1  0.05402800  0.15998900  0.77802900  1
  K  K7  1  0.55402800  0.34001100  0.22197100  1
  K  K8  1  0.38651800  0.01414100  0.05892800  1
  K  K9  1  0.88651800  0.48585900  0.94107200  1
  K  K10  1  0.61348200  0.51414100  0.44107200  1
  K  K11  1  0.11348200  0.98585900  0.55892800  1
  K  K12  1  0.61348200  0.98585900  0.94107200  1
  K  K13  1  0.11348200  0.51414100  0.05892800  1
  K  K14  1  0.38651800  0.48585900  0.55892800  1
  K  K15  1  0.88651800  0.01414100  0.44107200  1
  K  K16  1  0.05890900  0.07038400  0.10936300  1
  K  K17  1  0.55890900  0.42961600  0.89063700  1
  K  K18  1  0.94109100  0.57038400  0.39063700  1
  K  K19  1  0.44109100  0.92961600  0.60936300  1
  K  K20  1  0.94109100  0.92961600  0.89063700  1
  K  K21  1  0.44109100  0.57038400  0.10936300  1
  K  K22  1  0.05890900  0.42961600  0.60936300  1
  K  K23  1  0.55890900  0.07038400  0.39063700  1
  K  K24  1  0.17955500  0.64749400  0.26837700  1
  K  K25  1  0.67955500  0.85250600  0.73162300  1
  K  K26  1  0.82044500  0.14749400  0.23162300  1
  K  K27  1  0.32044500  0.35250600  0.76837700  1
  K  K28  1  0.82044500  0.35250600  0.73162300  1
  K  K29  1  0.32044500  0.14749400  0.26837700  1
  K  K30  1  0.17955500  0.85250600  0.76837700  1
  K  K31  1  0.67955500  0.64749400  0.23162300  1
  K  K32  1  0.27187800  0.78857300  0.98460400  1
  K  K33  1  0.77187800  0.71142700  0.01539600  1
  K  K34  1  0.72812200  0.28857300  0.51539600  1
  K  K35  1  0.22812200  0.21142700  0.48460400  1
  K  K36  1  0.72812200  0.21142700  0.01539600  1
  K  K37  1  0.22812200  0.28857300  0.98460400  1
  K  K38  1  0.27187800  0.71142700  0.48460400  1
  K  K39  1  0.77187800  0.78857300  0.51539600  1
  Ga  Ga40  1  0.16463900  0.93470900  0.33564300  1
  Ga  Ga41  1  0.66463900  0.56529100  0.66435700  1
  Ga  Ga42  1  0.83536100  0.43470900  0.16435700  1
  Ga  Ga43  1  0.33536100  0.06529100  0.83564300  1
  Ga  Ga44  1  0.83536100  0.06529100  0.66435700  1
  Ga  Ga45  1  0.33536100  0.43470900  0.33564300  1
  Ga  Ga46  1  0.16463900  0.56529100  0.83564300  1
  Ga  Ga47  1  0.66463900  0.93470900  0.16435700  1
  Se  Se48  1  0.06999900  0.09842300  0.32190500  1
  Se  Se49  1  0.56999900  0.40157700  0.67809500  1
  Se  Se50  1  0.93000100  0.59842300  0.17809500  1
  Se  Se51  1  0.43000100  0.90157700  0.82190500  1
  Se  Se52  1  0.93000100  0.90157700  0.67809500  1
  Se  Se53  1  0.43000100  0.59842300  0.32190500  1
  Se  Se54  1  0.06999900  0.40157700  0.82190500  1
  Se  Se55  1  0.56999900  0.09842300  0.17809500  1
  Se  Se56  1  0.31920400  0.96524800  0.42716200  1
  Se  Se57  1  0.81920400  0.53475200  0.57283800  1
  Se  Se58  1  0.68079600  0.46524800  0.07283800  1
  Se  Se59  1  0.18079600  0.03475200  0.92716200  1
  Se  Se60  1  0.68079600  0.03475200  0.57283800  1
  Se  Se61  1  0.18079600  0.46524800  0.42716200  1
  Se  Se62  1  0.31920400  0.53475200  0.92716200  1
  Se  Se63  1  0.81920400  0.96524800  0.07283800  1
  Se  Se64  1  0.21408500  0.88480100  0.19121900  1
  Se  Se65  1  0.71408500  0.61519900  0.80878100  1
  Se  Se66  1  0.78591500  0.38480100  0.30878100  1
  Se  Se67  1  0.28591500  0.11519900  0.69121900  1
  Se  Se68  1  0.78591500  0.11519900  0.80878100  1
  Se  Se69  1  0.28591500  0.38480100  0.19121900  1
  Se  Se70  1  0.21408500  0.61519900  0.69121900  1
  Se  Se71  1  0.71408500  0.88480100  0.30878100  1
  Se  Se72  1  0.05438400  0.80840400  0.40885100  1
  Se  Se73  1  0.55438400  0.69159600  0.59114900  1
  Se  Se74  1  0.94561600  0.30840400  0.09114900  1
  Se  Se75  1  0.44561600  0.19159600  0.90885100  1
  Se  Se76  1  0.94561600  0.19159600  0.59114900  1
  Se  Se77  1  0.44561600  0.30840400  0.40885100  1
  Se  Se78  1  0.05438400  0.69159600  0.90885100  1
  Se  Se79  1  0.55438400  0.80840400  0.09114900  1
