# generated using pymatgen
data_CaPPt
_symmetry_space_group_name_H-M   'P 1'
_cell_length_a   4.38862800
_cell_length_b   6.57027100
_cell_length_c   8.37891900
_cell_angle_alpha   90.00000000
_cell_angle_beta   90.00000000
_cell_angle_gamma   90.00000000
_symmetry_Int_Tables_number   1
_chemical_formula_structural   CaPPt
_chemical_formula_sum   'Ca4 P4 Pt4'
_cell_volume   241.60173276
_cell_formula_units_Z   4
loop_
 _symmetry_equiv_pos_site_id
 _symmetry_equiv_pos_as_xyz
  1  'x, y, z'
loop_
 _atom_site_type_symbol
 _atom_site_label
 _atom_site_symmetry_multiplicity
 _atom_site_fract_x
 _atom_site_fract_y
 _atom_site_fract_z
 _atom_site_occupancy
  Ca  Ca0  1  0.00000000  0.86570100  0.87371000  1
  Ca  Ca1  1  0.00000000  0.93064200  0.41330300  1
  Ca  Ca2  1  0.00000000  0.43064200  0.58669700  1
  Ca  Ca3  1  0.00000000  0.36570100  0.12629000  1
  P  P4  1  0.50000000  0.16974800  0.92811900  1
  P  P5  1  0.50000000  0.74714400  0.61614600  1
  P  P6  1  0.50000000  0.66974800  0.07188100  1
  P  P7  1  0.50000000  0.24714400  0.38385400  1
  Pt  Pt8  1  0.50000000  0.11487700  0.65681200  1
  Pt  Pt9  1  0.50000000  0.49768700  0.83131500  1
  Pt  Pt10  1  0.50000000  0.99768700  0.16868500  1
  Pt  Pt11  1  0.50000000  0.61487700  0.34318800  1
