# generated using pymatgen
data_NbNiTe2
_symmetry_space_group_name_H-M   'P 1'
_cell_length_a   6.30633600
_cell_length_b   7.48112900
_cell_length_c   8.02431700
_cell_angle_alpha   90.00000000
_cell_angle_beta   90.00000000
_cell_angle_gamma   90.00000000
_symmetry_Int_Tables_number   1
_chemical_formula_structural   NbNiTe2
_chemical_formula_sum   'Nb4 Ni4 Te8'
_cell_volume   378.57534497
_cell_formula_units_Z   4
loop_
 _symmetry_equiv_pos_site_id
 _symmetry_equiv_pos_as_xyz
  1  'x, y, z'
loop_
 _atom_site_type_symbol
 _atom_site_label
 _atom_site_symmetry_multiplicity
 _atom_site_fract_x
 _atom_site_fract_y
 _atom_site_fract_z
 _atom_site_occupancy
  Nb  Nb0  1  0.50000000  0.00000000  0.79376900  1
  Nb  Nb1  1  0.00000000  0.00000000  0.70623100  1
  Nb  Nb2  1  0.00000000  0.00000000  0.29376900  1
  Nb  Nb3  1  0.50000000  0.00000000  0.20623100  1
  Ni  Ni4  1  0.85586600  0.88257000  0.00000000  1
  Ni  Ni5  1  0.64413400  0.88257000  0.50000000  1
  Ni  Ni6  1  0.14413400  0.11743000  0.00000000  1
  Ni  Ni7  1  0.35586600  0.11743000  0.50000000  1
  Te  Te8  1  0.74893800  0.21865900  0.00000000  1
  Te  Te9  1  0.75106200  0.21865900  0.50000000  1
  Te  Te10  1  0.75000000  0.68690100  0.75000000  1
  Te  Te11  1  0.75000000  0.68690100  0.25000000  1
  Te  Te12  1  0.25106200  0.78134100  0.00000000  1
  Te  Te13  1  0.24893800  0.78134100  0.50000000  1
  Te  Te14  1  0.25000000  0.31309900  0.75000000  1
  Te  Te15  1  0.25000000  0.31309900  0.25000000  1
