# generated using pymatgen
data_ErSiRu
_symmetry_space_group_name_H-M   'P 1'
_cell_length_a   4.30536000
_cell_length_b   6.94455800
_cell_length_c   7.11351400
_cell_angle_alpha   90.00000000
_cell_angle_beta   90.00000000
_cell_angle_gamma   90.00000000
_symmetry_Int_Tables_number   1
_chemical_formula_structural   ErSiRu
_chemical_formula_sum   'Er4 Si4 Ru4'
_cell_volume   212.68569052
_cell_formula_units_Z   4
loop_
 _symmetry_equiv_pos_site_id
 _symmetry_equiv_pos_as_xyz
  1  'x, y, z'
loop_
 _atom_site_type_symbol
 _atom_site_label
 _atom_site_symmetry_multiplicity
 _atom_site_fract_x
 _atom_site_fract_y
 _atom_site_fract_z
 _atom_site_occupancy
  Er  Er0  1  0.25000000  0.98795500  0.81252700  1
  Er  Er1  1  0.75000000  0.01204500  0.18747300  1
  Er  Er2  1  0.25000000  0.48795500  0.68747300  1
  Er  Er3  1  0.75000000  0.51204500  0.31252700  1
  Si  Si4  1  0.25000000  0.30234800  0.10656200  1
  Si  Si5  1  0.75000000  0.69765200  0.89343800  1
  Si  Si6  1  0.25000000  0.80234800  0.39343800  1
  Si  Si7  1  0.75000000  0.19765200  0.60656200  1
  Ru  Ru8  1  0.75000000  0.84572500  0.56604400  1
  Ru  Ru9  1  0.25000000  0.15427500  0.43395600  1
  Ru  Ru10  1  0.75000000  0.34572500  0.93395600  1
  Ru  Ru11  1  0.25000000  0.65427500  0.06604400  1
