# generated using pymatgen
data_CaNb2O4
_symmetry_space_group_name_H-M   'P 1'
_cell_length_a   5.11701900
_cell_length_b   5.91216300
_cell_length_c   12.00524800
_cell_angle_alpha   90.00000000
_cell_angle_beta   90.00000000
_cell_angle_gamma   90.00000000
_symmetry_Int_Tables_number   1
_chemical_formula_structural   CaNb2O4
_chemical_formula_sum   'Ca4 Nb8 O16'
_cell_volume   363.19057073
_cell_formula_units_Z   4
loop_
 _symmetry_equiv_pos_site_id
 _symmetry_equiv_pos_as_xyz
  1  'x, y, z'
loop_
 _atom_site_type_symbol
 _atom_site_label
 _atom_site_symmetry_multiplicity
 _atom_site_fract_x
 _atom_site_fract_y
 _atom_site_fract_z
 _atom_site_occupancy
  Ca  Ca0  1  0.69206700  0.25000000  0.49596800  1
  Ca  Ca1  1  0.69206700  0.75000000  0.00403200  1
  Ca  Ca2  1  0.30793300  0.75000000  0.50403200  1
  Ca  Ca3  1  0.30793300  0.25000000  0.99596800  1
  Nb  Nb4  1  0.84425200  0.00000000  0.25000000  1
  Nb  Nb5  1  0.15574800  0.50000000  0.75000000  1
  Nb  Nb6  1  0.15574800  0.00000000  0.75000000  1
  Nb  Nb7  1  0.84425200  0.50000000  0.25000000  1
  Nb  Nb8  1  0.65927800  0.75000000  0.74631400  1
  Nb  Nb9  1  0.65927800  0.25000000  0.75368600  1
  Nb  Nb10  1  0.34072200  0.25000000  0.25368600  1
  Nb  Nb11  1  0.34072200  0.75000000  0.24631400  1
  O  O12  1  0.98553000  0.75000000  0.85702700  1
  O  O13  1  0.98553000  0.25000000  0.64297300  1
  O  O14  1  0.01447000  0.25000000  0.14297300  1
  O  O15  1  0.01447000  0.75000000  0.35702700  1
  O  O16  1  0.99382700  0.75000000  0.63950700  1
  O  O17  1  0.99382700  0.25000000  0.86049300  1
  O  O18  1  0.00617300  0.25000000  0.36049300  1
  O  O19  1  0.00617300  0.75000000  0.13950700  1
  O  O20  1  0.50777500  0.99558400  0.36270200  1
  O  O21  1  0.50777500  0.00441600  0.13729800  1
  O  O22  1  0.49222500  0.49558400  0.63729800  1
  O  O23  1  0.49222500  0.50441600  0.86270200  1
  O  O24  1  0.50777500  0.49558400  0.13729800  1
  O  O25  1  0.50777500  0.50441600  0.36270200  1
  O  O26  1  0.49222500  0.99558400  0.86270200  1
  O  O27  1  0.49222500  0.00441600  0.63729800  1
