# generated using pymatgen
data_Zn(InSe2)2
_symmetry_space_group_name_H-M   'P 1'
_cell_length_a   7.15962968
_cell_length_b   7.15962968
_cell_length_c   7.15962968
_cell_angle_alpha   131.99913698
_cell_angle_beta   131.99913698
_cell_angle_gamma   70.23038994
_symmetry_Int_Tables_number   1
_chemical_formula_structural   Zn(InSe2)2
_chemical_formula_sum   'Zn1 In2 Se4'
_cell_volume   198.66656251
_cell_formula_units_Z   1
loop_
 _symmetry_equiv_pos_site_id
 _symmetry_equiv_pos_as_xyz
  1  'x, y, z'
loop_
 _atom_site_type_symbol
 _atom_site_label
 _atom_site_symmetry_multiplicity
 _atom_site_fract_x
 _atom_site_fract_y
 _atom_site_fract_z
 _atom_site_occupancy
  Zn  Zn0  1  0.00000000  0.00000000  0.00000000  1
  In  In1  1  0.50000000  0.50000000  0.00000000  1
  In  In2  1  0.25000000  0.75000000  0.50000000  1
  Se  Se3  1  0.39204600  0.91249000  0.04308400  1
  Se  Se4  1  0.86940600  0.34896200  0.95691600  1
  Se  Se5  1  0.08751000  0.13059400  0.47955600  1
  Se  Se6  1  0.65103800  0.60795400  0.52044400  1
