# generated using pymatgen
data_AlH18C3(N3F2)3
_symmetry_space_group_name_H-M   'P 1'
_cell_length_a   14.07811746
_cell_length_b   14.07811746
_cell_length_c   14.07811746
_cell_angle_alpha   90.00000000
_cell_angle_beta   90.00000000
_cell_angle_gamma   90.00000000
_symmetry_Int_Tables_number   1
_chemical_formula_structural   AlH18C3(N3F2)3
_chemical_formula_sum   'Al8 H144 C24 N72 F48'
_cell_volume   2790.18984136
_cell_formula_units_Z   8
loop_
 _symmetry_equiv_pos_site_id
 _symmetry_equiv_pos_as_xyz
  1  'x, y, z'
loop_
 _atom_site_type_symbol
 _atom_site_label
 _atom_site_symmetry_multiplicity
 _atom_site_fract_x
 _atom_site_fract_y
 _atom_site_fract_z
 _atom_site_occupancy
  H  H0  1  0.90054115  0.81402239  0.53124853  1
  H  H1  1  0.53124853  0.90054115  0.81402239  1
  H  H2  1  0.81402239  0.53124853  0.90054115  1
  H  H3  1  0.68597761  0.46875147  0.40054115  1
  H  H4  1  0.03124853  0.59945885  0.18597761  1
  H  H5  1  0.18597761  0.03124853  0.59945885  1
  H  H6  1  0.96875147  0.09945885  0.31402239  1
  H  H7  1  0.46875147  0.40054115  0.68597761  1
  H  H8  1  0.31402239  0.96875147  0.09945885  1
  H  H9  1  0.40054115  0.68597761  0.46875147  1
  H  H10  1  0.09945885  0.31402239  0.96875147  1
  H  H11  1  0.59945885  0.18597761  0.03124853  1
  H  H12  1  0.09945885  0.18597761  0.46875147  1
  H  H13  1  0.46875147  0.09945885  0.18597761  1
  H  H14  1  0.18597761  0.46875147  0.09945885  1
  H  H15  1  0.31402239  0.53124853  0.59945885  1
  H  H16  1  0.96875147  0.40054115  0.81402239  1
  H  H17  1  0.81402239  0.96875147  0.40054115  1
  H  H18  1  0.03124853  0.90054115  0.68597761  1
  H  H19  1  0.53124853  0.59945885  0.31402239  1
  H  H20  1  0.68597761  0.03124853  0.90054115  1
  H  H21  1  0.59945885  0.31402239  0.53124853  1
  H  H22  1  0.90054115  0.68597761  0.03124853  1
  H  H23  1  0.40054115  0.81402239  0.96875147  1
  H  H24  1  0.90113988  0.69093939  0.51509886  1
  H  H25  1  0.51509886  0.90113988  0.69093939  1
  H  H26  1  0.69093939  0.51509886  0.90113988  1
  H  H27  1  0.80906061  0.48490114  0.40113988  1
  H  H28  1  0.01509886  0.59886012  0.30906061  1
  H  H29  1  0.30906061  0.01509886  0.59886012  1
  H  H30  1  0.98490114  0.09886012  0.19093939  1
  H  H31  1  0.48490114  0.40113988  0.80906061  1
  H  H32  1  0.19093939  0.98490114  0.09886012  1
  H  H33  1  0.40113988  0.80906061  0.48490114  1
  H  H34  1  0.09886012  0.19093939  0.98490114  1
  H  H35  1  0.59886012  0.30906061  0.01509886  1
  H  H36  1  0.09886012  0.30906061  0.48490114  1
  H  H37  1  0.48490114  0.09886012  0.30906061  1
  H  H38  1  0.30906061  0.48490114  0.09886012  1
  H  H39  1  0.19093939  0.51509886  0.59886012  1
  H  H40  1  0.98490114  0.40113988  0.69093939  1
  H  H41  1  0.69093939  0.98490114  0.40113988  1
  H  H42  1  0.01509886  0.90113988  0.80906061  1
  H  H43  1  0.51509886  0.59886012  0.19093939  1
  H  H44  1  0.80906061  0.01509886  0.90113988  1
  H  H45  1  0.59886012  0.19093939  0.51509886  1
  H  H46  1  0.90113988  0.80906061  0.01509886  1
  H  H47  1  0.40113988  0.69093939  0.98490114  1
  H  H48  1  0.64932745  0.83738561  0.53919302  1
  H  H49  1  0.53919302  0.64932745  0.83738561  1
  H  H50  1  0.83738561  0.53919302  0.64932745  1
  H  H51  1  0.66261439  0.46080698  0.14932745  1
  H  H52  1  0.03919302  0.85067255  0.16261439  1
  H  H53  1  0.16261439  0.03919302  0.85067255  1
  H  H54  1  0.96080698  0.35067255  0.33738561  1
  H  H55  1  0.46080698  0.14932745  0.66261439  1
  H  H56  1  0.33738561  0.96080698  0.35067255  1
  H  H57  1  0.14932745  0.66261439  0.46080698  1
  H  H58  1  0.35067255  0.33738561  0.96080698  1
  H  H59  1  0.85067255  0.16261439  0.03919302  1
  H  H60  1  0.35067255  0.16261439  0.46080698  1
  H  H61  1  0.46080698  0.35067255  0.16261439  1
  H  H62  1  0.16261439  0.46080698  0.35067255  1
  H  H63  1  0.33738561  0.53919302  0.85067255  1
  H  H64  1  0.96080698  0.14932745  0.83738561  1
  H  H65  1  0.83738561  0.96080698  0.14932745  1
  H  H66  1  0.03919302  0.64932745  0.66261439  1
  H  H67  1  0.53919302  0.85067255  0.33738561  1
  H  H68  1  0.66261439  0.03919302  0.64932745  1
  H  H69  1  0.85067255  0.33738561  0.53919302  1
  H  H70  1  0.64932745  0.66261439  0.03919302  1
  H  H71  1  0.14932745  0.83738561  0.96080698  1
  H  H72  1  0.76030413  0.89236675  0.54626473  1
  H  H73  1  0.54626473  0.76030413  0.89236675  1
  H  H74  1  0.89236675  0.54626473  0.76030413  1
  H  H75  1  0.60763325  0.45373527  0.26030413  1
  H  H76  1  0.04626473  0.73969587  0.10763325  1
  H  H77  1  0.10763325  0.04626473  0.73969587  1
  H  H78  1  0.95373527  0.23969587  0.39236675  1
  H  H79  1  0.45373527  0.26030413  0.60763325  1
  H  H80  1  0.39236675  0.95373527  0.23969587  1
  H  H81  1  0.26030413  0.60763325  0.45373527  1
  H  H82  1  0.23969587  0.39236675  0.95373527  1
  H  H83  1  0.73969587  0.10763325  0.04626473  1
  H  H84  1  0.23969587  0.10763325  0.45373527  1
  H  H85  1  0.45373527  0.23969587  0.10763325  1
  H  H86  1  0.10763325  0.45373527  0.23969587  1
  H  H87  1  0.39236675  0.54626473  0.73969587  1
  H  H88  1  0.95373527  0.26030413  0.89236675  1
  H  H89  1  0.89236675  0.95373527  0.26030413  1
  H  H90  1  0.04626473  0.76030413  0.60763325  1
  H  H91  1  0.54626473  0.73969587  0.39236675  1
  H  H92  1  0.60763325  0.04626473  0.76030413  1
  H  H93  1  0.73969587  0.39236675  0.54626473  1
  H  H94  1  0.76030413  0.60763325  0.04626473  1
  H  H95  1  0.26030413  0.89236675  0.95373527  1
  H  H96  1  0.65128257  0.66114695  0.51234072  1
  H  H97  1  0.51234072  0.65128257  0.66114695  1
  H  H98  1  0.66114695  0.51234072  0.65128257  1
  H  H99  1  0.83885305  0.48765928  0.15128257  1
  H  H100  1  0.01234072  0.84871743  0.33885305  1
  H  H101  1  0.33885305  0.01234072  0.84871743  1
  H  H102  1  0.98765928  0.34871743  0.16114695  1
  H  H103  1  0.48765928  0.15128257  0.83885305  1
  H  H104  1  0.16114695  0.98765928  0.34871743  1
  H  H105  1  0.15128257  0.83885305  0.48765928  1
  H  H106  1  0.34871743  0.16114695  0.98765928  1
  H  H107  1  0.84871743  0.33885305  0.01234072  1
  H  H108  1  0.34871743  0.33885305  0.48765928  1
  H  H109  1  0.48765928  0.34871743  0.33885305  1
  H  H110  1  0.33885305  0.48765928  0.34871743  1
  H  H111  1  0.16114695  0.51234072  0.84871743  1
  H  H112  1  0.98765928  0.15128257  0.66114695  1
  H  H113  1  0.66114695  0.98765928  0.15128257  1
  H  H114  1  0.01234072  0.65128257  0.83885305  1
  H  H115  1  0.51234072  0.84871743  0.16114695  1
  H  H116  1  0.83885305  0.01234072  0.65128257  1
  H  H117  1  0.84871743  0.16114695  0.51234072  1
  H  H118  1  0.65128257  0.83885305  0.01234072  1
  H  H119  1  0.15128257  0.66114695  0.98765928  1
  H  H120  1  0.76407268  0.60889404  0.50620258  1
  H  H121  1  0.50620258  0.76407268  0.60889404  1
  H  H122  1  0.60889404  0.50620258  0.76407268  1
  H  H123  1  0.89110596  0.49379742  0.26407268  1
  H  H124  1  0.00620258  0.73592732  0.39110596  1
  H  H125  1  0.39110596  0.00620258  0.73592732  1
  H  H126  1  0.99379742  0.23592732  0.10889404  1
  H  H127  1  0.49379742  0.26407268  0.89110596  1
  H  H128  1  0.10889404  0.99379742  0.23592732  1
  H  H129  1  0.26407268  0.89110596  0.49379742  1
  H  H130  1  0.23592732  0.10889404  0.99379742  1
  H  H131  1  0.73592732  0.39110596  0.00620258  1
  H  H132  1  0.23592732  0.39110596  0.49379742  1
  H  H133  1  0.49379742  0.23592732  0.39110596  1
  H  H134  1  0.39110596  0.49379742  0.23592732  1
  H  H135  1  0.10889404  0.50620258  0.73592732  1
  H  H136  1  0.99379742  0.26407268  0.60889404  1
  H  H137  1  0.60889404  0.99379742  0.26407268  1
  H  H138  1  0.00620258  0.76407268  0.89110596  1
  H  H139  1  0.50620258  0.73592732  0.10889404  1
  H  H140  1  0.89110596  0.00620258  0.76407268  1
  H  H141  1  0.73592732  0.10889404  0.50620258  1
  H  H142  1  0.76407268  0.89110596  0.00620258  1
  H  H143  1  0.26407268  0.60889404  0.99379742  1
  C  C144  1  0.76856872  0.75043396  0.52934406  1
  C  C145  1  0.52934406  0.76856872  0.75043396  1
  C  C146  1  0.75043396  0.52934406  0.76856872  1
  C  C147  1  0.74956604  0.47065594  0.26856872  1
  C  C148  1  0.02934406  0.73143128  0.24956604  1
  C  C149  1  0.24956604  0.02934406  0.73143128  1
  C  C150  1  0.97065594  0.23143128  0.25043396  1
  C  C151  1  0.47065594  0.26856872  0.74956604  1
  C  C152  1  0.25043396  0.97065594  0.23143128  1
  C  C153  1  0.26856872  0.74956604  0.47065594  1
  C  C154  1  0.23143128  0.25043396  0.97065594  1
  C  C155  1  0.73143128  0.24956604  0.02934406  1
  C  C156  1  0.23143128  0.24956604  0.47065594  1
  C  C157  1  0.47065594  0.23143128  0.24956604  1
  C  C158  1  0.24956604  0.47065594  0.23143128  1
  C  C159  1  0.25043396  0.52934406  0.73143128  1
  C  C160  1  0.97065594  0.26856872  0.75043396  1
  C  C161  1  0.75043396  0.97065594  0.26856872  1
  C  C162  1  0.02934406  0.76856872  0.74956604  1
  C  C163  1  0.52934406  0.73143128  0.25043396  1
  C  C164  1  0.74956604  0.02934406  0.76856872  1
  C  C165  1  0.73143128  0.25043396  0.52934406  1
  C  C166  1  0.76856872  0.74956604  0.02934406  1
  C  C167  1  0.26856872  0.75043396  0.97065594  1
  N  N168  1  0.86359847  0.75187604  0.52630195  1
  N  N169  1  0.52630195  0.86359847  0.75187604  1
  N  N170  1  0.75187604  0.52630195  0.86359847  1
  N  N171  1  0.74812396  0.47369805  0.36359847  1
  N  N172  1  0.02630195  0.63640153  0.24812396  1
  N  N173  1  0.24812396  0.02630195  0.63640153  1
  N  N174  1  0.97369805  0.13640153  0.25187604  1
  N  N175  1  0.47369805  0.36359847  0.74812396  1
  N  N176  1  0.25187604  0.97369805  0.13640153  1
  N  N177  1  0.36359847  0.74812396  0.47369805  1
  N  N178  1  0.13640153  0.25187604  0.97369805  1
  N  N179  1  0.63640153  0.24812396  0.02630195  1
  N  N180  1  0.13640153  0.24812396  0.47369805  1
  N  N181  1  0.47369805  0.13640153  0.24812396  1
  N  N182  1  0.24812396  0.47369805  0.13640153  1
  N  N183  1  0.25187604  0.52630195  0.63640153  1
  N  N184  1  0.97369805  0.36359847  0.75187604  1
  N  N185  1  0.75187604  0.97369805  0.36359847  1
  N  N186  1  0.02630195  0.86359847  0.74812396  1
  N  N187  1  0.52630195  0.63640153  0.25187604  1
  N  N188  1  0.74812396  0.02630195  0.86359847  1
  N  N189  1  0.63640153  0.25187604  0.52630195  1
  N  N190  1  0.86359847  0.74812396  0.02630195  1
  N  N191  1  0.36359847  0.75187604  0.97369805  1
  N  N192  1  0.72148904  0.83136266  0.54597369  1
  N  N193  1  0.54597369  0.72148904  0.83136266  1
  N  N194  1  0.83136266  0.54597369  0.72148904  1
  N  N195  1  0.66863734  0.45402631  0.22148904  1
  N  N196  1  0.04597369  0.77851096  0.16863734  1
  N  N197  1  0.16863734  0.04597369  0.77851096  1
  N  N198  1  0.95402631  0.27851096  0.33136266  1
  N  N199  1  0.45402631  0.22148904  0.66863734  1
  N  N200  1  0.33136266  0.95402631  0.27851096  1
  N  N201  1  0.22148904  0.66863734  0.45402631  1
  N  N202  1  0.27851096  0.33136266  0.95402631  1
  N  N203  1  0.77851096  0.16863734  0.04597369  1
  N  N204  1  0.27851096  0.16863734  0.45402631  1
  N  N205  1  0.45402631  0.27851096  0.16863734  1
  N  N206  1  0.16863734  0.45402631  0.27851096  1
  N  N207  1  0.33136266  0.54597369  0.77851096  1
  N  N208  1  0.95402631  0.22148904  0.83136266  1
  N  N209  1  0.83136266  0.95402631  0.22148904  1
  N  N210  1  0.04597369  0.72148904  0.66863734  1
  N  N211  1  0.54597369  0.77851096  0.33136266  1
  N  N212  1  0.66863734  0.04597369  0.72148904  1
  N  N213  1  0.77851096  0.33136266  0.54597369  1
  N  N214  1  0.72148904  0.66863734  0.04597369  1
  N  N215  1  0.22148904  0.83136266  0.95402631  1
  N  N216  1  0.72348894  0.66772207  0.51755964  1
  N  N217  1  0.51755964  0.72348894  0.66772207  1
  N  N218  1  0.66772207  0.51755964  0.72348894  1
  N  N219  1  0.83227793  0.48244036  0.22348894  1
  N  N220  1  0.01755964  0.77651106  0.33227793  1
  N  N221  1  0.33227793  0.01755964  0.77651106  1
  N  N222  1  0.98244036  0.27651106  0.16772207  1
  N  N223  1  0.48244036  0.22348894  0.83227793  1
  N  N224  1  0.16772207  0.98244036  0.27651106  1
  N  N225  1  0.22348894  0.83227793  0.48244036  1
  N  N226  1  0.27651106  0.16772207  0.98244036  1
  N  N227  1  0.77651106  0.33227793  0.01755964  1
  N  N228  1  0.27651106  0.33227793  0.48244036  1
  N  N229  1  0.48244036  0.27651106  0.33227793  1
  N  N230  1  0.33227793  0.48244036  0.27651106  1
  N  N231  1  0.16772207  0.51755964  0.77651106  1
  N  N232  1  0.98244036  0.22348894  0.66772207  1
  N  N233  1  0.66772207  0.98244036  0.22348894  1
  N  N234  1  0.01755964  0.72348894  0.83227793  1
  N  N235  1  0.51755964  0.77651106  0.16772207  1
  N  N236  1  0.83227793  0.01755964  0.72348894  1
  N  N237  1  0.77651106  0.16772207  0.51755964  1
  N  N238  1  0.72348894  0.83227793  0.01755964  1
  N  N239  1  0.22348894  0.66772207  0.98244036  1
  F  F240  1  0.02966718  0.62555643  0.02480065  1
  F  F241  1  0.02480065  0.02966718  0.62555643  1
  F  F242  1  0.62555643  0.02480065  0.02966718  1
  F  F243  1  0.87444357  0.97519935  0.52966718  1
  F  F244  1  0.52480065  0.47033282  0.37444357  1
  F  F245  1  0.37444357  0.52480065  0.47033282  1
  F  F246  1  0.47519935  0.97033282  0.12555643  1
  F  F247  1  0.97519935  0.52966718  0.87444357  1
  F  F248  1  0.12555643  0.47519935  0.97033282  1
  F  F249  1  0.52966718  0.87444357  0.97519935  1
  F  F250  1  0.97033282  0.12555643  0.47519935  1
  F  F251  1  0.47033282  0.37444357  0.52480065  1
  F  F252  1  0.97033282  0.37444357  0.97519935  1
  F  F253  1  0.97519935  0.97033282  0.37444357  1
  F  F254  1  0.37444357  0.97519935  0.97033282  1
  F  F255  1  0.12555643  0.02480065  0.47033282  1
  F  F256  1  0.47519935  0.52966718  0.62555643  1
  F  F257  1  0.62555643  0.47519935  0.52966718  1
  F  F258  1  0.52480065  0.02966718  0.87444357  1
  F  F259  1  0.02480065  0.47033282  0.12555643  1
  F  F260  1  0.87444357  0.52480065  0.02966718  1
  F  F261  1  0.47033282  0.12555643  0.02480065  1
  F  F262  1  0.02966718  0.87444357  0.52480065  1
  F  F263  1  0.52966718  0.62555643  0.47519935  1
  F  F264  1  0.02197935  0.62649586  0.47235802  1
  F  F265  1  0.47235802  0.02197935  0.62649586  1
  F  F266  1  0.62649586  0.47235802  0.02197935  1
  F  F267  1  0.87350414  0.52764198  0.52197935  1
  F  F268  1  0.97235802  0.47802065  0.37350414  1
  F  F269  1  0.37350414  0.97235802  0.47802065  1
  F  F270  1  0.02764198  0.97802065  0.12649586  1
  F  F271  1  0.52764198  0.52197935  0.87350414  1
  F  F272  1  0.12649586  0.02764198  0.97802065  1
  F  F273  1  0.52197935  0.87350414  0.52764198  1
  F  F274  1  0.97802065  0.12649586  0.02764198  1
  F  F275  1  0.47802065  0.37350414  0.97235802  1
  F  F276  1  0.97802065  0.37350414  0.52764198  1
  F  F277  1  0.52764198  0.97802065  0.37350414  1
  F  F278  1  0.37350414  0.52764198  0.97802065  1
  F  F279  1  0.12649586  0.47235802  0.47802065  1
  F  F280  1  0.02764198  0.52197935  0.62649586  1
  F  F281  1  0.62649586  0.02764198  0.52197935  1
  F  F282  1  0.97235802  0.02197935  0.87350414  1
  F  F283  1  0.47235802  0.47802065  0.12649586  1
  F  F284  1  0.87350414  0.97235802  0.02197935  1
  F  F285  1  0.47802065  0.12649586  0.47235802  1
  F  F286  1  0.02197935  0.87350414  0.97235802  1
  F  F287  1  0.52197935  0.62649586  0.02764198  1
  Al  Al288  1  0.00000000  0.50000000  0.00000000  1
  Al  Al289  1  0.00000000  0.00000000  0.50000000  1
  Al  Al290  1  0.50000000  0.00000000  0.00000000  1
  Al  Al291  1  0.50000000  0.50000000  0.50000000  1
  Al  Al292  1  0.00000000  0.50000000  0.50000000  1
  Al  Al293  1  0.50000000  0.00000000  0.50000000  1
  Al  Al294  1  0.50000000  0.50000000  0.00000000  1
  Al  Al295  1  0.00000000  0.00000000  0.00000000  1
