# generated using pymatgen
data_K3(PtO2)2
_symmetry_space_group_name_H-M   'P 1'
_cell_length_a   5.61682937
_cell_length_b   5.61682937
_cell_length_c   11.79592800
_cell_angle_alpha   90.00000000
_cell_angle_beta   90.00000000
_cell_angle_gamma   113.49257185
_symmetry_Int_Tables_number   1
_chemical_formula_structural   K3(PtO2)2
_chemical_formula_sum   'K6 Pt4 O8'
_cell_volume   341.30043262
_cell_formula_units_Z   2
loop_
 _symmetry_equiv_pos_site_id
 _symmetry_equiv_pos_as_xyz
  1  'x, y, z'
loop_
 _atom_site_type_symbol
 _atom_site_label
 _atom_site_symmetry_multiplicity
 _atom_site_fract_x
 _atom_site_fract_y
 _atom_site_fract_z
 _atom_site_occupancy
  K  K0  1  0.35183200  0.64816800  0.93227400  1
  K  K1  1  0.64816800  0.35183200  0.43227400  1
  K  K2  1  0.64816800  0.35183200  0.06772600  1
  K  K3  1  0.35183200  0.64816800  0.56772600  1
  K  K4  1  0.71060700  0.28939300  0.75000000  1
  K  K5  1  0.28939300  0.71060700  0.25000000  1
  Pt  Pt6  1  0.00000000  0.00000000  0.00000000  1
  Pt  Pt7  1  0.00000000  0.00000000  0.50000000  1
  Pt  Pt8  1  0.07814000  0.92186000  0.75000000  1
  Pt  Pt9  1  0.92186000  0.07814000  0.25000000  1
  O  O10  1  0.71050500  0.87258400  0.11586800  1
  O  O11  1  0.28949500  0.12741600  0.61586800  1
  O  O12  1  0.87258400  0.71050500  0.88413200  1
  O  O13  1  0.12741600  0.28949500  0.38413200  1
  O  O14  1  0.28949500  0.12741600  0.88413200  1
  O  O15  1  0.71050500  0.87258400  0.38413200  1
  O  O16  1  0.12741600  0.28949500  0.11586800  1
  O  O17  1  0.87258400  0.71050500  0.61586800  1
