# generated using pymatgen
data_Dy2GeO5
_symmetry_space_group_name_H-M   'P 1'
_cell_length_a   8.24861020
_cell_length_b   8.24861020
_cell_length_c   10.55627268
_cell_angle_alpha   61.38063395
_cell_angle_beta   61.38063395
_cell_angle_gamma   49.46873435
_symmetry_Int_Tables_number   1
_chemical_formula_structural   Dy2GeO5
_chemical_formula_sum   'Dy8 Ge4 O20'
_cell_volume   463.81801508
_cell_formula_units_Z   4
loop_
 _symmetry_equiv_pos_site_id
 _symmetry_equiv_pos_as_xyz
  1  'x, y, z'
loop_
 _atom_site_type_symbol
 _atom_site_label
 _atom_site_symmetry_multiplicity
 _atom_site_fract_x
 _atom_site_fract_y
 _atom_site_fract_z
 _atom_site_occupancy
  Dy  Dy0  1  0.72294200  0.20645700  0.96611900  1
  Dy  Dy1  1  0.79354300  0.27705800  0.53388100  1
  Dy  Dy2  1  0.27705800  0.79354300  0.03388100  1
  Dy  Dy3  1  0.20645700  0.72294200  0.46611900  1
  Dy  Dy4  1  0.98814100  0.73615800  0.83792800  1
  Dy  Dy5  1  0.26384200  0.01185900  0.66207200  1
  Dy  Dy6  1  0.01185900  0.26384200  0.16207200  1
  Dy  Dy7  1  0.73615800  0.98814100  0.33792800  1
  Ge  Ge8  1  0.77912400  0.59065300  0.69194000  1
  Ge  Ge9  1  0.40934700  0.22087600  0.80806000  1
  Ge  Ge10  1  0.22087600  0.40934700  0.30806000  1
  Ge  Ge11  1  0.59065300  0.77912400  0.19194000  1
  O  O12  1  0.78091300  0.62840800  0.05519600  1
  O  O13  1  0.37159200  0.21908700  0.44480400  1
  O  O14  1  0.21908700  0.37159200  0.94480400  1
  O  O15  1  0.62840800  0.78091300  0.55519600  1
  O  O16  1  0.57694100  0.59087600  0.36749100  1
  O  O17  1  0.40912400  0.42305900  0.13250900  1
  O  O18  1  0.42305900  0.40912400  0.63250900  1
  O  O19  1  0.59087600  0.57694100  0.86749100  1
  O  O20  1  0.95881500  0.64981500  0.67568000  1
  O  O21  1  0.35018500  0.04118500  0.82432000  1
  O  O22  1  0.04118500  0.35018500  0.32432000  1
  O  O23  1  0.64981500  0.95881500  0.17568000  1
  O  O24  1  0.88662500  0.08066800  0.39673900  1
  O  O25  1  0.91933200  0.11337500  0.10326100  1
  O  O26  1  0.11337500  0.91933200  0.60326100  1
  O  O27  1  0.08066800  0.88662500  0.89673900  1
  O  O28  1  0.08559100  0.68015900  0.32457100  1
  O  O29  1  0.31984100  0.91440900  0.17542900  1
  O  O30  1  0.91440900  0.31984100  0.67542900  1
  O  O31  1  0.68015900  0.08559100  0.82457100  1
