# generated using pymatgen
data_Mg6Cu16Si7
_symmetry_space_group_name_H-M   'P 1'
_cell_length_a   8.25237596
_cell_length_b   8.25237596
_cell_length_c   8.25237596
_cell_angle_alpha   60.00000000
_cell_angle_beta   60.00000000
_cell_angle_gamma   60.00000000
_symmetry_Int_Tables_number   1
_chemical_formula_structural   Mg6Cu16Si7
_chemical_formula_sum   'Mg6 Cu16 Si7'
_cell_volume   397.39465126
_cell_formula_units_Z   1
loop_
 _symmetry_equiv_pos_site_id
 _symmetry_equiv_pos_as_xyz
  1  'x, y, z'
loop_
 _atom_site_type_symbol
 _atom_site_label
 _atom_site_symmetry_multiplicity
 _atom_site_fract_x
 _atom_site_fract_y
 _atom_site_fract_z
 _atom_site_occupancy
  Mg  Mg0  1  0.29786200  0.70213800  0.29786200  1
  Mg  Mg1  1  0.29786200  0.70213800  0.70213800  1
  Mg  Mg2  1  0.70213800  0.29786200  0.29786200  1
  Mg  Mg3  1  0.70213800  0.70213800  0.29786200  1
  Mg  Mg4  1  0.29786200  0.29786200  0.70213800  1
  Mg  Mg5  1  0.70213800  0.29786200  0.70213800  1
  Cu  Cu6  1  0.11986500  0.11986500  0.11986500  1
  Cu  Cu7  1  0.35959400  0.88013500  0.88013500  1
  Cu  Cu8  1  0.88013500  0.35959400  0.88013500  1
  Cu  Cu9  1  0.88013500  0.88013500  0.35959400  1
  Cu  Cu10  1  0.11986500  0.64040600  0.11986500  1
  Cu  Cu11  1  0.11986500  0.11986500  0.64040600  1
  Cu  Cu12  1  0.64040600  0.11986500  0.11986500  1
  Cu  Cu13  1  0.88013500  0.88013500  0.88013500  1
  Cu  Cu14  1  0.33288100  0.33288100  0.33288100  1
  Cu  Cu15  1  0.99864300  0.66711900  0.66711900  1
  Cu  Cu16  1  0.66711900  0.99864300  0.66711900  1
  Cu  Cu17  1  0.66711900  0.66711900  0.99864300  1
  Cu  Cu18  1  0.33288100  0.00135700  0.33288100  1
  Cu  Cu19  1  0.33288100  0.33288100  0.00135700  1
  Cu  Cu20  1  0.00135700  0.33288100  0.33288100  1
  Cu  Cu21  1  0.66711900  0.66711900  0.66711900  1
  Si  Si22  1  0.00000000  0.00000000  0.00000000  1
  Si  Si23  1  0.00000000  0.50000000  0.00000000  1
  Si  Si24  1  0.50000000  0.00000000  0.00000000  1
  Si  Si25  1  0.00000000  0.50000000  0.50000000  1
  Si  Si26  1  0.50000000  0.00000000  0.50000000  1
  Si  Si27  1  0.00000000  0.00000000  0.50000000  1
  Si  Si28  1  0.50000000  0.50000000  0.00000000  1
