# generated using pymatgen
data_Mg6Ni16Ge7
_symmetry_space_group_name_H-M   'P 1'
_cell_length_a   8.16033187
_cell_length_b   8.16033187
_cell_length_c   8.16033187
_cell_angle_alpha   60.00000000
_cell_angle_beta   60.00000000
_cell_angle_gamma   60.00000000
_symmetry_Int_Tables_number   1
_chemical_formula_structural   Mg6Ni16Ge7
_chemical_formula_sum   'Mg6 Ni16 Ge7'
_cell_volume   384.24521294
_cell_formula_units_Z   1
loop_
 _symmetry_equiv_pos_site_id
 _symmetry_equiv_pos_as_xyz
  1  'x, y, z'
loop_
 _atom_site_type_symbol
 _atom_site_label
 _atom_site_symmetry_multiplicity
 _atom_site_fract_x
 _atom_site_fract_y
 _atom_site_fract_z
 _atom_site_occupancy
  Mg  Mg0  1  0.20471700  0.20471700  0.79528300  1
  Mg  Mg1  1  0.20471700  0.79528300  0.79528300  1
  Mg  Mg2  1  0.79528300  0.20471700  0.20471700  1
  Mg  Mg3  1  0.20471700  0.79528300  0.20471700  1
  Mg  Mg4  1  0.79528300  0.20471700  0.79528300  1
  Mg  Mg5  1  0.79528300  0.79528300  0.20471700  1
  Ni  Ni6  1  0.83142800  0.50571600  0.83142800  1
  Ni  Ni7  1  0.16857200  0.16857200  0.49428400  1
  Ni  Ni8  1  0.49428400  0.16857200  0.16857200  1
  Ni  Ni9  1  0.16857200  0.16857200  0.16857200  1
  Ni  Ni10  1  0.50571600  0.83142800  0.83142800  1
  Ni  Ni11  1  0.83142800  0.83142800  0.83142800  1
  Ni  Ni12  1  0.83142800  0.83142800  0.50571600  1
  Ni  Ni13  1  0.16857200  0.49428400  0.16857200  1
  Ni  Ni14  1  0.61844700  0.14465900  0.61844700  1
  Ni  Ni15  1  0.38155300  0.38155300  0.85534100  1
  Ni  Ni16  1  0.85534100  0.38155300  0.38155300  1
  Ni  Ni17  1  0.38155300  0.38155300  0.38155300  1
  Ni  Ni18  1  0.14465900  0.61844700  0.61844700  1
  Ni  Ni19  1  0.61844700  0.61844700  0.61844700  1
  Ni  Ni20  1  0.61844700  0.61844700  0.14465900  1
  Ni  Ni21  1  0.38155300  0.85534100  0.38155300  1
  Ge  Ge22  1  0.50000000  0.50000000  0.50000000  1
  Ge  Ge23  1  0.50000000  0.50000000  0.00000000  1
  Ge  Ge24  1  0.00000000  0.50000000  0.50000000  1
  Ge  Ge25  1  0.50000000  0.00000000  0.00000000  1
  Ge  Ge26  1  0.00000000  0.00000000  0.50000000  1
  Ge  Ge27  1  0.00000000  0.50000000  0.00000000  1
  Ge  Ge28  1  0.50000000  0.00000000  0.50000000  1
