# generated using pymatgen
data_Na2B2S5
_symmetry_space_group_name_H-M   'P 1'
_cell_length_a   7.63228100
_cell_length_b   8.35157000
_cell_length_c   12.66051300
_cell_angle_alpha   90.00000000
_cell_angle_beta   90.00000000
_cell_angle_gamma   90.00000000
_symmetry_Int_Tables_number   1
_chemical_formula_structural   Na2B2S5
_chemical_formula_sum   'Na8 B8 S20'
_cell_volume   807.00045694
_cell_formula_units_Z   4
loop_
 _symmetry_equiv_pos_site_id
 _symmetry_equiv_pos_as_xyz
  1  'x, y, z'
loop_
 _atom_site_type_symbol
 _atom_site_label
 _atom_site_symmetry_multiplicity
 _atom_site_fract_x
 _atom_site_fract_y
 _atom_site_fract_z
 _atom_site_occupancy
  Na  Na0  1  0.49664900  0.00327400  0.16349100  1
  Na  Na1  1  0.99664900  0.99672600  0.83650900  1
  Na  Na2  1  0.50335100  0.50327400  0.33650900  1
  Na  Na3  1  0.00335100  0.49672600  0.66349100  1
  Na  Na4  1  0.50335100  0.99672600  0.83650900  1
  Na  Na5  1  0.00335100  0.00327400  0.16349100  1
  Na  Na6  1  0.49664900  0.49672600  0.66349100  1
  Na  Na7  1  0.99664900  0.50327400  0.33650900  1
  B  B8  1  0.25000000  0.59450600  0.12121600  1
  B  B9  1  0.75000000  0.40549400  0.87878400  1
  B  B10  1  0.75000000  0.09450600  0.37878400  1
  B  B11  1  0.25000000  0.90549400  0.62121600  1
  B  B12  1  0.25000000  0.29231300  0.01402900  1
  B  B13  1  0.75000000  0.70768700  0.98597100  1
  B  B14  1  0.75000000  0.79231300  0.48597100  1
  B  B15  1  0.25000000  0.20768700  0.51402900  1
  S  S16  1  0.25000000  0.41837100  0.49308100  1
  S  S17  1  0.75000000  0.58162900  0.50691900  1
  S  S18  1  0.75000000  0.91837100  0.00691900  1
  S  S19  1  0.25000000  0.08162900  0.99308100  1
  S  S20  1  0.25000000  0.73608200  0.22626700  1
  S  S21  1  0.75000000  0.26391800  0.77373300  1
  S  S22  1  0.75000000  0.23608200  0.27373300  1
  S  S23  1  0.25000000  0.76391800  0.72626700  1
  S  S24  1  0.25000000  0.37829900  0.14708000  1
  S  S25  1  0.75000000  0.62170100  0.85292000  1
  S  S26  1  0.75000000  0.87829900  0.35292000  1
  S  S27  1  0.25000000  0.12170100  0.64708000  1
  S  S28  1  0.25000000  0.43444200  0.90535800  1
  S  S29  1  0.75000000  0.56555800  0.09464200  1
  S  S30  1  0.75000000  0.93444200  0.59464200  1
  S  S31  1  0.25000000  0.06555800  0.40535800  1
  S  S32  1  0.25000000  0.65492100  0.98401100  1
  S  S33  1  0.75000000  0.34507900  0.01598900  1
  S  S34  1  0.75000000  0.15492100  0.51598900  1
  S  S35  1  0.25000000  0.84507900  0.48401100  1
