# generated using pymatgen
data_KPHNO2
_symmetry_space_group_name_H-M   'P 1'
_cell_length_a   8.19564146
_cell_length_b   8.19564146
_cell_length_c   8.19564131
_cell_angle_alpha   103.79679051
_cell_angle_beta   103.79679051
_cell_angle_gamma   103.79679829
_symmetry_Int_Tables_number   1
_chemical_formula_structural   KPHNO2
_chemical_formula_sum   'K6 P6 H6 N6 O12'
_cell_volume   493.06675907
_cell_formula_units_Z   6
loop_
 _symmetry_equiv_pos_site_id
 _symmetry_equiv_pos_as_xyz
  1  'x, y, z'
loop_
 _atom_site_type_symbol
 _atom_site_label
 _atom_site_symmetry_multiplicity
 _atom_site_fract_x
 _atom_site_fract_y
 _atom_site_fract_z
 _atom_site_occupancy
  K  K0  1  0.31473100  0.12829900  0.82688000  1
  K  K1  1  0.12829900  0.82688000  0.31473100  1
  K  K2  1  0.82688000  0.31473100  0.12829900  1
  K  K3  1  0.68526900  0.87170100  0.17312000  1
  K  K4  1  0.87170100  0.17312000  0.68526900  1
  K  K5  1  0.17312000  0.68526900  0.87170100  1
  P  P6  1  0.55243900  0.81994400  0.72138500  1
  P  P7  1  0.81994400  0.72138500  0.55243900  1
  P  P8  1  0.72138500  0.55243900  0.81994400  1
  P  P9  1  0.44756100  0.18005600  0.27861500  1
  P  P10  1  0.18005600  0.27861500  0.44756100  1
  P  P11  1  0.27861500  0.44756100  0.18005600  1
  H  H12  1  0.45838100  0.26186500  0.56853800  1
  H  H13  1  0.26186500  0.56853800  0.45838100  1
  H  H14  1  0.56853800  0.45838100  0.26186500  1
  H  H15  1  0.54161900  0.73813500  0.43146200  1
  H  H16  1  0.73813500  0.43146200  0.54161900  1
  H  H17  1  0.43146200  0.54161900  0.73813500  1
  N  N18  1  0.35900200  0.20558200  0.44774800  1
  N  N19  1  0.20558200  0.44774800  0.35900200  1
  N  N20  1  0.44774800  0.35900200  0.20558200  1
  N  N21  1  0.64099800  0.79441800  0.55225200  1
  N  N22  1  0.79441800  0.55225200  0.64099800  1
  N  N23  1  0.55225200  0.64099800  0.79441800  1
  O  O24  1  0.35914900  0.80164300  0.64068900  1
  O  O25  1  0.64068900  0.35914900  0.80164300  1
  O  O26  1  0.80164300  0.64068900  0.35914900  1
  O  O27  1  0.64085100  0.19835700  0.35931100  1
  O  O28  1  0.35931100  0.64085100  0.19835700  1
  O  O29  1  0.19835700  0.35931100  0.64085100  1
  O  O30  1  0.87076200  0.66856700  0.98483800  1
  O  O31  1  0.98483800  0.87076200  0.66856700  1
  O  O32  1  0.66856700  0.98483800  0.87076200  1
  O  O33  1  0.12923800  0.33143300  0.01516200  1
  O  O34  1  0.01516200  0.12923800  0.33143300  1
  O  O35  1  0.33143300  0.01516200  0.12923800  1
