# generated using pymatgen
data_SrCuN
_symmetry_space_group_name_H-M   'P 1'
_cell_length_a   5.39757100
_cell_length_b   9.07531700
_cell_length_c   13.26714800
_cell_angle_alpha   90.00000000
_cell_angle_beta   90.00000000
_cell_angle_gamma   90.00000000
_symmetry_Int_Tables_number   1
_chemical_formula_structural   SrCuN
_chemical_formula_sum   'Sr12 Cu12 N12'
_cell_volume   649.88683816
_cell_formula_units_Z   12
loop_
 _symmetry_equiv_pos_site_id
 _symmetry_equiv_pos_as_xyz
  1  'x, y, z'
loop_
 _atom_site_type_symbol
 _atom_site_label
 _atom_site_symmetry_multiplicity
 _atom_site_fract_x
 _atom_site_fract_y
 _atom_site_fract_z
 _atom_site_occupancy
  Sr  Sr0  1  0.00252100  0.02161100  0.25000000  1
  Sr  Sr1  1  0.50252100  0.47838900  0.75000000  1
  Sr  Sr2  1  0.49747900  0.52161100  0.25000000  1
  Sr  Sr3  1  0.99747900  0.97838900  0.75000000  1
  Sr  Sr4  1  0.01549500  0.33957800  0.08628600  1
  Sr  Sr5  1  0.51549500  0.16042200  0.91371400  1
  Sr  Sr6  1  0.98450500  0.66042200  0.91371400  1
  Sr  Sr7  1  0.48450500  0.83957800  0.41371400  1
  Sr  Sr8  1  0.98450500  0.66042200  0.58628600  1
  Sr  Sr9  1  0.01549500  0.33957800  0.41371400  1
  Sr  Sr10  1  0.51549500  0.16042200  0.58628600  1
  Sr  Sr11  1  0.48450500  0.83957800  0.08628600  1
  Cu  Cu12  1  0.51366700  0.17862900  0.15629400  1
  Cu  Cu13  1  0.00000000  0.00000000  0.50000000  1
  Cu  Cu14  1  0.50000000  0.50000000  0.50000000  1
  Cu  Cu15  1  0.50000000  0.50000000  0.00000000  1
  Cu  Cu16  1  0.00000000  0.00000000  0.00000000  1
  Cu  Cu17  1  0.01366700  0.32137100  0.84370600  1
  Cu  Cu18  1  0.98633300  0.67862900  0.15629400  1
  Cu  Cu19  1  0.48633300  0.82137100  0.65629400  1
  Cu  Cu20  1  0.48633300  0.82137100  0.84370600  1
  Cu  Cu21  1  0.51366700  0.17862900  0.34370600  1
  Cu  Cu22  1  0.01366700  0.32137100  0.65629400  1
  Cu  Cu23  1  0.98633300  0.67862900  0.34370600  1
  N  N24  1  0.74020800  0.58733000  0.41944600  1
  N  N25  1  0.71539800  0.74147300  0.75000000  1
  N  N26  1  0.21539800  0.75852700  0.25000000  1
  N  N27  1  0.78460200  0.24147300  0.75000000  1
  N  N28  1  0.28460200  0.25852700  0.25000000  1
  N  N29  1  0.75979200  0.08733000  0.41944600  1
  N  N30  1  0.25979200  0.41267000  0.58055400  1
  N  N31  1  0.74020800  0.58733000  0.08055400  1
  N  N32  1  0.24020800  0.91267000  0.91944600  1
  N  N33  1  0.24020800  0.91267000  0.58055400  1
  N  N34  1  0.25979200  0.41267000  0.91944600  1
  N  N35  1  0.75979200  0.08733000  0.08055400  1
