# generated using pymatgen
data_SmCoO3
_symmetry_space_group_name_H-M   'P 1'
_cell_length_a   5.29703900
_cell_length_b   5.47679800
_cell_length_c   7.54325300
_cell_angle_alpha   90.00000000
_cell_angle_beta   90.00000000
_cell_angle_gamma   90.00000000
_symmetry_Int_Tables_number   1
_chemical_formula_structural   SmCoO3
_chemical_formula_sum   'Sm4 Co4 O12'
_cell_volume   218.83589919
_cell_formula_units_Z   4
loop_
 _symmetry_equiv_pos_site_id
 _symmetry_equiv_pos_as_xyz
  1  'x, y, z'
loop_
 _atom_site_type_symbol
 _atom_site_label
 _atom_site_symmetry_multiplicity
 _atom_site_fract_x
 _atom_site_fract_y
 _atom_site_fract_z
 _atom_site_occupancy
  Sm  Sm0  1  0.51491500  0.55911300  0.25000000  1
  Sm  Sm1  1  0.98508500  0.05911300  0.25000000  1
  Sm  Sm2  1  0.48508500  0.44088700  0.75000000  1
  Sm  Sm3  1  0.01491500  0.94088700  0.75000000  1
  Co  Co4  1  0.50000000  0.00000000  0.00000000  1
  Co  Co5  1  0.00000000  0.50000000  0.50000000  1
  Co  Co6  1  0.50000000  0.00000000  0.50000000  1
  Co  Co7  1  0.00000000  0.50000000  0.00000000  1
  O  O8  1  0.41256000  0.98051200  0.25000000  1
  O  O9  1  0.08744000  0.48051200  0.25000000  1
  O  O10  1  0.58744000  0.01948800  0.75000000  1
  O  O11  1  0.91256000  0.51948800  0.75000000  1
  O  O12  1  0.79616900  0.79324900  0.04565300  1
  O  O13  1  0.70383100  0.29324900  0.45434700  1
  O  O14  1  0.20383100  0.20675100  0.54565300  1
  O  O15  1  0.29616900  0.70675100  0.95434700  1
  O  O16  1  0.20383100  0.20675100  0.95434700  1
  O  O17  1  0.29616900  0.70675100  0.54565300  1
  O  O18  1  0.79616900  0.79324900  0.45434700  1
  O  O19  1  0.70383100  0.29324900  0.04565300  1
