# generated using pymatgen
data_PuOF
_symmetry_space_group_name_H-M   'P 1'
_cell_length_a   3.96686600
_cell_length_b   3.96686600
_cell_length_c   5.73442000
_cell_angle_alpha   90.00000000
_cell_angle_beta   90.00000000
_cell_angle_gamma   90.00000000
_symmetry_Int_Tables_number   1
_chemical_formula_structural   PuOF
_chemical_formula_sum   'Pu2 O2 F2'
_cell_volume   90.23698142
_cell_formula_units_Z   2
loop_
 _symmetry_equiv_pos_site_id
 _symmetry_equiv_pos_as_xyz
  1  'x, y, z'
loop_
 _atom_site_type_symbol
 _atom_site_label
 _atom_site_symmetry_multiplicity
 _atom_site_fract_x
 _atom_site_fract_y
 _atom_site_fract_z
 _atom_site_occupancy
  Pu  Pu0  1  0.50000000  0.00000000  0.71058900  1
  Pu  Pu1  1  0.00000000  0.50000000  0.28941100  1
  O  O2  1  0.00000000  0.00000000  0.50000000  1
  O  O3  1  0.50000000  0.50000000  0.50000000  1
  F  F4  1  0.50000000  0.50000000  0.00000000  1
  F  F5  1  0.00000000  0.00000000  0.00000000  1
