# generated using pymatgen
data_Ta11(NiSe4)2
_symmetry_space_group_name_H-M   'P 1'
_cell_length_a   3.44139500
_cell_length_b   12.10240100
_cell_length_c   19.65458600
_cell_angle_alpha   90.00000000
_cell_angle_beta   90.00000000
_cell_angle_gamma   90.00000000
_symmetry_Int_Tables_number   1
_chemical_formula_structural   Ta11(NiSe4)2
_chemical_formula_sum   'Ta22 Ni4 Se16'
_cell_volume   818.59664895
_cell_formula_units_Z   2
loop_
 _symmetry_equiv_pos_site_id
 _symmetry_equiv_pos_as_xyz
  1  'x, y, z'
loop_
 _atom_site_type_symbol
 _atom_site_label
 _atom_site_symmetry_multiplicity
 _atom_site_fract_x
 _atom_site_fract_y
 _atom_site_fract_z
 _atom_site_occupancy
  Ta  Ta0  1  0.50000000  0.81914100  0.05123900  1
  Ta  Ta1  1  0.50000000  0.18085900  0.94876100  1
  Ta  Ta2  1  0.00000000  0.68085900  0.55123900  1
  Ta  Ta3  1  0.00000000  0.31914100  0.44876100  1
  Ta  Ta4  1  0.50000000  0.44849100  0.74211800  1
  Ta  Ta5  1  0.50000000  0.55150900  0.25788200  1
  Ta  Ta6  1  0.00000000  0.94849100  0.75788200  1
  Ta  Ta7  1  0.00000000  0.05150900  0.24211800  1
  Ta  Ta8  1  0.50000000  0.06237200  0.11466700  1
  Ta  Ta9  1  0.50000000  0.93762800  0.88533300  1
  Ta  Ta10  1  0.00000000  0.56237200  0.38533300  1
  Ta  Ta11  1  0.00000000  0.43762800  0.61466700  1
  Ta  Ta12  1  0.50000000  0.17410800  0.35412300  1
  Ta  Ta13  1  0.50000000  0.82589200  0.64587700  1
  Ta  Ta14  1  0.00000000  0.67410800  0.14587700  1
  Ta  Ta15  1  0.00000000  0.32589200  0.85412300  1
  Ta  Ta16  1  0.50000000  0.15665200  0.78724900  1
  Ta  Ta17  1  0.50000000  0.84334800  0.21275100  1
  Ta  Ta18  1  0.00000000  0.65665200  0.71275100  1
  Ta  Ta19  1  0.00000000  0.34334800  0.28724900  1
  Ta  Ta20  1  0.50000000  0.50000000  0.50000000  1
  Ta  Ta21  1  0.00000000  0.00000000  0.00000000  1
  Ni  Ni22  1  0.00000000  0.09264700  0.87076300  1
  Ni  Ni23  1  0.00000000  0.90735300  0.12923700  1
  Ni  Ni24  1  0.50000000  0.59264700  0.62923700  1
  Ni  Ni25  1  0.50000000  0.40735300  0.37076300  1
  Se  Se26  1  0.50000000  0.29261700  0.55488600  1
  Se  Se27  1  0.50000000  0.70738300  0.44511400  1
  Se  Se28  1  0.00000000  0.79261700  0.94511400  1
  Se  Se29  1  0.00000000  0.20738300  0.05488600  1
  Se  Se30  1  0.50000000  0.04176000  0.67422200  1
  Se  Se31  1  0.50000000  0.95824000  0.32577800  1
  Se  Se32  1  0.00000000  0.54176000  0.82577800  1
  Se  Se33  1  0.00000000  0.45824000  0.17422200  1
  Se  Se34  1  0.50000000  0.39193000  0.94598800  1
  Se  Se35  1  0.50000000  0.60807000  0.05401200  1
  Se  Se36  1  0.00000000  0.89193000  0.55401200  1
  Se  Se37  1  0.00000000  0.10807000  0.44598800  1
  Se  Se38  1  0.00000000  0.28522000  0.71348700  1
  Se  Se39  1  0.00000000  0.71478000  0.28651300  1
  Se  Se40  1  0.50000000  0.78522000  0.78651300  1
  Se  Se41  1  0.50000000  0.21478000  0.21348700  1
