# generated using pymatgen
data_HoZn2
_symmetry_space_group_name_H-M   'P 1'
_cell_length_a   5.64511137
_cell_length_b   5.64511137
_cell_length_c   5.64511137
_cell_angle_alpha   133.48623613
_cell_angle_beta   102.47721564
_cell_angle_gamma   95.49554387
_symmetry_Int_Tables_number   1
_chemical_formula_structural   HoZn2
_chemical_formula_sum   'Ho2 Zn4'
_cell_volume   119.61013321
_cell_formula_units_Z   2
loop_
 _symmetry_equiv_pos_site_id
 _symmetry_equiv_pos_as_xyz
  1  'x, y, z'
loop_
 _atom_site_type_symbol
 _atom_site_label
 _atom_site_symmetry_multiplicity
 _atom_site_fract_x
 _atom_site_fract_y
 _atom_site_fract_z
 _atom_site_occupancy
  Ho  Ho0  1  0.72208200  0.47208200  0.25000000  1
  Ho  Ho1  1  0.27791800  0.52791800  0.75000000  1
  Zn  Zn2  1  0.70661900  0.16592100  0.54069800  1
  Zn  Zn3  1  0.29338100  0.83407900  0.45930200  1
  Zn  Zn4  1  0.12522300  0.16592100  0.95930200  1
  Zn  Zn5  1  0.87477700  0.83407900  0.04069800  1
