# generated using pymatgen
data_Tm2InPd2
_symmetry_space_group_name_H-M   'P 1'
_cell_length_a   7.68832000
_cell_length_b   7.68832000
_cell_length_c   3.65918000
_cell_angle_alpha   90.00000000
_cell_angle_beta   90.00000000
_cell_angle_gamma   90.00000000
_symmetry_Int_Tables_number   1
_chemical_formula_structural   Tm2InPd2
_chemical_formula_sum   'Tm4 In2 Pd4'
_cell_volume   216.29509737
_cell_formula_units_Z   2
loop_
 _symmetry_equiv_pos_site_id
 _symmetry_equiv_pos_as_xyz
  1  'x, y, z'
loop_
 _atom_site_type_symbol
 _atom_site_label
 _atom_site_symmetry_multiplicity
 _atom_site_fract_x
 _atom_site_fract_y
 _atom_site_fract_z
 _atom_site_occupancy
  Tm  Tm0  1  0.32760800  0.82760800  0.50000000  1
  Tm  Tm1  1  0.82760800  0.67239200  0.50000000  1
  Tm  Tm2  1  0.17239200  0.32760800  0.50000000  1
  Tm  Tm3  1  0.67239200  0.17239200  0.50000000  1
  In  In4  1  0.00000000  0.00000000  0.00000000  1
  In  In5  1  0.50000000  0.50000000  0.00000000  1
  Pd  Pd6  1  0.37157300  0.12842700  0.00000000  1
  Pd  Pd7  1  0.87157300  0.37157300  0.00000000  1
  Pd  Pd8  1  0.12842700  0.62842700  0.00000000  1
  Pd  Pd9  1  0.62842700  0.87157300  0.00000000  1
