# generated using pymatgen
data_LaI3
_symmetry_space_group_name_H-M   'P 1'
_cell_length_a   8.12122647
_cell_length_b   8.12122647
_cell_length_c   10.16318100
_cell_angle_alpha   90.00000000
_cell_angle_beta   90.00000000
_cell_angle_gamma   148.21901166
_symmetry_Int_Tables_number   1
_chemical_formula_structural   LaI3
_chemical_formula_sum   'La2 I6'
_cell_volume   353.03241474
_cell_formula_units_Z   2
loop_
 _symmetry_equiv_pos_site_id
 _symmetry_equiv_pos_as_xyz
  1  'x, y, z'
loop_
 _atom_site_type_symbol
 _atom_site_label
 _atom_site_symmetry_multiplicity
 _atom_site_fract_x
 _atom_site_fract_y
 _atom_site_fract_z
 _atom_site_occupancy
  La  La0  1  0.25861100  0.74138900  0.25000000  1
  La  La1  1  0.74138900  0.25861100  0.75000000  1
  I  I2  1  0.65502300  0.34497700  0.43324800  1
  I  I3  1  0.34497700  0.65502300  0.56675200  1
  I  I4  1  0.09460600  0.90539400  0.75000000  1
  I  I5  1  0.90539400  0.09460600  0.25000000  1
  I  I6  1  0.65502300  0.34497700  0.06675200  1
  I  I7  1  0.34497700  0.65502300  0.93324800  1
