# generated using pymatgen
data_B9H11
_symmetry_space_group_name_H-M   'P 1'
_cell_length_a   10.90446900
_cell_length_b   11.15666500
_cell_length_c   12.47188000
_cell_angle_alpha   90.00000000
_cell_angle_beta   90.00000000
_cell_angle_gamma   90.00000000
_symmetry_Int_Tables_number   1
_chemical_formula_structural   B9H11
_chemical_formula_sum   'B72 H88'
_cell_volume   1517.29783633
_cell_formula_units_Z   8
loop_
 _symmetry_equiv_pos_site_id
 _symmetry_equiv_pos_as_xyz
  1  'x, y, z'
loop_
 _atom_site_type_symbol
 _atom_site_label
 _atom_site_symmetry_multiplicity
 _atom_site_fract_x
 _atom_site_fract_y
 _atom_site_fract_z
 _atom_site_occupancy
  B  B0  1  0.49367300  0.92714000  0.46884000  1
  B  B1  1  0.49367300  0.57286000  0.03116000  1
  B  B2  1  0.00632700  0.42714000  0.53116000  1
  B  B3  1  0.00632700  0.07286000  0.96884000  1
  B  B4  1  0.50632700  0.07286000  0.53116000  1
  B  B5  1  0.50632700  0.42714000  0.96884000  1
  B  B6  1  0.99367300  0.57286000  0.46884000  1
  B  B7  1  0.99367300  0.92714000  0.03116000  1
  B  B8  1  0.60246300  0.93590100  0.35912400  1
  B  B9  1  0.60246300  0.56409900  0.14087600  1
  B  B10  1  0.89753700  0.43590100  0.64087600  1
  B  B11  1  0.89753700  0.06409900  0.85912400  1
  B  B12  1  0.39753700  0.06409900  0.64087600  1
  B  B13  1  0.39753700  0.43590100  0.85912400  1
  B  B14  1  0.10246300  0.56409900  0.35912400  1
  B  B15  1  0.10246300  0.93590100  0.14087600  1
  B  B16  1  0.76487300  0.99718300  0.39633100  1
  B  B17  1  0.76487300  0.50281700  0.10366900  1
  B  B18  1  0.73512700  0.49718300  0.60366900  1
  B  B19  1  0.73512700  0.00281700  0.89633100  1
  B  B20  1  0.23512700  0.00281700  0.60366900  1
  B  B21  1  0.23512700  0.49718300  0.89633100  1
  B  B22  1  0.26487300  0.50281700  0.39633100  1
  B  B23  1  0.26487300  0.99718300  0.10366900  1
  B  B24  1  0.79349700  0.04521800  0.53087100  1
  B  B25  1  0.79349700  0.45478200  0.96912900  1
  B  B26  1  0.70650300  0.54521800  0.46912900  1
  B  B27  1  0.70650300  0.95478200  0.03087100  1
  B  B28  1  0.20650300  0.95478200  0.46912900  1
  B  B29  1  0.20650300  0.54521800  0.03087100  1
  B  B30  1  0.29349700  0.45478200  0.53087100  1
  B  B31  1  0.29349700  0.04521800  0.96912900  1
  B  B32  1  0.66914600  0.14074700  0.56371200  1
  B  B33  1  0.66914600  0.35925300  0.93628800  1
  B  B34  1  0.83085400  0.64074700  0.43628800  1
  B  B35  1  0.83085400  0.85925300  0.06371200  1
  B  B36  1  0.33085400  0.85925300  0.43628800  1
  B  B37  1  0.33085400  0.64074700  0.06371200  1
  B  B38  1  0.16914600  0.35925300  0.56371200  1
  B  B39  1  0.16914600  0.14074700  0.93628800  1
  B  B40  1  0.49870700  0.05607600  0.38728400  1
  B  B41  1  0.49870700  0.44392400  0.11271600  1
  B  B42  1  0.00129300  0.55607600  0.61271600  1
  B  B43  1  0.00129300  0.94392400  0.88728400  1
  B  B44  1  0.50129300  0.94392400  0.61271600  1
  B  B45  1  0.50129300  0.55607600  0.88728400  1
  B  B46  1  0.99870700  0.44392400  0.38728400  1
  B  B47  1  0.99870700  0.05607600  0.11271600  1
  B  B48  1  0.64788500  0.08560600  0.34168200  1
  B  B49  1  0.64788500  0.41439400  0.15831800  1
  B  B50  1  0.85211500  0.58560600  0.65831800  1
  B  B51  1  0.85211500  0.91439400  0.84168200  1
  B  B52  1  0.35211500  0.91439400  0.65831800  1
  B  B53  1  0.35211500  0.58560600  0.84168200  1
  B  B54  1  0.14788500  0.41439400  0.34168200  1
  B  B55  1  0.14788500  0.08560600  0.15831800  1
  B  B56  1  0.74679900  0.15020800  0.43877500  1
  B  B57  1  0.74679900  0.34979200  0.06122500  1
  B  B58  1  0.75320100  0.65020800  0.56122500  1
  B  B59  1  0.75320100  0.84979200  0.93877500  1
  B  B60  1  0.25320100  0.84979200  0.56122500  1
  B  B61  1  0.25320100  0.65020800  0.93877500  1
  B  B62  1  0.24679900  0.34979200  0.43877500  1
  B  B63  1  0.24679900  0.15020800  0.06122500  1
  B  B64  1  0.58501900  0.17371900  0.44802500  1
  B  B65  1  0.58501900  0.32628100  0.05197500  1
  B  B66  1  0.91498100  0.67371900  0.55197500  1
  B  B67  1  0.91498100  0.82628100  0.94802500  1
  B  B68  1  0.41498100  0.82628100  0.55197500  1
  B  B69  1  0.41498100  0.67371900  0.94802500  1
  B  B70  1  0.08501900  0.32628100  0.44802500  1
  B  B71  1  0.08501900  0.17371900  0.05197500  1
  H  H72  1  0.76728900  0.93738500  0.48826500  1
  H  H73  1  0.76728900  0.56261500  0.01173500  1
  H  H74  1  0.73271100  0.43738500  0.51173500  1
  H  H75  1  0.73271100  0.06261500  0.98826500  1
  H  H76  1  0.23271100  0.06261500  0.51173500  1
  H  H77  1  0.23271100  0.43738500  0.98826500  1
  H  H78  1  0.26728900  0.56261500  0.48826500  1
  H  H79  1  0.26728900  0.93738500  0.01173500  1
  H  H80  1  0.70426400  0.03561100  0.60312300  1
  H  H81  1  0.70426400  0.46438900  0.89687700  1
  H  H82  1  0.79573600  0.53561100  0.39687700  1
  H  H83  1  0.79573600  0.96438900  0.10312300  1
  H  H84  1  0.29573600  0.96438900  0.39687700  1
  H  H85  1  0.29573600  0.53561100  0.10312300  1
  H  H86  1  0.20426400  0.46438900  0.60312300  1
  H  H87  1  0.20426400  0.03561100  0.89687700  1
  H  H88  1  0.59948700  0.86811900  0.44544300  1
  H  H89  1  0.59948700  0.63188100  0.05455700  1
  H  H90  1  0.90051300  0.36811900  0.55455700  1
  H  H91  1  0.90051300  0.13188100  0.94544300  1
  H  H92  1  0.40051300  0.13188100  0.55455700  1
  H  H93  1  0.40051300  0.36811900  0.94544300  1
  H  H94  1  0.09948700  0.63188100  0.44544300  1
  H  H95  1  0.09948700  0.86811900  0.05455700  1
  H  H96  1  0.59291100  0.86927000  0.28485400  1
  H  H97  1  0.59291100  0.63073000  0.21514600  1
  H  H98  1  0.90708900  0.36927000  0.71514600  1
  H  H99  1  0.90708900  0.13073000  0.78485400  1
  H  H100  1  0.40708900  0.13073000  0.71514600  1
  H  H101  1  0.40708900  0.36927000  0.78485400  1
  H  H102  1  0.09291000  0.63073000  0.28485400  1
  H  H103  1  0.09291000  0.86927000  0.21514600  1
  H  H104  1  0.84914000  0.95952800  0.34557000  1
  H  H105  1  0.84914000  0.54047200  0.15443000  1
  H  H106  1  0.65086000  0.45952800  0.65443000  1
  H  H107  1  0.65086000  0.04047200  0.84557000  1
  H  H108  1  0.15086000  0.04047200  0.65443000  1
  H  H109  1  0.15086000  0.45952800  0.84557000  1
  H  H110  1  0.34914000  0.54047200  0.34557000  1
  H  H111  1  0.81212700  0.23043900  0.41168100  1
  H  H112  1  0.34914000  0.95952800  0.15443000  1
  H  H113  1  0.88796000  0.46433100  0.92205800  1
  H  H114  1  0.61204000  0.53566900  0.42205800  1
  H  H115  1  0.61204000  0.96433100  0.07794200  1
  H  H116  1  0.11204000  0.96433100  0.42205800  1
  H  H117  1  0.11204000  0.53566900  0.07794200  1
  H  H118  1  0.38796000  0.46433100  0.57794200  1
  H  H119  1  0.38796000  0.03566900  0.92205800  1
  H  H120  1  0.67534400  0.20822200  0.63768400  1
  H  H121  1  0.67534400  0.29177800  0.86231600  1
  H  H122  1  0.82465600  0.70822200  0.36231600  1
  H  H123  1  0.82465600  0.79177800  0.13768400  1
  H  H124  1  0.32465600  0.79177800  0.36231600  1
  H  H125  1  0.32465600  0.70822200  0.13768400  1
  H  H126  1  0.17534400  0.29177800  0.63768400  1
  H  H127  1  0.17534400  0.20822200  0.86231600  1
  H  H128  1  0.41441700  0.08348200  0.33169900  1
  H  H129  1  0.41441700  0.41651800  0.16830100  1
  H  H130  1  0.08558300  0.58348200  0.66830100  1
  H  H131  1  0.08558300  0.91651800  0.83169900  1
  H  H132  1  0.58558300  0.91651800  0.66830100  1
  H  H133  1  0.58558300  0.58348200  0.83169900  1
  H  H134  1  0.91441700  0.41651800  0.33169900  1
  H  H135  1  0.91441700  0.08348200  0.16830100  1
  H  H136  1  0.65998100  0.11492900  0.25021000  1
  H  H137  1  0.65998100  0.38507100  0.24979000  1
  H  H138  1  0.84001900  0.61492900  0.74979000  1
  H  H139  1  0.84001900  0.88507100  0.75021000  1
  H  H140  1  0.34001900  0.88507100  0.74979000  1
  H  H141  1  0.34001900  0.61492900  0.75021000  1
  H  H142  1  0.15998100  0.38507100  0.25021000  1
  H  H143  1  0.15998100  0.11492900  0.24979000  1
  H  H144  1  0.04523500  0.27318700  0.05794300  1
  H  H145  1  0.04523500  0.22681300  0.44205700  1
  H  H146  1  0.45476500  0.77318700  0.94205700  1
  H  H147  1  0.45476500  0.72681300  0.55794300  1
  H  H148  1  0.95476500  0.72681300  0.94205700  1
  H  H149  1  0.95476500  0.77318700  0.55794300  1
  H  H150  1  0.54523500  0.22681300  0.05794300  1
  H  H151  1  0.54523500  0.27318700  0.44205700  1
  H  H152  1  0.31212700  0.23043900  0.08831900  1
  H  H153  1  0.31212700  0.26956100  0.41168100  1
  H  H154  1  0.18787300  0.73043900  0.91168100  1
  H  H155  1  0.18787300  0.76956100  0.58831900  1
  H  H156  1  0.68787300  0.76956100  0.91168100  1
  H  H157  1  0.68787300  0.73043900  0.58831900  1
  H  H158  1  0.81212700  0.26956100  0.08831900  1
  H  H159  1  0.88796000  0.03566900  0.57794200  1
