# generated using pymatgen
data_LaIn2Ir
_symmetry_space_group_name_H-M   'P 1'
_cell_length_a   5.64556258
_cell_length_b   5.64556258
_cell_length_c   8.19650400
_cell_angle_alpha   90.00000000
_cell_angle_beta   90.00000000
_cell_angle_gamma   133.29442717
_symmetry_Int_Tables_number   1
_chemical_formula_structural   LaIn2Ir
_chemical_formula_sum   'La2 In4 Ir2'
_cell_volume   190.14228328
_cell_formula_units_Z   2
loop_
 _symmetry_equiv_pos_site_id
 _symmetry_equiv_pos_as_xyz
  1  'x, y, z'
loop_
 _atom_site_type_symbol
 _atom_site_label
 _atom_site_symmetry_multiplicity
 _atom_site_fract_x
 _atom_site_fract_y
 _atom_site_fract_z
 _atom_site_occupancy
  La  La0  1  0.93322100  0.06677900  0.75000000  1
  La  La1  1  0.06677900  0.93322100  0.25000000  1
  In  In2  1  0.64740200  0.35259800  0.55166900  1
  In  In3  1  0.35259800  0.64740200  0.44833100  1
  In  In4  1  0.64740200  0.35259800  0.94833100  1
  In  In5  1  0.35259800  0.64740200  0.05166900  1
  Ir  Ir6  1  0.78469300  0.21530700  0.25000000  1
  Ir  Ir7  1  0.21530700  0.78469300  0.75000000  1
