# generated using pymatgen
data_MgH6(SO4)4
_symmetry_space_group_name_H-M   'P 1'
_cell_length_a   15.38558900
_cell_length_b   5.21175900
_cell_length_c   8.29597772
_cell_angle_alpha   76.46719418
_cell_angle_beta   90.00000000
_cell_angle_gamma   90.00000000
_symmetry_Int_Tables_number   1
_chemical_formula_structural   MgH6(SO4)4
_chemical_formula_sum   'Mg2 H12 S8 O32'
_cell_volume   646.75198506
_cell_formula_units_Z   2
loop_
 _symmetry_equiv_pos_site_id
 _symmetry_equiv_pos_as_xyz
  1  'x, y, z'
loop_
 _atom_site_type_symbol
 _atom_site_label
 _atom_site_symmetry_multiplicity
 _atom_site_fract_x
 _atom_site_fract_y
 _atom_site_fract_z
 _atom_site_occupancy
  Mg  Mg0  1  0.00000000  0.00000000  0.00000000  1
  Mg  Mg1  1  0.50000000  0.00000000  0.50000000  1
  H  H2  1  0.02380300  0.28803400  0.38533100  1
  H  H3  1  0.52380300  0.71196600  0.11466900  1
  H  H4  1  0.97619700  0.71196600  0.61466900  1
  H  H5  1  0.47619700  0.28803400  0.88533100  1
  H  H6  1  0.26532700  0.80677800  0.30207600  1
  H  H7  1  0.76532700  0.19322200  0.19792400  1
  H  H8  1  0.73467300  0.19322200  0.69792400  1
  H  H9  1  0.23467300  0.80677800  0.80207600  1
  H  H10  1  0.76414800  0.58407100  0.33495600  1
  H  H11  1  0.26414800  0.41592900  0.16504400  1
  H  H12  1  0.23585200  0.41592900  0.66504400  1
  H  H13  1  0.73585200  0.58407100  0.83495600  1
  S  S14  1  0.66575500  0.88304300  0.25019800  1
  S  S15  1  0.16575500  0.11695700  0.24980200  1
  S  S16  1  0.58470300  0.42435900  0.72570600  1
  S  S17  1  0.08470300  0.57564100  0.77429400  1
  S  S18  1  0.41529700  0.57564100  0.27429400  1
  S  S19  1  0.91529700  0.42435900  0.22570600  1
  S  S20  1  0.83424500  0.88304300  0.75019800  1
  S  S21  1  0.33424500  0.11695700  0.74980200  1
  O  O22  1  0.17913200  0.60780100  0.73642100  1
  O  O23  1  0.82086800  0.39219900  0.26357900  1
  O  O24  1  0.54192000  0.29767700  0.89655900  1
  O  O25  1  0.04192000  0.70232300  0.60344100  1
  O  O26  1  0.45808000  0.70232300  0.10344100  1
  O  O27  1  0.95808000  0.29767700  0.39655900  1
  O  O28  1  0.06032300  0.29756300  0.82172100  1
  O  O29  1  0.56032300  0.70243700  0.67827900  1
  O  O30  1  0.93967700  0.70243700  0.17827900  1
  O  O31  1  0.32086800  0.60780100  0.23642100  1
  O  O32  1  0.05900700  0.72368300  0.89542800  1
  O  O33  1  0.55900700  0.27631700  0.60457200  1
  O  O34  1  0.94099300  0.27631700  0.10457200  1
  O  O35  1  0.44099300  0.72368300  0.39542800  1
  O  O36  1  0.89107000  0.02192500  0.84014500  1
  O  O37  1  0.39107000  0.97807500  0.65985500  1
  O  O38  1  0.10893000  0.97807500  0.15985500  1
  O  O39  1  0.60893000  0.02192500  0.34014500  1
  O  O40  1  0.37428000  0.26580000  0.85694800  1
  O  O41  1  0.87428000  0.73420000  0.64305200  1
  O  O42  1  0.62572000  0.73420000  0.14305200  1
  O  O43  1  0.12572000  0.26580000  0.35694800  1
  O  O44  1  0.27135500  0.92292100  0.86136400  1
  O  O45  1  0.77135500  0.07707900  0.63863600  1
  O  O46  1  0.72864500  0.07707900  0.13863600  1
  O  O47  1  0.22864500  0.92292100  0.36136400  1
  O  O48  1  0.77752300  0.70096900  0.88392700  1
  O  O49  1  0.27752300  0.29903100  0.61607300  1
  O  O50  1  0.22247700  0.29903100  0.11607300  1
  O  O51  1  0.72247700  0.70096900  0.38392700  1
  O  O52  1  0.43967700  0.29756300  0.32172100  1
  O  O53  1  0.67913200  0.39219900  0.76357900  1
