# generated using pymatgen
data_Li9Cr3P8O29
_symmetry_space_group_name_H-M   'P 1'
_cell_length_a   9.82302595
_cell_length_b   9.82302595
_cell_length_c   13.76693300
_cell_angle_alpha   90.00000000
_cell_angle_beta   90.00000000
_cell_angle_gamma   119.99999966
_symmetry_Int_Tables_number   1
_chemical_formula_structural   Li9Cr3P8O29
_chemical_formula_sum   'Li18 Cr6 P16 O58'
_cell_volume   1150.42527505
_cell_formula_units_Z   2
loop_
 _symmetry_equiv_pos_site_id
 _symmetry_equiv_pos_as_xyz
  1  'x, y, z'
loop_
 _atom_site_type_symbol
 _atom_site_label
 _atom_site_symmetry_multiplicity
 _atom_site_fract_x
 _atom_site_fract_y
 _atom_site_fract_z
 _atom_site_occupancy
  Li  Li0  1  0.76403700  0.10036700  0.06345200  1
  Li  Li1  1  0.33633100  0.10036700  0.56345200  1
  Li  Li2  1  0.76403700  0.66366900  0.56345200  1
  Li  Li3  1  0.00000000  0.00000000  0.50000000  1
  Li  Li4  1  0.89963300  0.23596300  0.56345200  1
  Li  Li5  1  0.33333300  0.66666700  0.61979500  1
  Li  Li6  1  0.10036700  0.76403700  0.43654800  1
  Li  Li7  1  0.66366900  0.76403700  0.93654800  1
  Li  Li8  1  0.33633100  0.23596300  0.06345200  1
  Li  Li9  1  0.66666700  0.33333300  0.38020500  1
  Li  Li10  1  0.89963300  0.66366900  0.06345200  1
  Li  Li11  1  0.33333300  0.66666700  0.11979500  1
  Li  Li12  1  0.66366900  0.89963300  0.43654800  1
  Li  Li13  1  0.23596300  0.33633100  0.43654800  1
  Li  Li14  1  0.00000000  0.00000000  0.00000000  1
  Li  Li15  1  0.23596300  0.89963300  0.93654800  1
  Li  Li16  1  0.66666700  0.33333300  0.88020500  1
  Li  Li17  1  0.10036700  0.33633100  0.93654800  1
  Cr  Cr18  1  0.43334700  0.43334700  0.25000000  1
  Cr  Cr19  1  0.00000000  0.43334700  0.75000000  1
  Cr  Cr20  1  0.56665300  0.00000000  0.25000000  1
  Cr  Cr21  1  0.56665300  0.56665300  0.75000000  1
  Cr  Cr22  1  0.00000000  0.56665300  0.25000000  1
  Cr  Cr23  1  0.43334700  0.00000000  0.75000000  1
  P  P24  1  0.91013200  0.22740500  0.34406800  1
  P  P25  1  0.31727300  0.22740500  0.84406800  1
  P  P26  1  0.91013200  0.68272700  0.84406800  1
  P  P27  1  0.68272700  0.77259500  0.15593200  1
  P  P28  1  0.22740500  0.31727300  0.65593200  1
  P  P29  1  0.08986800  0.77259500  0.65593200  1
  P  P30  1  0.66666700  0.33333300  0.62487600  1
  P  P31  1  0.66666700  0.33333300  0.12487600  1
  P  P32  1  0.33333300  0.66666700  0.37512400  1
  P  P33  1  0.77259500  0.68272700  0.34406800  1
  P  P34  1  0.68272700  0.91013200  0.65593200  1
  P  P35  1  0.77259500  0.08986800  0.84406800  1
  P  P36  1  0.22740500  0.91013200  0.15593200  1
  P  P37  1  0.31727300  0.08986800  0.34406800  1
  P  P38  1  0.08986800  0.31727300  0.15593200  1
  P  P39  1  0.33333300  0.66666700  0.87512400  1
  O  O40  1  0.66666700  0.33333300  0.01477500  1
  O  O41  1  0.21362800  0.21362800  0.75000000  1
  O  O42  1  0.07837200  0.74747500  0.15570600  1
  O  O43  1  0.07837200  0.33089700  0.65570600  1
  O  O44  1  0.48832500  0.67745200  0.83693700  1
  O  O45  1  0.00000000  0.78637200  0.75000000  1
  O  O46  1  0.22780700  0.00218100  0.06679000  1
  O  O47  1  0.18912700  0.51167500  0.83693700  1
  O  O48  1  0.77437400  0.77219300  0.06679000  1
  O  O49  1  0.92162800  0.66910300  0.34429400  1
  O  O50  1  0.89218200  0.51859800  0.83373100  1
  O  O51  1  0.66666700  0.33333300  0.51477500  1
  O  O52  1  0.00000000  0.21362800  0.25000000  1
  O  O53  1  0.99781900  0.22562600  0.06679000  1
  O  O54  1  0.62641600  0.51859800  0.33373100  1
  O  O55  1  0.77437400  0.00218100  0.56679000  1
  O  O56  1  0.37358400  0.48140200  0.66626900  1
  O  O57  1  0.51859800  0.89218200  0.66626900  1
  O  O58  1  0.51167500  0.18912700  0.66306300  1
  O  O59  1  0.99781900  0.77219300  0.56679000  1
  O  O60  1  0.21362800  0.00000000  0.25000000  1
  O  O61  1  0.22562600  0.99781900  0.43321000  1
  O  O62  1  0.22780700  0.22562600  0.56679000  1
  O  O63  1  0.22562600  0.22780700  0.93321000  1
  O  O64  1  0.48140200  0.10781800  0.33373100  1
  O  O65  1  0.32254800  0.81087300  0.83693700  1
  O  O66  1  0.51167500  0.32254800  0.16306300  1
  O  O67  1  0.10781800  0.62641600  0.66626900  1
  O  O68  1  0.48832500  0.81087300  0.33693700  1
  O  O69  1  0.00218100  0.77437400  0.93321000  1
  O  O70  1  0.74747500  0.07837200  0.34429400  1
  O  O71  1  0.48140200  0.37358400  0.83373100  1
  O  O72  1  0.62641600  0.10781800  0.83373100  1
  O  O73  1  0.67745200  0.48832500  0.66306300  1
  O  O74  1  0.77219300  0.99781900  0.93321000  1
  O  O75  1  0.37358400  0.89218200  0.16626900  1
  O  O76  1  0.74747500  0.66910300  0.84429400  1
  O  O77  1  0.67745200  0.18912700  0.16306300  1
  O  O78  1  0.78637200  0.00000000  0.75000000  1
  O  O79  1  0.18912700  0.67745200  0.33693700  1
  O  O80  1  0.66910300  0.74747500  0.65570600  1
  O  O81  1  0.81087300  0.32254800  0.66306300  1
  O  O82  1  0.51859800  0.62641600  0.16626900  1
  O  O83  1  0.00218100  0.22780700  0.43321000  1
  O  O84  1  0.92162800  0.25252500  0.84429400  1
  O  O85  1  0.33089700  0.07837200  0.84429400  1
  O  O86  1  0.33333300  0.66666700  0.48522500  1
  O  O87  1  0.10781800  0.48140200  0.16626900  1
  O  O88  1  0.81087300  0.48832500  0.16306300  1
  O  O89  1  0.33333300  0.66666700  0.98522500  1
  O  O90  1  0.32254800  0.51167500  0.33693700  1
  O  O91  1  0.77219300  0.77437400  0.43321000  1
  O  O92  1  0.89218200  0.37358400  0.33373100  1
  O  O93  1  0.66910300  0.92162800  0.15570600  1
  O  O94  1  0.25252500  0.33089700  0.15570600  1
  O  O95  1  0.33089700  0.25252500  0.34429400  1
  O  O96  1  0.25252500  0.92162800  0.65570600  1
  O  O97  1  0.78637200  0.78637200  0.25000000  1
