# generated using pymatgen
data_SnF4
_symmetry_space_group_name_H-M   'P 1'
_cell_length_a   5.11369823
_cell_length_b   5.11369823
_cell_length_c   5.11369823
_cell_angle_alpha   132.01799053
_cell_angle_beta   132.01799053
_cell_angle_gamma   70.20061429
_symmetry_Int_Tables_number   1
_chemical_formula_structural   SnF4
_chemical_formula_sum   'Sn1 F4'
_cell_volume   72.34635914
_cell_formula_units_Z   1
loop_
 _symmetry_equiv_pos_site_id
 _symmetry_equiv_pos_as_xyz
  1  'x, y, z'
loop_
 _atom_site_type_symbol
 _atom_site_label
 _atom_site_symmetry_multiplicity
 _atom_site_fract_x
 _atom_site_fract_y
 _atom_site_fract_z
 _atom_site_occupancy
  Sn  Sn0  1  0.00000000  0.00000000  0.00000000  1
  F  F1  1  0.77184100  0.77184100  0.00000000  1
  F  F2  1  0.50000000  0.00000000  0.50000000  1
  F  F3  1  0.00000000  0.50000000  0.50000000  1
  F  F4  1  0.22815900  0.22815900  0.00000000  1
