# generated using pymatgen
data_DySn2
_symmetry_space_group_name_H-M   'P 1'
_cell_length_a   8.40451362
_cell_length_b   8.40451362
_cell_length_c   4.36988100
_cell_angle_alpha   90.00000000
_cell_angle_beta   90.00000000
_cell_angle_gamma   149.27083284
_symmetry_Int_Tables_number   1
_chemical_formula_structural   DySn2
_chemical_formula_sum   'Dy2 Sn4'
_cell_volume   157.72450318
_cell_formula_units_Z   2
loop_
 _symmetry_equiv_pos_site_id
 _symmetry_equiv_pos_as_xyz
  1  'x, y, z'
loop_
 _atom_site_type_symbol
 _atom_site_label
 _atom_site_symmetry_multiplicity
 _atom_site_fract_x
 _atom_site_fract_y
 _atom_site_fract_z
 _atom_site_occupancy
  Dy  Dy0  1  0.90304300  0.09695700  0.75000000  1
  Dy  Dy1  1  0.09695700  0.90304300  0.25000000  1
  Sn  Sn2  1  0.56612200  0.43387800  0.75000000  1
  Sn  Sn3  1  0.43387800  0.56612200  0.25000000  1
  Sn  Sn4  1  0.25132300  0.74867700  0.75000000  1
  Sn  Sn5  1  0.74867700  0.25132300  0.25000000  1
