# generated using pymatgen
data_BPd3
_symmetry_space_group_name_H-M   'P 1'
_cell_length_a   4.89773000
_cell_length_b   5.53472800
_cell_length_c   7.70890100
_cell_angle_alpha   90.00000000
_cell_angle_beta   90.00000000
_cell_angle_gamma   90.00000000
_symmetry_Int_Tables_number   1
_chemical_formula_structural   BPd3
_chemical_formula_sum   'B4 Pd12'
_cell_volume   208.96983071
_cell_formula_units_Z   4
loop_
 _symmetry_equiv_pos_site_id
 _symmetry_equiv_pos_as_xyz
  1  'x, y, z'
loop_
 _atom_site_type_symbol
 _atom_site_label
 _atom_site_symmetry_multiplicity
 _atom_site_fract_x
 _atom_site_fract_y
 _atom_site_fract_z
 _atom_site_occupancy
  B  B0  1  0.56553200  0.11232000  0.75000000  1
  B  B1  1  0.06553200  0.38768000  0.25000000  1
  B  B2  1  0.93446800  0.61232000  0.75000000  1
  B  B3  1  0.43446800  0.88768000  0.25000000  1
  Pd  Pd4  1  0.67393000  0.82087800  0.92782900  1
  Pd  Pd5  1  0.17393000  0.67912200  0.07217100  1
  Pd  Pd6  1  0.82607000  0.32087800  0.57217100  1
  Pd  Pd7  1  0.32607000  0.17912200  0.42782900  1
  Pd  Pd8  1  0.84209500  0.03920300  0.25000000  1
  Pd  Pd9  1  0.34209500  0.46079700  0.75000000  1
  Pd  Pd10  1  0.65790500  0.53920300  0.25000000  1
  Pd  Pd11  1  0.15790500  0.96079700  0.75000000  1
  Pd  Pd12  1  0.67393000  0.82087800  0.57217100  1
  Pd  Pd13  1  0.17393000  0.67912200  0.42782900  1
  Pd  Pd14  1  0.82607000  0.32087800  0.92782900  1
  Pd  Pd15  1  0.32607000  0.17912200  0.07217100  1
