# generated using pymatgen
data_Ca5Bi3
_symmetry_space_group_name_H-M   'P 1'
_cell_length_a   8.48198500
_cell_length_b   9.78173400
_cell_length_c   12.84128500
_cell_angle_alpha   90.00000000
_cell_angle_beta   90.00000000
_cell_angle_gamma   90.00000000
_symmetry_Int_Tables_number   1
_chemical_formula_structural   Ca5Bi3
_chemical_formula_sum   'Ca20 Bi12'
_cell_volume   1065.42242499
_cell_formula_units_Z   4
loop_
 _symmetry_equiv_pos_site_id
 _symmetry_equiv_pos_as_xyz
  1  'x, y, z'
loop_
 _atom_site_type_symbol
 _atom_site_label
 _atom_site_symmetry_multiplicity
 _atom_site_fract_x
 _atom_site_fract_y
 _atom_site_fract_z
 _atom_site_occupancy
  Ca  Ca0  1  0.30683800  0.95635900  0.07612600  1
  Ca  Ca1  1  0.80683800  0.04364100  0.42387400  1
  Ca  Ca2  1  0.69316200  0.45635900  0.92387400  1
  Ca  Ca3  1  0.19316200  0.54364100  0.57612600  1
  Ca  Ca4  1  0.69316200  0.04364100  0.92387400  1
  Ca  Ca5  1  0.19316200  0.95635900  0.57612600  1
  Ca  Ca6  1  0.30683800  0.54364100  0.07612600  1
  Ca  Ca7  1  0.80683800  0.45635900  0.42387400  1
  Ca  Ca8  1  0.68010400  0.75000000  0.22891000  1
  Ca  Ca9  1  0.18010400  0.25000000  0.27109000  1
  Ca  Ca10  1  0.31989600  0.25000000  0.77109000  1
  Ca  Ca11  1  0.81989600  0.75000000  0.72891000  1
  Ca  Ca12  1  0.15071800  0.75000000  0.29075300  1
  Ca  Ca13  1  0.65071800  0.25000000  0.20924700  1
  Ca  Ca14  1  0.84928200  0.25000000  0.70924700  1
  Ca  Ca15  1  0.34928200  0.75000000  0.79075300  1
  Ca  Ca16  1  0.53512400  0.75000000  0.50545000  1
  Ca  Ca17  1  0.03512400  0.25000000  0.99455000  1
  Ca  Ca18  1  0.46487600  0.25000000  0.49455000  1
  Ca  Ca19  1  0.96487600  0.75000000  0.00545000  1
  Bi  Bi20  1  0.93505100  0.01291800  0.17086600  1
  Bi  Bi21  1  0.43505100  0.98708200  0.32913400  1
  Bi  Bi22  1  0.06494900  0.51291800  0.82913400  1
  Bi  Bi23  1  0.56494900  0.48708200  0.67086600  1
  Bi  Bi24  1  0.06494900  0.98708200  0.82913400  1
  Bi  Bi25  1  0.56494900  0.01291800  0.67086600  1
  Bi  Bi26  1  0.93505100  0.48708200  0.17086600  1
  Bi  Bi27  1  0.43505100  0.51291800  0.32913400  1
  Bi  Bi28  1  0.57868200  0.75000000  0.98375200  1
  Bi  Bi29  1  0.07868200  0.25000000  0.51624800  1
  Bi  Bi30  1  0.42131800  0.25000000  0.01624800  1
  Bi  Bi31  1  0.92131800  0.75000000  0.48375200  1
