# generated using pymatgen
data_Na2UI6
_symmetry_space_group_name_H-M   'P 1'
_cell_length_a   8.69195805
_cell_length_b   8.69195805
_cell_length_c   8.69195841
_cell_angle_alpha   54.15215098
_cell_angle_beta   54.15215098
_cell_angle_gamma   54.15215224
_symmetry_Int_Tables_number   1
_chemical_formula_structural   Na2UI6
_chemical_formula_sum   'Na2 U1 I6'
_cell_volume   400.95259682
_cell_formula_units_Z   1
loop_
 _symmetry_equiv_pos_site_id
 _symmetry_equiv_pos_as_xyz
  1  'x, y, z'
loop_
 _atom_site_type_symbol
 _atom_site_label
 _atom_site_symmetry_multiplicity
 _atom_site_fract_x
 _atom_site_fract_y
 _atom_site_fract_z
 _atom_site_occupancy
  Na  Na0  1  0.32922700  0.32922700  0.32922700  1
  Na  Na1  1  0.67077300  0.67077300  0.67077300  1
  U  U2  1  0.00000000  0.00000000  0.00000000  1
  I  I3  1  0.23422800  0.61391100  0.91104400  1
  I  I4  1  0.61391100  0.91104400  0.23422800  1
  I  I5  1  0.91104400  0.23422800  0.61391100  1
  I  I6  1  0.76577200  0.38608900  0.08895600  1
  I  I7  1  0.38608900  0.08895600  0.76577200  1
  I  I8  1  0.08895600  0.76577200  0.38608900  1
