# generated using pymatgen
data_Sb2O3
_symmetry_space_group_name_H-M   'P 1'
_cell_length_a   5.19291500
_cell_length_b   5.51549100
_cell_length_c   12.62266200
_cell_angle_alpha   90.00000000
_cell_angle_beta   90.00000000
_cell_angle_gamma   90.00000000
_symmetry_Int_Tables_number   1
_chemical_formula_structural   Sb2O3
_chemical_formula_sum   'Sb8 O12'
_cell_volume   361.53167005
_cell_formula_units_Z   4
loop_
 _symmetry_equiv_pos_site_id
 _symmetry_equiv_pos_as_xyz
  1  'x, y, z'
loop_
 _atom_site_type_symbol
 _atom_site_label
 _atom_site_symmetry_multiplicity
 _atom_site_fract_x
 _atom_site_fract_y
 _atom_site_fract_z
 _atom_site_occupancy
  Sb  Sb0  1  0.94675400  0.17683700  0.87293700  1
  Sb  Sb1  1  0.44675400  0.32316300  0.12706300  1
  Sb  Sb2  1  0.55324600  0.17683700  0.62706300  1
  Sb  Sb3  1  0.05324600  0.32316300  0.37293700  1
  Sb  Sb4  1  0.05324600  0.82316300  0.12706300  1
  Sb  Sb5  1  0.55324600  0.67683700  0.87293700  1
  Sb  Sb6  1  0.44675400  0.82316300  0.37293700  1
  Sb  Sb7  1  0.94675400  0.67683700  0.62706300  1
  O  O8  1  0.75000000  0.01554600  0.75000000  1
  O  O9  1  0.25000000  0.48445400  0.25000000  1
  O  O10  1  0.25000000  0.98445400  0.25000000  1
  O  O11  1  0.75000000  0.51554600  0.75000000  1
  O  O12  1  0.84999700  0.85373500  0.94199000  1
  O  O13  1  0.34999700  0.64626500  0.05801000  1
  O  O14  1  0.65000300  0.85373500  0.55801000  1
  O  O15  1  0.15000300  0.64626500  0.44199000  1
  O  O16  1  0.15000300  0.14626500  0.05801000  1
  O  O17  1  0.65000300  0.35373500  0.94199000  1
  O  O18  1  0.34999700  0.14626500  0.44199000  1
  O  O19  1  0.84999700  0.35373500  0.55801000  1
