# generated using pymatgen
data_TbZn2
_symmetry_space_group_name_H-M   'P 1'
_cell_length_a   5.68209809
_cell_length_b   5.68209809
_cell_length_c   5.68209809
_cell_angle_alpha   133.43024184
_cell_angle_beta   101.70170372
_cell_angle_gamma   96.29875261
_symmetry_Int_Tables_number   1
_chemical_formula_structural   TbZn2
_chemical_formula_sum   'Tb2 Zn4'
_cell_volume   122.18859427
_cell_formula_units_Z   2
loop_
 _symmetry_equiv_pos_site_id
 _symmetry_equiv_pos_as_xyz
  1  'x, y, z'
loop_
 _atom_site_type_symbol
 _atom_site_label
 _atom_site_symmetry_multiplicity
 _atom_site_fract_x
 _atom_site_fract_y
 _atom_site_fract_z
 _atom_site_occupancy
  Tb  Tb0  1  0.22011500  0.47011500  0.75000000  1
  Tb  Tb1  1  0.77988500  0.52988500  0.25000000  1
  Zn  Zn2  1  0.20961900  0.16586300  0.04375600  1
  Zn  Zn3  1  0.79038100  0.83413700  0.95624400  1
  Zn  Zn4  1  0.62210700  0.16586300  0.45624400  1
  Zn  Zn5  1  0.37789300  0.83413700  0.54375600  1
