# generated using pymatgen
data_Rb2Si2O5
_symmetry_space_group_name_H-M   'P 1'
_cell_length_a   6.73926482
_cell_length_b   6.73926482
_cell_length_c   14.89811592
_cell_angle_alpha   89.72696905
_cell_angle_beta   89.72696905
_cell_angle_gamma   78.70989849
_symmetry_Int_Tables_number   1
_chemical_formula_structural   Rb2Si2O5
_chemical_formula_sum   'Rb8 Si8 O20'
_cell_volume   663.53145110
_cell_formula_units_Z   4
loop_
 _symmetry_equiv_pos_site_id
 _symmetry_equiv_pos_as_xyz
  1  'x, y, z'
loop_
 _atom_site_type_symbol
 _atom_site_label
 _atom_site_symmetry_multiplicity
 _atom_site_fract_x
 _atom_site_fract_y
 _atom_site_fract_z
 _atom_site_occupancy
  Rb  Rb0  1  0.05991200  0.27941900  0.41444900  1
  Rb  Rb1  1  0.72058100  0.94008800  0.08555100  1
  Rb  Rb2  1  0.94008800  0.72058100  0.58555100  1
  Rb  Rb3  1  0.27941900  0.05991200  0.91444900  1
  Rb  Rb4  1  0.29119200  0.55111600  0.09743600  1
  Rb  Rb5  1  0.44888400  0.70880800  0.40256400  1
  Rb  Rb6  1  0.70880800  0.44888400  0.90256400  1
  Rb  Rb7  1  0.55111600  0.29119200  0.59743600  1
  Si  Si8  1  0.80821100  0.43869100  0.18582000  1
  Si  Si9  1  0.79873800  0.93937100  0.80690100  1
  Si  Si10  1  0.06062900  0.20126200  0.69309900  1
  Si  Si11  1  0.20126200  0.06062900  0.19309900  1
  Si  Si12  1  0.93937100  0.79873800  0.30690100  1
  Si  Si13  1  0.43869100  0.80821100  0.68582000  1
  Si  Si14  1  0.19178900  0.56130900  0.81418000  1
  Si  Si15  1  0.56130900  0.19178900  0.31418000  1
  O  O16  1  0.98873500  0.74342200  0.80996400  1
  O  O17  1  0.49911600  0.72903100  0.58734200  1
  O  O18  1  0.27096900  0.50088400  0.91265800  1
  O  O19  1  0.50088400  0.27096900  0.41265800  1
  O  O20  1  0.72903100  0.49911600  0.08734200  1
  O  O21  1  0.71161500  0.01270700  0.90288300  1
  O  O22  1  0.98729300  0.28838500  0.59711700  1
  O  O23  1  0.28838500  0.98729300  0.09711700  1
  O  O24  1  0.12148500  0.87851500  0.25000000  1
  O  O25  1  0.87851500  0.12148500  0.75000000  1
  O  O26  1  0.87070800  0.63214100  0.23882100  1
  O  O27  1  0.36785900  0.12929200  0.26117900  1
  O  O28  1  0.12929200  0.36785900  0.76117900  1
  O  O29  1  0.63214100  0.87070800  0.73882100  1
  O  O30  1  0.63300100  0.36699900  0.25000000  1
  O  O31  1  0.36699900  0.63300100  0.75000000  1
  O  O32  1  0.01126500  0.25657800  0.19003600  1
  O  O33  1  0.74342200  0.98873500  0.30996400  1
  O  O34  1  0.25657800  0.01126500  0.69003600  1
  O  O35  1  0.01270700  0.71161500  0.40288300  1
