# generated using pymatgen
data_KBi(WO4)2
_symmetry_space_group_name_H-M   'P 1'
_cell_length_a   7.78853177
_cell_length_b   7.78853177
_cell_length_c   7.53203175
_cell_angle_alpha   62.27824372
_cell_angle_beta   62.27824372
_cell_angle_gamma   88.89375133
_symmetry_Int_Tables_number   1
_chemical_formula_structural   KBi(WO4)2
_chemical_formula_sum   'K2 Bi2 W4 O16'
_cell_volume   346.52392806
_cell_formula_units_Z   2
loop_
 _symmetry_equiv_pos_site_id
 _symmetry_equiv_pos_as_xyz
  1  'x, y, z'
loop_
 _atom_site_type_symbol
 _atom_site_label
 _atom_site_symmetry_multiplicity
 _atom_site_fract_x
 _atom_site_fract_y
 _atom_site_fract_z
 _atom_site_occupancy
  K  K0  1  0.71332400  0.28667600  0.25000000  1
  K  K1  1  0.28667600  0.71332400  0.75000000  1
  Bi  Bi2  1  0.71973700  0.28026300  0.75000000  1
  Bi  Bi3  1  0.28026300  0.71973700  0.25000000  1
  W  W4  1  0.18976500  0.19896600  0.78596100  1
  W  W5  1  0.19896600  0.18976500  0.28596100  1
  W  W6  1  0.80103400  0.81023500  0.71403900  1
  W  W7  1  0.81023500  0.80103400  0.21403900  1
  O  O8  1  0.45664800  0.27300200  0.68386300  1
  O  O9  1  0.72699800  0.54335200  0.81613700  1
  O  O10  1  0.54335200  0.72699800  0.31613700  1
  O  O11  1  0.27300200  0.45664800  0.18386300  1
  O  O12  1  0.13425800  0.44016600  0.63366700  1
  O  O13  1  0.55983400  0.86574200  0.86633300  1
  O  O14  1  0.86574200  0.55983400  0.36633300  1
  O  O15  1  0.44016600  0.13425800  0.13366700  1
  O  O16  1  0.13002300  0.24598600  0.05712300  1
  O  O17  1  0.75401400  0.86997700  0.44287700  1
  O  O18  1  0.86997700  0.75401400  0.94287700  1
  O  O19  1  0.24598600  0.13002300  0.55712300  1
  O  O20  1  0.09231700  0.87559400  0.47189400  1
  O  O21  1  0.12440600  0.90768300  0.02810600  1
  O  O22  1  0.90768300  0.12440600  0.52810600  1
  O  O23  1  0.87559400  0.09231700  0.97189400  1
