# generated using pymatgen
data_LuPO4
_symmetry_space_group_name_H-M   'P 1'
_cell_length_a   5.67663769
_cell_length_b   5.67663769
_cell_length_c   5.67663769
_cell_angle_alpha   106.00628967
_cell_angle_beta   106.00628967
_cell_angle_gamma   116.64839939
_symmetry_Int_Tables_number   1
_chemical_formula_structural   LuPO4
_chemical_formula_sum   'Lu2 P2 O8'
_cell_volume   139.13886327
_cell_formula_units_Z   2
loop_
 _symmetry_equiv_pos_site_id
 _symmetry_equiv_pos_as_xyz
  1  'x, y, z'
loop_
 _atom_site_type_symbol
 _atom_site_label
 _atom_site_symmetry_multiplicity
 _atom_site_fract_x
 _atom_site_fract_y
 _atom_site_fract_z
 _atom_site_occupancy
  Lu  Lu0  1  0.50000000  0.50000000  0.00000000  1
  Lu  Lu1  1  0.75000000  0.25000000  0.50000000  1
  P  P2  1  0.25000000  0.75000000  0.50000000  1
  P  P3  1  0.00000000  0.00000000  0.00000000  1
  O  O4  1  0.83608500  0.01277600  0.17669100  1
  O  O5  1  0.90939500  0.58608500  0.32330900  1
  O  O6  1  0.26277600  0.58608500  0.67669100  1
  O  O7  1  0.83608500  0.65939500  0.82330900  1
  O  O8  1  0.34060500  0.16391500  0.17669100  1
  O  O9  1  0.41391500  0.73722400  0.32330900  1
  O  O10  1  0.41391500  0.09060500  0.67669100  1
  O  O11  1  0.98722400  0.16391500  0.82330900  1
