# generated using pymatgen
data_Tl4SiSe4
_symmetry_space_group_name_H-M   'P 1'
_cell_length_a   7.14996278
_cell_length_b   7.14996278
_cell_length_c   25.28451897
_cell_angle_alpha   81.69570539
_cell_angle_beta   81.69570539
_cell_angle_gamma   63.19791647
_symmetry_Int_Tables_number   1
_chemical_formula_structural   Tl4SiSe4
_chemical_formula_sum   'Tl16 Si4 Se16'
_cell_volume   1137.02172165
_cell_formula_units_Z   4
loop_
 _symmetry_equiv_pos_site_id
 _symmetry_equiv_pos_as_xyz
  1  'x, y, z'
loop_
 _atom_site_type_symbol
 _atom_site_label
 _atom_site_symmetry_multiplicity
 _atom_site_fract_x
 _atom_site_fract_y
 _atom_site_fract_z
 _atom_site_occupancy
  Tl  Tl0  1  0.17511600  0.82488400  0.25000000  1
  Tl  Tl1  1  0.82488400  0.17511600  0.75000000  1
  Tl  Tl2  1  0.00000000  0.00000000  0.50000000  1
  Tl  Tl3  1  0.00000000  0.00000000  0.00000000  1
  Tl  Tl4  1  0.05239400  0.33799500  0.33642100  1
  Tl  Tl5  1  0.66200500  0.94760600  0.16357900  1
  Tl  Tl6  1  0.94760600  0.66200500  0.66357900  1
  Tl  Tl7  1  0.33799500  0.05239400  0.83642100  1
  Tl  Tl8  1  0.90583300  0.32491900  0.17496400  1
  Tl  Tl9  1  0.67508100  0.09416700  0.32503600  1
  Tl  Tl10  1  0.09416700  0.67508100  0.82503600  1
  Tl  Tl11  1  0.32491900  0.90583300  0.67496400  1
  Tl  Tl12  1  0.27880400  0.35064100  0.49989800  1
  Tl  Tl13  1  0.64935900  0.72119600  0.00010200  1
  Tl  Tl14  1  0.72119600  0.64935900  0.50010200  1
  Tl  Tl15  1  0.35064100  0.27880400  0.99989800  1
  Si  Si16  1  0.44043700  0.68648700  0.37647900  1
  Si  Si17  1  0.68648700  0.44043700  0.87647900  1
  Si  Si18  1  0.55956300  0.31351300  0.62352100  1
  Si  Si19  1  0.31351300  0.55956300  0.12352100  1
  Se  Se20  1  0.60120500  0.69450300  0.29133600  1
  Se  Se21  1  0.70476200  0.10886700  0.88169500  1
  Se  Se22  1  0.10886700  0.70476200  0.38169500  1
  Se  Se23  1  0.29523800  0.89113300  0.11830500  1
  Se  Se24  1  0.34028400  0.62518900  0.57769000  1
  Se  Se25  1  0.89113300  0.29523800  0.61830500  1
  Se  Se26  1  0.65971600  0.37481100  0.42231000  1
  Se  Se27  1  0.62518900  0.34028400  0.07769000  1
  Se  Se28  1  0.96778000  0.41243700  0.91730000  1
  Se  Se29  1  0.58756300  0.03222000  0.58270000  1
  Se  Se30  1  0.03222000  0.58756300  0.08270000  1
  Se  Se31  1  0.41243700  0.96778000  0.41730000  1
  Se  Se32  1  0.30549700  0.39879500  0.20866400  1
  Se  Se33  1  0.39879500  0.30549700  0.70866400  1
  Se  Se34  1  0.69450300  0.60120500  0.79133600  1
  Se  Se35  1  0.37481100  0.65971600  0.92231000  1
