# generated using pymatgen
data_Ca2Fe2O5
_symmetry_space_group_name_H-M   'P 1'
_cell_length_a   5.51238200
_cell_length_b   5.64158800
_cell_length_c   14.83404200
_cell_angle_alpha   89.99998212
_cell_angle_beta   90.00001812
_cell_angle_gamma   90.00020550
_symmetry_Int_Tables_number   1
_chemical_formula_structural   Ca2Fe2O5
_chemical_formula_sum   'Ca8 Fe8 O20'
_cell_volume   461.31776265
_cell_formula_units_Z   4
loop_
 _symmetry_equiv_pos_site_id
 _symmetry_equiv_pos_as_xyz
  1  'x, y, z'
loop_
 _atom_site_type_symbol
 _atom_site_label
 _atom_site_symmetry_multiplicity
 _atom_site_fract_x
 _atom_site_fract_y
 _atom_site_fract_z
 _atom_site_occupancy
  Ca  Ca0  1  0.53156500  0.97796600  0.89114900  1
  Ca  Ca1  1  0.03157000  0.52203200  0.60885000  1
  Ca  Ca2  1  0.96842800  0.47796800  0.10885000  1
  Ca  Ca3  1  0.46843600  0.02203400  0.39114900  1
  Ca  Ca4  1  0.46843400  0.02203600  0.10885000  1
  Ca  Ca5  1  0.96842900  0.47796800  0.39114900  1
  Ca  Ca6  1  0.03156800  0.52203200  0.89114900  1
  Ca  Ca7  1  0.53156700  0.97796400  0.60885000  1
  Fe  Fe8  1  0.49999900  0.50005100  0.50000900  1
  Fe  Fe9  1  0.50003100  0.49996700  0.00000200  1
  Fe  Fe10  1  0.05368300  0.06435200  0.74999900  1
  Fe  Fe11  1  0.94633200  0.93562000  0.25000200  1
  Fe  Fe12  1  0.00000600  0.00002100  0.99998700  1
  Fe  Fe13  1  0.99997200  0.99998700  0.50000800  1
  Fe  Fe14  1  0.55369500  0.43567700  0.75000100  1
  Fe  Fe15  1  0.44629600  0.56432500  0.25000200  1
  O  O16  1  0.59931000  0.87368200  0.25000000  1
  O  O17  1  0.09930400  0.62631900  0.25000000  1
  O  O18  1  0.90069400  0.37368000  0.75000000  1
  O  O19  1  0.40069000  0.12631800  0.75000000  1
  O  O20  1  0.96731700  0.92185600  0.64082500  1
  O  O21  1  0.46731700  0.57814200  0.85917300  1
  O  O22  1  0.53268100  0.42185800  0.35917300  1
  O  O23  1  0.03268400  0.07814400  0.14082500  1
  O  O24  1  0.03268400  0.07814400  0.35917400  1
  O  O25  1  0.53268100  0.42185900  0.14082600  1
  O  O26  1  0.46731800  0.57814200  0.64082600  1
  O  O27  1  0.96731500  0.92185600  0.85917400  1
  O  O28  1  0.72340000  0.77664900  0.48152100  1
  O  O29  1  0.22339700  0.72335200  0.01847900  1
  O  O30  1  0.77660200  0.27664800  0.51847800  1
  O  O31  1  0.27659900  0.22335100  0.98152100  1
  O  O32  1  0.72339700  0.77664900  0.01847900  1
  O  O33  1  0.22340100  0.72334900  0.48152100  1
  O  O34  1  0.77659800  0.27665100  0.98152200  1
  O  O35  1  0.27660200  0.22335000  0.51847800  1
