# generated using pymatgen
data_NaCu3F7
_symmetry_space_group_name_H-M   'P 1'
_cell_length_a   7.16633027
_cell_length_b   7.16633027
_cell_length_c   6.99487402
_cell_angle_alpha   64.51879588
_cell_angle_beta   64.51879588
_cell_angle_gamma   62.62274745
_symmetry_Int_Tables_number   1
_chemical_formula_structural   NaCu3F7
_chemical_formula_sum   'Na2 Cu6 F14'
_cell_volume   275.60100527
_cell_formula_units_Z   2
loop_
 _symmetry_equiv_pos_site_id
 _symmetry_equiv_pos_as_xyz
  1  'x, y, z'
loop_
 _atom_site_type_symbol
 _atom_site_label
 _atom_site_symmetry_multiplicity
 _atom_site_fract_x
 _atom_site_fract_y
 _atom_site_fract_z
 _atom_site_occupancy
  Na  Na0  1  0.50000000  0.50000000  0.00000000  1
  Na  Na1  1  0.50000000  0.50000000  0.50000000  1
  Cu  Cu2  1  0.50000000  0.00000000  0.50000000  1
  Cu  Cu3  1  0.00000000  0.50000000  0.00000000  1
  Cu  Cu4  1  0.00000000  0.00000000  0.50000000  1
  Cu  Cu5  1  0.00000000  0.00000000  0.00000000  1
  Cu  Cu6  1  0.00000000  0.50000000  0.50000000  1
  Cu  Cu7  1  0.50000000  0.00000000  0.00000000  1
  F  F8  1  0.10634200  0.89365800  0.25000000  1
  F  F9  1  0.89365800  0.10634200  0.75000000  1
  F  F10  1  0.61553500  0.69202600  0.10508200  1
  F  F11  1  0.30797400  0.38446500  0.39491800  1
  F  F12  1  0.38446500  0.30797400  0.89491800  1
  F  F13  1  0.69202600  0.61553500  0.60508200  1
  F  F14  1  0.62280500  0.02951200  0.18462900  1
  F  F15  1  0.97048800  0.37719500  0.31537100  1
  F  F16  1  0.89323100  0.29808100  0.00220500  1
  F  F17  1  0.70191900  0.10676900  0.49779500  1
  F  F18  1  0.10676900  0.70191900  0.99779500  1
  F  F19  1  0.29808100  0.89323100  0.50220500  1
  F  F20  1  0.02951200  0.62280500  0.68462900  1
  F  F21  1  0.37719500  0.97048800  0.81537100  1
