# generated using pymatgen
data_MoAs2O7
_symmetry_space_group_name_H-M   'P 1'
_cell_length_a   4.68137000
_cell_length_b   8.10499800
_cell_length_c   17.43498973
_cell_angle_alpha   71.69487804
_cell_angle_beta   90.00000000
_cell_angle_gamma   90.00000000
_symmetry_Int_Tables_number   1
_chemical_formula_structural   MoAs2O7
_chemical_formula_sum   'Mo4 As8 O28'
_cell_volume   628.05201854
_cell_formula_units_Z   4
loop_
 _symmetry_equiv_pos_site_id
 _symmetry_equiv_pos_as_xyz
  1  'x, y, z'
loop_
 _atom_site_type_symbol
 _atom_site_label
 _atom_site_symmetry_multiplicity
 _atom_site_fract_x
 _atom_site_fract_y
 _atom_site_fract_z
 _atom_site_occupancy
  Mo  Mo0  1  0.00303900  0.06227200  0.09648900  1
  Mo  Mo1  1  0.50303900  0.93772800  0.40351100  1
  Mo  Mo2  1  0.99696100  0.93772800  0.90351100  1
  Mo  Mo3  1  0.49696100  0.06227200  0.59648900  1
  As  As4  1  0.55213000  0.41032400  0.21121600  1
  As  As5  1  0.05213000  0.58967600  0.28878400  1
  As  As6  1  0.44787000  0.58967600  0.78878400  1
  As  As7  1  0.94787000  0.41032400  0.71121600  1
  As  As8  1  0.45563700  0.77493700  0.05733800  1
  As  As9  1  0.95563700  0.22506300  0.44266200  1
  As  As10  1  0.04436300  0.77493700  0.55733800  1
  As  As11  1  0.54436300  0.22506300  0.94266200  1
  O  O12  1  0.18640800  0.44287500  0.23525800  1
  O  O13  1  0.68640800  0.55712500  0.26474200  1
  O  O14  1  0.81359200  0.55712500  0.76474200  1
  O  O15  1  0.31359200  0.44287500  0.73525800  1
  O  O16  1  0.78792700  0.98055000  0.17948300  1
  O  O17  1  0.28792700  0.01945000  0.32051700  1
  O  O18  1  0.21207300  0.01945000  0.82051700  1
  O  O19  1  0.71207300  0.98055000  0.67948300  1
  O  O20  1  0.25266500  0.75715800  0.97778400  1
  O  O21  1  0.75266500  0.24284200  0.52221600  1
  O  O22  1  0.74733500  0.24284200  0.02221600  1
  O  O23  1  0.24733500  0.75715800  0.47778400  1
  O  O24  1  0.24803900  0.84470900  0.62404400  1
  O  O25  1  0.74803900  0.15529100  0.87595600  1
  O  O26  1  0.75196100  0.15529100  0.37595600  1
  O  O27  1  0.25196100  0.84470900  0.12404400  1
  O  O28  1  0.92481300  0.56683500  0.60560900  1
  O  O29  1  0.42481300  0.43316500  0.89439100  1
  O  O30  1  0.07518700  0.43316500  0.39439100  1
  O  O31  1  0.57518700  0.56683500  0.10560900  1
  O  O32  1  0.75658200  0.90320800  0.02456900  1
  O  O33  1  0.77796300  0.79207100  0.87874100  1
  O  O34  1  0.72203700  0.79207100  0.37874100  1
  O  O35  1  0.22203700  0.20792900  0.12125900  1
  O  O36  1  0.74341800  0.90320800  0.52456900  1
  O  O37  1  0.24341800  0.09679200  0.97543100  1
  O  O38  1  0.25658200  0.09679200  0.47543100  1
  O  O39  1  0.27796300  0.20792900  0.62125900  1
