# generated using pymatgen
data_HfCuSi
_symmetry_space_group_name_H-M   'P 1'
_cell_length_a   3.88783100
_cell_length_b   6.45564900
_cell_length_c   7.28867100
_cell_angle_alpha   90.00000000
_cell_angle_beta   90.00000000
_cell_angle_gamma   90.00000000
_symmetry_Int_Tables_number   1
_chemical_formula_structural   HfCuSi
_chemical_formula_sum   'Hf4 Cu4 Si4'
_cell_volume   182.93450725
_cell_formula_units_Z   4
loop_
 _symmetry_equiv_pos_site_id
 _symmetry_equiv_pos_as_xyz
  1  'x, y, z'
loop_
 _atom_site_type_symbol
 _atom_site_label
 _atom_site_symmetry_multiplicity
 _atom_site_fract_x
 _atom_site_fract_y
 _atom_site_fract_z
 _atom_site_occupancy
  Hf  Hf0  1  0.25000000  0.51193300  0.69031000  1
  Hf  Hf1  1  0.75000000  0.48806700  0.30969000  1
  Hf  Hf2  1  0.25000000  0.01193300  0.80969000  1
  Hf  Hf3  1  0.75000000  0.98806700  0.19031000  1
  Cu  Cu4  1  0.75000000  0.83379300  0.57521100  1
  Cu  Cu5  1  0.25000000  0.16620700  0.42478900  1
  Cu  Cu6  1  0.75000000  0.33379300  0.92478900  1
  Cu  Cu7  1  0.25000000  0.66620700  0.07521100  1
  Si  Si8  1  0.25000000  0.27760600  0.10436800  1
  Si  Si9  1  0.75000000  0.72239400  0.89563200  1
  Si  Si10  1  0.25000000  0.77760600  0.39563200  1
  Si  Si11  1  0.75000000  0.22239400  0.60436800  1
