# generated using pymatgen
data_HfCl4
_symmetry_space_group_name_H-M   'P 1'
_cell_length_a   7.94315900
_cell_length_b   6.32372400
_cell_length_c   6.91605222
_cell_angle_alpha   72.07062759
_cell_angle_beta   90.00000000
_cell_angle_gamma   90.00000000
_symmetry_Int_Tables_number   1
_chemical_formula_structural   HfCl4
_chemical_formula_sum   'Hf2 Cl8'
_cell_volume   330.52501429
_cell_formula_units_Z   2
loop_
 _symmetry_equiv_pos_site_id
 _symmetry_equiv_pos_as_xyz
  1  'x, y, z'
loop_
 _atom_site_type_symbol
 _atom_site_label
 _atom_site_symmetry_multiplicity
 _atom_site_fract_x
 _atom_site_fract_y
 _atom_site_fract_z
 _atom_site_occupancy
  Hf  Hf0  1  0.34738700  0.25000000  0.50000000  1
  Hf  Hf1  1  0.65261300  0.75000000  0.50000000  1
  Cl  Cl2  1  0.60022600  0.49502000  0.29445300  1
  Cl  Cl3  1  0.60022600  0.00498000  0.70554700  1
  Cl  Cl4  1  0.84053300  0.96389300  0.26416900  1
  Cl  Cl5  1  0.84053300  0.53610700  0.73583100  1
  Cl  Cl6  1  0.15946700  0.03610700  0.73583100  1
  Cl  Cl7  1  0.15946700  0.46389300  0.26416900  1
  Cl  Cl8  1  0.39977400  0.99502000  0.29445300  1
  Cl  Cl9  1  0.39977400  0.50498000  0.70554700  1
