# generated using pymatgen
data_Cs3Cr2Br9
_symmetry_space_group_name_H-M   'P 1'
_cell_length_a   7.78956373
_cell_length_b   7.78956373
_cell_length_c   19.42099700
_cell_angle_alpha   90.00000000
_cell_angle_beta   90.00000000
_cell_angle_gamma   119.99999773
_symmetry_Int_Tables_number   1
_chemical_formula_structural   Cs3Cr2Br9
_chemical_formula_sum   'Cs6 Cr4 Br18'
_cell_volume   1020.53624312
_cell_formula_units_Z   2
loop_
 _symmetry_equiv_pos_site_id
 _symmetry_equiv_pos_as_xyz
  1  'x, y, z'
loop_
 _atom_site_type_symbol
 _atom_site_label
 _atom_site_symmetry_multiplicity
 _atom_site_fract_x
 _atom_site_fract_y
 _atom_site_fract_z
 _atom_site_occupancy
  Cs  Cs0  1  0.66666700  0.33333300  0.92982300  1
  Cs  Cs1  1  0.33333300  0.66666700  0.42982300  1
  Cs  Cs2  1  0.66666700  0.33333300  0.57017700  1
  Cs  Cs3  1  0.33333300  0.66666700  0.07017700  1
  Cs  Cs4  1  0.00000000  0.00000000  0.75000000  1
  Cs  Cs5  1  0.00000000  0.00000000  0.25000000  1
  Cr  Cr6  1  0.33333300  0.66666700  0.66336900  1
  Cr  Cr7  1  0.66666700  0.33333300  0.16336900  1
  Cr  Cr8  1  0.66666700  0.33333300  0.33663100  1
  Cr  Cr9  1  0.33333300  0.66666700  0.83663100  1
  Br  Br10  1  0.82020700  0.64041300  0.40580200  1
  Br  Br11  1  0.17979300  0.35958700  0.90580200  1
  Br  Br12  1  0.17979300  0.82020700  0.90580200  1
  Br  Br13  1  0.17979300  0.35958700  0.59419800  1
  Br  Br14  1  0.64041300  0.82020700  0.90580200  1
  Br  Br15  1  0.35958700  0.17979300  0.40580200  1
  Br  Br16  1  0.03873300  0.51936600  0.75000000  1
  Br  Br17  1  0.82020700  0.17979300  0.40580200  1
  Br  Br18  1  0.51936600  0.03873300  0.25000000  1
  Br  Br19  1  0.48063400  0.51936600  0.75000000  1
  Br  Br20  1  0.51936600  0.48063400  0.25000000  1
  Br  Br21  1  0.96126700  0.48063400  0.25000000  1
  Br  Br22  1  0.35958700  0.17979300  0.09419800  1
  Br  Br23  1  0.48063400  0.96126700  0.75000000  1
  Br  Br24  1  0.82020700  0.64041300  0.09419800  1
  Br  Br25  1  0.17979300  0.82020700  0.59419800  1
  Br  Br26  1  0.64041300  0.82020700  0.59419800  1
  Br  Br27  1  0.82020700  0.17979300  0.09419800  1
