# generated using pymatgen
data_YbMnO3
_symmetry_space_group_name_H-M   'P 1'
_cell_length_a   5.24392000
_cell_length_b   5.36995600
_cell_length_c   7.46957800
_cell_angle_alpha   90.00000000
_cell_angle_beta   90.00000000
_cell_angle_gamma   90.00000000
_symmetry_Int_Tables_number   1
_chemical_formula_structural   YbMnO3
_chemical_formula_sum   'Yb4 Mn4 O12'
_cell_volume   210.34047556
_cell_formula_units_Z   4
loop_
 _symmetry_equiv_pos_site_id
 _symmetry_equiv_pos_as_xyz
  1  'x, y, z'
loop_
 _atom_site_type_symbol
 _atom_site_label
 _atom_site_symmetry_multiplicity
 _atom_site_fract_x
 _atom_site_fract_y
 _atom_site_fract_z
 _atom_site_occupancy
  Yb  Yb0  1  0.01290900  0.94545100  0.75000000  1
  Yb  Yb1  1  0.51290900  0.55454900  0.25000000  1
  Yb  Yb2  1  0.48709100  0.44545100  0.75000000  1
  Yb  Yb3  1  0.98709100  0.05454900  0.25000000  1
  Mn  Mn4  1  0.50000000  0.00000000  0.50000000  1
  Mn  Mn5  1  0.00000000  0.50000000  0.50000000  1
  Mn  Mn6  1  0.00000000  0.50000000  0.00000000  1
  Mn  Mn7  1  0.50000000  0.00000000  0.00000000  1
  O  O8  1  0.70263400  0.29508600  0.45656800  1
  O  O9  1  0.20263400  0.20491400  0.54343200  1
  O  O10  1  0.79736600  0.79508600  0.04343200  1
  O  O11  1  0.29736600  0.70491400  0.95656800  1
  O  O12  1  0.29736600  0.70491400  0.54343200  1
  O  O13  1  0.79736600  0.79508600  0.45656800  1
  O  O14  1  0.20263400  0.20491400  0.95656800  1
  O  O15  1  0.70263400  0.29508600  0.04343200  1
  O  O16  1  0.08411900  0.48007400  0.25000000  1
  O  O17  1  0.58411900  0.01992600  0.75000000  1
  O  O18  1  0.41588100  0.98007400  0.25000000  1
  O  O19  1  0.91588100  0.51992600  0.75000000  1
