# generated using pymatgen
data_RbVBr3
_symmetry_space_group_name_H-M   'P 1'
_cell_length_a   13.07229700
_cell_length_b   13.07229700
_cell_length_c   6.55780000
_cell_angle_alpha   90.00000000
_cell_angle_beta   90.00000000
_cell_angle_gamma   119.99999494
_symmetry_Int_Tables_number   1
_chemical_formula_structural   RbVBr3
_chemical_formula_sum   'Rb6 V6 Br18'
_cell_volume   970.49350684
_cell_formula_units_Z   6
loop_
 _symmetry_equiv_pos_site_id
 _symmetry_equiv_pos_as_xyz
  1  'x, y, z'
loop_
 _atom_site_type_symbol
 _atom_site_label
 _atom_site_symmetry_multiplicity
 _atom_site_fract_x
 _atom_site_fract_y
 _atom_site_fract_z
 _atom_site_occupancy
  Rb  Rb0  1  0.33197600  0.33197600  0.26346000  1
  Rb  Rb1  1  0.66802400  0.66802400  0.76346000  1
  Rb  Rb2  1  0.00000000  0.66802400  0.26346000  1
  Rb  Rb3  1  0.66802400  0.00000000  0.26346000  1
  Rb  Rb4  1  0.33197600  0.00000000  0.76346000  1
  Rb  Rb5  1  0.00000000  0.33197600  0.76346000  1
  V  V6  1  0.00000000  0.00000000  0.99800900  1
  V  V7  1  0.00000000  0.00000000  0.49800900  1
  V  V8  1  0.33333300  0.66666700  0.05378200  1
  V  V9  1  0.66666700  0.33333300  0.55378200  1
  V  V10  1  0.33333300  0.66666700  0.55378200  1
  V  V11  1  0.66666700  0.33333300  0.05378200  1
  Br  Br12  1  0.50813200  0.33424900  0.80445000  1
  Br  Br13  1  0.49186800  0.66575100  0.30445000  1
  Br  Br14  1  0.33424900  0.82611700  0.30445000  1
  Br  Br15  1  0.17388300  0.50813200  0.30445000  1
  Br  Br16  1  0.82611700  0.49186800  0.80445000  1
  Br  Br17  1  0.00000000  0.15920300  0.24711600  1
  Br  Br18  1  0.15920300  0.00000000  0.24711600  1
  Br  Br19  1  0.15920300  0.15920300  0.74711600  1
  Br  Br20  1  0.00000000  0.84079700  0.74711600  1
  Br  Br21  1  0.50813200  0.17388300  0.30445000  1
  Br  Br22  1  0.84079700  0.84079700  0.24711600  1
  Br  Br23  1  0.84079700  0.00000000  0.74711600  1
  Br  Br24  1  0.49186800  0.82611700  0.80445000  1
  Br  Br25  1  0.33424900  0.50813200  0.80445000  1
  Br  Br26  1  0.17388300  0.66575100  0.80445000  1
  Br  Br27  1  0.82611700  0.33424900  0.30445000  1
  Br  Br28  1  0.66575100  0.49186800  0.30445000  1
  Br  Br29  1  0.66575100  0.17388300  0.80445000  1
