# generated using pymatgen
data_Ca2AuN
_symmetry_space_group_name_H-M   'P 1'
_cell_length_a   9.31581890
_cell_length_b   9.31581890
_cell_length_c   4.96661000
_cell_angle_alpha   90.00000000
_cell_angle_beta   90.00000000
_cell_angle_gamma   157.97280771
_symmetry_Int_Tables_number   1
_chemical_formula_structural   Ca2AuN
_chemical_formula_sum   'Ca4 Au2 N2'
_cell_volume   161.65433360
_cell_formula_units_Z   2
loop_
 _symmetry_equiv_pos_site_id
 _symmetry_equiv_pos_as_xyz
  1  'x, y, z'
loop_
 _atom_site_type_symbol
 _atom_site_label
 _atom_site_symmetry_multiplicity
 _atom_site_fract_x
 _atom_site_fract_y
 _atom_site_fract_z
 _atom_site_occupancy
  Ca  Ca0  1  0.60471600  0.39528400  0.25000000  1
  Ca  Ca1  1  0.39528400  0.60471600  0.75000000  1
  Ca  Ca2  1  0.78361300  0.21638700  0.25000000  1
  Ca  Ca3  1  0.21638700  0.78361300  0.75000000  1
  Au  Au4  1  0.04110200  0.95889800  0.75000000  1
  Au  Au5  1  0.95889800  0.04110200  0.25000000  1
  N  N6  1  0.80645000  0.19355000  0.75000000  1
  N  N7  1  0.19355000  0.80645000  0.25000000  1
