# generated using pymatgen
data_Be(H2N)2
_symmetry_space_group_name_H-M   'P 1'
_cell_length_a   10.93201672
_cell_length_b   10.93201672
_cell_length_c   10.93201672
_cell_angle_alpha   123.58427393
_cell_angle_beta   123.58427393
_cell_angle_gamma   83.89644131
_symmetry_Int_Tables_number   1
_chemical_formula_structural   Be(H2N)2
_chemical_formula_sum   'Be16 H64 N32'
_cell_volume   868.37356675
_cell_formula_units_Z   16
loop_
 _symmetry_equiv_pos_site_id
 _symmetry_equiv_pos_as_xyz
  1  'x, y, z'
loop_
 _atom_site_type_symbol
 _atom_site_label
 _atom_site_symmetry_multiplicity
 _atom_site_fract_x
 _atom_site_fract_y
 _atom_site_fract_z
 _atom_site_occupancy
  Be  Be0  1  0.75445100  0.06296200  0.44478400  1
  Be  Be1  1  0.81296200  0.86817800  0.80851100  1
  Be  Be2  1  0.05966700  0.00445100  0.19148900  1
  Be  Be3  1  0.49554900  0.44033300  0.80851100  1
  Be  Be4  1  0.63182200  0.68703800  0.19148900  1
  Be  Be5  1  0.19033300  0.88182200  0.44478400  1
  Be  Be6  1  0.43703800  0.74554900  0.55521600  1
  Be  Be7  1  0.61817800  0.30966700  0.55521600  1
  Be  Be8  1  0.99554900  0.18703800  0.05521600  1
  Be  Be9  1  0.93703800  0.38182200  0.69148900  1
  Be  Be10  1  0.69033300  0.24554900  0.30851100  1
  Be  Be11  1  0.25445100  0.80966700  0.69148900  1
  Be  Be12  1  0.11817800  0.56296200  0.30851100  1
  Be  Be13  1  0.55966700  0.36817800  0.05521600  1
  Be  Be14  1  0.31296200  0.50445100  0.94478400  1
  Be  Be15  1  0.13182200  0.94033300  0.94478400  1
  H  H16  1  0.63220100  0.63734800  0.59829600  1
  H  H17  1  0.46609600  0.46094900  0.59829600  1
  H  H18  1  0.86265200  0.86779900  0.40170400  1
  H  H19  1  0.61779900  0.71609600  0.50514700  1
  H  H20  1  0.21094900  0.11265200  0.49485300  1
  H  H21  1  0.38734800  0.28905100  0.50514700  1
  H  H22  1  0.78390400  0.88220100  0.49485300  1
  H  H23  1  0.03905100  0.03390400  0.40170400  1
  H  H24  1  0.11779900  0.61265200  0.90170400  1
  H  H25  1  0.28390400  0.78905100  0.90170400  1
  H  H26  1  0.88734800  0.38220100  0.09829600  1
  H  H27  1  0.13220100  0.53390400  0.99485300  1
  H  H28  1  0.53905100  0.13734800  0.00514700  1
  H  H29  1  0.36265200  0.96094900  0.99485300  1
  H  H30  1  0.96609600  0.36779900  0.00514700  1
  H  H31  1  0.71094900  0.21609600  0.09829600  1
  H  H32  1  0.87224500  0.47864000  0.52654900  1
  H  H33  1  0.15430400  0.54790900  0.52654900  1
  H  H34  1  0.02136000  0.62775500  0.47345100  1
  H  H35  1  0.37775500  0.40430400  0.10639500  1
  H  H36  1  0.29790900  0.27136000  0.89360500  1
  H  H37  1  0.22864000  0.20209100  0.10639500  1
  H  H38  1  0.09569600  0.12224500  0.89360500  1
  H  H39  1  0.95209100  0.34569600  0.47345100  1
  H  H40  1  0.87775500  0.77136000  0.97345100  1
  H  H41  1  0.59569600  0.70209100  0.97345100  1
  H  H42  1  0.72864000  0.62224500  0.02654900  1
  H  H43  1  0.45777700  0.21552900  0.25156900  1
  H  H44  1  0.37224500  0.84569600  0.39360500  1
  H  H45  1  0.52136000  0.04790900  0.39360500  1
  H  H46  1  0.65430400  0.12775500  0.60639500  1
  H  H47  1  0.79790900  0.90430400  0.02654900  1
  H  H48  1  0.54235400  0.39425900  0.37415300  1
  H  H49  1  0.33179900  0.47989500  0.37415300  1
  H  H50  1  0.10574100  0.95764600  0.62584700  1
  H  H51  1  0.70764600  0.58179900  0.35190400  1
  H  H52  1  0.22989500  0.35574100  0.64809600  1
  H  H53  1  0.14425900  0.27010500  0.35190400  1
  H  H54  1  0.91820100  0.79235400  0.64809600  1
  H  H55  1  0.02010500  0.16820100  0.62584700  1
  H  H56  1  0.20764600  0.85574100  0.12584700  1
  H  H57  1  0.41820100  0.77010500  0.12584700  1
  H  H58  1  0.64425900  0.29235400  0.87415300  1
  H  H59  1  0.04235400  0.66820100  0.14809600  1
  H  H60  1  0.52010500  0.89425900  0.85190400  1
  H  H61  1  0.60574100  0.97989500  0.14809600  1
  H  H62  1  0.83179900  0.45764600  0.85190400  1
  H  H63  1  0.72989500  0.08179900  0.87415300  1
  H  H64  1  0.78603900  0.04379200  0.75156900  1
  H  H65  1  0.79379200  0.54222300  0.75775200  1
  H  H66  1  0.78447100  0.03604000  0.24224800  1
  H  H67  1  0.46396000  0.71552900  0.75775200  1
  H  H68  1  0.95777700  0.70620800  0.24224800  1
  H  H69  1  0.46552900  0.20777700  0.75156900  1
  H  H70  1  0.45620800  0.71396100  0.24843100  1
  H  H71  1  0.29222300  0.03447100  0.24843100  1
  H  H72  1  0.96396100  0.20620800  0.74843100  1
  H  H73  1  0.95620800  0.70777700  0.74224800  1
  H  H74  1  0.96552900  0.21396100  0.25775200  1
  H  H75  1  0.28604000  0.53447100  0.74224800  1
  H  H76  1  0.79222300  0.54379200  0.25775200  1
  H  H77  1  0.28447100  0.04222300  0.74843100  1
  H  H78  1  0.29379200  0.53604000  0.25156900  1
  H  H79  1  0.45209100  0.97864000  0.60639500  1
  N  N80  1  0.56216500  0.29609600  0.36316400  1
  N  N81  1  0.30099800  0.56706700  0.36316400  1
  N  N82  1  0.20390400  0.93783500  0.63683600  1
  N  N83  1  0.68783500  0.55099900  0.23393100  1
  N  N84  1  0.31706700  0.45390400  0.76606900  1
  N  N85  1  0.04609600  0.18293300  0.23393100  1
  N  N86  1  0.94900200  0.81216500  0.76606900  1
  N  N87  1  0.93293300  0.19900200  0.63683600  1
  N  N88  1  0.18783500  0.95390400  0.13683600  1
  N  N89  1  0.44900200  0.68293300  0.13683600  1
  N  N90  1  0.54609600  0.31216500  0.86316400  1
  N  N91  1  0.06216500  0.69900200  0.26606900  1
  N  N92  1  0.43293300  0.79609600  0.73393100  1
  N  N93  1  0.70390400  0.06706700  0.26606900  1
  N  N94  1  0.80099900  0.43783500  0.73393100  1
  N  N95  1  0.81706700  0.05099800  0.86316400  1
  N  N96  1  0.87707900  0.87707900  0.00000000  1
  N  N97  1  0.62707900  0.12707900  0.50000000  1
  N  N98  1  0.37292100  0.87292100  0.50000000  1
  N  N99  1  0.62292100  0.62292100  0.00000000  1
  N  N100  1  0.87292100  0.37292100  0.50000000  1
  N  N101  1  0.12292100  0.12292100  0.00000000  1
  N  N102  1  0.37707900  0.37707900  0.00000000  1
  N  N103  1  0.12707900  0.62707900  0.50000000  1
  N  N104  1  0.62500000  0.23911000  0.11411000  1
  N  N105  1  0.98911000  0.37500000  0.11411000  1
  N  N106  1  0.26089000  0.87500000  0.88589000  1
  N  N107  1  0.12500000  0.51089000  0.88589000  1
  N  N108  1  0.12500000  0.01089000  0.38589000  1
  N  N109  1  0.76089000  0.87500000  0.38589000  1
  N  N110  1  0.48911000  0.37500000  0.61411000  1
  N  N111  1  0.62500000  0.73911000  0.61411000  1
