# generated using pymatgen
data_EuGa2
_symmetry_space_group_name_H-M   'P 1'
_cell_length_a   5.87100590
_cell_length_b   5.87100590
_cell_length_c   5.87100590
_cell_angle_alpha   133.53255371
_cell_angle_beta   99.56329648
_cell_angle_gamma   98.34285654
_symmetry_Int_Tables_number   1
_chemical_formula_structural   EuGa2
_chemical_formula_sum   'Eu2 Ga4'
_cell_volume   134.80362529
_cell_formula_units_Z   2
loop_
 _symmetry_equiv_pos_site_id
 _symmetry_equiv_pos_as_xyz
  1  'x, y, z'
loop_
 _atom_site_type_symbol
 _atom_site_label
 _atom_site_symmetry_multiplicity
 _atom_site_fract_x
 _atom_site_fract_y
 _atom_site_fract_z
 _atom_site_occupancy
  Eu  Eu0  1  0.70386900  0.95386900  0.75000000  1
  Eu  Eu1  1  0.29613100  0.04613100  0.25000000  1
  Ga  Ga2  1  0.09816300  0.66143800  0.43672500  1
  Ga  Ga3  1  0.90183700  0.33856200  0.56327500  1
  Ga  Ga4  1  0.72471300  0.66143800  0.06327500  1
  Ga  Ga5  1  0.27528700  0.33856200  0.93672500  1
