# generated using pymatgen
data_EuSn2Ir
_symmetry_space_group_name_H-M   'P 1'
_cell_length_a   6.06034123
_cell_length_b   6.06034123
_cell_length_c   7.66026900
_cell_angle_alpha   90.00000000
_cell_angle_beta   90.00000000
_cell_angle_gamma   137.52167044
_symmetry_Int_Tables_number   1
_chemical_formula_structural   EuSn2Ir
_chemical_formula_sum   'Eu2 Sn4 Ir2'
_cell_volume   189.99501130
_cell_formula_units_Z   2
loop_
 _symmetry_equiv_pos_site_id
 _symmetry_equiv_pos_as_xyz
  1  'x, y, z'
loop_
 _atom_site_type_symbol
 _atom_site_label
 _atom_site_symmetry_multiplicity
 _atom_site_fract_x
 _atom_site_fract_y
 _atom_site_fract_z
 _atom_site_occupancy
  Eu  Eu0  1  0.06396100  0.93603900  0.25000000  1
  Eu  Eu1  1  0.93603900  0.06396100  0.75000000  1
  Sn  Sn2  1  0.64826000  0.35174000  0.54775400  1
  Sn  Sn3  1  0.35174000  0.64826000  0.45224600  1
  Sn  Sn4  1  0.64826000  0.35174000  0.95224600  1
  Sn  Sn5  1  0.35174000  0.64826000  0.04775400  1
  Ir  Ir6  1  0.21298500  0.78701500  0.75000000  1
  Ir  Ir7  1  0.78701500  0.21298500  0.25000000  1
