# generated using pymatgen
data_Ti2PCl13
_symmetry_space_group_name_H-M   'P 1'
_cell_length_a   11.13969100
_cell_length_b   12.12928600
_cell_length_c   30.16591900
_cell_angle_alpha   90.00000000
_cell_angle_beta   90.00000000
_cell_angle_gamma   90.00000000
_symmetry_Int_Tables_number   1
_chemical_formula_structural   Ti2PCl13
_chemical_formula_sum   'Ti16 P8 Cl104'
_cell_volume   4075.91333697
_cell_formula_units_Z   8
loop_
 _symmetry_equiv_pos_site_id
 _symmetry_equiv_pos_as_xyz
  1  'x, y, z'
loop_
 _atom_site_type_symbol
 _atom_site_label
 _atom_site_symmetry_multiplicity
 _atom_site_fract_x
 _atom_site_fract_y
 _atom_site_fract_z
 _atom_site_occupancy
  Ti  Ti0  1  0.25000000  0.23591600  0.27961900  1
  Ti  Ti1  1  0.75000000  0.76408400  0.72038100  1
  Ti  Ti2  1  0.75000000  0.73591600  0.22038100  1
  Ti  Ti3  1  0.25000000  0.26408400  0.77961900  1
  Ti  Ti4  1  0.25000000  0.09023300  0.18152500  1
  Ti  Ti5  1  0.75000000  0.90976700  0.81847500  1
  Ti  Ti6  1  0.75000000  0.59023300  0.31847500  1
  Ti  Ti7  1  0.25000000  0.40976700  0.68152500  1
  Ti  Ti8  1  0.25000000  0.58823300  0.09026500  1
  Ti  Ti9  1  0.75000000  0.41176700  0.90973500  1
  Ti  Ti10  1  0.75000000  0.08823300  0.40973500  1
  Ti  Ti11  1  0.25000000  0.91176700  0.59026500  1
  Ti  Ti12  1  0.25000000  0.72792700  0.99108100  1
  Ti  Ti13  1  0.75000000  0.27207300  0.00891900  1
  Ti  Ti14  1  0.75000000  0.22792700  0.50891900  1
  Ti  Ti15  1  0.25000000  0.77207300  0.49108100  1
  P  P16  1  0.25000000  0.73134300  0.30409200  1
  P  P17  1  0.75000000  0.26865700  0.69590800  1
  P  P18  1  0.75000000  0.23134300  0.19590800  1
  P  P19  1  0.25000000  0.76865700  0.80409200  1
  P  P20  1  0.25000000  0.30730000  0.45788000  1
  P  P21  1  0.75000000  0.69270000  0.54212000  1
  P  P22  1  0.75000000  0.80730000  0.04212000  1
  P  P23  1  0.25000000  0.19270000  0.95788000  1
  Cl  Cl24  1  0.25000000  0.13603900  0.34224400  1
  Cl  Cl25  1  0.75000000  0.86396100  0.65775600  1
  Cl  Cl26  1  0.75000000  0.63603900  0.15775600  1
  Cl  Cl27  1  0.25000000  0.36396100  0.84224400  1
  Cl  Cl28  1  0.25000000  0.29373300  0.20029700  1
  Cl  Cl29  1  0.75000000  0.70626700  0.79970300  1
  Cl  Cl30  1  0.75000000  0.79373300  0.29970300  1
  Cl  Cl31  1  0.25000000  0.20626700  0.70029700  1
  Cl  Cl32  1  0.09843200  0.35068600  0.29545800  1
  Cl  Cl33  1  0.59843200  0.64931400  0.70454200  1
  Cl  Cl34  1  0.90156800  0.85068600  0.20454200  1
  Cl  Cl35  1  0.40156800  0.14931400  0.79545800  1
  Cl  Cl36  1  0.90156800  0.64931400  0.70454200  1
  Cl  Cl37  1  0.40156800  0.35068600  0.29545800  1
  Cl  Cl38  1  0.09843200  0.14931400  0.79545800  1
  Cl  Cl39  1  0.59843200  0.85068600  0.20454200  1
  Cl  Cl40  1  0.10646700  0.09937100  0.24553700  1
  Cl  Cl41  1  0.60646700  0.90062900  0.75446300  1
  Cl  Cl42  1  0.89353300  0.59937100  0.25446300  1
  Cl  Cl43  1  0.39353300  0.40062900  0.74553700  1
  Cl  Cl44  1  0.89353300  0.90062900  0.75446300  1
  Cl  Cl45  1  0.39353300  0.09937100  0.24553700  1
  Cl  Cl46  1  0.10646700  0.40062900  0.74553700  1
  Cl  Cl47  1  0.60646700  0.59937100  0.25446300  1
  Cl  Cl48  1  0.09837200  0.11373400  0.13333300  1
  Cl  Cl49  1  0.59837200  0.88626600  0.86666700  1
  Cl  Cl50  1  0.90162800  0.61373400  0.36666700  1
  Cl  Cl51  1  0.40162800  0.38626600  0.63333300  1
  Cl  Cl52  1  0.90162800  0.88626600  0.86666700  1
  Cl  Cl53  1  0.40162800  0.11373400  0.13333300  1
  Cl  Cl54  1  0.09837200  0.38626600  0.63333300  1
  Cl  Cl55  1  0.59837200  0.61373400  0.36666700  1
  Cl  Cl56  1  0.25000000  0.90698900  0.18495700  1
  Cl  Cl57  1  0.75000000  0.09301100  0.81504300  1
  Cl  Cl58  1  0.75000000  0.40698900  0.31504300  1
  Cl  Cl59  1  0.25000000  0.59301100  0.68495700  1
  Cl  Cl60  1  0.25000000  0.40503800  0.08717000  1
  Cl  Cl61  1  0.75000000  0.59496200  0.91283000  1
  Cl  Cl62  1  0.75000000  0.90503800  0.41283000  1
  Cl  Cl63  1  0.25000000  0.09496200  0.58717000  1
  Cl  Cl64  1  0.25000000  0.79236700  0.06937400  1
  Cl  Cl65  1  0.75000000  0.20763300  0.93062600  1
  Cl  Cl66  1  0.75000000  0.29236700  0.43062600  1
  Cl  Cl67  1  0.25000000  0.70763300  0.56937400  1
  Cl  Cl68  1  0.09778700  0.61449500  0.13722900  1
  Cl  Cl69  1  0.59778700  0.38550500  0.86277100  1
  Cl  Cl70  1  0.90221300  0.11449500  0.36277100  1
  Cl  Cl71  1  0.40221300  0.88550500  0.63722900  1
  Cl  Cl72  1  0.90221300  0.38550500  0.86277100  1
  Cl  Cl73  1  0.40221300  0.61449500  0.13722900  1
  Cl  Cl74  1  0.09778700  0.88550500  0.63722900  1
  Cl  Cl75  1  0.59778700  0.11449500  0.36277100  1
  Cl  Cl76  1  0.10688300  0.59590300  0.02539800  1
  Cl  Cl77  1  0.60688300  0.40409700  0.97460200  1
  Cl  Cl78  1  0.89311700  0.09590300  0.47460200  1
  Cl  Cl79  1  0.39311700  0.90409700  0.52539800  1
  Cl  Cl80  1  0.89311700  0.40409700  0.97460200  1
  Cl  Cl81  1  0.39311700  0.59590300  0.02539800  1
  Cl  Cl82  1  0.10688300  0.90409700  0.52539800  1
  Cl  Cl83  1  0.60688300  0.09590300  0.47460200  1
  Cl  Cl84  1  0.09871600  0.84369200  0.97350500  1
  Cl  Cl85  1  0.59871600  0.15630800  0.02649500  1
  Cl  Cl86  1  0.90128400  0.34369200  0.52649500  1
  Cl  Cl87  1  0.40128400  0.65630800  0.47350500  1
  Cl  Cl88  1  0.90128400  0.15630800  0.02649500  1
  Cl  Cl89  1  0.40128400  0.84369200  0.97350500  1
  Cl  Cl90  1  0.09871600  0.65630800  0.47350500  1
  Cl  Cl91  1  0.59871600  0.34369200  0.52649500  1
  Cl  Cl92  1  0.25000000  0.62648000  0.92847100  1
  Cl  Cl93  1  0.75000000  0.37352000  0.07152900  1
  Cl  Cl94  1  0.75000000  0.12648000  0.57152900  1
  Cl  Cl95  1  0.25000000  0.87352000  0.42847100  1
  Cl  Cl96  1  0.10679500  0.82349500  0.30766100  1
  Cl  Cl97  1  0.60679500  0.17650500  0.69233900  1
  Cl  Cl98  1  0.89320500  0.32349500  0.19233900  1
  Cl  Cl99  1  0.39320500  0.67650500  0.80766100  1
  Cl  Cl100  1  0.89320500  0.17650500  0.69233900  1
  Cl  Cl101  1  0.39320500  0.82349500  0.30766100  1
  Cl  Cl102  1  0.10679500  0.67650500  0.80766100  1
  Cl  Cl103  1  0.60679500  0.32349500  0.19233900  1
  Cl  Cl104  1  0.25000000  0.62637100  0.35344500  1
  Cl  Cl105  1  0.75000000  0.37362900  0.64655500  1
  Cl  Cl106  1  0.75000000  0.12637100  0.14655500  1
  Cl  Cl107  1  0.25000000  0.87362900  0.85344500  1
  Cl  Cl108  1  0.25000000  0.64943800  0.24832200  1
  Cl  Cl109  1  0.75000000  0.35056200  0.75167800  1
  Cl  Cl110  1  0.75000000  0.14943800  0.25167800  1
  Cl  Cl111  1  0.25000000  0.85056200  0.74832200  1
  Cl  Cl112  1  0.10672300  0.35165200  0.42473400  1
  Cl  Cl113  1  0.60672300  0.64834800  0.57526600  1
  Cl  Cl114  1  0.89327700  0.85165200  0.07526600  1
  Cl  Cl115  1  0.39327700  0.14834800  0.92473400  1
  Cl  Cl116  1  0.89327700  0.64834800  0.57526600  1
  Cl  Cl117  1  0.39327700  0.35165200  0.42473400  1
  Cl  Cl118  1  0.10672300  0.14834800  0.92473400  1
  Cl  Cl119  1  0.60672300  0.85165200  0.07526600  1
  Cl  Cl120  1  0.25000000  0.37948600  0.51590400  1
  Cl  Cl121  1  0.75000000  0.62051400  0.48409600  1
  Cl  Cl122  1  0.75000000  0.87948600  0.98409600  1
  Cl  Cl123  1  0.25000000  0.12051400  0.01590400  1
  Cl  Cl124  1  0.25000000  0.14787500  0.46587000  1
  Cl  Cl125  1  0.75000000  0.85212500  0.53413000  1
  Cl  Cl126  1  0.75000000  0.64787500  0.03413000  1
  Cl  Cl127  1  0.25000000  0.35212500  0.96587000  1
