# generated using pymatgen
data_BaSb2
_symmetry_space_group_name_H-M   'P 1'
_cell_length_a   4.46957100
_cell_length_b   11.75878800
_cell_length_c   12.66201333
_cell_angle_alpha   79.93667050
_cell_angle_beta   90.00000000
_cell_angle_gamma   90.00000000
_symmetry_Int_Tables_number   1
_chemical_formula_structural   BaSb2
_chemical_formula_sum   'Ba6 Sb12'
_cell_volume   655.23594012
_cell_formula_units_Z   6
loop_
 _symmetry_equiv_pos_site_id
 _symmetry_equiv_pos_as_xyz
  1  'x, y, z'
loop_
 _atom_site_type_symbol
 _atom_site_label
 _atom_site_symmetry_multiplicity
 _atom_site_fract_x
 _atom_site_fract_y
 _atom_site_fract_z
 _atom_site_occupancy
  Ba  Ba0  1  0.25000000  0.94105400  0.76687000  1
  Ba  Ba1  1  0.75000000  0.05894600  0.23313000  1
  Ba  Ba2  1  0.25000000  0.28523500  0.43958100  1
  Ba  Ba3  1  0.75000000  0.71476500  0.56041900  1
  Ba  Ba4  1  0.25000000  0.62038300  0.08846600  1
  Ba  Ba5  1  0.75000000  0.37961700  0.91153400  1
  Sb  Sb6  1  0.25000000  0.94533800  0.45004400  1
  Sb  Sb7  1  0.75000000  0.05466200  0.54995600  1
  Sb  Sb8  1  0.25000000  0.92972200  0.05088400  1
  Sb  Sb9  1  0.75000000  0.07027800  0.94911600  1
  Sb  Sb10  1  0.25000000  0.59337500  0.77187900  1
  Sb  Sb11  1  0.75000000  0.40662500  0.22812100  1
  Sb  Sb12  1  0.75000000  0.74540200  0.27413300  1
  Sb  Sb13  1  0.25000000  0.25459800  0.72586700  1
  Sb  Sb14  1  0.75000000  0.39932000  0.63027300  1
  Sb  Sb15  1  0.25000000  0.60068000  0.36972700  1
  Sb  Sb16  1  0.75000000  0.70819300  0.86690800  1
  Sb  Sb17  1  0.25000000  0.29180700  0.13309200  1
