# generated using pymatgen
data_Co(ClO4)2
_symmetry_space_group_name_H-M   'P 1'
_cell_length_a   8.28911234
_cell_length_b   8.50230625
_cell_length_c   9.83083234
_cell_angle_alpha   89.94607838
_cell_angle_beta   89.98051146
_cell_angle_gamma   110.00867574
_symmetry_Int_Tables_number   1
_chemical_formula_structural   Co(ClO4)2
_chemical_formula_sum   'Co4 Cl8 O32'
_cell_volume   651.02345357
_cell_formula_units_Z   4
loop_
 _symmetry_equiv_pos_site_id
 _symmetry_equiv_pos_as_xyz
  1  'x, y, z'
loop_
 _atom_site_type_symbol
 _atom_site_label
 _atom_site_symmetry_multiplicity
 _atom_site_fract_x
 _atom_site_fract_y
 _atom_site_fract_z
 _atom_site_occupancy
  Co  Co0  1  0.99958800  0.49987900  0.74990600  1
  Co  Co1  1  0.00025300  0.99995900  0.50010600  1
  Co  Co2  1  0.00033700  0.50007400  0.25009900  1
  Co  Co3  1  0.99980200  0.00007600  0.99989900  1
  Cl  Cl4  1  0.22575000  0.24174000  0.75039400  1
  Cl  Cl5  1  0.22638900  0.24204600  0.24947600  1
  Cl  Cl6  1  0.22569800  0.74215000  0.49982100  1
  Cl  Cl7  1  0.22608100  0.74155400  0.00002400  1
  Cl  Cl8  1  0.77406300  0.75780200  0.75038500  1
  Cl  Cl9  1  0.77379900  0.75841100  0.24973800  1
  Cl  Cl10  1  0.77439300  0.25804300  0.49975300  1
  Cl  Cl11  1  0.77382900  0.25825900  0.00040900  1
  O  O12  1  0.40767900  0.30258300  0.75110600  1
  O  O13  1  0.40848100  0.30292800  0.24926400  1
  O  O14  1  0.40778200  0.80308900  0.49969800  1
  O  O15  1  0.40810600  0.80171900  0.00047000  1
  O  O16  1  0.59201500  0.69626300  0.75052300  1
  O  O17  1  0.59181800  0.69820300  0.24907800  1
  O  O18  1  0.59239200  0.19737200  0.49931900  1
  O  O19  1  0.59172900  0.19784900  0.00049700  1
  O  O20  1  0.15885700  0.08446700  0.82948700  1
  O  O21  1  0.15980400  0.08446100  0.32831500  1
  O  O22  1  0.15908000  0.58459200  0.57862400  1
  O  O23  1  0.15895400  0.58431000  0.07921500  1
  O  O24  1  0.84065900  0.79118000  0.89104100  1
  O  O25  1  0.83972900  0.79238200  0.39055600  1
  O  O26  1  0.84066400  0.29191800  0.64053700  1
  O  O27  1  0.84045600  0.29158100  0.14109100  1
  O  O28  1  0.84129900  0.63409900  0.68835200  1
  O  O29  1  0.84048500  0.63375000  0.18880000  1
  O  O30  1  0.84119600  0.13356800  0.43858400  1
  O  O31  1  0.84019600  0.13376100  0.93851500  1
  O  O32  1  0.84033400  0.91548200  0.67161400  1
  O  O33  1  0.84099600  0.91560900  0.17058000  1
  O  O34  1  0.84121900  0.41535200  0.42062500  1
  O  O35  1  0.84078100  0.41574500  0.92155500  1
  O  O36  1  0.15984500  0.20774900  0.60958200  1
  O  O37  1  0.15972800  0.20864700  0.10881900  1
  O  O38  1  0.15892600  0.70883600  0.35914100  1
  O  O39  1  0.15991800  0.70766000  0.85924800  1
  O  O40  1  0.15851400  0.36601700  0.81130300  1
  O  O41  1  0.15975800  0.36616900  0.31150700  1
  O  O42  1  0.15899000  0.86636200  0.56174700  1
  O  O43  1  0.15962800  0.86630400  0.06119900  1
