# generated using pymatgen
data_Ba5Bi3
_symmetry_space_group_name_H-M   'P 1'
_cell_length_a   10.30841006
_cell_length_b   10.30841006
_cell_length_c   8.01216700
_cell_angle_alpha   90.00000000
_cell_angle_beta   90.00000000
_cell_angle_gamma   120.00000037
_symmetry_Int_Tables_number   1
_chemical_formula_structural   Ba5Bi3
_chemical_formula_sum   'Ba10 Bi6'
_cell_volume   737.33354903
_cell_formula_units_Z   2
loop_
 _symmetry_equiv_pos_site_id
 _symmetry_equiv_pos_as_xyz
  1  'x, y, z'
loop_
 _atom_site_type_symbol
 _atom_site_label
 _atom_site_symmetry_multiplicity
 _atom_site_fract_x
 _atom_site_fract_y
 _atom_site_fract_z
 _atom_site_occupancy
  Ba  Ba0  1  0.33333300  0.66666700  0.00000000  1
  Ba  Ba1  1  0.66666700  0.33333300  0.50000000  1
  Ba  Ba2  1  0.66666700  0.33333300  0.00000000  1
  Ba  Ba3  1  0.33333300  0.66666700  0.50000000  1
  Ba  Ba4  1  0.74558700  0.00000000  0.25000000  1
  Ba  Ba5  1  0.74558700  0.74558700  0.75000000  1
  Ba  Ba6  1  0.00000000  0.25441300  0.75000000  1
  Ba  Ba7  1  0.00000000  0.74558700  0.25000000  1
  Ba  Ba8  1  0.25441300  0.25441300  0.25000000  1
  Ba  Ba9  1  0.25441300  0.00000000  0.75000000  1
  Bi  Bi10  1  0.39161600  0.00000000  0.25000000  1
  Bi  Bi11  1  0.39161600  0.39161600  0.75000000  1
  Bi  Bi12  1  0.00000000  0.60838400  0.75000000  1
  Bi  Bi13  1  0.00000000  0.39161600  0.25000000  1
  Bi  Bi14  1  0.60838400  0.60838400  0.25000000  1
  Bi  Bi15  1  0.60838400  0.00000000  0.75000000  1
