# generated using pymatgen
data_USe2O7
_symmetry_space_group_name_H-M   'P 1'
_cell_length_a   6.80871400
_cell_length_b   9.59094728
_cell_length_c   12.04576928
_cell_angle_alpha   109.43874217
_cell_angle_beta   92.50336093
_cell_angle_gamma   93.31498642
_symmetry_Int_Tables_number   1
_chemical_formula_structural   USe2O7
_chemical_formula_sum   'U4 Se8 O28'
_cell_volume   738.87727442
_cell_formula_units_Z   4
loop_
 _symmetry_equiv_pos_site_id
 _symmetry_equiv_pos_as_xyz
  1  'x, y, z'
loop_
 _atom_site_type_symbol
 _atom_site_label
 _atom_site_symmetry_multiplicity
 _atom_site_fract_x
 _atom_site_fract_y
 _atom_site_fract_z
 _atom_site_occupancy
  U  U0  1  0.86700700  0.34582500  0.75912800  1
  U  U1  1  0.13299300  0.65417500  0.24087200  1
  U  U2  1  0.57698900  0.95108100  0.75977700  1
  U  U3  1  0.42301100  0.04891900  0.24022300  1
  Se  Se4  1  0.51091900  0.63464800  0.87738900  1
  Se  Se5  1  0.48908100  0.36535200  0.12261100  1
  Se  Se6  1  0.95968700  0.76095200  0.87868200  1
  Se  Se7  1  0.04031300  0.23904800  0.12131800  1
  Se  Se8  1  0.34460200  0.24771800  0.65432100  1
  Se  Se9  1  0.65539800  0.75228200  0.34567900  1
  Se  Se10  1  0.07173500  0.96081900  0.65503900  1
  Se  Se11  1  0.92826500  0.03918100  0.34496100  1
  O  O12  1  0.43610100  0.75198900  0.80915900  1
  O  O13  1  0.56389900  0.24801100  0.19084100  1
  O  O14  1  0.01953100  0.58661700  0.80826200  1
  O  O15  1  0.98046900  0.41338300  0.19173800  1
  O  O16  1  0.54171600  0.18330900  0.71274700  1
  O  O17  1  0.45828400  0.81669100  0.28725300  1
  O  O18  1  0.89101600  0.07628200  0.71821300  1
  O  O19  1  0.10898400  0.92371800  0.28178700  1
  O  O20  1  0.24044300  0.98928100  0.76980000  1
  O  O21  1  0.75955700  0.01071900  0.23020000  1
  O  O22  1  0.20659500  0.31609400  0.77186600  1
  O  O23  1  0.79340500  0.68390600  0.22813400  1
  O  O24  1  0.46730800  0.15315100  0.39587000  1
  O  O25  1  0.53269200  0.84684900  0.60413000  1
  O  O26  1  0.36987600  0.93961400  0.08679800  1
  O  O27  1  0.63012400  0.06038600  0.91320200  1
  O  O28  1  0.15699900  0.63174400  0.08737900  1
  O  O29  1  0.84300100  0.36825600  0.91262100  1
  O  O30  1  0.11472600  0.68385000  0.39609400  1
  O  O31  1  0.88527400  0.31615000  0.60390600  1
  O  O32  1  0.80320000  0.92890800  0.42444300  1
  O  O33  1  0.19680000  0.07109200  0.57555700  1
  O  O34  1  0.25584700  0.26964700  0.04288300  1
  O  O35  1  0.74415300  0.73035300  0.95711700  1
  O  O36  1  0.15232000  0.19078500  0.23263500  1
  O  O37  1  0.84768000  0.80921500  0.76736500  1
  O  O38  1  0.40226500  0.50609700  0.23537300  1
  O  O39  1  0.59773500  0.49390300  0.76462700  1
