# generated using pymatgen
data_SbSeI
_symmetry_space_group_name_H-M   'P 1'
_cell_length_a   4.18734600
_cell_length_b   9.16371300
_cell_length_c   11.10048800
_cell_angle_alpha   90.00000000
_cell_angle_beta   90.00000000
_cell_angle_gamma   90.00000000
_symmetry_Int_Tables_number   1
_chemical_formula_structural   SbSeI
_chemical_formula_sum   'Sb4 Se4 I4'
_cell_volume   425.94389579
_cell_formula_units_Z   4
loop_
 _symmetry_equiv_pos_site_id
 _symmetry_equiv_pos_as_xyz
  1  'x, y, z'
loop_
 _atom_site_type_symbol
 _atom_site_label
 _atom_site_symmetry_multiplicity
 _atom_site_fract_x
 _atom_site_fract_y
 _atom_site_fract_z
 _atom_site_occupancy
  Sb  Sb0  1  0.75000000  0.59987400  0.37068900  1
  Sb  Sb1  1  0.75000000  0.09987400  0.12931100  1
  Sb  Sb2  1  0.25000000  0.40012600  0.62931100  1
  Sb  Sb3  1  0.25000000  0.90012600  0.87068900  1
  Se  Se4  1  0.75000000  0.83470600  0.03539200  1
  Se  Se5  1  0.25000000  0.16529400  0.96460800  1
  Se  Se6  1  0.25000000  0.66529400  0.53539200  1
  Se  Se7  1  0.75000000  0.33470600  0.46460800  1
  I  I8  1  0.75000000  0.02981000  0.68671100  1
  I  I9  1  0.25000000  0.97019000  0.31328900  1
  I  I10  1  0.75000000  0.52981000  0.81328900  1
  I  I11  1  0.25000000  0.47019000  0.18671100  1
