# generated using pymatgen
data_PAuCl8
_symmetry_space_group_name_H-M   'P 1'
_cell_length_a   12.01445544
_cell_length_b   12.01445544
_cell_length_c   12.01445544
_cell_angle_alpha   119.21453107
_cell_angle_beta   114.03798488
_cell_angle_gamma   96.00278312
_symmetry_Int_Tables_number   1
_chemical_formula_structural   PAuCl8
_chemical_formula_sum   'P4 Au4 Cl32'
_cell_volume   1278.33318489
_cell_formula_units_Z   4
loop_
 _symmetry_equiv_pos_site_id
 _symmetry_equiv_pos_as_xyz
  1  'x, y, z'
loop_
 _atom_site_type_symbol
 _atom_site_label
 _atom_site_symmetry_multiplicity
 _atom_site_fract_x
 _atom_site_fract_y
 _atom_site_fract_z
 _atom_site_occupancy
  P  P0  1  0.25243800  0.25243800  0.50000000  1
  P  P1  1  0.24756200  0.74756200  0.00000000  1
  P  P2  1  0.74756200  0.74756200  0.50000000  1
  P  P3  1  0.75243800  0.25243800  0.00000000  1
  Au  Au4  1  0.75000000  0.82587400  0.07587400  1
  Au  Au5  1  0.25000000  0.17412600  0.92412600  1
  Au  Au6  1  0.75000000  0.30996600  0.55996600  1
  Au  Au7  1  0.25000000  0.69003400  0.44003400  1
  Cl  Cl8  1  0.91777700  0.24071400  0.01149200  1
  Cl  Cl9  1  0.58222300  0.59371500  0.32293700  1
  Cl  Cl10  1  0.77077800  0.75928600  0.67706300  1
  Cl  Cl11  1  0.72922200  0.40628500  0.98850800  1
  Cl  Cl12  1  0.08222300  0.75928600  0.98850800  1
  Cl  Cl13  1  0.41777700  0.40628500  0.67706300  1
  Cl  Cl14  1  0.22922200  0.24071400  0.32293700  1
  Cl  Cl15  1  0.27077800  0.59371500  0.01149200  1
  Cl  Cl16  1  0.60506300  0.07938800  0.82085000  1
  Cl  Cl17  1  0.89493700  0.71578700  0.47432500  1
  Cl  Cl18  1  0.74146200  0.92061200  0.52567500  1
  Cl  Cl19  1  0.75853800  0.28421300  0.17915000  1
  Cl  Cl20  1  0.39493700  0.92061200  0.17915000  1
  Cl  Cl21  1  0.10506300  0.28421300  0.52567500  1
  Cl  Cl22  1  0.25853800  0.07938800  0.47432500  1
  Cl  Cl23  1  0.24146200  0.71578700  0.82085000  1
  Cl  Cl24  1  0.39430200  0.83556700  0.44126500  1
  Cl  Cl25  1  0.10569800  0.54696300  0.44126500  1
  Cl  Cl26  1  0.60569800  0.16443300  0.55873500  1
  Cl  Cl27  1  0.89430200  0.45303700  0.55873500  1
  Cl  Cl28  1  0.07251100  0.68998800  0.26249800  1
  Cl  Cl29  1  0.42748900  0.68998800  0.61747700  1
  Cl  Cl30  1  0.57251100  0.31001200  0.38252300  1
  Cl  Cl31  1  0.92748900  0.31001200  0.73750200  1
  Cl  Cl32  1  0.39423800  0.31937900  0.92514100  1
  Cl  Cl33  1  0.10576200  0.03090200  0.92514100  1
  Cl  Cl34  1  0.60576200  0.68062100  0.07485900  1
  Cl  Cl35  1  0.89423800  0.96909800  0.07485900  1
  Cl  Cl36  1  0.25000000  0.36564400  0.11564400  1
  Cl  Cl37  1  0.75000000  0.63435600  0.88435600  1
  Cl  Cl38  1  0.25000000  0.98366100  0.73366100  1
  Cl  Cl39  1  0.75000000  0.01633900  0.26633900  1
