# generated using pymatgen
data_Ni10SnP3
_symmetry_space_group_name_H-M   'P 1'
_cell_length_a   7.67167437
_cell_length_b   7.67167437
_cell_length_c   9.61018700
_cell_angle_alpha   90.00000000
_cell_angle_beta   90.00000000
_cell_angle_gamma   120.00000318
_symmetry_Int_Tables_number   1
_chemical_formula_structural   Ni10SnP3
_chemical_formula_sum   'Ni30 Sn3 P9'
_cell_volume   489.82706422
_cell_formula_units_Z   3
loop_
 _symmetry_equiv_pos_site_id
 _symmetry_equiv_pos_as_xyz
  1  'x, y, z'
loop_
 _atom_site_type_symbol
 _atom_site_label
 _atom_site_symmetry_multiplicity
 _atom_site_fract_x
 _atom_site_fract_y
 _atom_site_fract_z
 _atom_site_occupancy
  Ni  Ni0  1  0.00000000  0.00000000  0.61978200  1
  Ni  Ni1  1  0.00000000  0.33784500  0.50000000  1
  Ni  Ni2  1  0.66215500  0.66215500  0.50000000  1
  Ni  Ni3  1  0.66215500  0.00000000  0.50000000  1
  Ni  Ni4  1  0.00000000  0.66215500  0.50000000  1
  Ni  Ni5  1  0.33784500  0.33784500  0.50000000  1
  Ni  Ni6  1  0.18915900  0.81084100  0.07270800  1
  Ni  Ni7  1  0.18915900  0.37831700  0.07270800  1
  Ni  Ni8  1  0.62168300  0.81084100  0.07270800  1
  Ni  Ni9  1  0.37831700  0.18915900  0.92729200  1
  Ni  Ni10  1  0.33784500  0.00000000  0.50000000  1
  Ni  Ni11  1  0.81084100  0.18915900  0.92729200  1
  Ni  Ni12  1  0.13763700  0.86236300  0.80047000  1
  Ni  Ni13  1  0.13763700  0.27527500  0.80047000  1
  Ni  Ni14  1  0.72472500  0.86236300  0.80047000  1
  Ni  Ni15  1  0.27527500  0.13763700  0.19953000  1
  Ni  Ni16  1  0.86236300  0.72472500  0.19953000  1
  Ni  Ni17  1  0.86236300  0.13763700  0.19953000  1
  Ni  Ni18  1  0.49066000  0.50934000  0.24026000  1
  Ni  Ni19  1  0.49066000  0.98131900  0.24026000  1
  Ni  Ni20  1  0.01868100  0.50934000  0.24026000  1
  Ni  Ni21  1  0.98131900  0.49066000  0.75974000  1
  Ni  Ni22  1  0.50934000  0.01868100  0.75974000  1
  Ni  Ni23  1  0.50934000  0.49066000  0.75974000  1
  Ni  Ni24  1  0.66666700  0.33333300  0.09613200  1
  Ni  Ni25  1  0.33333300  0.66666700  0.90386800  1
  Ni  Ni26  1  0.66666700  0.33333300  0.61585500  1
  Ni  Ni27  1  0.33333300  0.66666700  0.38414500  1
  Ni  Ni28  1  0.81084100  0.62168300  0.92729200  1
  Ni  Ni29  1  0.00000000  0.00000000  0.38021800  1
  Sn  Sn30  1  0.66666700  0.33333300  0.36056500  1
  Sn  Sn31  1  0.33333300  0.66666700  0.63943500  1
  Sn  Sn32  1  0.00000000  0.00000000  0.00000000  1
  P  P33  1  0.83556200  0.16443800  0.69094700  1
  P  P34  1  0.83556200  0.67112400  0.69094700  1
  P  P35  1  0.32887600  0.16443800  0.69094700  1
  P  P36  1  0.16443800  0.83556200  0.30905300  1
  P  P37  1  0.50000000  0.50000000  0.00000000  1
  P  P38  1  0.00000000  0.50000000  0.00000000  1
  P  P39  1  0.50000000  0.00000000  0.00000000  1
  P  P40  1  0.67112400  0.83556200  0.30905300  1
  P  P41  1  0.16443800  0.32887600  0.30905300  1
