# generated using pymatgen
data_Si2Pb3O7
_symmetry_space_group_name_H-M   'P 1'
_cell_length_a   14.40499303
_cell_length_b   14.40499303
_cell_length_c   14.40499327
_cell_angle_alpha   41.93963835
_cell_angle_beta   41.93963835
_cell_angle_gamma   41.93963677
_symmetry_Int_Tables_number   1
_chemical_formula_structural   Si2Pb3O7
_chemical_formula_sum   'Si12 Pb18 O42'
_cell_volume   1207.62893304
_cell_formula_units_Z   6
loop_
 _symmetry_equiv_pos_site_id
 _symmetry_equiv_pos_as_xyz
  1  'x, y, z'
loop_
 _atom_site_type_symbol
 _atom_site_label
 _atom_site_symmetry_multiplicity
 _atom_site_fract_x
 _atom_site_fract_y
 _atom_site_fract_z
 _atom_site_occupancy
  Si  Si0  1  0.05718400  0.44552500  0.85171500  1
  Si  Si1  1  0.85171500  0.05718400  0.44552500  1
  Si  Si2  1  0.44552500  0.85171500  0.05718400  1
  Si  Si3  1  0.44281600  0.64828500  0.05447500  1
  Si  Si4  1  0.05447500  0.44281600  0.64828500  1
  Si  Si5  1  0.64828500  0.05447500  0.44281600  1
  Si  Si6  1  0.94281600  0.55447500  0.14828500  1
  Si  Si7  1  0.14828500  0.94281600  0.55447500  1
  Si  Si8  1  0.55447500  0.14828500  0.94281600  1
  Si  Si9  1  0.55718400  0.35171500  0.94552500  1
  Si  Si10  1  0.94552500  0.55718400  0.35171500  1
  Si  Si11  1  0.35171500  0.94552500  0.55718400  1
  Pb  Pb12  1  0.25000000  0.25000000  0.25000000  1
  Pb  Pb13  1  0.75000000  0.75000000  0.75000000  1
  Pb  Pb14  1  0.15963400  0.15963400  0.15963400  1
  Pb  Pb15  1  0.34036600  0.34036600  0.34036600  1
  Pb  Pb16  1  0.84036600  0.84036600  0.84036600  1
  Pb  Pb17  1  0.65963400  0.65963400  0.65963400  1
  Pb  Pb18  1  0.79074400  0.31307200  0.00919000  1
  Pb  Pb19  1  0.00919000  0.79074400  0.31307200  1
  Pb  Pb20  1  0.31307200  0.00919000  0.79074400  1
  Pb  Pb21  1  0.70925600  0.49081000  0.18692800  1
  Pb  Pb22  1  0.18692800  0.70925600  0.49081000  1
  Pb  Pb23  1  0.49081000  0.18692800  0.70925600  1
  Pb  Pb24  1  0.20925600  0.68692800  0.99081000  1
  Pb  Pb25  1  0.99081000  0.20925600  0.68692800  1
  Pb  Pb26  1  0.68692800  0.99081000  0.20925600  1
  Pb  Pb27  1  0.29074400  0.50919000  0.81307200  1
  Pb  Pb28  1  0.81307200  0.29074400  0.50919000  1
  Pb  Pb29  1  0.50919000  0.81307200  0.29074400  1
  O  O30  1  0.91837500  0.39413300  0.01517400  1
  O  O31  1  0.01517400  0.91837500  0.39413300  1
  O  O32  1  0.39413300  0.01517400  0.91837500  1
  O  O33  1  0.58162500  0.48482600  0.10586700  1
  O  O34  1  0.10586700  0.58162500  0.48482600  1
  O  O35  1  0.48482600  0.10586700  0.58162500  1
  O  O36  1  0.08162500  0.60586700  0.98482600  1
  O  O37  1  0.98482600  0.08162500  0.60586700  1
  O  O38  1  0.60586700  0.98482600  0.08162500  1
  O  O39  1  0.41837500  0.51517400  0.89413300  1
  O  O40  1  0.89413300  0.41837500  0.51517400  1
  O  O41  1  0.51517400  0.89413300  0.41837500  1
  O  O42  1  0.00789300  0.36565100  0.24815100  1
  O  O43  1  0.24815100  0.00789300  0.36565100  1
  O  O44  1  0.36565100  0.24815100  0.00789300  1
  O  O45  1  0.49210700  0.25184900  0.13434900  1
  O  O46  1  0.13434900  0.49210700  0.25184900  1
  O  O47  1  0.12529900  0.80328200  0.62278800  1
  O  O48  1  0.25184900  0.13434900  0.49210700  1
  O  O49  1  0.75184900  0.99210700  0.63434900  1
  O  O50  1  0.63434900  0.75184900  0.99210700  1
  O  O51  1  0.50789300  0.74815100  0.86565100  1
  O  O52  1  0.86565100  0.50789300  0.74815100  1
  O  O53  1  0.74815100  0.86565100  0.50789300  1
  O  O54  1  0.87470100  0.19671800  0.37721200  1
  O  O55  1  0.37721200  0.87470100  0.19671800  1
  O  O56  1  0.19671800  0.37721200  0.87470100  1
  O  O57  1  0.62529900  0.12278800  0.30328200  1
  O  O58  1  0.30328200  0.62529900  0.12278800  1
  O  O59  1  0.12278800  0.30328200  0.62529900  1
  O  O60  1  0.12954400  0.37045600  0.75000000  1
  O  O61  1  0.37045600  0.75000000  0.12954400  1
  O  O62  1  0.75000000  0.12954400  0.37045600  1
  O  O63  1  0.87045600  0.62954400  0.25000000  1
  O  O64  1  0.62954400  0.25000000  0.87045600  1
  O  O65  1  0.25000000  0.87045600  0.62954400  1
  O  O66  1  0.87721200  0.69671800  0.37470100  1
  O  O67  1  0.69671800  0.37470100  0.87721200  1
  O  O68  1  0.37470100  0.87721200  0.69671800  1
  O  O69  1  0.80328200  0.62278800  0.12529900  1
  O  O70  1  0.62278800  0.12529900  0.80328200  1
  O  O71  1  0.99210700  0.63434900  0.75184900  1
