# generated using pymatgen
data_TmCrO4
_symmetry_space_group_name_H-M   'P 1'
_cell_length_a   5.92039398
_cell_length_b   5.92039398
_cell_length_c   5.92039398
_cell_angle_alpha   106.08826552
_cell_angle_beta   106.08826552
_cell_angle_gamma   116.47224567
_symmetry_Int_Tables_number   1
_chemical_formula_structural   TmCrO4
_chemical_formula_sum   'Tm2 Cr2 O8'
_cell_volume   157.93616040
_cell_formula_units_Z   2
loop_
 _symmetry_equiv_pos_site_id
 _symmetry_equiv_pos_as_xyz
  1  'x, y, z'
loop_
 _atom_site_type_symbol
 _atom_site_label
 _atom_site_symmetry_multiplicity
 _atom_site_fract_x
 _atom_site_fract_y
 _atom_site_fract_z
 _atom_site_occupancy
  Tm  Tm0  1  0.50000000  0.50000000  0.00000000  1
  Tm  Tm1  1  0.75000000  0.25000000  0.50000000  1
  Cr  Cr2  1  0.25000000  0.75000000  0.50000000  1
  Cr  Cr3  1  0.00000000  0.00000000  0.00000000  1
  O  O4  1  0.82289900  0.00867300  0.18577400  1
  O  O5  1  0.88712400  0.57289900  0.31422600  1
  O  O6  1  0.25867300  0.57289900  0.68577400  1
  O  O7  1  0.82289900  0.63712400  0.81422600  1
  O  O8  1  0.36287600  0.17710100  0.18577400  1
  O  O9  1  0.42710100  0.74132700  0.31422600  1
  O  O10  1  0.42710100  0.11287600  0.68577400  1
  O  O11  1  0.99132700  0.17710100  0.81422600  1
