# generated using pymatgen
data_KTe
_symmetry_space_group_name_H-M   'P 1'
_cell_length_a   5.65870004
_cell_length_b   5.65870004
_cell_length_c   12.44790200
_cell_angle_alpha   90.00000000
_cell_angle_beta   90.00000000
_cell_angle_gamma   120.00000048
_symmetry_Int_Tables_number   1
_chemical_formula_structural   KTe
_chemical_formula_sum   'K4 Te4'
_cell_volume   345.19153464
_cell_formula_units_Z   4
loop_
 _symmetry_equiv_pos_site_id
 _symmetry_equiv_pos_as_xyz
  1  'x, y, z'
loop_
 _atom_site_type_symbol
 _atom_site_label
 _atom_site_symmetry_multiplicity
 _atom_site_fract_x
 _atom_site_fract_y
 _atom_site_fract_z
 _atom_site_occupancy
  K  K0  1  0.00000000  0.00000000  0.00000000  1
  K  K1  1  0.00000000  0.00000000  0.50000000  1
  K  K2  1  0.33333300  0.66666700  0.25000000  1
  K  K3  1  0.66666700  0.33333300  0.75000000  1
  Te  Te4  1  0.33333300  0.66666700  0.63603900  1
  Te  Te5  1  0.66666700  0.33333300  0.13603900  1
  Te  Te6  1  0.66666700  0.33333300  0.36396100  1
  Te  Te7  1  0.33333300  0.66666700  0.86396100  1
