# generated using pymatgen
data_H8S5N2
_symmetry_space_group_name_H-M   'P 1'
_cell_length_a   16.59957300
_cell_length_b   5.45855300
_cell_length_c   9.50808764
_cell_angle_alpha   75.84122107
_cell_angle_beta   90.00000000
_cell_angle_gamma   90.00000000
_symmetry_Int_Tables_number   1
_chemical_formula_structural   H8S5N2
_chemical_formula_sum   'H32 S20 N8'
_cell_volume   835.35273469
_cell_formula_units_Z   4
loop_
 _symmetry_equiv_pos_site_id
 _symmetry_equiv_pos_as_xyz
  1  'x, y, z'
loop_
 _atom_site_type_symbol
 _atom_site_label
 _atom_site_symmetry_multiplicity
 _atom_site_fract_x
 _atom_site_fract_y
 _atom_site_fract_z
 _atom_site_occupancy
  H  H0  1  0.64186100  0.89481300  0.41852100  1
  H  H1  1  0.14186100  0.10518700  0.08147900  1
  H  H2  1  0.35813900  0.10518700  0.58147900  1
  H  H3  1  0.85813900  0.89481300  0.91852100  1
  H  H4  1  0.72575800  0.71458400  0.45060000  1
  H  H5  1  0.22575800  0.28541600  0.04940000  1
  H  H6  1  0.27424200  0.28541600  0.54940000  1
  H  H7  1  0.77424200  0.71458400  0.95060000  1
  H  H8  1  0.63236900  0.57409400  0.46202900  1
  H  H9  1  0.13236900  0.42590600  0.03797100  1
  H  H10  1  0.36763100  0.42590600  0.53797100  1
  H  H11  1  0.86763100  0.57409400  0.96202900  1
  H  H12  1  0.66938600  0.72511100  0.29681500  1
  H  H13  1  0.16938600  0.27488900  0.20318500  1
  H  H14  1  0.93326500  0.63642200  0.36792700  1
  H  H15  1  0.33061400  0.27488900  0.70318500  1
  H  H16  1  0.97669000  0.82864300  0.21860000  1
  H  H17  1  0.47669000  0.17135700  0.28140000  1
  H  H18  1  0.02331000  0.17135700  0.78140000  1
  H  H19  1  0.52331000  0.82864300  0.71860000  1
  H  H20  1  0.95631300  0.52111300  0.22093500  1
  H  H21  1  0.45631300  0.47888700  0.27906500  1
  H  H22  1  0.04368700  0.47888700  0.77906500  1
  H  H23  1  0.54368700  0.52111300  0.72093500  1
  H  H24  1  0.53073000  0.41711900  0.17272900  1
  H  H25  1  0.03073000  0.58288100  0.32727100  1
  H  H26  1  0.46927000  0.58288100  0.82727100  1
  H  H27  1  0.96927000  0.41711900  0.67272900  1
  H  H28  1  0.56673500  0.63642200  0.86792700  1
  H  H29  1  0.06673500  0.36357800  0.63207300  1
  H  H30  1  0.43326500  0.36357800  0.13207300  1
  H  H31  1  0.83061400  0.72511100  0.79681500  1
  S  S32  1  0.92984400  0.22928700  0.07669100  1
  S  S33  1  0.42984400  0.77071300  0.42330900  1
  S  S34  1  0.07015600  0.77071300  0.92330900  1
  S  S35  1  0.57015600  0.22928700  0.57669100  1
  S  S36  1  0.81975900  0.11156600  0.17066700  1
  S  S37  1  0.31975900  0.88843400  0.32933300  1
  S  S38  1  0.18024100  0.88843400  0.82933300  1
  S  S39  1  0.68024100  0.11156600  0.67066700  1
  S  S40  1  0.80584100  0.23595200  0.35746900  1
  S  S41  1  0.30584100  0.76404800  0.14253100  1
  S  S42  1  0.19415900  0.76404800  0.64253100  1
  S  S43  1  0.69415900  0.23595200  0.85746900  1
  S  S44  1  0.61138600  0.04647200  0.00921900  1
  S  S45  1  0.11138600  0.95352800  0.49078100  1
  S  S46  1  0.38861400  0.95352800  0.99078100  1
  S  S47  1  0.88861400  0.04647200  0.50921900  1
  S  S48  1  0.64468700  0.66993000  0.06986000  1
  S  S49  1  0.14468700  0.33007000  0.43014000  1
  S  S50  1  0.35531300  0.33007000  0.93014000  1
  S  S51  1  0.85531300  0.66993000  0.56986000  1
  N  N52  1  0.66775800  0.72932000  0.40684000  1
  N  N53  1  0.16775800  0.27068000  0.09316000  1
  N  N54  1  0.33224200  0.27068000  0.59316000  1
  N  N55  1  0.83224200  0.72932000  0.90684000  1
  N  N56  1  0.97452800  0.64416100  0.28344800  1
  N  N57  1  0.47452800  0.35583900  0.21655200  1
  N  N58  1  0.02547200  0.35583900  0.71655200  1
  N  N59  1  0.52547200  0.64416100  0.78344800  1
