# generated using pymatgen
data_Hf3P3Pd4
_symmetry_space_group_name_H-M   'P 1'
_cell_length_a   3.80818100
_cell_length_b   10.05877700
_cell_length_c   16.47941900
_cell_angle_alpha   90.00000000
_cell_angle_beta   90.00000000
_cell_angle_gamma   90.00000000
_symmetry_Int_Tables_number   1
_chemical_formula_structural   Hf3P3Pd4
_chemical_formula_sum   'Hf12 P12 Pd16'
_cell_volume   631.25474855
_cell_formula_units_Z   4
loop_
 _symmetry_equiv_pos_site_id
 _symmetry_equiv_pos_as_xyz
  1  'x, y, z'
loop_
 _atom_site_type_symbol
 _atom_site_label
 _atom_site_symmetry_multiplicity
 _atom_site_fract_x
 _atom_site_fract_y
 _atom_site_fract_z
 _atom_site_occupancy
  Hf  Hf0  1  0.25000000  0.91205400  0.06110500  1
  Hf  Hf1  1  0.75000000  0.08794600  0.93889500  1
  Hf  Hf2  1  0.75000000  0.41205400  0.43889500  1
  Hf  Hf3  1  0.25000000  0.58794600  0.56110500  1
  Hf  Hf4  1  0.25000000  0.61815000  0.95223000  1
  Hf  Hf5  1  0.75000000  0.38185000  0.04777000  1
  Hf  Hf6  1  0.75000000  0.11815000  0.54777000  1
  Hf  Hf7  1  0.25000000  0.88185000  0.45223000  1
  Hf  Hf8  1  0.25000000  0.47879900  0.76039700  1
  Hf  Hf9  1  0.75000000  0.52120100  0.23960300  1
  Hf  Hf10  1  0.75000000  0.97879900  0.73960300  1
  Hf  Hf11  1  0.25000000  0.02120100  0.26039700  1
  P  P12  1  0.25000000  0.10984700  0.82317600  1
  P  P13  1  0.75000000  0.89015300  0.17682400  1
  P  P14  1  0.75000000  0.60984700  0.67682400  1
  P  P15  1  0.25000000  0.39015300  0.32317600  1
  P  P16  1  0.25000000  0.96675900  0.61351500  1
  P  P17  1  0.75000000  0.03324100  0.38648500  1
  P  P18  1  0.75000000  0.46675900  0.88648500  1
  P  P19  1  0.25000000  0.53324100  0.11351500  1
  P  P20  1  0.25000000  0.32046400  0.54316300  1
  P  P21  1  0.75000000  0.67953600  0.45683700  1
  P  P22  1  0.75000000  0.82046400  0.95683700  1
  P  P23  1  0.25000000  0.17953600  0.04316300  1
  Pd  Pd24  1  0.25000000  0.31088000  0.17576900  1
  Pd  Pd25  1  0.75000000  0.68912000  0.82423100  1
  Pd  Pd26  1  0.75000000  0.81088000  0.32423100  1
  Pd  Pd27  1  0.25000000  0.18912000  0.67576900  1
  Pd  Pd28  1  0.25000000  0.73171400  0.20575700  1
  Pd  Pd29  1  0.75000000  0.26828600  0.79424300  1
  Pd  Pd30  1  0.75000000  0.23171400  0.29424300  1
  Pd  Pd31  1  0.25000000  0.76828600  0.70575700  1
  Pd  Pd32  1  0.25000000  0.61742400  0.37181300  1
  Pd  Pd33  1  0.75000000  0.38257600  0.62818700  1
  Pd  Pd34  1  0.75000000  0.11742400  0.12818700  1
  Pd  Pd35  1  0.25000000  0.88257600  0.87181300  1
  Pd  Pd36  1  0.25000000  0.18117900  0.41949800  1
  Pd  Pd37  1  0.75000000  0.81882100  0.58050200  1
  Pd  Pd38  1  0.75000000  0.68117900  0.08050200  1
  Pd  Pd39  1  0.25000000  0.31882100  0.91949800  1
