# generated using pymatgen
data_Sb8(PbS5)3
_symmetry_space_group_name_H-M   'P 1'
_cell_length_a   8.97682033
_cell_length_b   8.97682033
_cell_length_c   18.19712215
_cell_angle_alpha   85.56737925
_cell_angle_beta   85.56737925
_cell_angle_gamma   81.59495190
_symmetry_Int_Tables_number   1
_chemical_formula_structural   Sb8(PbS5)3
_chemical_formula_sum   'Sb16 Pb6 S30'
_cell_volume   1443.05471314
_cell_formula_units_Z   2
loop_
 _symmetry_equiv_pos_site_id
 _symmetry_equiv_pos_as_xyz
  1  'x, y, z'
loop_
 _atom_site_type_symbol
 _atom_site_label
 _atom_site_symmetry_multiplicity
 _atom_site_fract_x
 _atom_site_fract_y
 _atom_site_fract_z
 _atom_site_occupancy
  Sb  Sb0  1  0.13953700  0.03847100  0.07292900  1
  Sb  Sb1  1  0.96152900  0.86046300  0.42707100  1
  Sb  Sb2  1  0.86046300  0.96152900  0.92707100  1
  Sb  Sb3  1  0.03847100  0.13953700  0.57292900  1
  Sb  Sb4  1  0.39565000  0.88219300  0.43464100  1
  Sb  Sb5  1  0.11780700  0.60435000  0.06535900  1
  Sb  Sb6  1  0.60435000  0.11780700  0.56535900  1
  Sb  Sb7  1  0.88219300  0.39565000  0.93464100  1
  Sb  Sb8  1  0.50405700  0.23689300  0.99905800  1
  Sb  Sb9  1  0.76310700  0.49594300  0.50094200  1
  Sb  Sb10  1  0.49594300  0.76310700  0.00094200  1
  Sb  Sb11  1  0.23689300  0.50405700  0.49905800  1
  Sb  Sb12  1  0.58865600  0.22459900  0.34155600  1
  Sb  Sb13  1  0.77540100  0.41134400  0.15844400  1
  Sb  Sb14  1  0.41134400  0.77540100  0.65844400  1
  Sb  Sb15  1  0.22459900  0.58865600  0.84155600  1
  Pb  Pb16  1  0.73845700  0.88193000  0.16213500  1
  Pb  Pb17  1  0.11807000  0.26154300  0.33786500  1
  Pb  Pb18  1  0.26154300  0.11807000  0.83786500  1
  Pb  Pb19  1  0.88193000  0.73845700  0.66213500  1
  Pb  Pb20  1  0.37462600  0.62537400  0.25000000  1
  Pb  Pb21  1  0.62537400  0.37462600  0.75000000  1
  S  S22  1  0.81613700  0.18386300  0.25000000  1
  S  S23  1  0.18386300  0.81613700  0.75000000  1
  S  S24  1  0.19623700  0.93428900  0.34235500  1
  S  S25  1  0.06571100  0.80376300  0.15764500  1
  S  S26  1  0.80376300  0.06571100  0.65764500  1
  S  S27  1  0.93428900  0.19623700  0.84235500  1
  S  S28  1  0.82960000  0.11108300  0.03651800  1
  S  S29  1  0.88891700  0.17040000  0.46348200  1
  S  S30  1  0.17040000  0.88891700  0.96348200  1
  S  S31  1  0.11108300  0.82960000  0.53651800  1
  S  S32  1  0.42799600  0.95093700  0.09718700  1
  S  S33  1  0.04906300  0.57200400  0.40281300  1
  S  S34  1  0.57200400  0.04906300  0.90281300  1
  S  S35  1  0.95093700  0.42799600  0.59718700  1
  S  S36  1  0.44984600  0.60587700  0.41119600  1
  S  S37  1  0.39412300  0.55015400  0.08880400  1
  S  S38  1  0.55015400  0.39412300  0.58880400  1
  S  S39  1  0.60587700  0.44984600  0.91119600  1
  S  S40  1  0.59615000  0.94647800  0.33697100  1
  S  S41  1  0.05352200  0.40385000  0.16302900  1
  S  S42  1  0.40385000  0.05352200  0.66302900  1
  S  S43  1  0.94647800  0.59615000  0.83697100  1
  S  S44  1  0.23402700  0.29415100  0.96274900  1
  S  S45  1  0.70584900  0.76597300  0.53725100  1
  S  S46  1  0.76597300  0.70584900  0.03725100  1
  S  S47  1  0.29415100  0.23402700  0.46274900  1
  S  S48  1  0.30955900  0.39983300  0.75130400  1
  S  S49  1  0.60016700  0.69044100  0.74869600  1
  S  S50  1  0.69044100  0.60016700  0.24869600  1
  S  S51  1  0.39983300  0.30955900  0.25130400  1
