# generated using pymatgen
data_LiHF2
_symmetry_space_group_name_H-M   'P 1'
_cell_length_a   4.77235667
_cell_length_b   4.77235667
_cell_length_c   4.77235623
_cell_angle_alpha   37.06500440
_cell_angle_beta   37.06500440
_cell_angle_gamma   37.06500272
_symmetry_Int_Tables_number   1
_chemical_formula_structural   LiHF2
_chemical_formula_sum   'Li1 H1 F2'
_cell_volume   35.38319765
_cell_formula_units_Z   1
loop_
 _symmetry_equiv_pos_site_id
 _symmetry_equiv_pos_as_xyz
  1  'x, y, z'
loop_
 _atom_site_type_symbol
 _atom_site_label
 _atom_site_symmetry_multiplicity
 _atom_site_fract_x
 _atom_site_fract_y
 _atom_site_fract_z
 _atom_site_occupancy
  Li  Li0  1  0.00000000  0.00000000  0.00000000  1
  H  H1  1  0.50000000  0.50000000  0.50000000  1
  F  F2  1  0.41384800  0.41384800  0.41384800  1
  F  F3  1  0.58615200  0.58615200  0.58615200  1
