# generated using pymatgen
data_RuClF8
_symmetry_space_group_name_H-M   'P 1'
_cell_length_a   5.85054200
_cell_length_b   10.93362300
_cell_length_c   20.05500500
_cell_angle_alpha   90.00000000
_cell_angle_beta   90.00000000
_cell_angle_gamma   90.00000000
_symmetry_Int_Tables_number   1
_chemical_formula_structural   RuClF8
_chemical_formula_sum   'Ru8 Cl8 F64'
_cell_volume   1282.87095044
_cell_formula_units_Z   8
loop_
 _symmetry_equiv_pos_site_id
 _symmetry_equiv_pos_as_xyz
  1  'x, y, z'
loop_
 _atom_site_type_symbol
 _atom_site_label
 _atom_site_symmetry_multiplicity
 _atom_site_fract_x
 _atom_site_fract_y
 _atom_site_fract_z
 _atom_site_occupancy
  Ru  Ru0  1  0.12817700  0.53263700  0.37572600  1
  Ru  Ru1  1  0.12817700  0.96736300  0.62427400  1
  Ru  Ru2  1  0.87182300  0.53263700  0.12427400  1
  Ru  Ru3  1  0.87182300  0.96736300  0.87572600  1
  Ru  Ru4  1  0.87182300  0.46736300  0.62427400  1
  Ru  Ru5  1  0.87182300  0.03263700  0.37572600  1
  Ru  Ru6  1  0.12817700  0.46736300  0.87572600  1
  Ru  Ru7  1  0.12817700  0.03263700  0.12427400  1
  Cl  Cl8  1  0.50000000  0.73165600  0.25000000  1
  Cl  Cl9  1  0.50000000  0.76834400  0.75000000  1
  Cl  Cl10  1  0.50000000  0.26834400  0.75000000  1
  Cl  Cl11  1  0.50000000  0.23165600  0.25000000  1
  Cl  Cl12  1  0.40300300  0.25000000  0.00000000  1
  Cl  Cl13  1  0.59699700  0.25000000  0.50000000  1
  Cl  Cl14  1  0.59699700  0.75000000  0.00000000  1
  Cl  Cl15  1  0.40300300  0.75000000  0.50000000  1
  F  F16  1  0.40667100  0.80125600  0.94783100  1
  F  F17  1  0.40667100  0.69874400  0.05216900  1
  F  F18  1  0.59332900  0.80125600  0.55216900  1
  F  F19  1  0.59332900  0.69874400  0.44783100  1
  F  F20  1  0.59332900  0.19874400  0.05216900  1
  F  F21  1  0.59332900  0.30125600  0.94783100  1
  F  F22  1  0.40667100  0.19874400  0.44783100  1
  F  F23  1  0.40667100  0.30125600  0.55216900  1
  F  F24  1  0.39328200  0.16742100  0.80083900  1
  F  F25  1  0.39328200  0.33257900  0.19916100  1
  F  F26  1  0.60671800  0.16742100  0.69916100  1
  F  F27  1  0.60671800  0.33257900  0.30083900  1
  F  F28  1  0.60671800  0.83257900  0.19916100  1
  F  F29  1  0.60671800  0.66742100  0.80083900  1
  F  F30  1  0.39328200  0.83257900  0.30083900  1
  F  F31  1  0.39328200  0.66742100  0.69916100  1
  F  F32  1  0.10195400  0.52523900  0.56841600  1
  F  F33  1  0.10195400  0.97476100  0.43158400  1
  F  F34  1  0.89804600  0.52523900  0.93158400  1
  F  F35  1  0.89804600  0.97476100  0.06841600  1
  F  F36  1  0.89804600  0.47476100  0.43158400  1
  F  F37  1  0.89804600  0.02523900  0.56841600  1
  F  F38  1  0.10195400  0.47476100  0.06841600  1
  F  F39  1  0.10195400  0.02523900  0.93158400  1
  F  F40  1  0.35449800  0.46224800  0.43029500  1
  F  F41  1  0.35449800  0.03775200  0.56970500  1
  F  F42  1  0.64550200  0.46224800  0.06970500  1
  F  F43  1  0.64550200  0.03775200  0.93029500  1
  F  F44  1  0.64550200  0.53775200  0.56970500  1
  F  F45  1  0.64550200  0.96224800  0.43029500  1
  F  F46  1  0.35449800  0.53775200  0.93029500  1
  F  F47  1  0.35449800  0.96224800  0.06970500  1
  F  F48  1  0.37875000  0.59210400  0.31861300  1
  F  F49  1  0.37875000  0.90789600  0.68138700  1
  F  F50  1  0.62125000  0.59210400  0.18138700  1
  F  F51  1  0.62125000  0.90789600  0.81861300  1
  F  F52  1  0.62125000  0.40789600  0.68138700  1
  F  F53  1  0.62125000  0.09210400  0.31861300  1
  F  F54  1  0.37875000  0.40789600  0.81861300  1
  F  F55  1  0.37875000  0.09210400  0.18138700  1
  F  F56  1  0.08709300  0.38737500  0.67829700  1
  F  F57  1  0.08709300  0.11262500  0.32170300  1
  F  F58  1  0.91290700  0.38737500  0.82170300  1
  F  F59  1  0.91290700  0.11262500  0.17829700  1
  F  F60  1  0.91290700  0.61262500  0.32170300  1
  F  F61  1  0.91290700  0.88737500  0.67829700  1
  F  F62  1  0.08709300  0.61262500  0.17829700  1
  F  F63  1  0.08709300  0.88737500  0.82170300  1
  F  F64  1  0.14812900  0.68430400  0.42870000  1
  F  F65  1  0.14812900  0.81569600  0.57130000  1
  F  F66  1  0.85187100  0.68430400  0.07130000  1
  F  F67  1  0.85187100  0.81569600  0.92870000  1
  F  F68  1  0.85187100  0.31569600  0.57130000  1
  F  F69  1  0.85187100  0.18430400  0.42870000  1
  F  F70  1  0.14812900  0.31569600  0.92870000  1
  F  F71  1  0.14812900  0.18430400  0.07130000  1
  F  F72  1  0.11233000  0.39208900  0.32314900  1
  F  F73  1  0.11233000  0.10791100  0.67685100  1
  F  F74  1  0.88767000  0.39208900  0.17685100  1
  F  F75  1  0.88767000  0.10791100  0.82314900  1
  F  F76  1  0.88767000  0.60791100  0.67685100  1
  F  F77  1  0.88767000  0.89208900  0.32314900  1
  F  F78  1  0.11233000  0.60791100  0.82314900  1
  F  F79  1  0.11233000  0.89208900  0.17685100  1
