# generated using pymatgen
data_TaClF8
_symmetry_space_group_name_H-M   'P 1'
_cell_length_a   5.99590700
_cell_length_b   10.10596600
_cell_length_c   11.00480200
_cell_angle_alpha   90.00000000
_cell_angle_beta   90.00000000
_cell_angle_gamma   90.00000000
_symmetry_Int_Tables_number   1
_chemical_formula_structural   TaClF8
_chemical_formula_sum   'Ta4 Cl4 F32'
_cell_volume   666.82972956
_cell_formula_units_Z   4
loop_
 _symmetry_equiv_pos_site_id
 _symmetry_equiv_pos_as_xyz
  1  'x, y, z'
loop_
 _atom_site_type_symbol
 _atom_site_label
 _atom_site_symmetry_multiplicity
 _atom_site_fract_x
 _atom_site_fract_y
 _atom_site_fract_z
 _atom_site_occupancy
  Ta  Ta0  1  0.38378200  0.50000000  0.75000000  1
  Ta  Ta1  1  0.61621800  0.00000000  0.75000000  1
  Ta  Ta2  1  0.61621800  0.50000000  0.25000000  1
  Ta  Ta3  1  0.38378200  0.00000000  0.25000000  1
  Cl  Cl4  1  0.00000000  0.75000000  0.54867700  1
  Cl  Cl5  1  0.00000000  0.25000000  0.95132300  1
  Cl  Cl6  1  0.00000000  0.25000000  0.45132300  1
  Cl  Cl7  1  0.00000000  0.75000000  0.04867700  1
  F  F8  1  0.11123900  0.34807800  0.05143500  1
  F  F9  1  0.11123900  0.65192200  0.44856500  1
  F  F10  1  0.88876100  0.84807800  0.44856500  1
  F  F11  1  0.88876100  0.15192200  0.05143500  1
  F  F12  1  0.88876100  0.65192200  0.94856500  1
  F  F13  1  0.88876100  0.34807800  0.55143500  1
  F  F14  1  0.11123900  0.15192200  0.55143500  1
  F  F15  1  0.11123900  0.84807800  0.94856500  1
  F  F16  1  0.60135500  0.88644700  0.18429100  1
  F  F17  1  0.60135500  0.11355300  0.31570900  1
  F  F18  1  0.39864500  0.38644700  0.31570900  1
  F  F19  1  0.39864500  0.61355300  0.18429100  1
  F  F20  1  0.39864500  0.11355300  0.81570900  1
  F  F21  1  0.39864500  0.88644700  0.68429100  1
  F  F22  1  0.60135500  0.61355300  0.68429100  1
  F  F23  1  0.60135500  0.38644700  0.81570900  1
  F  F24  1  0.13975400  0.88305300  0.18476400  1
  F  F25  1  0.13975400  0.11694700  0.31523600  1
  F  F26  1  0.86024600  0.38305300  0.31523600  1
  F  F27  1  0.86024600  0.61694700  0.18476400  1
  F  F28  1  0.86024600  0.11694700  0.81523600  1
  F  F29  1  0.86024600  0.88305300  0.68476400  1
  F  F30  1  0.13975400  0.61694700  0.68476400  1
  F  F31  1  0.13975400  0.38305300  0.81523600  1
  F  F32  1  0.35660900  0.09908800  0.10344000  1
  F  F33  1  0.35660900  0.90091200  0.39656000  1
  F  F34  1  0.64339100  0.59908800  0.39656000  1
  F  F35  1  0.64339100  0.40091200  0.10344000  1
  F  F36  1  0.64339100  0.90091200  0.89656000  1
  F  F37  1  0.64339100  0.09908800  0.60344000  1
  F  F38  1  0.35660900  0.40091200  0.60344000  1
  F  F39  1  0.35660900  0.59908800  0.89656000  1
