# generated using pymatgen
data_RbLi2(IO3)3
_symmetry_space_group_name_H-M   'P 1'
_cell_length_a   11.41012900
_cell_length_b   8.42024200
_cell_length_c   11.44876548
_cell_angle_alpha   68.97660247
_cell_angle_beta   90.00000000
_cell_angle_gamma   90.00000000
_symmetry_Int_Tables_number   1
_chemical_formula_structural   RbLi2(IO3)3
_chemical_formula_sum   'Rb4 Li8 I12 O36'
_cell_volume   1026.73272557
_cell_formula_units_Z   4
loop_
 _symmetry_equiv_pos_site_id
 _symmetry_equiv_pos_as_xyz
  1  'x, y, z'
loop_
 _atom_site_type_symbol
 _atom_site_label
 _atom_site_symmetry_multiplicity
 _atom_site_fract_x
 _atom_site_fract_y
 _atom_site_fract_z
 _atom_site_occupancy
  Rb  Rb0  1  0.45560600  0.71157100  0.33865700  1
  Rb  Rb1  1  0.95560600  0.28842900  0.16134300  1
  Rb  Rb2  1  0.54439400  0.28842900  0.66134300  1
  Rb  Rb3  1  0.04439400  0.71157100  0.83865700  1
  Li  Li4  1  0.21591500  0.62645000  0.13955300  1
  Li  Li5  1  0.71591500  0.37355000  0.36044700  1
  Li  Li6  1  0.78408500  0.37355000  0.86044700  1
  Li  Li7  1  0.28408500  0.62645000  0.63955300  1
  Li  Li8  1  0.21073500  0.01641000  0.15264700  1
  Li  Li9  1  0.71073500  0.98359000  0.34735300  1
  Li  Li10  1  0.78926500  0.98359000  0.84735300  1
  Li  Li11  1  0.28926500  0.01641000  0.65264700  1
  I  I12  1  0.13199200  0.91646400  0.43830800  1
  I  I13  1  0.63199200  0.08353600  0.06169200  1
  I  I14  1  0.86800800  0.08353600  0.56169200  1
  I  I15  1  0.36800800  0.91646400  0.93830800  1
  I  I16  1  0.18211600  0.40937000  0.45399800  1
  I  I17  1  0.68211600  0.59063000  0.04600200  1
  I  I18  1  0.81788400  0.59063000  0.54600200  1
  I  I19  1  0.31788400  0.40937000  0.95399800  1
  I  I20  1  0.44736400  0.22651900  0.32001700  1
  I  I21  1  0.94736400  0.77348100  0.17998300  1
  I  I22  1  0.55263600  0.77348100  0.67998300  1
  I  I23  1  0.05263600  0.22651900  0.82001700  1
  O  O24  1  0.07954500  0.13257000  0.41664700  1
  O  O25  1  0.57954500  0.86743000  0.08335300  1
  O  O26  1  0.92045500  0.86743000  0.58335300  1
  O  O27  1  0.42045500  0.13257000  0.91664700  1
  O  O28  1  0.79509400  0.14027900  0.40873300  1
  O  O29  1  0.29509400  0.85972100  0.09126700  1
  O  O30  1  0.25717300  0.97407600  0.33070400  1
  O  O31  1  0.20490600  0.85972100  0.59126700  1
  O  O32  1  0.45834100  0.95510300  0.66999200  1
  O  O33  1  0.95834100  0.04489700  0.83000800  1
  O  O34  1  0.54165900  0.04489700  0.33000800  1
  O  O35  1  0.04165900  0.95510300  0.16999200  1
  O  O36  1  0.45608100  0.65008100  0.61703300  1
  O  O37  1  0.95608100  0.34991900  0.88296700  1
  O  O38  1  0.54391900  0.34991900  0.38296700  1
  O  O39  1  0.04391900  0.65008100  0.11703300  1
  O  O40  1  0.53692100  0.65175600  0.84757400  1
  O  O41  1  0.03692100  0.34824400  0.65242600  1
  O  O42  1  0.46307900  0.34824400  0.15242600  1
  O  O43  1  0.96307900  0.65175600  0.34757400  1
  O  O44  1  0.28822000  0.25880800  0.55261800  1
  O  O45  1  0.78822000  0.74119200  0.94738200  1
  O  O46  1  0.71178000  0.74119200  0.44738200  1
  O  O47  1  0.21178000  0.25880800  0.05261800  1
  O  O48  1  0.23831400  0.46475900  0.80435200  1
  O  O49  1  0.73831400  0.53524100  0.69564800  1
  O  O50  1  0.76168600  0.53524100  0.19564800  1
  O  O51  1  0.26168600  0.46475900  0.30435200  1
  O  O52  1  0.27574600  0.59849700  0.98822900  1
  O  O53  1  0.77574600  0.40150300  0.51177100  1
  O  O54  1  0.72425400  0.40150300  0.01177100  1
  O  O55  1  0.22425400  0.59849700  0.48822900  1
  O  O56  1  0.24282700  0.97407600  0.83070400  1
  O  O57  1  0.74282700  0.02592400  0.66929600  1
  O  O58  1  0.75717300  0.02592400  0.16929600  1
  O  O59  1  0.70490600  0.14027900  0.90873300  1
