# generated using pymatgen
data_Ba2MnO3
_symmetry_space_group_name_H-M   'P 1'
_cell_length_a   6.59448106
_cell_length_b   6.59448106
_cell_length_c   12.82793135
_cell_angle_alpha   88.42811085
_cell_angle_beta   88.42811085
_cell_angle_gamma   125.30787306
_symmetry_Int_Tables_number   1
_chemical_formula_structural   Ba2MnO3
_chemical_formula_sum   'Ba8 Mn4 O12'
_cell_volume   454.42611138
_cell_formula_units_Z   4
loop_
 _symmetry_equiv_pos_site_id
 _symmetry_equiv_pos_as_xyz
  1  'x, y, z'
loop_
 _atom_site_type_symbol
 _atom_site_label
 _atom_site_symmetry_multiplicity
 _atom_site_fract_x
 _atom_site_fract_y
 _atom_site_fract_z
 _atom_site_occupancy
  Ba  Ba0  1  0.87061300  0.65964600  0.92461300  1
  Ba  Ba1  1  0.34035400  0.12938700  0.57538700  1
  Ba  Ba2  1  0.12938700  0.34035400  0.07538700  1
  Ba  Ba3  1  0.65964600  0.87061300  0.42461300  1
  Ba  Ba4  1  0.97047700  0.55889900  0.34972700  1
  Ba  Ba5  1  0.55889900  0.97047700  0.84972700  1
  Ba  Ba6  1  0.44110100  0.02952300  0.15027300  1
  Ba  Ba7  1  0.02952300  0.44110100  0.65027300  1
  Mn  Mn8  1  0.27054700  0.27767000  0.83649700  1
  Mn  Mn9  1  0.72233000  0.72945300  0.66350300  1
  Mn  Mn10  1  0.27767000  0.27054700  0.33649700  1
  Mn  Mn11  1  0.72945300  0.72233000  0.16350300  1
  O  O12  1  0.49599900  0.84637100  0.63029100  1
  O  O13  1  0.84637100  0.49599900  0.13029100  1
  O  O14  1  0.00818200  0.99181800  0.25000000  1
  O  O15  1  0.99181800  0.00818200  0.75000000  1
  O  O16  1  0.31624000  0.11710400  0.96686100  1
  O  O17  1  0.11710400  0.31624000  0.46686100  1
  O  O18  1  0.60078600  0.39921400  0.75000000  1
  O  O19  1  0.88289600  0.68376000  0.53313900  1
  O  O20  1  0.50400100  0.15362900  0.36970900  1
  O  O21  1  0.15362900  0.50400100  0.86970900  1
  O  O22  1  0.68376000  0.88289600  0.03313900  1
  O  O23  1  0.39921400  0.60078600  0.25000000  1
