# generated using pymatgen
data_BaPb
_symmetry_space_group_name_H-M   'P 1'
_cell_length_a   7.00766036
_cell_length_b   7.00766036
_cell_length_c   4.90388300
_cell_angle_alpha   90.00000000
_cell_angle_beta   90.00000000
_cell_angle_gamma   134.72352642
_symmetry_Int_Tables_number   1
_chemical_formula_structural   BaPb
_chemical_formula_sum   'Ba2 Pb2'
_cell_volume   171.10265368
_cell_formula_units_Z   2
loop_
 _symmetry_equiv_pos_site_id
 _symmetry_equiv_pos_as_xyz
  1  'x, y, z'
loop_
 _atom_site_type_symbol
 _atom_site_label
 _atom_site_symmetry_multiplicity
 _atom_site_fract_x
 _atom_site_fract_y
 _atom_site_fract_z
 _atom_site_occupancy
  Ba  Ba0  1  0.86713400  0.13286600  0.75000000  1
  Ba  Ba1  1  0.13286600  0.86713400  0.25000000  1
  Pb  Pb2  1  0.57809100  0.42190900  0.75000000  1
  Pb  Pb3  1  0.42190900  0.57809100  0.25000000  1
