# generated using pymatgen
data_K4BeAs2
_symmetry_space_group_name_H-M   'P 1'
_cell_length_a   9.30037187
_cell_length_b   9.30037187
_cell_length_c   9.30037119
_cell_angle_alpha   35.81626606
_cell_angle_beta   35.81626606
_cell_angle_gamma   35.81626502
_symmetry_Int_Tables_number   1
_chemical_formula_structural   K4BeAs2
_chemical_formula_sum   'K4 Be1 As2'
_cell_volume   246.31852296
_cell_formula_units_Z   1
loop_
 _symmetry_equiv_pos_site_id
 _symmetry_equiv_pos_as_xyz
  1  'x, y, z'
loop_
 _atom_site_type_symbol
 _atom_site_label
 _atom_site_symmetry_multiplicity
 _atom_site_fract_x
 _atom_site_fract_y
 _atom_site_fract_z
 _atom_site_occupancy
  K  K0  1  0.62387800  0.62387800  0.62387800  1
  K  K1  1  0.37612200  0.37612200  0.37612200  1
  K  K2  1  0.20854300  0.20854300  0.20854300  1
  K  K3  1  0.79145700  0.79145700  0.79145700  1
  Be  Be4  1  0.00000000  0.00000000  0.00000000  1
  As  As5  1  0.91986700  0.91986700  0.91986700  1
  As  As6  1  0.08013300  0.08013300  0.08013300  1
