# generated using pymatgen
data_Sn4OF6
_symmetry_space_group_name_H-M   'P 1'
_cell_length_a   5.12763600
_cell_length_b   10.93393000
_cell_length_c   16.58333100
_cell_angle_alpha   90.00000000
_cell_angle_beta   90.00000000
_cell_angle_gamma   90.00000000
_symmetry_Int_Tables_number   1
_chemical_formula_structural   Sn4OF6
_chemical_formula_sum   'Sn16 O4 F24'
_cell_volume   929.74798625
_cell_formula_units_Z   4
loop_
 _symmetry_equiv_pos_site_id
 _symmetry_equiv_pos_as_xyz
  1  'x, y, z'
loop_
 _atom_site_type_symbol
 _atom_site_label
 _atom_site_symmetry_multiplicity
 _atom_site_fract_x
 _atom_site_fract_y
 _atom_site_fract_z
 _atom_site_occupancy
  Sn  Sn0  1  0.46609500  0.59158300  0.51782000  1
  Sn  Sn1  1  0.96609500  0.90841700  0.48218000  1
  Sn  Sn2  1  0.53390500  0.09158300  0.98218000  1
  Sn  Sn3  1  0.03390500  0.40841700  0.01782000  1
  Sn  Sn4  1  0.46238500  0.47035100  0.19043000  1
  Sn  Sn5  1  0.96238500  0.02964900  0.80957000  1
  Sn  Sn6  1  0.53761500  0.97035100  0.30957000  1
  Sn  Sn7  1  0.03761500  0.52964900  0.69043000  1
  Sn  Sn8  1  0.96422300  0.70135200  0.31537500  1
  Sn  Sn9  1  0.46422300  0.79864800  0.68462500  1
  Sn  Sn10  1  0.03577700  0.20135200  0.18462500  1
  Sn  Sn11  1  0.53577700  0.29864800  0.81537500  1
  Sn  Sn12  1  0.87071100  0.30510400  0.41007700  1
  Sn  Sn13  1  0.37071100  0.19489600  0.58992300  1
  Sn  Sn14  1  0.12928900  0.80510400  0.08992300  1
  Sn  Sn15  1  0.62928900  0.69489600  0.91007700  1
  O  O16  1  0.17509600  0.36465200  0.13344500  1
  O  O17  1  0.67509600  0.13534800  0.86655500  1
  O  O18  1  0.82490400  0.86465200  0.36655500  1
  O  O19  1  0.32490400  0.63534800  0.63344500  1
  F  F20  1  0.65809900  0.47510400  0.07695900  1
  F  F21  1  0.15809900  0.02489600  0.92304100  1
  F  F22  1  0.34190100  0.97510400  0.42304100  1
  F  F23  1  0.84190100  0.52489600  0.57695900  1
  F  F24  1  0.19670100  0.62021700  0.12096400  1
  F  F25  1  0.69670100  0.87978300  0.87903600  1
  F  F26  1  0.80329900  0.12021700  0.37903600  1
  F  F27  1  0.30329900  0.37978300  0.62096400  1
  F  F28  1  0.73404800  0.23391800  0.53472900  1
  F  F29  1  0.23404800  0.26608200  0.46527100  1
  F  F30  1  0.26595200  0.73391800  0.96527100  1
  F  F31  1  0.76595200  0.76608200  0.03472900  1
  F  F32  1  0.36558300  0.70628500  0.79637600  1
  F  F33  1  0.86558300  0.79371500  0.20362400  1
  F  F34  1  0.63441700  0.20628500  0.70362400  1
  F  F35  1  0.13441700  0.29371500  0.29637600  1
  F  F36  1  0.63895900  0.76989800  0.53855800  1
  F  F37  1  0.13895900  0.73010200  0.46144200  1
  F  F38  1  0.36104100  0.26989800  0.96144200  1
  F  F39  1  0.86104100  0.23010200  0.03855800  1
  F  F40  1  0.83905200  0.71904400  0.70549900  1
  F  F41  1  0.33905200  0.78095600  0.29450100  1
  F  F42  1  0.16094800  0.21904400  0.79450100  1
  F  F43  1  0.66094800  0.28095600  0.20549900  1
