# generated using pymatgen
data_NaBiO2
_symmetry_space_group_name_H-M   'P 1'
_cell_length_a   5.20408104
_cell_length_b   5.20408104
_cell_length_c   5.96858463
_cell_angle_alpha   64.58843912
_cell_angle_beta   64.58843912
_cell_angle_gamma   89.43017585
_symmetry_Int_Tables_number   1
_chemical_formula_structural   NaBiO2
_chemical_formula_sum   'Na2 Bi2 O4'
_cell_volume   128.83745430
_cell_formula_units_Z   2
loop_
 _symmetry_equiv_pos_site_id
 _symmetry_equiv_pos_as_xyz
  1  'x, y, z'
loop_
 _atom_site_type_symbol
 _atom_site_label
 _atom_site_symmetry_multiplicity
 _atom_site_fract_x
 _atom_site_fract_y
 _atom_site_fract_z
 _atom_site_occupancy
  Na  Na0  1  0.37336500  0.62663500  0.75000000  1
  Na  Na1  1  0.62663500  0.37336500  0.25000000  1
  Bi  Bi2  1  0.11567600  0.88432400  0.25000000  1
  Bi  Bi3  1  0.88432400  0.11567600  0.75000000  1
  O  O4  1  0.70611000  0.86544000  0.24584700  1
  O  O5  1  0.13456000  0.29389000  0.25415300  1
  O  O6  1  0.86544000  0.70611000  0.74584700  1
  O  O7  1  0.29389000  0.13456000  0.75415300  1
