# generated using pymatgen
data_KGaBr4
_symmetry_space_group_name_H-M   'P 1'
_cell_length_a   13.62097026
_cell_length_b   13.62097026
_cell_length_c   13.62096960
_cell_angle_alpha   115.19848652
_cell_angle_beta   115.19848652
_cell_angle_gamma   115.19848387
_symmetry_Int_Tables_number   1
_chemical_formula_structural   KGaBr4
_chemical_formula_sum   'K6 Ga6 Br24'
_cell_volume   1388.40648726
_cell_formula_units_Z   6
loop_
 _symmetry_equiv_pos_site_id
 _symmetry_equiv_pos_as_xyz
  1  'x, y, z'
loop_
 _atom_site_type_symbol
 _atom_site_label
 _atom_site_symmetry_multiplicity
 _atom_site_fract_x
 _atom_site_fract_y
 _atom_site_fract_z
 _atom_site_occupancy
  K  K0  1  0.88283300  0.69337100  0.09765100  1
  K  K1  1  0.09765100  0.88283300  0.69337100  1
  K  K2  1  0.69337100  0.09765100  0.88283300  1
  K  K3  1  0.19337100  0.38283300  0.59765100  1
  K  K4  1  0.59765100  0.19337100  0.38283300  1
  K  K5  1  0.38283300  0.59765100  0.19337100  1
  Ga  Ga6  1  0.87204200  0.08389600  0.68732800  1
  Ga  Ga7  1  0.68732800  0.87204200  0.08389600  1
  Ga  Ga8  1  0.08389600  0.68732800  0.87204200  1
  Ga  Ga9  1  0.58389600  0.37204200  0.18732800  1
  Ga  Ga10  1  0.18732800  0.58389600  0.37204200  1
  Ga  Ga11  1  0.37204200  0.18732800  0.58389600  1
  Br  Br12  1  0.96398100  0.12200600  0.90446200  1
  Br  Br13  1  0.90446200  0.96398100  0.12200600  1
  Br  Br14  1  0.12200600  0.90446200  0.96398100  1
  Br  Br15  1  0.62200600  0.46398100  0.40446200  1
  Br  Br16  1  0.40446200  0.62200600  0.46398100  1
  Br  Br17  1  0.46398100  0.40446200  0.62200600  1
  Br  Br18  1  0.07667500  0.32449800  0.78471300  1
  Br  Br19  1  0.78471300  0.07667500  0.32449800  1
  Br  Br20  1  0.32449800  0.78471300  0.07667500  1
  Br  Br21  1  0.82449800  0.57667500  0.28471300  1
  Br  Br22  1  0.28471300  0.82449800  0.57667500  1
  Br  Br23  1  0.57667500  0.28471300  0.82449800  1
  Br  Br24  1  0.63839600  0.02215100  0.56361100  1
  Br  Br25  1  0.56361100  0.63839600  0.02215100  1
  Br  Br26  1  0.02215100  0.56361100  0.63839600  1
  Br  Br27  1  0.52215100  0.13839600  0.06361100  1
  Br  Br28  1  0.06361100  0.52215100  0.13839600  1
  Br  Br29  1  0.13839600  0.06361100  0.52215100  1
  Br  Br30  1  0.80336800  0.86442900  0.49238800  1
  Br  Br31  1  0.49238800  0.80336800  0.86442900  1
  Br  Br32  1  0.86442900  0.49238800  0.80336800  1
  Br  Br33  1  0.36442900  0.30336800  0.99238800  1
  Br  Br34  1  0.99238800  0.36442900  0.30336800  1
  Br  Br35  1  0.30336800  0.99238800  0.36442900  1
