# generated using pymatgen
data_Lu(ClO4)3
_symmetry_space_group_name_H-M   'P 1'
_cell_length_a   9.36615419
_cell_length_b   9.36615419
_cell_length_c   9.36615323
_cell_angle_alpha   52.18689382
_cell_angle_beta   52.18689382
_cell_angle_gamma   52.18689282
_symmetry_Int_Tables_number   1
_chemical_formula_structural   Lu(ClO4)3
_chemical_formula_sum   'Lu2 Cl6 O24'
_cell_volume   474.32499372
_cell_formula_units_Z   2
loop_
 _symmetry_equiv_pos_site_id
 _symmetry_equiv_pos_as_xyz
  1  'x, y, z'
loop_
 _atom_site_type_symbol
 _atom_site_label
 _atom_site_symmetry_multiplicity
 _atom_site_fract_x
 _atom_site_fract_y
 _atom_site_fract_z
 _atom_site_occupancy
  Lu  Lu0  1  0.94163900  0.94163900  0.94163900  1
  Lu  Lu1  1  0.44163900  0.44163900  0.44163900  1
  Cl  Cl2  1  0.53586200  0.15912900  0.80473600  1
  Cl  Cl3  1  0.15912900  0.80473600  0.53586200  1
  Cl  Cl4  1  0.80473600  0.53586200  0.15912900  1
  Cl  Cl5  1  0.65912900  0.03586200  0.30473600  1
  Cl  Cl6  1  0.03586200  0.30473600  0.65912900  1
  Cl  Cl7  1  0.30473600  0.65912900  0.03586200  1
  O  O8  1  0.72144100  0.11666300  0.79354800  1
  O  O9  1  0.11666300  0.79354800  0.72144100  1
  O  O10  1  0.79354800  0.72144100  0.11666300  1
  O  O11  1  0.61666300  0.22144100  0.29354800  1
  O  O12  1  0.22144100  0.29354800  0.61666300  1
  O  O13  1  0.29354800  0.61666300  0.22144100  1
  O  O14  1  0.42476300  0.37344900  0.74292000  1
  O  O15  1  0.37344900  0.74292000  0.42476300  1
  O  O16  1  0.49355600  0.55437500  0.92787100  1
  O  O17  1  0.92787100  0.49355600  0.55437500  1
  O  O18  1  0.55437500  0.92787100  0.49355600  1
  O  O19  1  0.99355600  0.42787100  0.05437500  1
  O  O20  1  0.05437500  0.99355600  0.42787100  1
  O  O21  1  0.42787100  0.05437500  0.99355600  1
  O  O22  1  0.14975800  0.61527600  0.08251400  1
  O  O23  1  0.08251400  0.14975800  0.61527600  1
  O  O24  1  0.61527600  0.08251400  0.14975800  1
  O  O25  1  0.64975800  0.58251400  0.11527600  1
  O  O26  1  0.11527600  0.64975800  0.58251400  1
  O  O27  1  0.58251400  0.11527600  0.64975800  1
  O  O28  1  0.24292000  0.87344900  0.92476300  1
  O  O29  1  0.92476300  0.24292000  0.87344900  1
  O  O30  1  0.87344900  0.92476300  0.24292000  1
  O  O31  1  0.74292000  0.42476300  0.37344900  1
