# generated using pymatgen
data_TbMnSi
_symmetry_space_group_name_H-M   'P 1'
_cell_length_a   3.93086600
_cell_length_b   3.93086600
_cell_length_c   7.18227500
_cell_angle_alpha   90.00000000
_cell_angle_beta   90.00000000
_cell_angle_gamma   90.00000000
_symmetry_Int_Tables_number   1
_chemical_formula_structural   TbMnSi
_chemical_formula_sum   'Tb2 Mn2 Si2'
_cell_volume   110.97841256
_cell_formula_units_Z   2
loop_
 _symmetry_equiv_pos_site_id
 _symmetry_equiv_pos_as_xyz
  1  'x, y, z'
loop_
 _atom_site_type_symbol
 _atom_site_label
 _atom_site_symmetry_multiplicity
 _atom_site_fract_x
 _atom_site_fract_y
 _atom_site_fract_z
 _atom_site_occupancy
  Tb  Tb0  1  0.50000000  0.00000000  0.67070700  1
  Tb  Tb1  1  0.00000000  0.50000000  0.32929300  1
  Mn  Mn2  1  0.50000000  0.50000000  0.00000000  1
  Mn  Mn3  1  0.00000000  0.00000000  0.00000000  1
  Si  Si4  1  0.00000000  0.50000000  0.80051200  1
  Si  Si5  1  0.50000000  0.00000000  0.19948800  1
