# generated using pymatgen
data_Te2Os
_symmetry_space_group_name_H-M   'P 1'
_cell_length_a   6.47121200
_cell_length_b   6.47121200
_cell_length_c   6.47121200
_cell_angle_alpha   90.00000000
_cell_angle_beta   90.00000000
_cell_angle_gamma   90.00000000
_symmetry_Int_Tables_number   1
_chemical_formula_structural   Te2Os
_chemical_formula_sum   'Te8 Os4'
_cell_volume   270.99225775
_cell_formula_units_Z   4
loop_
 _symmetry_equiv_pos_site_id
 _symmetry_equiv_pos_as_xyz
  1  'x, y, z'
loop_
 _atom_site_type_symbol
 _atom_site_label
 _atom_site_symmetry_multiplicity
 _atom_site_fract_x
 _atom_site_fract_y
 _atom_site_fract_z
 _atom_site_occupancy
  Te  Te0  1  0.37214700  0.12785300  0.87214700  1
  Te  Te1  1  0.12785300  0.87214700  0.37214700  1
  Te  Te2  1  0.87214700  0.37214700  0.12785300  1
  Te  Te3  1  0.62785300  0.62785300  0.62785300  1
  Te  Te4  1  0.37214700  0.37214700  0.37214700  1
  Te  Te5  1  0.12785300  0.62785300  0.87214700  1
  Te  Te6  1  0.87214700  0.12785300  0.62785300  1
  Te  Te7  1  0.62785300  0.87214700  0.12785300  1
  Os  Os8  1  0.00000000  0.50000000  0.50000000  1
  Os  Os9  1  0.50000000  0.50000000  0.00000000  1
  Os  Os10  1  0.50000000  0.00000000  0.50000000  1
  Os  Os11  1  0.00000000  0.00000000  0.00000000  1
