# generated using pymatgen
data_LiH2N
_symmetry_space_group_name_H-M   'P 1'
_cell_length_a   6.37532106
_cell_length_b   6.37532106
_cell_length_c   6.37532106
_cell_angle_alpha   132.98850123
_cell_angle_beta   132.98850123
_cell_angle_gamma   68.67220650
_symmetry_Int_Tables_number   1
_chemical_formula_structural   LiH2N
_chemical_formula_sum   'Li4 H8 N4'
_cell_volume   136.14788037
_cell_formula_units_Z   4
loop_
 _symmetry_equiv_pos_site_id
 _symmetry_equiv_pos_as_xyz
  1  'x, y, z'
loop_
 _atom_site_type_symbol
 _atom_site_label
 _atom_site_symmetry_multiplicity
 _atom_site_fract_x
 _atom_site_fract_y
 _atom_site_fract_z
 _atom_site_occupancy
  Li  Li0  1  0.00000000  0.00000000  0.00000000  1
  Li  Li1  1  0.25000000  0.75000000  0.50000000  1
  Li  Li2  1  0.49211000  0.99211000  0.50000000  1
  Li  Li3  1  0.00789000  0.50789000  0.50000000  1
  H  H4  1  0.69407700  0.58408100  0.65719400  1
  H  H5  1  0.92688700  0.03688300  0.34280600  1
  H  H6  1  0.96311700  0.30592300  0.89000400  1
  H  H7  1  0.41591900  0.07311300  0.10999600  1
  H  H8  1  0.54194700  0.46927900  0.25793800  1
  H  H9  1  0.21134100  0.28400900  0.74206200  1
  H  H10  1  0.71599100  0.45805300  0.92733200  1
  H  H11  1  0.53072100  0.78865900  0.07266800  1
  N  N12  1  0.63970600  0.65843300  0.52654500  1
  N  N13  1  0.13188800  0.11316100  0.47345500  1
  N  N14  1  0.88683900  0.36029400  0.01872800  1
  N  N15  1  0.34156700  0.86811200  0.98127200  1
