# generated using pymatgen
data_Ca2PI
_symmetry_space_group_name_H-M   'P 1'
_cell_length_a   7.89063765
_cell_length_b   7.89063765
_cell_length_c   7.89063792
_cell_angle_alpha   31.70174695
_cell_angle_beta   31.70174695
_cell_angle_gamma   31.70174112
_symmetry_Int_Tables_number   1
_chemical_formula_structural   Ca2PI
_chemical_formula_sum   'Ca2 P1 I1'
_cell_volume   120.48392955
_cell_formula_units_Z   1
loop_
 _symmetry_equiv_pos_site_id
 _symmetry_equiv_pos_as_xyz
  1  'x, y, z'
loop_
 _atom_site_type_symbol
 _atom_site_label
 _atom_site_symmetry_multiplicity
 _atom_site_fract_x
 _atom_site_fract_y
 _atom_site_fract_z
 _atom_site_occupancy
  Ca  Ca0  1  0.77072000  0.77072000  0.77072000  1
  Ca  Ca1  1  0.22928000  0.22928000  0.22928000  1
  P  P2  1  0.50000000  0.50000000  0.50000000  1
  I  I3  1  0.00000000  0.00000000  0.00000000  1
