# generated using pymatgen
data_Bi2WO6
_symmetry_space_group_name_H-M   'P 1'
_cell_length_a   5.48650800
_cell_length_b   5.51803500
_cell_length_c   17.10778100
_cell_angle_alpha   90.00000000
_cell_angle_beta   90.00000000
_cell_angle_gamma   90.00000000
_symmetry_Int_Tables_number   1
_chemical_formula_structural   Bi2WO6
_chemical_formula_sum   'Bi8 W4 O24'
_cell_volume   517.93367601
_cell_formula_units_Z   4
loop_
 _symmetry_equiv_pos_site_id
 _symmetry_equiv_pos_as_xyz
  1  'x, y, z'
loop_
 _atom_site_type_symbol
 _atom_site_label
 _atom_site_symmetry_multiplicity
 _atom_site_fract_x
 _atom_site_fract_y
 _atom_site_fract_z
 _atom_site_occupancy
  Bi  Bi0  1  0.02441300  0.01937600  0.92436000  1
  Bi  Bi1  1  0.97558700  0.51937600  0.07564000  1
  Bi  Bi2  1  0.47558700  0.51937600  0.92436000  1
  Bi  Bi3  1  0.52441300  0.01937600  0.07564000  1
  Bi  Bi4  1  0.97561400  0.03513400  0.57556200  1
  Bi  Bi5  1  0.02438600  0.53513400  0.42443800  1
  Bi  Bi6  1  0.52438600  0.53513400  0.57556200  1
  Bi  Bi7  1  0.47561400  0.03513400  0.42443800  1
  W  W8  1  0.49715000  0.97429300  0.75020200  1
  W  W9  1  0.50285000  0.47429300  0.24979800  1
  W  W10  1  0.00285000  0.47429300  0.75020200  1
  W  W11  1  0.99715000  0.97429300  0.24979800  1
  O  O12  1  0.91531800  0.42917000  0.64315400  1
  O  O13  1  0.08468200  0.92917000  0.35684600  1
  O  O14  1  0.58468200  0.92917000  0.64315400  1
  O  O15  1  0.41531800  0.42917000  0.35684600  1
  O  O16  1  0.27469600  0.66992200  0.72910200  1
  O  O17  1  0.72530400  0.16992200  0.27089800  1
  O  O18  1  0.22530400  0.16992200  0.72910200  1
  O  O19  1  0.77469600  0.66992200  0.27089800  1
  O  O20  1  0.78275000  0.72433800  0.77112700  1
  O  O21  1  0.21725000  0.22433800  0.22887300  1
  O  O22  1  0.71725000  0.22433800  0.77112700  1
  O  O23  1  0.28275000  0.72433800  0.22887300  1
  O  O24  1  0.91849800  0.91360400  0.14265500  1
  O  O25  1  0.08150200  0.41360400  0.85734500  1
  O  O26  1  0.58150200  0.41360400  0.14265500  1
  O  O27  1  0.41849800  0.91360400  0.85734500  1
  O  O28  1  0.73923100  0.74334100  0.99947500  1
  O  O29  1  0.26076900  0.24334100  0.00052500  1
  O  O30  1  0.76076900  0.24334100  0.99947500  1
  O  O31  1  0.23923100  0.74334100  0.00052500  1
  O  O32  1  0.76030800  0.75932100  0.49932500  1
  O  O33  1  0.23969200  0.25932100  0.50067500  1
  O  O34  1  0.73969200  0.25932100  0.49932500  1
  O  O35  1  0.26030800  0.75932100  0.50067500  1
