# generated using pymatgen
data_AsI3
_symmetry_space_group_name_H-M   'P 1'
_cell_length_a   8.61184317
_cell_length_b   8.61184317
_cell_length_c   8.61184261
_cell_angle_alpha   51.07233755
_cell_angle_beta   51.07233755
_cell_angle_gamma   51.07233639
_symmetry_Int_Tables_number   1
_chemical_formula_structural   AsI3
_chemical_formula_sum   'As2 I6'
_cell_volume   356.59098922
_cell_formula_units_Z   2
loop_
 _symmetry_equiv_pos_site_id
 _symmetry_equiv_pos_as_xyz
  1  'x, y, z'
loop_
 _atom_site_type_symbol
 _atom_site_label
 _atom_site_symmetry_multiplicity
 _atom_site_fract_x
 _atom_site_fract_y
 _atom_site_fract_z
 _atom_site_occupancy
  As  As0  1  0.18025100  0.18025100  0.18025100  1
  As  As1  1  0.81974900  0.81974900  0.81974900  1
  I  I2  1  0.05789100  0.43358800  0.77805200  1
  I  I3  1  0.43358800  0.77805200  0.05789100  1
  I  I4  1  0.77805200  0.05789100  0.43358800  1
  I  I5  1  0.94210900  0.56641200  0.22194800  1
  I  I6  1  0.56641200  0.22194800  0.94210900  1
  I  I7  1  0.22194800  0.94210900  0.56641200  1
