# generated using pymatgen
data_Na2Mn3Cl8
_symmetry_space_group_name_H-M   'P 1'
_cell_length_a   7.88146632
_cell_length_b   7.88146632
_cell_length_c   7.88146574
_cell_angle_alpha   56.83161528
_cell_angle_beta   56.83161528
_cell_angle_gamma   56.83161857
_symmetry_Int_Tables_number   1
_chemical_formula_structural   Na2Mn3Cl8
_chemical_formula_sum   'Na2 Mn3 Cl8'
_cell_volume   320.87167542
_cell_formula_units_Z   1
loop_
 _symmetry_equiv_pos_site_id
 _symmetry_equiv_pos_as_xyz
  1  'x, y, z'
loop_
 _atom_site_type_symbol
 _atom_site_label
 _atom_site_symmetry_multiplicity
 _atom_site_fract_x
 _atom_site_fract_y
 _atom_site_fract_z
 _atom_site_occupancy
  Na  Na0  1  0.15868500  0.15868500  0.15868500  1
  Na  Na1  1  0.84131500  0.84131500  0.84131500  1
  Mn  Mn2  1  0.50000000  0.50000000  0.00000000  1
  Mn  Mn3  1  0.00000000  0.50000000  0.50000000  1
  Mn  Mn4  1  0.50000000  0.00000000  0.50000000  1
  Cl  Cl5  1  0.57665600  0.10332800  0.10332800  1
  Cl  Cl6  1  0.10332800  0.10332800  0.57665600  1
  Cl  Cl7  1  0.59623000  0.59623000  0.59623000  1
  Cl  Cl8  1  0.40377000  0.40377000  0.40377000  1
  Cl  Cl9  1  0.89667200  0.89667200  0.42334400  1
  Cl  Cl10  1  0.42334400  0.89667200  0.89667200  1
  Cl  Cl11  1  0.89667200  0.42334400  0.89667200  1
  Cl  Cl12  1  0.10332800  0.57665600  0.10332800  1
