# generated using pymatgen
data_RbZn2P2HO8
_symmetry_space_group_name_H-M   'P 1'
_cell_length_a   5.32866700
_cell_length_b   8.98167845
_cell_length_c   9.88787007
_cell_angle_alpha   75.27853477
_cell_angle_beta   77.57476007
_cell_angle_gamma   73.55920744
_symmetry_Int_Tables_number   1
_chemical_formula_structural   RbZn2P2HO8
_chemical_formula_sum   'Rb2 Zn4 P4 H2 O16'
_cell_volume   433.72236505
_cell_formula_units_Z   2
loop_
 _symmetry_equiv_pos_site_id
 _symmetry_equiv_pos_as_xyz
  1  'x, y, z'
loop_
 _atom_site_type_symbol
 _atom_site_label
 _atom_site_symmetry_multiplicity
 _atom_site_fract_x
 _atom_site_fract_y
 _atom_site_fract_z
 _atom_site_occupancy
  Rb  Rb0  1  0.70851300  0.70486800  0.82288900  1
  Rb  Rb1  1  0.29148700  0.29513200  0.17711100  1
  Zn  Zn2  1  0.80905700  0.88794300  0.38857300  1
  Zn  Zn3  1  0.19094300  0.11205700  0.61142700  1
  Zn  Zn4  1  0.61071900  0.61694200  0.27294500  1
  Zn  Zn5  1  0.38928100  0.38305800  0.72705500  1
  P  P6  1  0.10527500  0.75384500  0.11250700  1
  P  P7  1  0.89472500  0.24615500  0.88749300  1
  P  P8  1  0.66927800  0.24376600  0.44991600  1
  P  P9  1  0.33072200  0.75623400  0.55008400  1
  H  H10  1  0.05958900  0.92450600  0.90239300  1
  H  H11  1  0.94041100  0.07549400  0.09760700  1
  O  O12  1  0.96765800  0.89826300  0.18395900  1
  O  O13  1  0.03234200  0.10173700  0.81604100  1
  O  O14  1  0.06680700  0.80880600  0.94981900  1
  O  O15  1  0.93319300  0.19119400  0.05018100  1
  O  O16  1  0.64394300  0.11115700  0.38360500  1
  O  O17  1  0.35605700  0.88884300  0.61639500  1
  O  O18  1  0.95222000  0.22496100  0.47605800  1
  O  O19  1  0.04778000  0.77503900  0.52394200  1
  O  O20  1  0.59493700  0.29852800  0.88538600  1
  O  O21  1  0.40506300  0.70147200  0.11461400  1
  O  O22  1  0.42596400  0.59745100  0.65009800  1
  O  O23  1  0.57403600  0.40254900  0.34990200  1
  O  O24  1  0.46986300  0.23421300  0.59561700  1
  O  O25  1  0.53013700  0.76578700  0.40438300  1
  O  O26  1  0.02459800  0.38597700  0.82493800  1
  O  O27  1  0.97540200  0.61402300  0.17506200  1
