# generated using pymatgen
data_NbAs
_symmetry_space_group_name_H-M   'P 1'
_cell_length_a   6.37610007
_cell_length_b   6.37610007
_cell_length_c   6.37610007
_cell_angle_alpha   148.28319323
_cell_angle_beta   148.28319323
_cell_angle_gamma   45.46748885
_symmetry_Int_Tables_number   1
_chemical_formula_structural   NbAs
_chemical_formula_sum   'Nb2 As2'
_cell_volume   71.40977341
_cell_formula_units_Z   2
loop_
 _symmetry_equiv_pos_site_id
 _symmetry_equiv_pos_as_xyz
  1  'x, y, z'
loop_
 _atom_site_type_symbol
 _atom_site_label
 _atom_site_symmetry_multiplicity
 _atom_site_fract_x
 _atom_site_fract_y
 _atom_site_fract_z
 _atom_site_occupancy
  Nb  Nb0  1  0.74934300  0.74934300  0.00000000  1
  Nb  Nb1  1  0.49934300  0.99934300  0.50000000  1
  As  As2  1  0.16765700  0.16765700  0.00000000  1
  As  As3  1  0.91765700  0.41765700  0.50000000  1
