# generated using pymatgen
data_P4(S2O)3
_symmetry_space_group_name_H-M   'P 1'
_cell_length_a   13.00308700
_cell_length_b   6.96540600
_cell_length_c   7.72427162
_cell_angle_alpha   75.45393447
_cell_angle_beta   90.00000000
_cell_angle_gamma   90.00000000
_symmetry_Int_Tables_number   1
_chemical_formula_structural   P4(S2O)3
_chemical_formula_sum   'P8 S12 O6'
_cell_volume   677.17603650
_cell_formula_units_Z   2
loop_
 _symmetry_equiv_pos_site_id
 _symmetry_equiv_pos_as_xyz
  1  'x, y, z'
loop_
 _atom_site_type_symbol
 _atom_site_label
 _atom_site_symmetry_multiplicity
 _atom_site_fract_x
 _atom_site_fract_y
 _atom_site_fract_z
 _atom_site_occupancy
  P  P0  1  0.86450800  0.17911600  0.17817300  1
  P  P1  1  0.25000000  0.19321500  0.95706500  1
  P  P2  1  0.36450800  0.82088400  0.82182700  1
  P  P3  1  0.13549200  0.82088400  0.82182700  1
  P  P4  1  0.63549200  0.17911600  0.17817300  1
  P  P5  1  0.25000000  0.70709000  0.16609100  1
  P  P6  1  0.75000000  0.80678500  0.04293500  1
  P  P7  1  0.75000000  0.29291000  0.83390900  1
  S  S8  1  0.97273800  0.28153600  0.29207900  1
  S  S9  1  0.47273800  0.71846400  0.70792100  1
  S  S10  1  0.02726200  0.71846400  0.70792100  1
  S  S11  1  0.52726200  0.28153600  0.29207900  1
  S  S12  1  0.75000000  0.50398300  0.62442200  1
  S  S13  1  0.25000000  0.49601700  0.37557800  1
  S  S14  1  0.88116400  0.88029500  0.18155900  1
  S  S15  1  0.61883600  0.88029500  0.18155900  1
  S  S16  1  0.11883600  0.11970500  0.81844100  1
  S  S17  1  0.25000000  0.98796100  0.21503100  1
  S  S18  1  0.75000000  0.01203900  0.78496900  1
  S  S19  1  0.38116400  0.11970500  0.81844100  1
  O  O20  1  0.65259000  0.29539300  0.96770400  1
  O  O21  1  0.25000000  0.80104100  0.73921100  1
  O  O22  1  0.84741000  0.29539300  0.96770400  1
  O  O23  1  0.34741000  0.70460700  0.03229600  1
  O  O24  1  0.15259000  0.70460700  0.03229600  1
  O  O25  1  0.75000000  0.19895900  0.26078900  1
