# generated using pymatgen
data_ZnH2SeO5
_symmetry_space_group_name_H-M   'P 1'
_cell_length_a   5.41962510
_cell_length_b   5.41962510
_cell_length_c   7.75987460
_cell_angle_alpha   73.63835506
_cell_angle_beta   73.63835506
_cell_angle_gamma   98.59556203
_symmetry_Int_Tables_number   1
_chemical_formula_structural   ZnH2SeO5
_chemical_formula_sum   'Zn2 H4 Se2 O10'
_cell_volume   203.25457270
_cell_formula_units_Z   2
loop_
 _symmetry_equiv_pos_site_id
 _symmetry_equiv_pos_as_xyz
  1  'x, y, z'
loop_
 _atom_site_type_symbol
 _atom_site_label
 _atom_site_symmetry_multiplicity
 _atom_site_fract_x
 _atom_site_fract_y
 _atom_site_fract_z
 _atom_site_occupancy
  Zn  Zn0  1  0.50000000  0.00000000  0.00000000  1
  Zn  Zn1  1  0.00000000  0.50000000  0.50000000  1
  H  H2  1  0.96789500  0.86465900  0.20409300  1
  H  H3  1  0.13534100  0.03210500  0.29590700  1
  H  H4  1  0.03210500  0.13534100  0.79590700  1
  H  H5  1  0.86465900  0.96789500  0.70409300  1
  Se  Se6  1  0.41268100  0.58731900  0.75000000  1
  Se  Se7  1  0.58731900  0.41268100  0.25000000  1
  O  O8  1  0.28345500  0.68951400  0.57912500  1
  O  O9  1  0.31048600  0.71654500  0.92087500  1
  O  O10  1  0.71654500  0.31048600  0.42087500  1
  O  O11  1  0.68951400  0.28345500  0.07912500  1
  O  O12  1  0.31282000  0.25312100  0.84504100  1
  O  O13  1  0.74687900  0.68718000  0.65495900  1
  O  O14  1  0.68718000  0.74687900  0.15495900  1
  O  O15  1  0.25312100  0.31282000  0.34504100  1
  O  O16  1  0.87672700  0.12327300  0.75000000  1
  O  O17  1  0.12327300  0.87672700  0.25000000  1
