# generated using pymatgen
data_AsF3
_symmetry_space_group_name_H-M   'P 1'
_cell_length_a   5.37991400
_cell_length_b   7.11794200
_cell_length_c   7.46926500
_cell_angle_alpha   90.00000000
_cell_angle_beta   90.00000000
_cell_angle_gamma   90.00000000
_symmetry_Int_Tables_number   1
_chemical_formula_structural   AsF3
_chemical_formula_sum   'As4 F12'
_cell_volume   286.02740512
_cell_formula_units_Z   4
loop_
 _symmetry_equiv_pos_site_id
 _symmetry_equiv_pos_as_xyz
  1  'x, y, z'
loop_
 _atom_site_type_symbol
 _atom_site_label
 _atom_site_symmetry_multiplicity
 _atom_site_fract_x
 _atom_site_fract_y
 _atom_site_fract_z
 _atom_site_occupancy
  As  As0  1  0.45658600  0.21558600  0.75186800  1
  As  As1  1  0.54341400  0.78441400  0.25186800  1
  As  As2  1  0.04341400  0.71558600  0.75186800  1
  As  As3  1  0.95658600  0.28441400  0.25186800  1
  F  F4  1  0.19325900  0.32054300  0.64674500  1
  F  F5  1  0.80674100  0.67945700  0.14674500  1
  F  F6  1  0.30674100  0.82054300  0.64674500  1
  F  F7  1  0.69325900  0.17945700  0.14674500  1
  F  F8  1  0.09008900  0.06463000  0.30899500  1
  F  F9  1  0.90991100  0.93537000  0.80899500  1
  F  F10  1  0.40991100  0.56463000  0.30899500  1
  F  F11  1  0.59008900  0.43537000  0.80899500  1
  F  F12  1  0.12328400  0.30607900  0.04719200  1
  F  F13  1  0.87671600  0.69392100  0.54719200  1
  F  F14  1  0.37671600  0.80607900  0.04719200  1
  F  F15  1  0.62328400  0.19392100  0.54719200  1
