# generated using pymatgen
data_PdSe
_symmetry_space_group_name_H-M   'P 1'
_cell_length_a   6.84495800
_cell_length_b   6.84495800
_cell_length_c   7.03218600
_cell_angle_alpha   90.00000000
_cell_angle_beta   90.00000000
_cell_angle_gamma   90.00000000
_symmetry_Int_Tables_number   1
_chemical_formula_structural   PdSe
_chemical_formula_sum   'Pd8 Se8'
_cell_volume   329.48217529
_cell_formula_units_Z   8
loop_
 _symmetry_equiv_pos_site_id
 _symmetry_equiv_pos_as_xyz
  1  'x, y, z'
loop_
 _atom_site_type_symbol
 _atom_site_label
 _atom_site_symmetry_multiplicity
 _atom_site_fract_x
 _atom_site_fract_y
 _atom_site_fract_z
 _atom_site_occupancy
  Pd  Pd0  1  0.52992700  0.73902900  0.00000000  1
  Pd  Pd1  1  0.26097100  0.52992700  0.50000000  1
  Pd  Pd2  1  0.73902900  0.47007300  0.50000000  1
  Pd  Pd3  1  0.47007300  0.26097100  0.00000000  1
  Pd  Pd4  1  0.50000000  0.00000000  0.50000000  1
  Pd  Pd5  1  0.00000000  0.50000000  0.00000000  1
  Pd  Pd6  1  0.00000000  0.00000000  0.75000000  1
  Pd  Pd7  1  0.00000000  0.00000000  0.25000000  1
  Se  Se8  1  0.19431500  0.30738500  0.77189100  1
  Se  Se9  1  0.69261500  0.19431500  0.27189100  1
  Se  Se10  1  0.30738500  0.80568500  0.27189100  1
  Se  Se11  1  0.80568500  0.69261500  0.77189100  1
  Se  Se12  1  0.80568500  0.69261500  0.22810900  1
  Se  Se13  1  0.30738500  0.80568500  0.72810900  1
  Se  Se14  1  0.69261500  0.19431500  0.72810900  1
  Se  Se15  1  0.19431500  0.30738500  0.22810900  1
