# generated using pymatgen
data_Ba(PN2)2
_symmetry_space_group_name_H-M   'P 1'
_cell_length_a   10.34160500
_cell_length_b   10.34160500
_cell_length_c   10.34160500
_cell_angle_alpha   90.00000000
_cell_angle_beta   90.00000000
_cell_angle_gamma   90.00000000
_symmetry_Int_Tables_number   1
_chemical_formula_structural   Ba(PN2)2
_chemical_formula_sum   'Ba12 P24 N48'
_cell_volume   1106.02218253
_cell_formula_units_Z   12
loop_
 _symmetry_equiv_pos_site_id
 _symmetry_equiv_pos_as_xyz
  1  'x, y, z'
loop_
 _atom_site_type_symbol
 _atom_site_label
 _atom_site_symmetry_multiplicity
 _atom_site_fract_x
 _atom_site_fract_y
 _atom_site_fract_z
 _atom_site_occupancy
  Ba  Ba0  1  0.36770000  0.13230000  0.86770000  1
  Ba  Ba1  1  0.13230000  0.86770000  0.36770000  1
  Ba  Ba2  1  0.86770000  0.36770000  0.13230000  1
  Ba  Ba3  1  0.63230000  0.63230000  0.63230000  1
  Ba  Ba4  1  0.63230000  0.86770000  0.13230000  1
  Ba  Ba5  1  0.86770000  0.13230000  0.63230000  1
  Ba  Ba6  1  0.13230000  0.63230000  0.86770000  1
  Ba  Ba7  1  0.36770000  0.36770000  0.36770000  1
  Ba  Ba8  1  0.00000000  0.50000000  0.50000000  1
  Ba  Ba9  1  0.50000000  0.50000000  0.00000000  1
  Ba  Ba10  1  0.50000000  0.00000000  0.50000000  1
  Ba  Ba11  1  0.00000000  0.00000000  0.00000000  1
  P  P12  1  0.68439800  0.33333900  0.39255200  1
  P  P13  1  0.18439800  0.16666100  0.60744800  1
  P  P14  1  0.31560200  0.83333900  0.10744800  1
  P  P15  1  0.16666100  0.60744800  0.18439800  1
  P  P16  1  0.10744800  0.31560200  0.83333900  1
  P  P17  1  0.60744800  0.18439800  0.16666100  1
  P  P18  1  0.33333900  0.39255200  0.68439800  1
  P  P19  1  0.39255200  0.68439800  0.33333900  1
  P  P20  1  0.83333900  0.10744800  0.31560200  1
  P  P21  1  0.66666100  0.89255200  0.81560200  1
  P  P22  1  0.89255200  0.81560200  0.66666100  1
  P  P23  1  0.81560200  0.66666100  0.89255200  1
  P  P24  1  0.31560200  0.66666100  0.60744800  1
  P  P25  1  0.81560200  0.83333900  0.39255200  1
  P  P26  1  0.68439800  0.16666100  0.89255200  1
  P  P27  1  0.83333900  0.39255200  0.81560200  1
  P  P28  1  0.89255200  0.68439800  0.16666100  1
  P  P29  1  0.39255200  0.81560200  0.83333900  1
  P  P30  1  0.66666100  0.60744800  0.31560200  1
  P  P31  1  0.60744800  0.31560200  0.66666100  1
  P  P32  1  0.16666100  0.89255200  0.68439800  1
  P  P33  1  0.33333900  0.10744800  0.18439800  1
  P  P34  1  0.10744800  0.18439800  0.33333900  1
  P  P35  1  0.18439800  0.33333900  0.10744800  1
  N  N36  1  0.71963600  0.48860300  0.40866300  1
  N  N37  1  0.21963600  0.01139700  0.59133700  1
  N  N38  1  0.28036400  0.98860300  0.09133700  1
  N  N39  1  0.01139700  0.59133700  0.21963600  1
  N  N40  1  0.09133700  0.28036400  0.98860300  1
  N  N41  1  0.59133700  0.21963600  0.01139700  1
  N  N42  1  0.48860300  0.40866300  0.71963600  1
  N  N43  1  0.40866300  0.71963600  0.48860300  1
  N  N44  1  0.98860300  0.09133700  0.28036400  1
  N  N45  1  0.51139700  0.90866300  0.78036400  1
  N  N46  1  0.90866300  0.78036400  0.51139700  1
  N  N47  1  0.78036400  0.51139700  0.90866300  1
  N  N48  1  0.28036400  0.51139700  0.59133700  1
  N  N49  1  0.78036400  0.98860300  0.40866300  1
  N  N50  1  0.71963600  0.01139700  0.90866300  1
  N  N51  1  0.98860300  0.40866300  0.78036400  1
  N  N52  1  0.90866300  0.71963600  0.01139700  1
  N  N53  1  0.40866300  0.78036400  0.98860300  1
  N  N54  1  0.51139700  0.59133700  0.28036400  1
  N  N55  1  0.59133700  0.28036400  0.51139700  1
  N  N56  1  0.18066000  0.75091600  0.61066900  1
  N  N57  1  0.01139700  0.90866300  0.71963600  1
  N  N58  1  0.09133700  0.21963600  0.48860300  1
  N  N59  1  0.21963600  0.48860300  0.09133700  1
  N  N60  1  0.81934000  0.24908400  0.38933100  1
  N  N61  1  0.31934000  0.25091600  0.61066900  1
  N  N62  1  0.18066000  0.74908400  0.11066900  1
  N  N63  1  0.25091600  0.61066900  0.31934000  1
  N  N64  1  0.11066900  0.18066000  0.74908400  1
  N  N65  1  0.61066900  0.31934000  0.25091600  1
  N  N66  1  0.24908400  0.38933100  0.81934000  1
  N  N67  1  0.38933100  0.81934000  0.24908400  1
  N  N68  1  0.74908400  0.11066900  0.18066000  1
  N  N69  1  0.75091600  0.88933100  0.68066000  1
  N  N70  1  0.88933100  0.68066000  0.75091600  1
  N  N71  1  0.68066000  0.75091600  0.88933100  1
  N  N72  1  0.31934000  0.24908400  0.11066900  1
  N  N73  1  0.11066900  0.31934000  0.24908400  1
  N  N74  1  0.24908400  0.11066900  0.31934000  1
  N  N75  1  0.25091600  0.88933100  0.81934000  1
  N  N76  1  0.61066900  0.18066000  0.75091600  1
  N  N77  1  0.75091600  0.61066900  0.18066000  1
  N  N78  1  0.38933100  0.68066000  0.74908400  1
  N  N79  1  0.88933100  0.81934000  0.25091600  1
  N  N80  1  0.74908400  0.38933100  0.68066000  1
  N  N81  1  0.81934000  0.25091600  0.88933100  1
  N  N82  1  0.68066000  0.74908400  0.38933100  1
  N  N83  1  0.48860300  0.09133700  0.21963600  1
