# generated using pymatgen
data_NpAsSe
_symmetry_space_group_name_H-M   'P 1'
_cell_length_a   3.98097000
_cell_length_b   3.98097000
_cell_length_c   8.39743000
_cell_angle_alpha   90.00000000
_cell_angle_beta   90.00000000
_cell_angle_gamma   90.00000000
_symmetry_Int_Tables_number   1
_chemical_formula_structural   NpAsSe
_chemical_formula_sum   'Np2 As2 Se2'
_cell_volume   133.08349631
_cell_formula_units_Z   2
loop_
 _symmetry_equiv_pos_site_id
 _symmetry_equiv_pos_as_xyz
  1  'x, y, z'
loop_
 _atom_site_type_symbol
 _atom_site_label
 _atom_site_symmetry_multiplicity
 _atom_site_fract_x
 _atom_site_fract_y
 _atom_site_fract_z
 _atom_site_occupancy
  Np  Np0  1  0.00000000  0.50000000  0.72367000  1
  Np  Np1  1  0.50000000  0.00000000  0.27633000  1
  As  As2  1  0.00000000  0.00000000  0.00000000  1
  As  As3  1  0.50000000  0.50000000  0.00000000  1
  Se  Se4  1  0.50000000  0.00000000  0.63619000  1
  Se  Se5  1  0.00000000  0.50000000  0.36381000  1
