# generated using pymatgen
data_K2SbCl5
_symmetry_space_group_name_H-M   'P 1'
_cell_length_a   12.76840600
_cell_length_b   9.07470600
_cell_length_c   9.09560951
_cell_angle_alpha   70.86047255
_cell_angle_beta   90.00000000
_cell_angle_gamma   90.00000000
_symmetry_Int_Tables_number   1
_chemical_formula_structural   K2SbCl5
_chemical_formula_sum   'K8 Sb4 Cl20'
_cell_volume   995.64729397
_cell_formula_units_Z   4
loop_
 _symmetry_equiv_pos_site_id
 _symmetry_equiv_pos_as_xyz
  1  'x, y, z'
loop_
 _atom_site_type_symbol
 _atom_site_label
 _atom_site_symmetry_multiplicity
 _atom_site_fract_x
 _atom_site_fract_y
 _atom_site_fract_z
 _atom_site_occupancy
  K  K0  1  0.67192800  0.90536200  0.17865800  1
  K  K1  1  0.13135700  0.15598100  0.36858500  1
  K  K2  1  0.63135700  0.34401900  0.63141500  1
  K  K3  1  0.86864300  0.84401900  0.63141500  1
  K  K4  1  0.82807200  0.40536200  0.17865800  1
  K  K5  1  0.32807200  0.09463800  0.82134200  1
  K  K6  1  0.36864300  0.65598100  0.36858500  1
  K  K7  1  0.17192800  0.59463800  0.82134200  1
  Sb  Sb8  1  0.49646200  0.29324000  0.19164800  1
  Sb  Sb9  1  0.99646200  0.20676000  0.80835200  1
  Sb  Sb10  1  0.50353800  0.70676000  0.80835200  1
  Sb  Sb11  1  0.00353800  0.79324000  0.19164800  1
  Cl  Cl12  1  0.88552300  0.63911700  0.39246100  1
  Cl  Cl13  1  0.42457500  0.03542600  0.17133500  1
  Cl  Cl14  1  0.92457500  0.46457400  0.82866500  1
  Cl  Cl15  1  0.57542500  0.96457400  0.82866500  1
  Cl  Cl16  1  0.90639800  0.04111800  0.24674500  1
  Cl  Cl17  1  0.40639800  0.45888200  0.75325500  1
  Cl  Cl18  1  0.09360200  0.95888200  0.75325500  1
  Cl  Cl19  1  0.59360200  0.54111800  0.24674500  1
  Cl  Cl20  1  0.84887300  0.78688000  0.99739900  1
  Cl  Cl21  1  0.34887300  0.71312000  0.00260100  1
  Cl  Cl22  1  0.15112700  0.21312000  0.00260100  1
  Cl  Cl23  1  0.65112700  0.28688000  0.99739900  1
  Cl  Cl24  1  0.13905800  0.79086500  0.41299800  1
  Cl  Cl25  1  0.61447700  0.13911700  0.39246100  1
  Cl  Cl26  1  0.86094200  0.20913500  0.58700200  1
  Cl  Cl27  1  0.36094200  0.29086500  0.41299800  1
  Cl  Cl28  1  0.63905800  0.70913500  0.58700200  1
  Cl  Cl29  1  0.38552300  0.86088300  0.60753900  1
  Cl  Cl30  1  0.11447700  0.36088300  0.60753900  1
  Cl  Cl31  1  0.07542500  0.53542600  0.17133500  1
