# generated using pymatgen
data_NaNb10O18
_symmetry_space_group_name_H-M   'P 1'
_cell_length_a   9.47834700
_cell_length_b   7.93192800
_cell_length_c   10.41917022
_cell_angle_alpha   69.59573163
_cell_angle_beta   90.00000000
_cell_angle_gamma   90.00000000
_symmetry_Int_Tables_number   1
_chemical_formula_structural   NaNb10O18
_chemical_formula_sum   'Na2 Nb20 O36'
_cell_volume   734.18031970
_cell_formula_units_Z   2
loop_
 _symmetry_equiv_pos_site_id
 _symmetry_equiv_pos_as_xyz
  1  'x, y, z'
loop_
 _atom_site_type_symbol
 _atom_site_label
 _atom_site_symmetry_multiplicity
 _atom_site_fract_x
 _atom_site_fract_y
 _atom_site_fract_z
 _atom_site_occupancy
  Na  Na0  1  0.00000000  0.00000000  0.00000000  1
  Na  Na1  1  0.50000000  0.00000000  0.50000000  1
  Nb  Nb2  1  0.38405900  0.00418600  0.83143800  1
  Nb  Nb3  1  0.37001400  0.82010600  0.12320000  1
  Nb  Nb4  1  0.37391700  0.19723700  0.01884600  1
  Nb  Nb5  1  0.36974700  0.60246500  0.43898800  1
  Nb  Nb6  1  0.11594100  0.00418600  0.33143800  1
  Nb  Nb7  1  0.88405900  0.99581400  0.66856200  1
  Nb  Nb8  1  0.12998600  0.82010600  0.62320000  1
  Nb  Nb9  1  0.87001400  0.17989400  0.37680000  1
  Nb  Nb10  1  0.13025300  0.60246500  0.93898800  1
  Nb  Nb11  1  0.11292600  0.39654600  0.72997400  1
  Nb  Nb12  1  0.38707400  0.39654600  0.22997400  1
  Nb  Nb13  1  0.62608300  0.80276300  0.98115400  1
  Nb  Nb14  1  0.86974700  0.39753500  0.06101200  1
  Nb  Nb15  1  0.63025300  0.39753500  0.56101200  1
  Nb  Nb16  1  0.62998600  0.17989400  0.87680000  1
  Nb  Nb17  1  0.61594100  0.99581400  0.16856200  1
  Nb  Nb18  1  0.87391700  0.80276300  0.48115400  1
  Nb  Nb19  1  0.12608300  0.19723700  0.51884600  1
  Nb  Nb20  1  0.61292600  0.60345400  0.77002600  1
  Nb  Nb21  1  0.88707400  0.60345400  0.27002600  1
  O  O22  1  0.98747400  0.19990200  0.19621700  1
  O  O23  1  0.23709100  0.58929500  0.77397300  1
  O  O24  1  0.00516100  0.19962300  0.69747400  1
  O  O25  1  0.48747400  0.80009800  0.30378300  1
  O  O26  1  0.49704300  0.60045700  0.10819100  1
  O  O27  1  0.99483900  0.80037700  0.30252600  1
  O  O28  1  0.49278200  0.39444000  0.40171700  1
  O  O29  1  0.25292200  0.20229000  0.35447300  1
  O  O30  1  0.50295700  0.39954300  0.89180900  1
  O  O31  1  0.73872100  0.98948300  0.34955500  1
  O  O32  1  0.74369400  0.58250300  0.93173400  1
  O  O33  1  0.00295700  0.60045700  0.60819100  1
  O  O34  1  0.23872100  0.01051700  0.15044500  1
  O  O35  1  0.25630600  0.41749700  0.06826600  1
  O  O36  1  0.99278200  0.60556000  0.09828300  1
  O  O37  1  0.75297400  0.19573800  0.03875900  1
  O  O38  1  0.75630600  0.58250300  0.43173400  1
  O  O39  1  0.26127900  0.01051700  0.65044500  1
  O  O40  1  0.74707800  0.79771000  0.64552700  1
  O  O41  1  0.49483900  0.19962300  0.19747400  1
  O  O42  1  0.26290900  0.58929500  0.27397300  1
  O  O43  1  0.25297400  0.80426200  0.46124100  1
  O  O44  1  0.74702600  0.19573800  0.53875900  1
  O  O45  1  0.51252600  0.19990200  0.69621700  1
  O  O46  1  0.99704300  0.39954300  0.39180900  1
  O  O47  1  0.00721800  0.39444000  0.90171700  1
  O  O48  1  0.24707800  0.20229000  0.85447300  1
  O  O49  1  0.50516100  0.80037700  0.80252600  1
  O  O50  1  0.76290900  0.41070500  0.22602700  1
  O  O51  1  0.76127900  0.98948300  0.84955500  1
  O  O52  1  0.50721800  0.60556000  0.59828300  1
  O  O53  1  0.24369400  0.41749700  0.56826600  1
  O  O54  1  0.75292200  0.79771000  0.14552700  1
  O  O55  1  0.73709100  0.41070500  0.72602700  1
  O  O56  1  0.24702600  0.80426200  0.96124100  1
  O  O57  1  0.01252600  0.80009800  0.80378300  1
