# generated using pymatgen
data_LaCoGe
_symmetry_space_group_name_H-M   'P 1'
_cell_length_a   4.18943500
_cell_length_b   4.18943500
_cell_length_c   7.05885200
_cell_angle_alpha   90.00000000
_cell_angle_beta   90.00000000
_cell_angle_gamma   90.00000000
_symmetry_Int_Tables_number   1
_chemical_formula_structural   LaCoGe
_chemical_formula_sum   'La2 Co2 Ge2'
_cell_volume   123.89249230
_cell_formula_units_Z   2
loop_
 _symmetry_equiv_pos_site_id
 _symmetry_equiv_pos_as_xyz
  1  'x, y, z'
loop_
 _atom_site_type_symbol
 _atom_site_label
 _atom_site_symmetry_multiplicity
 _atom_site_fract_x
 _atom_site_fract_y
 _atom_site_fract_z
 _atom_site_occupancy
  La  La0  1  0.50000000  0.00000000  0.31063700  1
  La  La1  1  0.00000000  0.50000000  0.68936300  1
  Co  Co2  1  0.50000000  0.50000000  0.00000000  1
  Co  Co3  1  0.00000000  0.00000000  0.00000000  1
  Ge  Ge4  1  0.00000000  0.50000000  0.17619400  1
  Ge  Ge5  1  0.50000000  0.00000000  0.82380600  1
