# generated using pymatgen
data_KFe(SO4)2
_symmetry_space_group_name_H-M   'P 1'
_cell_length_a   8.31662877
_cell_length_b   9.57491849
_cell_length_c   9.57491837
_cell_angle_alpha   66.11686209
_cell_angle_beta   86.00942190
_cell_angle_gamma   86.00942474
_symmetry_Int_Tables_number   1
_chemical_formula_structural   KFe(SO4)2
_chemical_formula_sum   'K4 Fe4 S8 O32'
_cell_volume   694.76605430
_cell_formula_units_Z   4
loop_
 _symmetry_equiv_pos_site_id
 _symmetry_equiv_pos_as_xyz
  1  'x, y, z'
loop_
 _atom_site_type_symbol
 _atom_site_label
 _atom_site_symmetry_multiplicity
 _atom_site_fract_x
 _atom_site_fract_y
 _atom_site_fract_z
 _atom_site_occupancy
  K  K0  1  0.00000000  0.24999900  0.25000100  1
  K  K1  1  0.00000000  0.74999900  0.75000100  1
  K  K2  1  0.50000000  0.00000100  0.49999900  1
  K  K3  1  0.50000000  0.50000100  0.00000000  1
  Fe  Fe4  1  0.00000100  0.50000600  0.49999400  1
  Fe  Fe5  1  0.50000000  0.24999400  0.75000500  1
  Fe  Fe6  1  0.99999900  0.00000700  0.99999400  1
  Fe  Fe7  1  0.49999900  0.74999400  0.25000600  1
  S  S8  1  0.63179500  0.10113400  0.10115400  1
  S  S9  1  0.63179500  0.60113400  0.60115300  1
  S  S10  1  0.13179500  0.85115400  0.35113500  1
  S  S11  1  0.13179600  0.35115300  0.85113400  1
  S  S12  1  0.36820500  0.39884700  0.39886600  1
  S  S13  1  0.36820500  0.89884600  0.89886600  1
  S  S14  1  0.86820500  0.14886600  0.64884700  1
  S  S15  1  0.86820500  0.64886500  0.14884600  1
  O  O16  1  0.23546700  0.46706900  0.46704900  1
  O  O17  1  0.23546400  0.96706400  0.96705200  1
  O  O18  1  0.73546700  0.21704900  0.71706900  1
  O  O19  1  0.73546400  0.71705200  0.21706400  1
  O  O20  1  0.76453600  0.03294800  0.03293600  1
  O  O21  1  0.76453300  0.53295100  0.53293100  1
  O  O22  1  0.26453600  0.78293600  0.28294800  1
  O  O23  1  0.26453300  0.28293100  0.78295100  1
  O  O24  1  0.31303000  0.31505200  0.31505000  1
  O  O25  1  0.31302900  0.81505300  0.81505100  1
  O  O26  1  0.81303000  0.06504900  0.56505200  1
  O  O27  1  0.81302900  0.56505100  0.06505300  1
  O  O28  1  0.68697100  0.18494900  0.18494700  1
  O  O29  1  0.68697000  0.68495100  0.68494800  1
  O  O30  1  0.18697100  0.93494700  0.43494900  1
  O  O31  1  0.18697000  0.43494800  0.93495100  1
  O  O32  1  0.47131800  0.52608800  0.29342500  1
  O  O33  1  0.47132100  0.02608200  0.79342400  1
  O  O34  1  0.97132600  0.27606800  0.54342100  1
  O  O35  1  0.97132300  0.77607000  0.04342200  1
  O  O36  1  0.52867900  0.20657600  0.97391800  1
  O  O37  1  0.52868200  0.70657500  0.47391200  1
  O  O38  1  0.02867700  0.95657800  0.22393000  1
  O  O39  1  0.02867400  0.45657900  0.72393200  1
  O  O40  1  0.52867700  0.97393000  0.20657800  1
  O  O41  1  0.52867400  0.47393200  0.70657900  1
  O  O42  1  0.02867900  0.72391800  0.45657600  1
  O  O43  1  0.02868200  0.22391200  0.95657500  1
  O  O44  1  0.47132600  0.29342100  0.52606800  1
  O  O45  1  0.47132300  0.79342200  0.02607000  1
  O  O46  1  0.97131800  0.04342500  0.77608800  1
  O  O47  1  0.97132100  0.54342400  0.27608200  1
