# generated using pymatgen
data_GdInPt2
_symmetry_space_group_name_H-M   'P 1'
_cell_length_a   4.61385283
_cell_length_b   4.61385283
_cell_length_c   9.10858700
_cell_angle_alpha   90.00000000
_cell_angle_beta   90.00000000
_cell_angle_gamma   120.00001191
_symmetry_Int_Tables_number   1
_chemical_formula_structural   GdInPt2
_chemical_formula_sum   'Gd2 In2 Pt4'
_cell_volume   167.92256736
_cell_formula_units_Z   2
loop_
 _symmetry_equiv_pos_site_id
 _symmetry_equiv_pos_as_xyz
  1  'x, y, z'
loop_
 _atom_site_type_symbol
 _atom_site_label
 _atom_site_symmetry_multiplicity
 _atom_site_fract_x
 _atom_site_fract_y
 _atom_site_fract_z
 _atom_site_occupancy
  Gd  Gd0  1  0.66666700  0.33333300  0.75000000  1
  Gd  Gd1  1  0.33333300  0.66666700  0.25000000  1
  In  In2  1  0.00000000  0.00000000  0.50000000  1
  In  In3  1  0.00000000  0.00000000  0.00000000  1
  Pt  Pt4  1  0.66666700  0.33333300  0.09027600  1
  Pt  Pt5  1  0.33333300  0.66666700  0.90972400  1
  Pt  Pt6  1  0.33333300  0.66666700  0.59027600  1
  Pt  Pt7  1  0.66666700  0.33333300  0.40972400  1
