# generated using pymatgen
data_Li3P7
_symmetry_space_group_name_H-M   'P 1'
_cell_length_a   7.62868200
_cell_length_b   9.84787500
_cell_length_c   10.59725000
_cell_angle_alpha   90.00000000
_cell_angle_beta   90.00000000
_cell_angle_gamma   90.00000000
_symmetry_Int_Tables_number   1
_chemical_formula_structural   Li3P7
_chemical_formula_sum   'Li12 P28'
_cell_volume   796.13225421
_cell_formula_units_Z   4
loop_
 _symmetry_equiv_pos_site_id
 _symmetry_equiv_pos_as_xyz
  1  'x, y, z'
loop_
 _atom_site_type_symbol
 _atom_site_label
 _atom_site_symmetry_multiplicity
 _atom_site_fract_x
 _atom_site_fract_y
 _atom_site_fract_z
 _atom_site_occupancy
  Li  Li0  1  0.85053200  0.30784800  0.81605000  1
  Li  Li1  1  0.35053200  0.19215200  0.18395000  1
  Li  Li2  1  0.14946800  0.80784800  0.68395000  1
  Li  Li3  1  0.64946800  0.69215200  0.31605000  1
  Li  Li4  1  0.56894900  0.02595000  0.01479500  1
  Li  Li5  1  0.06894900  0.47405000  0.98520500  1
  Li  Li6  1  0.43105100  0.52595000  0.48520500  1
  Li  Li7  1  0.93105100  0.97405000  0.51479500  1
  Li  Li8  1  0.40223800  0.30137100  0.69212400  1
  Li  Li9  1  0.90223800  0.19862900  0.30787600  1
  Li  Li10  1  0.59776200  0.80137100  0.80787600  1
  Li  Li11  1  0.09776200  0.69862900  0.19212400  1
  P  P12  1  0.28076800  0.87549100  0.31884800  1
  P  P13  1  0.78076800  0.62450900  0.68115200  1
  P  P14  1  0.71923200  0.37549100  0.18115200  1
  P  P15  1  0.21923200  0.12450900  0.81884800  1
  P  P16  1  0.63764600  0.04852200  0.38740200  1
  P  P17  1  0.13764600  0.45147800  0.61259800  1
  P  P18  1  0.36235400  0.54852200  0.11259800  1
  P  P19  1  0.86235400  0.95147800  0.88740200  1
  P  P20  1  0.53379700  0.94352800  0.56513200  1
  P  P21  1  0.03379700  0.55647200  0.43486800  1
  P  P22  1  0.46620300  0.44352800  0.93486800  1
  P  P23  1  0.96620300  0.05647200  0.06513200  1
  P  P24  1  0.40605300  0.13484100  0.49428800  1
  P  P25  1  0.90605300  0.36515900  0.50571200  1
  P  P26  1  0.59394700  0.63484100  0.00571200  1
  P  P27  1  0.09394700  0.86515900  0.99428800  1
  P  P28  1  0.31626500  0.92702700  0.88129000  1
  P  P29  1  0.81626500  0.57297300  0.11871000  1
  P  P30  1  0.68373500  0.42702700  0.61871000  1
  P  P31  1  0.18373500  0.07297300  0.38129000  1
  P  P32  1  0.12872500  0.21803100  0.99461700  1
  P  P33  1  0.62872500  0.28196900  0.00538300  1
  P  P34  1  0.87127500  0.71803100  0.50538300  1
  P  P35  1  0.37127500  0.78196900  0.49461700  1
  P  P36  1  0.96649300  0.07050300  0.73419200  1
  P  P37  1  0.46649300  0.42949700  0.26580800  1
  P  P38  1  0.03350700  0.57050300  0.76580800  1
  P  P39  1  0.53350700  0.92949700  0.23419200  1
