# generated using pymatgen
data_Ce3(InRu)2
_symmetry_space_group_name_H-M   'P 1'
_cell_length_a   4.95124600
_cell_length_b   7.70979500
_cell_length_c   17.41538900
_cell_angle_alpha   90.00000000
_cell_angle_beta   90.00000000
_cell_angle_gamma   90.00000000
_symmetry_Int_Tables_number   1
_chemical_formula_structural   Ce3(InRu)2
_chemical_formula_sum   'Ce12 In8 Ru8'
_cell_volume   664.79924050
_cell_formula_units_Z   4
loop_
 _symmetry_equiv_pos_site_id
 _symmetry_equiv_pos_as_xyz
  1  'x, y, z'
loop_
 _atom_site_type_symbol
 _atom_site_label
 _atom_site_symmetry_multiplicity
 _atom_site_fract_x
 _atom_site_fract_y
 _atom_site_fract_z
 _atom_site_occupancy
  Ce  Ce0  1  0.25000000  0.27350300  0.17381700  1
  Ce  Ce1  1  0.75000000  0.72649700  0.82618300  1
  Ce  Ce2  1  0.75000000  0.77350300  0.32618300  1
  Ce  Ce3  1  0.25000000  0.22649700  0.67381700  1
  Ce  Ce4  1  0.25000000  0.48953700  0.92533100  1
  Ce  Ce5  1  0.75000000  0.51046300  0.07466900  1
  Ce  Ce6  1  0.75000000  0.98953700  0.57466900  1
  Ce  Ce7  1  0.25000000  0.01046300  0.42533100  1
  Ce  Ce8  1  0.25000000  0.03478200  0.86381500  1
  Ce  Ce9  1  0.75000000  0.96521800  0.13618500  1
  Ce  Ce10  1  0.75000000  0.53478200  0.63618500  1
  Ce  Ce11  1  0.25000000  0.46521800  0.36381500  1
  In  In12  1  0.75000000  0.29087500  0.80108100  1
  In  In13  1  0.75000000  0.20912500  0.30108100  1
  In  In14  1  0.25000000  0.79087500  0.69891900  1
  In  In15  1  0.25000000  0.83902900  0.03019200  1
  In  In16  1  0.75000000  0.16097100  0.96980800  1
  In  In17  1  0.75000000  0.33902900  0.46980800  1
  In  In18  1  0.25000000  0.66097100  0.53019200  1
  In  In19  1  0.25000000  0.70912500  0.19891900  1
  Ru  Ru20  1  0.75000000  0.52255400  0.20779100  1
  Ru  Ru21  1  0.75000000  0.97744600  0.70779100  1
  Ru  Ru22  1  0.25000000  0.02255400  0.29220900  1
  Ru  Ru23  1  0.25000000  0.28010100  0.54520500  1
  Ru  Ru24  1  0.75000000  0.71989900  0.45479500  1
  Ru  Ru25  1  0.75000000  0.78010100  0.95479500  1
  Ru  Ru26  1  0.25000000  0.21989900  0.04520500  1
  Ru  Ru27  1  0.25000000  0.47744600  0.79220900  1
