# generated using pymatgen
data_KAg5S3
_symmetry_space_group_name_H-M   'P 1'
_cell_length_a   13.52891382
_cell_length_b   13.52891382
_cell_length_c   8.05484200
_cell_angle_alpha   90.00000000
_cell_angle_beta   90.00000000
_cell_angle_gamma   119.99999911
_symmetry_Int_Tables_number   1
_chemical_formula_structural   KAg5S3
_chemical_formula_sum   'K6 Ag30 S18'
_cell_volume   1276.77250600
_cell_formula_units_Z   6
loop_
 _symmetry_equiv_pos_site_id
 _symmetry_equiv_pos_as_xyz
  1  'x, y, z'
loop_
 _atom_site_type_symbol
 _atom_site_label
 _atom_site_symmetry_multiplicity
 _atom_site_fract_x
 _atom_site_fract_y
 _atom_site_fract_z
 _atom_site_occupancy
  K  K0  1  0.33333300  0.66666700  0.50146100  1
  K  K1  1  0.33333300  0.66666700  0.99853900  1
  K  K2  1  0.66666700  0.33333300  0.49853900  1
  K  K3  1  0.66666700  0.33333300  0.00146100  1
  K  K4  1  0.00000000  0.00000000  0.50000000  1
  K  K5  1  0.00000000  0.00000000  0.00000000  1
  Ag  Ag6  1  0.99507700  0.70210700  0.75000000  1
  Ag  Ag7  1  0.70703000  0.00492300  0.75000000  1
  Ag  Ag8  1  0.29789300  0.29297000  0.75000000  1
  Ag  Ag9  1  0.29297000  0.29789300  0.25000000  1
  Ag  Ag10  1  0.00492300  0.70703000  0.25000000  1
  Ag  Ag11  1  0.70210700  0.99507700  0.25000000  1
  Ag  Ag12  1  0.46476700  0.46476700  0.50000000  1
  Ag  Ag13  1  0.00000000  0.53523300  0.00000000  1
  Ag  Ag14  1  0.53523300  0.00000000  0.00000000  1
  Ag  Ag15  1  0.53523300  0.00000000  0.50000000  1
  Ag  Ag16  1  0.00000000  0.53523300  0.50000000  1
  Ag  Ag17  1  0.46476700  0.46476700  0.00000000  1
  Ag  Ag18  1  0.18408000  0.85041000  0.50127700  1
  Ag  Ag19  1  0.14959000  0.33367000  0.50127700  1
  Ag  Ag20  1  0.66633000  0.81592000  0.50127700  1
  Ag  Ag21  1  0.81592000  0.66633000  0.49872300  1
  Ag  Ag22  1  0.66633000  0.81592000  0.99872300  1
  Ag  Ag23  1  0.18408000  0.85041000  0.99872300  1
  Ag  Ag24  1  0.14959000  0.33367000  0.99872300  1
  Ag  Ag25  1  0.85041000  0.18408000  0.00127700  1
  Ag  Ag26  1  0.33367000  0.14959000  0.00127700  1
  Ag  Ag27  1  0.33367000  0.14959000  0.49872300  1
  Ag  Ag28  1  0.85041000  0.18408000  0.49872300  1
  Ag  Ag29  1  0.81592000  0.66633000  0.00127700  1
  Ag  Ag30  1  0.63185400  0.63438800  0.25000000  1
  Ag  Ag31  1  0.36561200  0.99746600  0.25000000  1
  Ag  Ag32  1  0.00253400  0.36814600  0.25000000  1
  Ag  Ag33  1  0.36814600  0.00253400  0.75000000  1
  Ag  Ag34  1  0.99746600  0.36561200  0.75000000  1
  Ag  Ag35  1  0.63438800  0.63185400  0.75000000  1
  S  S36  1  0.55478100  0.77880900  0.25000000  1
  S  S37  1  0.22119100  0.77597200  0.25000000  1
  S  S38  1  0.22402800  0.44521900  0.25000000  1
  S  S39  1  0.44521900  0.22402800  0.75000000  1
  S  S40  1  0.77597200  0.22119100  0.75000000  1
  S  S41  1  0.77880900  0.55478100  0.75000000  1
  S  S42  1  0.53264000  0.41868700  0.25000000  1
  S  S43  1  0.58131300  0.11395200  0.25000000  1
  S  S44  1  0.88604800  0.46736000  0.25000000  1
  S  S45  1  0.46736000  0.88604800  0.75000000  1
  S  S46  1  0.11395200  0.58131300  0.75000000  1
  S  S47  1  0.41868700  0.53264000  0.75000000  1
  S  S48  1  0.86546100  0.78082900  0.25000000  1
  S  S49  1  0.21917100  0.08463100  0.25000000  1
  S  S50  1  0.91536900  0.13453900  0.25000000  1
  S  S51  1  0.13453900  0.91536900  0.75000000  1
  S  S52  1  0.08463100  0.21917100  0.75000000  1
  S  S53  1  0.78082900  0.86546100  0.75000000  1
