# generated using pymatgen
data_NaBrO3
_symmetry_space_group_name_H-M   'P 1'
_cell_length_a   6.82000200
_cell_length_b   6.82000200
_cell_length_c   6.82000200
_cell_angle_alpha   90.00000000
_cell_angle_beta   90.00000000
_cell_angle_gamma   90.00000000
_symmetry_Int_Tables_number   1
_chemical_formula_structural   NaBrO3
_chemical_formula_sum   'Na4 Br4 O12'
_cell_volume   317.21484707
_cell_formula_units_Z   4
loop_
 _symmetry_equiv_pos_site_id
 _symmetry_equiv_pos_as_xyz
  1  'x, y, z'
loop_
 _atom_site_type_symbol
 _atom_site_label
 _atom_site_symmetry_multiplicity
 _atom_site_fract_x
 _atom_site_fract_y
 _atom_site_fract_z
 _atom_site_occupancy
  Na  Na0  1  0.07848600  0.07848600  0.07848600  1
  Na  Na1  1  0.42151400  0.92151400  0.57848600  1
  Na  Na2  1  0.57848600  0.42151400  0.92151400  1
  Na  Na3  1  0.92151400  0.57848600  0.42151400  1
  Br  Br4  1  0.40433300  0.40433300  0.40433300  1
  Br  Br5  1  0.09566700  0.59566700  0.90433300  1
  Br  Br6  1  0.90433300  0.09566700  0.59566700  1
  Br  Br7  1  0.59566700  0.90433300  0.09566700  1
  O  O8  1  0.21472100  0.40125500  0.00184700  1
  O  O9  1  0.71472100  0.09874500  0.99815300  1
  O  O10  1  0.78527900  0.90125500  0.49815300  1
  O  O11  1  0.09874500  0.99815300  0.71472100  1
  O  O12  1  0.49815300  0.78527900  0.90125500  1
  O  O13  1  0.99815300  0.71472100  0.09874500  1
  O  O14  1  0.40125500  0.00184700  0.21472100  1
  O  O15  1  0.00184700  0.21472100  0.40125500  1
  O  O16  1  0.28527900  0.59874500  0.50184700  1
  O  O17  1  0.50184700  0.28527900  0.59874500  1
  O  O18  1  0.59874500  0.50184700  0.28527900  1
  O  O19  1  0.90125500  0.49815300  0.78527900  1
