# generated using pymatgen
data_SnH8(NF3)2
_symmetry_space_group_name_H-M   'P 1'
_cell_length_a   6.28643663
_cell_length_b   6.28643663
_cell_length_c   4.84069400
_cell_angle_alpha   90.00000000
_cell_angle_beta   90.00000000
_cell_angle_gamma   120.00000661
_symmetry_Int_Tables_number   1
_chemical_formula_structural   SnH8(NF3)2
_chemical_formula_sum   'Sn1 H8 N2 F6'
_cell_volume   165.67131389
_cell_formula_units_Z   1
loop_
 _symmetry_equiv_pos_site_id
 _symmetry_equiv_pos_as_xyz
  1  'x, y, z'
loop_
 _atom_site_type_symbol
 _atom_site_label
 _atom_site_symmetry_multiplicity
 _atom_site_fract_x
 _atom_site_fract_y
 _atom_site_fract_z
 _atom_site_occupancy
  Sn  Sn0  1  0.00000000  0.00000000  0.00000000  1
  H  H1  1  0.33333300  0.66666700  0.84677000  1
  H  H2  1  0.66666700  0.33333300  0.15323000  1
  H  H3  1  0.51066600  0.75533300  0.55747300  1
  H  H4  1  0.24466700  0.75533300  0.55747300  1
  H  H5  1  0.24466700  0.48933400  0.55747300  1
  H  H6  1  0.75533300  0.24466700  0.44252700  1
  H  H7  1  0.48933400  0.24466700  0.44252700  1
  H  H8  1  0.75533300  0.51066600  0.44252700  1
  N  N9  1  0.33333300  0.66666700  0.63487500  1
  N  N10  1  0.66666700  0.33333300  0.36512500  1
  F  F11  1  0.30497100  0.15248500  0.76726800  1
  F  F12  1  0.84751500  0.15248500  0.76726800  1
  F  F13  1  0.84751500  0.69502900  0.76726800  1
  F  F14  1  0.15248500  0.84751500  0.23273200  1
  F  F15  1  0.69502900  0.84751500  0.23273200  1
  F  F16  1  0.15248500  0.30497100  0.23273200  1
