# generated using pymatgen
data_PuH8(SO6)2
_symmetry_space_group_name_H-M   'P 1'
_cell_length_a   5.76885000
_cell_length_b   11.14309500
_cell_length_c   14.66933200
_cell_angle_alpha   90.00000000
_cell_angle_beta   90.00000000
_cell_angle_gamma   90.00000000
_symmetry_Int_Tables_number   1
_chemical_formula_structural   PuH8(SO6)2
_chemical_formula_sum   'Pu4 H32 S8 O48'
_cell_volume   942.98637454
_cell_formula_units_Z   4
loop_
 _symmetry_equiv_pos_site_id
 _symmetry_equiv_pos_as_xyz
  1  'x, y, z'
loop_
 _atom_site_type_symbol
 _atom_site_label
 _atom_site_symmetry_multiplicity
 _atom_site_fract_x
 _atom_site_fract_y
 _atom_site_fract_z
 _atom_site_occupancy
  Pu  Pu0  1  0.62597600  0.75000000  0.67096700  1
  Pu  Pu1  1  0.12597600  0.25000000  0.82903300  1
  Pu  Pu2  1  0.37402400  0.25000000  0.32903300  1
  Pu  Pu3  1  0.87402400  0.75000000  0.17096700  1
  H  H4  1  0.69838900  0.44428600  0.40366200  1
  H  H5  1  0.19838900  0.55571400  0.09633800  1
  H  H6  1  0.30161100  0.94428600  0.59633800  1
  H  H7  1  0.80161100  0.05571400  0.90366200  1
  H  H8  1  0.30161100  0.55571400  0.59633800  1
  H  H9  1  0.80161100  0.44428600  0.90366200  1
  H  H10  1  0.69838900  0.05571400  0.40366200  1
  H  H11  1  0.19838900  0.94428600  0.09633800  1
  H  H12  1  0.62586300  0.37367600  0.49231400  1
  H  H13  1  0.12586300  0.62632400  0.00768600  1
  H  H14  1  0.37413700  0.87367600  0.50768600  1
  H  H15  1  0.87413700  0.12632400  0.99231400  1
  H  H16  1  0.37413700  0.62632400  0.50768600  1
  H  H17  1  0.87413700  0.37367600  0.99231400  1
  H  H18  1  0.62586300  0.12632400  0.49231400  1
  H  H19  1  0.12586300  0.87367600  0.00768600  1
  H  H20  1  0.14966300  0.32126500  0.51298800  1
  H  H21  1  0.64966300  0.67873500  0.98701200  1
  H  H22  1  0.85033700  0.82126500  0.48701200  1
  H  H23  1  0.35033700  0.17873500  0.01298800  1
  H  H24  1  0.85033700  0.67873500  0.48701200  1
  H  H25  1  0.35033700  0.32126500  0.01298800  1
  H  H26  1  0.14966300  0.17873500  0.51298800  1
  H  H27  1  0.64966300  0.82126500  0.98701200  1
  H  H28  1  0.04161800  0.31992700  0.17270100  1
  H  H29  1  0.54161800  0.68007300  0.32729900  1
  H  H30  1  0.95838200  0.81992700  0.82729900  1
  H  H31  1  0.45838200  0.18007300  0.67270100  1
  H  H32  1  0.95838200  0.68007300  0.82729900  1
  H  H33  1  0.45838200  0.31992700  0.67270100  1
  H  H34  1  0.04161800  0.18007300  0.17270100  1
  H  H35  1  0.54161800  0.81992700  0.32729900  1
  S  S36  1  0.61745000  0.44595900  0.14953400  1
  S  S37  1  0.11745000  0.55404100  0.35046600  1
  S  S38  1  0.38255000  0.94595900  0.85046600  1
  S  S39  1  0.88255000  0.05404100  0.64953400  1
  S  S40  1  0.38255000  0.55404100  0.85046600  1
  S  S41  1  0.88255000  0.44595900  0.64953400  1
  S  S42  1  0.61745000  0.05404100  0.14953400  1
  S  S43  1  0.11745000  0.94595900  0.35046600  1
  O  O44  1  0.60519900  0.37531400  0.42498700  1
  O  O45  1  0.10519900  0.62468600  0.07501300  1
  O  O46  1  0.39480100  0.87531400  0.57501300  1
  O  O47  1  0.89480100  0.12468600  0.92498700  1
  O  O48  1  0.39480100  0.62468600  0.57501300  1
  O  O49  1  0.89480100  0.37531400  0.92498700  1
  O  O50  1  0.60519900  0.12468600  0.42498700  1
  O  O51  1  0.10519900  0.87531400  0.07501300  1
  O  O52  1  0.87151600  0.75000000  0.80349200  1
  O  O53  1  0.37151600  0.25000000  0.69650800  1
  O  O54  1  0.12848400  0.25000000  0.19650800  1
  O  O55  1  0.62848400  0.75000000  0.30349200  1
  O  O56  1  0.81638200  0.75000000  0.52565700  1
  O  O57  1  0.31638200  0.25000000  0.97434300  1
  O  O58  1  0.18361800  0.25000000  0.47434300  1
  O  O59  1  0.68361800  0.75000000  0.02565700  1
  O  O60  1  0.82654900  0.39620600  0.10573200  1
  O  O61  1  0.32654900  0.60379400  0.39426800  1
  O  O62  1  0.17345100  0.89620600  0.89426800  1
  O  O63  1  0.67345100  0.10379400  0.60573200  1
  O  O64  1  0.17345100  0.60379400  0.89426800  1
  O  O65  1  0.67345100  0.39620600  0.60573200  1
  O  O66  1  0.82654900  0.10379400  0.10573200  1
  O  O67  1  0.32654900  0.89620600  0.39426800  1
  O  O68  1  0.40825700  0.43267900  0.09253700  1
  O  O69  1  0.90825700  0.56732100  0.40746300  1
  O  O70  1  0.59174300  0.93267900  0.90746300  1
  O  O71  1  0.09174300  0.06732100  0.59253700  1
  O  O72  1  0.59174300  0.56732100  0.90746300  1
  O  O73  1  0.09174300  0.43267900  0.59253700  1
  O  O74  1  0.40825700  0.06732100  0.09253700  1
  O  O75  1  0.90825700  0.93267900  0.40746300  1
  O  O76  1  0.14874200  0.42262500  0.33074900  1
  O  O77  1  0.64874200  0.57737500  0.16925100  1
  O  O78  1  0.85125800  0.92262500  0.66925100  1
  O  O79  1  0.35125800  0.07737500  0.83074900  1
  O  O80  1  0.85125800  0.57737500  0.66925100  1
  O  O81  1  0.35125800  0.42262500  0.83074900  1
  O  O82  1  0.14874200  0.07737500  0.33074900  1
  O  O83  1  0.64874200  0.92262500  0.16925100  1
  O  O84  1  0.58703800  0.38340700  0.23958500  1
  O  O85  1  0.08703800  0.61659300  0.26041500  1
  O  O86  1  0.41296200  0.88340700  0.76041500  1
  O  O87  1  0.91296200  0.11659300  0.73958500  1
  O  O88  1  0.41296200  0.61659300  0.76041500  1
  O  O89  1  0.91296200  0.38340700  0.73958500  1
  O  O90  1  0.58703800  0.11659300  0.23958500  1
  O  O91  1  0.08703800  0.88340700  0.26041500  1
