# generated using pymatgen
data_Gd4B3C4
_symmetry_space_group_name_H-M   'P 1'
_cell_length_a   3.61633700
_cell_length_b   3.66670821
_cell_length_c   12.00648861
_cell_angle_alpha   92.63755921
_cell_angle_beta   98.29641162
_cell_angle_gamma   90.18544904
_symmetry_Int_Tables_number   1
_chemical_formula_structural   Gd4B3C4
_chemical_formula_sum   'Gd4 B3 C4'
_cell_volume   157.36579313
_cell_formula_units_Z   1
loop_
 _symmetry_equiv_pos_site_id
 _symmetry_equiv_pos_as_xyz
  1  'x, y, z'
loop_
 _atom_site_type_symbol
 _atom_site_label
 _atom_site_symmetry_multiplicity
 _atom_site_fract_x
 _atom_site_fract_y
 _atom_site_fract_z
 _atom_site_occupancy
  Gd  Gd0  1  0.20913000  0.97658900  0.34920900  1
  Gd  Gd1  1  0.79087000  0.02341100  0.65079100  1
  Gd  Gd2  1  0.60561600  0.44565700  0.13656600  1
  Gd  Gd3  1  0.39438400  0.55434300  0.86343400  1
  B  B4  1  0.00000000  0.00000000  0.00000000  1
  B  B5  1  0.79338500  0.49192400  0.45472100  1
  B  B6  1  0.20661500  0.50807600  0.54527900  1
  C  C7  1  0.09709700  0.94348400  0.12156300  1
  C  C8  1  0.90290300  0.05651600  0.87843700  1
  C  C9  1  0.70212800  0.47220700  0.33037200  1
  C  C10  1  0.29787200  0.52779300  0.66962800  1
