# generated using pymatgen
data_AlVMoO7
_symmetry_space_group_name_H-M   'P 1'
_cell_length_a   5.45149900
_cell_length_b   8.30497500
_cell_length_c   12.96197200
_cell_angle_alpha   90.00000000
_cell_angle_beta   90.00000000
_cell_angle_gamma   90.00000000
_symmetry_Int_Tables_number   1
_chemical_formula_structural   AlVMoO7
_chemical_formula_sum   'Al4 V4 Mo4 O28'
_cell_volume   586.84761672
_cell_formula_units_Z   4
loop_
 _symmetry_equiv_pos_site_id
 _symmetry_equiv_pos_as_xyz
  1  'x, y, z'
loop_
 _atom_site_type_symbol
 _atom_site_label
 _atom_site_symmetry_multiplicity
 _atom_site_fract_x
 _atom_site_fract_y
 _atom_site_fract_z
 _atom_site_occupancy
  Al  Al0  1  0.75000000  0.23400500  0.11227700  1
  Al  Al1  1  0.25000000  0.76599500  0.88772300  1
  Al  Al2  1  0.25000000  0.73400500  0.38772300  1
  Al  Al3  1  0.75000000  0.26599500  0.61227700  1
  V  V4  1  0.25000000  0.43251400  0.98544200  1
  V  V5  1  0.75000000  0.56748600  0.01455800  1
  V  V6  1  0.75000000  0.93251400  0.51455800  1
  V  V7  1  0.25000000  0.06748600  0.48544200  1
  Mo  Mo8  1  0.75000000  0.04501000  0.85509400  1
  Mo  Mo9  1  0.25000000  0.95499000  0.14490600  1
  Mo  Mo10  1  0.25000000  0.54501000  0.64490600  1
  Mo  Mo11  1  0.75000000  0.45499000  0.35509400  1
  O  O12  1  0.25000000  0.28382300  0.90523800  1
  O  O13  1  0.75000000  0.71617700  0.09476200  1
  O  O14  1  0.75000000  0.78382300  0.59476200  1
  O  O15  1  0.25000000  0.21617700  0.40523800  1
  O  O16  1  0.02225000  0.59887700  0.93056600  1
  O  O17  1  0.52225000  0.40112300  0.06943400  1
  O  O18  1  0.97775000  0.09887700  0.56943400  1
  O  O19  1  0.47775000  0.90112300  0.43056600  1
  O  O20  1  0.97775000  0.40112300  0.06943400  1
  O  O21  1  0.47775000  0.59887700  0.93056600  1
  O  O22  1  0.02225000  0.90112300  0.43056600  1
  O  O23  1  0.52225000  0.09887700  0.56943400  1
  O  O24  1  0.49111800  0.58589400  0.35132900  1
  O  O25  1  0.99111800  0.41410600  0.64867100  1
  O  O26  1  0.50888200  0.08589400  0.14867100  1
  O  O27  1  0.00888200  0.91410600  0.85132900  1
  O  O28  1  0.50888200  0.41410600  0.64867100  1
  O  O29  1  0.00888200  0.58589400  0.35132900  1
  O  O30  1  0.49111800  0.91410600  0.85132900  1
  O  O31  1  0.99111800  0.08589400  0.14867100  1
  O  O32  1  0.75000000  0.34438800  0.47350800  1
  O  O33  1  0.25000000  0.65561200  0.52649200  1
  O  O34  1  0.25000000  0.84438800  0.02649200  1
  O  O35  1  0.75000000  0.15561200  0.97350800  1
  O  O36  1  0.75000000  0.32226000  0.24611900  1
  O  O37  1  0.25000000  0.67774000  0.75388100  1
  O  O38  1  0.25000000  0.82226000  0.25388100  1
  O  O39  1  0.75000000  0.17774000  0.74611900  1
