# generated using pymatgen
data_Zr2TeBr12
_symmetry_space_group_name_H-M   'P 1'
_cell_length_a   16.61393300
_cell_length_b   7.48957600
_cell_length_c   19.69091035
_cell_angle_alpha   82.69751475
_cell_angle_beta   90.00000000
_cell_angle_gamma   90.00000000
_symmetry_Int_Tables_number   1
_chemical_formula_structural   Zr2TeBr12
_chemical_formula_sum   'Zr8 Te4 Br48'
_cell_volume   2430.29237958
_cell_formula_units_Z   4
loop_
 _symmetry_equiv_pos_site_id
 _symmetry_equiv_pos_as_xyz
  1  'x, y, z'
loop_
 _atom_site_type_symbol
 _atom_site_label
 _atom_site_symmetry_multiplicity
 _atom_site_fract_x
 _atom_site_fract_y
 _atom_site_fract_z
 _atom_site_occupancy
  Zr  Zr0  1  0.80722600  0.18593600  0.67189300  1
  Zr  Zr1  1  0.30722600  0.81406400  0.82810700  1
  Zr  Zr2  1  0.19277400  0.81406400  0.32810700  1
  Zr  Zr3  1  0.69277400  0.18593600  0.17189300  1
  Zr  Zr4  1  0.68542200  0.26122500  0.98137100  1
  Zr  Zr5  1  0.18542200  0.73877500  0.51862900  1
  Zr  Zr6  1  0.31457800  0.73877500  0.01862900  1
  Zr  Zr7  1  0.81457800  0.26122500  0.48137100  1
  Te  Te8  1  0.95029800  0.33588400  0.83736600  1
  Te  Te9  1  0.45029800  0.66411600  0.66263400  1
  Te  Te10  1  0.04970200  0.66411600  0.16263400  1
  Te  Te11  1  0.54970200  0.33588400  0.33736600  1
  Br  Br12  1  0.56114500  0.59612200  0.40727000  1
  Br  Br13  1  0.06114500  0.40387800  0.09273000  1
  Br  Br14  1  0.43885500  0.40387800  0.59273000  1
  Br  Br15  1  0.93885500  0.59612200  0.90727000  1
  Br  Br16  1  0.44839500  0.15237800  0.41392900  1
  Br  Br17  1  0.94839500  0.84762200  0.08607100  1
  Br  Br18  1  0.55160500  0.84762200  0.58607100  1
  Br  Br19  1  0.05160500  0.15237800  0.91392900  1
  Br  Br20  1  0.44726700  0.48702400  0.25458200  1
  Br  Br21  1  0.94726700  0.51297600  0.24541800  1
  Br  Br22  1  0.55273300  0.51297600  0.74541800  1
  Br  Br23  1  0.05273300  0.48702400  0.75458200  1
  Br  Br24  1  0.81583800  0.47224300  0.73748400  1
  Br  Br25  1  0.31583800  0.52775700  0.76251600  1
  Br  Br26  1  0.18416200  0.52775700  0.26251600  1
  Br  Br27  1  0.68416200  0.47224300  0.23748400  1
  Br  Br28  1  0.69993100  0.01963700  0.74299200  1
  Br  Br29  1  0.19993100  0.98036300  0.75700800  1
  Br  Br30  1  0.30006900  0.98036300  0.25700800  1
  Br  Br31  1  0.80006900  0.01963700  0.24299200  1
  Br  Br32  1  0.93170600  0.04226200  0.74148000  1
  Br  Br33  1  0.43170600  0.95773800  0.75852000  1
  Br  Br34  1  0.06829400  0.95773800  0.25852000  1
  Br  Br35  1  0.56829400  0.04226200  0.24148000  1
  Br  Br36  1  0.70438100  0.36421800  0.58171400  1
  Br  Br37  1  0.20438100  0.63578200  0.91828600  1
  Br  Br38  1  0.29561900  0.63578200  0.41828600  1
  Br  Br39  1  0.79561900  0.36421800  0.08171400  1
  Br  Br40  1  0.81376300  0.94622500  0.58143200  1
  Br  Br41  1  0.31376300  0.05377500  0.91856800  1
  Br  Br42  1  0.18623700  0.05377500  0.41856800  1
  Br  Br43  1  0.68623700  0.94622500  0.08143200  1
  Br  Br44  1  0.91823400  0.36159000  0.57609300  1
  Br  Br45  1  0.41823400  0.63841000  0.92390700  1
  Br  Br46  1  0.08176600  0.63841000  0.42390700  1
  Br  Br47  1  0.58176600  0.36159000  0.07609300  1
  Br  Br48  1  0.68817600  0.11721700  0.42924200  1
  Br  Br49  1  0.18817600  0.88278300  0.07075800  1
  Br  Br50  1  0.31182400  0.88278300  0.57075800  1
  Br  Br51  1  0.81182400  0.11721700  0.92924200  1
  Br  Br52  1  0.92083500  0.11915400  0.41587700  1
  Br  Br53  1  0.42083500  0.88084600  0.08412300  1
  Br  Br54  1  0.07916500  0.88084600  0.58412300  1
  Br  Br55  1  0.57916500  0.11915400  0.91587700  1
  Br  Br56  1  0.80724900  0.56886800  0.41490900  1
  Br  Br57  1  0.30724900  0.43113200  0.08509100  1
  Br  Br58  1  0.19275100  0.43113200  0.58509100  1
  Br  Br59  1  0.69275100  0.56886800  0.91490900  1
