# generated using pymatgen
data_Y2(Ga3Co)3
_symmetry_space_group_name_H-M   'P 1'
_cell_length_a   7.37468535
_cell_length_b   7.37468535
_cell_length_c   9.46164100
_cell_angle_alpha   90.00000000
_cell_angle_beta   90.00000000
_cell_angle_gamma   119.81569475
_symmetry_Int_Tables_number   1
_chemical_formula_structural   Y2(Ga3Co)3
_chemical_formula_sum   'Y4 Ga18 Co6'
_cell_volume   446.46524779
_cell_formula_units_Z   2
loop_
 _symmetry_equiv_pos_site_id
 _symmetry_equiv_pos_as_xyz
  1  'x, y, z'
loop_
 _atom_site_type_symbol
 _atom_site_label
 _atom_site_symmetry_multiplicity
 _atom_site_fract_x
 _atom_site_fract_y
 _atom_site_fract_z
 _atom_site_occupancy
  Y  Y0  1  0.66811000  0.99682700  0.75000000  1
  Y  Y1  1  0.33189000  0.00317300  0.25000000  1
  Y  Y2  1  0.99682700  0.66811000  0.75000000  1
  Y  Y3  1  0.00317300  0.33189000  0.25000000  1
  Ga  Ga4  1  0.99945400  0.66597200  0.07136200  1
  Ga  Ga5  1  0.66597200  0.99945400  0.42863800  1
  Ga  Ga6  1  0.99945400  0.66597200  0.42863800  1
  Ga  Ga7  1  0.00054600  0.33402800  0.92863800  1
  Ga  Ga8  1  0.66597200  0.99945400  0.07136200  1
  Ga  Ga9  1  0.33402800  0.00054600  0.92863800  1
  Ga  Ga10  1  0.66587800  0.66587800  0.55734100  1
  Ga  Ga11  1  0.33412200  0.33412200  0.05734100  1
  Ga  Ga12  1  0.66587800  0.66587800  0.94265900  1
  Ga  Ga13  1  0.33412200  0.33412200  0.44265900  1
  Ga  Ga14  1  0.12127800  0.12127800  0.75000000  1
  Ga  Ga15  1  0.87872200  0.87872200  0.25000000  1
  Ga  Ga16  1  0.66377100  0.45044100  0.25000000  1
  Ga  Ga17  1  0.33622900  0.54955900  0.75000000  1
  Ga  Ga18  1  0.45044100  0.66377100  0.25000000  1
  Ga  Ga19  1  0.54955900  0.33622900  0.75000000  1
  Ga  Ga20  1  0.33402800  0.00054600  0.57136200  1
  Ga  Ga21  1  0.00054600  0.33402800  0.57136200  1
  Co  Co22  1  0.67094600  0.32905400  0.00000000  1
  Co  Co23  1  0.32905400  0.67094600  0.50000000  1
  Co  Co24  1  0.32905400  0.67094600  0.00000000  1
  Co  Co25  1  0.67094600  0.32905400  0.50000000  1
  Co  Co26  1  0.00000000  0.00000000  0.00000000  1
  Co  Co27  1  0.00000000  0.00000000  0.50000000  1
