# generated using pymatgen
data_Ni2P
_symmetry_space_group_name_H-M   'P 1'
_cell_length_a   5.87275610
_cell_length_b   5.87275610
_cell_length_c   3.34933000
_cell_angle_alpha   90.00000000
_cell_angle_beta   90.00000000
_cell_angle_gamma   120.00000111
_symmetry_Int_Tables_number   1
_chemical_formula_structural   Ni2P
_chemical_formula_sum   'Ni6 P3'
_cell_volume   100.03972641
_cell_formula_units_Z   3
loop_
 _symmetry_equiv_pos_site_id
 _symmetry_equiv_pos_as_xyz
  1  'x, y, z'
loop_
 _atom_site_type_symbol
 _atom_site_label
 _atom_site_symmetry_multiplicity
 _atom_site_fract_x
 _atom_site_fract_y
 _atom_site_fract_z
 _atom_site_occupancy
  Ni  Ni0  1  0.39909800  0.00000000  0.50000000  1
  Ni  Ni1  1  0.60090200  0.60090200  0.50000000  1
  Ni  Ni2  1  0.00000000  0.39909800  0.50000000  1
  Ni  Ni3  1  0.00000000  0.74030200  0.00000000  1
  Ni  Ni4  1  0.25969800  0.25969800  0.00000000  1
  Ni  Ni5  1  0.74030200  0.00000000  0.00000000  1
  P  P6  1  0.00000000  0.00000000  0.50000000  1
  P  P7  1  0.66666700  0.33333300  0.00000000  1
  P  P8  1  0.33333300  0.66666700  0.00000000  1
