# generated using pymatgen
data_Mn3B7IO13
_symmetry_space_group_name_H-M   'P 1'
_cell_length_a   8.80037900
_cell_length_b   8.86348100
_cell_length_c   12.49874600
_cell_angle_alpha   90.00000000
_cell_angle_beta   90.00000000
_cell_angle_gamma   90.00000000
_symmetry_Int_Tables_number   1
_chemical_formula_structural   Mn3B7IO13
_chemical_formula_sum   'Mn12 B28 I4 O52'
_cell_volume   974.92708624
_cell_formula_units_Z   4
loop_
 _symmetry_equiv_pos_site_id
 _symmetry_equiv_pos_as_xyz
  1  'x, y, z'
loop_
 _atom_site_type_symbol
 _atom_site_label
 _atom_site_symmetry_multiplicity
 _atom_site_fract_x
 _atom_site_fract_y
 _atom_site_fract_z
 _atom_site_occupancy
  Mn  Mn0  1  0.74792700  0.24202800  0.24515200  1
  Mn  Mn1  1  0.25207300  0.75797200  0.74515200  1
  Mn  Mn2  1  0.25207300  0.74202800  0.24515200  1
  Mn  Mn3  1  0.74792700  0.25797200  0.74515200  1
  Mn  Mn4  1  0.97946600  0.49898700  0.01372500  1
  Mn  Mn5  1  0.02053400  0.50101300  0.51372500  1
  Mn  Mn6  1  0.02053400  0.99898700  0.01372500  1
  Mn  Mn7  1  0.97946600  0.00101300  0.51372500  1
  Mn  Mn8  1  0.47963400  0.50179600  0.50957200  1
  Mn  Mn9  1  0.52036600  0.00179600  0.50957200  1
  Mn  Mn10  1  0.52036600  0.49820400  0.00957200  1
  Mn  Mn11  1  0.47963400  0.99820400  0.00957200  1
  B  B12  1  0.50347600  0.99871900  0.75774700  1
  B  B13  1  0.09712400  0.25762700  0.17962800  1
  B  B14  1  0.90287600  0.74237300  0.67962800  1
  B  B15  1  0.90287600  0.75762700  0.17962800  1
  B  B16  1  0.09712400  0.24237300  0.67962800  1
  B  B17  1  0.25006500  0.40641600  0.33057200  1
  B  B18  1  0.74993500  0.59358400  0.83057200  1
  B  B19  1  0.74993500  0.90641600  0.33057200  1
  B  B20  1  0.25006500  0.09358400  0.83057200  1
  B  B21  1  0.59906600  0.74271400  0.67901800  1
  B  B22  1  0.40093400  0.25728600  0.17901800  1
  B  B23  1  0.40093400  0.24271400  0.67901800  1
  B  B24  1  0.59906600  0.75728600  0.17901800  1
  B  B25  1  0.75049700  0.94988600  0.85785100  1
  B  B26  1  0.24950300  0.05011400  0.35785100  1
  B  B27  1  0.24950300  0.44988600  0.85785100  1
  B  B28  1  0.50347600  0.50128100  0.25774700  1
  B  B29  1  0.49652400  0.49871900  0.75774700  1
  B  B30  1  0.49652400  0.00128100  0.25774700  1
  B  B31  1  0.75049700  0.55011400  0.35785100  1
  B  B32  1  0.75333000  0.74296800  0.50617000  1
  B  B33  1  0.24667000  0.25703200  0.00617000  1
  B  B34  1  0.24667000  0.24296800  0.50617000  1
  B  B35  1  0.75333000  0.75703200  0.00617000  1
  B  B36  1  0.00283500  0.00157000  0.25979100  1
  B  B37  1  0.99716500  0.99843000  0.75979100  1
  B  B38  1  0.99716500  0.50157000  0.25979100  1
  B  B39  1  0.00283500  0.49843000  0.75979100  1
  I  I40  1  0.74926000  0.24886400  0.50975300  1
  I  I41  1  0.25074000  0.75113600  0.00975300  1
  I  I42  1  0.25074000  0.74886400  0.50975300  1
  I  I43  1  0.74926000  0.25113600  0.00975300  1
  O  O44  1  0.05507400  0.09736900  0.16992700  1
  O  O45  1  0.40642300  0.04377100  0.84831600  1
  O  O46  1  0.59357700  0.95622900  0.34831600  1
  O  O47  1  0.59357700  0.54377100  0.84831600  1
  O  O48  1  0.40642300  0.45622900  0.34831600  1
  O  O49  1  0.09296100  0.46206100  0.85883000  1
  O  O50  1  0.90703900  0.53793900  0.35883000  1
  O  O51  1  0.90703900  0.96206100  0.85883000  1
  O  O52  1  0.09296100  0.03793900  0.35883000  1
  O  O53  1  0.46290300  0.08952900  0.66320200  1
  O  O54  1  0.53709700  0.91047100  0.16320200  1
  O  O55  1  0.53709700  0.58952900  0.66320200  1
  O  O56  1  0.46290300  0.41047100  0.16320200  1
  O  O57  1  0.05507400  0.40263100  0.66992700  1
  O  O58  1  0.94492600  0.59736900  0.16992700  1
  O  O59  1  0.94492600  0.90263100  0.66992700  1
  O  O60  1  0.75031800  0.77486100  0.24616800  1
  O  O61  1  0.24968200  0.22513900  0.74616800  1
  O  O62  1  0.24968200  0.27486100  0.24616800  1
  O  O63  1  0.75031800  0.72513900  0.74616800  1
  O  O64  1  0.66680800  0.46627600  0.28523600  1
  O  O65  1  0.33319200  0.53372400  0.78523600  1
  O  O66  1  0.33319200  0.96627600  0.28523600  1
  O  O67  1  0.66680800  0.03372400  0.78523600  1
  O  O68  1  0.67726400  0.62039600  0.44219800  1
  O  O69  1  0.32273600  0.37960400  0.94219800  1
  O  O70  1  0.32273600  0.12039600  0.44219800  1
  O  O71  1  0.67726400  0.87960400  0.94219800  1
  O  O72  1  0.84154300  0.02993200  0.28460200  1
  O  O73  1  0.15845700  0.97006800  0.78460200  1
  O  O74  1  0.15845700  0.52993200  0.28460200  1
  O  O75  1  0.84154300  0.47006800  0.78460200  1
  O  O76  1  0.63787800  0.68778200  0.07631200  1
  O  O77  1  0.36212200  0.31221800  0.57631200  1
  O  O78  1  0.36212200  0.18778200  0.07631200  1
  O  O79  1  0.63787800  0.81221800  0.57631200  1
  O  O80  1  0.02379300  0.84088600  0.23355000  1
  O  O81  1  0.97620700  0.15911400  0.73355000  1
  O  O82  1  0.97620700  0.34088600  0.23355000  1
  O  O83  1  0.02379300  0.65911400  0.73355000  1
  O  O84  1  0.81688000  0.85812400  0.43295700  1
  O  O85  1  0.18312000  0.14187600  0.93295700  1
  O  O86  1  0.18312000  0.35812400  0.43295700  1
  O  O87  1  0.81688000  0.64187600  0.93295700  1
  O  O88  1  0.87484800  0.67818800  0.57270100  1
  O  O89  1  0.51276200  0.33595900  0.73602100  1
  O  O90  1  0.51276200  0.16404100  0.23602100  1
  O  O91  1  0.48723800  0.83595900  0.73602100  1
  O  O92  1  0.87484800  0.82181200  0.07270100  1
  O  O93  1  0.12515200  0.17818800  0.57270100  1
  O  O94  1  0.12515200  0.32181200  0.07270100  1
  O  O95  1  0.48723800  0.66404100  0.23602100  1
