# generated using pymatgen
data_BaIn2Pt
_symmetry_space_group_name_H-M   'P 1'
_cell_length_a   6.33951704
_cell_length_b   6.33951704
_cell_length_c   8.15167700
_cell_angle_alpha   90.00000000
_cell_angle_beta   90.00000000
_cell_angle_gamma   137.58532546
_symmetry_Int_Tables_number   1
_chemical_formula_structural   BaIn2Pt
_chemical_formula_sum   'Ba2 In4 Pt2'
_cell_volume   220.97125903
_cell_formula_units_Z   2
loop_
 _symmetry_equiv_pos_site_id
 _symmetry_equiv_pos_as_xyz
  1  'x, y, z'
loop_
 _atom_site_type_symbol
 _atom_site_label
 _atom_site_symmetry_multiplicity
 _atom_site_fract_x
 _atom_site_fract_y
 _atom_site_fract_z
 _atom_site_occupancy
  Ba  Ba0  1  0.05273900  0.94726100  0.25000000  1
  Ba  Ba1  1  0.94726100  0.05273900  0.75000000  1
  In  In2  1  0.66310600  0.33689400  0.55638100  1
  In  In3  1  0.33689400  0.66310600  0.44361900  1
  In  In4  1  0.66310600  0.33689400  0.94361900  1
  In  In5  1  0.33689400  0.66310600  0.05638100  1
  Pt  Pt6  1  0.22413900  0.77586100  0.75000000  1
  Pt  Pt7  1  0.77586100  0.22413900  0.25000000  1
