# generated using pymatgen
data_Cs2In2Sb3
_symmetry_space_group_name_H-M   'P 1'
_cell_length_a   7.79396300
_cell_length_b   16.15168300
_cell_length_c   18.43578061
_cell_angle_alpha   89.44702276
_cell_angle_beta   90.00000000
_cell_angle_gamma   90.00000000
_symmetry_Int_Tables_number   1
_chemical_formula_structural   Cs2In2Sb3
_chemical_formula_sum   'Cs16 In16 Sb24'
_cell_volume   2320.69157990
_cell_formula_units_Z   8
loop_
 _symmetry_equiv_pos_site_id
 _symmetry_equiv_pos_as_xyz
  1  'x, y, z'
loop_
 _atom_site_type_symbol
 _atom_site_label
 _atom_site_symmetry_multiplicity
 _atom_site_fract_x
 _atom_site_fract_y
 _atom_site_fract_z
 _atom_site_occupancy
  Cs  Cs0  1  0.55083900  0.55473500  0.39733300  1
  Cs  Cs1  1  0.05083900  0.44526500  0.10266700  1
  Cs  Cs2  1  0.44916100  0.44526500  0.60266700  1
  Cs  Cs3  1  0.94916100  0.55473500  0.89733300  1
  Cs  Cs4  1  0.97051900  0.07505200  0.60969600  1
  Cs  Cs5  1  0.47051900  0.92494800  0.89030400  1
  Cs  Cs6  1  0.02948100  0.92494800  0.39030400  1
  Cs  Cs7  1  0.52948100  0.07505200  0.10969600  1
  Cs  Cs8  1  0.95951400  0.34717500  0.51834100  1
  Cs  Cs9  1  0.45951400  0.65282500  0.98165900  1
  Cs  Cs10  1  0.04048600  0.65282500  0.48165900  1
  Cs  Cs11  1  0.54048600  0.34717500  0.01834100  1
  Cs  Cs12  1  0.52322300  0.85737900  0.49468900  1
  Cs  Cs13  1  0.02322300  0.14262100  0.00531100  1
  Cs  Cs14  1  0.47677700  0.14262100  0.50531100  1
  Cs  Cs15  1  0.97677700  0.85737900  0.99468900  1
  In  In16  1  0.75849400  0.40587000  0.75934200  1
  In  In17  1  0.74150600  0.40587000  0.25934200  1
  In  In18  1  0.24150600  0.59413000  0.24065800  1
  In  In19  1  0.25849400  0.59413000  0.74065800  1
  In  In20  1  0.73566700  0.18115700  0.31819500  1
  In  In21  1  0.23566700  0.81884300  0.18180500  1
  In  In22  1  0.26433300  0.81884300  0.68180500  1
  In  In23  1  0.76433300  0.18115700  0.81819500  1
  In  In24  1  0.70837100  0.90722500  0.23177400  1
  In  In25  1  0.20837100  0.09277500  0.26822600  1
  In  In26  1  0.29162900  0.09277500  0.76822600  1
  In  In27  1  0.79162900  0.90722500  0.73177400  1
  In  In28  1  0.27812600  0.31537800  0.82459900  1
  In  In29  1  0.72187400  0.68462200  0.17540100  1
  In  In30  1  0.77812600  0.68462200  0.67540100  1
  In  In31  1  0.22187400  0.31537800  0.32459900  1
  Sb  Sb32  1  0.56518300  0.32609600  0.38150900  1
  Sb  Sb33  1  0.43481700  0.67390400  0.61849100  1
  Sb  Sb34  1  0.06518300  0.67390400  0.11849100  1
  Sb  Sb35  1  0.93481700  0.32609600  0.88150900  1
  Sb  Sb36  1  0.83231200  0.25326600  0.17741400  1
  Sb  Sb37  1  0.33231200  0.74673400  0.32258600  1
  Sb  Sb38  1  0.16768800  0.74673400  0.82258600  1
  Sb  Sb39  1  0.66768800  0.25326600  0.67741400  1
  Sb  Sb40  1  0.45572100  0.47484200  0.83239200  1
  Sb  Sb41  1  0.95572100  0.52515800  0.66760800  1
  Sb  Sb42  1  0.54427900  0.52515800  0.16760800  1
  Sb  Sb43  1  0.04427900  0.47484200  0.33239200  1
  Sb  Sb44  1  0.29762100  0.24508000  0.68046700  1
  Sb  Sb45  1  0.20237900  0.24508000  0.18046700  1
  Sb  Sb46  1  0.70237900  0.75492000  0.31953300  1
  Sb  Sb47  1  0.79762100  0.75492000  0.81953300  1
  Sb  Sb48  1  0.96417800  0.02834000  0.82335400  1
  Sb  Sb49  1  0.46417800  0.97166000  0.67664600  1
  Sb  Sb50  1  0.03582200  0.97166000  0.17664600  1
  Sb  Sb51  1  0.53582200  0.02834000  0.32335400  1
  Sb  Sb52  1  0.44481900  0.16660700  0.89642900  1
  Sb  Sb53  1  0.94481900  0.83339300  0.60357100  1
  Sb  Sb54  1  0.55518100  0.83339300  0.10357100  1
  Sb  Sb55  1  0.05518100  0.16660700  0.39642900  1
