# generated using pymatgen
data_Cd2P2O7
_symmetry_space_group_name_H-M   'P 1'
_cell_length_a   6.69701400
_cell_length_b   6.81200331
_cell_length_c   6.95487058
_cell_angle_alpha   83.09639246
_cell_angle_beta   65.21453707
_cell_angle_gamma   81.60383511
_symmetry_Int_Tables_number   1
_chemical_formula_structural   Cd2P2O7
_chemical_formula_sum   'Cd4 P4 O14'
_cell_volume   284.35243339
_cell_formula_units_Z   2
loop_
 _symmetry_equiv_pos_site_id
 _symmetry_equiv_pos_as_xyz
  1  'x, y, z'
loop_
 _atom_site_type_symbol
 _atom_site_label
 _atom_site_symmetry_multiplicity
 _atom_site_fract_x
 _atom_site_fract_y
 _atom_site_fract_z
 _atom_site_occupancy
  Cd  Cd0  1  0.11592700  0.16455300  0.25139100  1
  Cd  Cd1  1  0.88407300  0.83544700  0.74860900  1
  Cd  Cd2  1  0.28380000  0.34707200  0.64890800  1
  Cd  Cd3  1  0.71620000  0.65292800  0.35109200  1
  P  P4  1  0.23073000  0.66174100  0.25124300  1
  P  P5  1  0.76927000  0.33825900  0.74875700  1
  P  P6  1  0.35817600  0.86499800  0.81736400  1
  P  P7  1  0.64182400  0.13500200  0.18263600  1
  O  O8  1  0.20932800  0.75063700  0.76827000  1
  O  O9  1  0.79067200  0.24936300  0.23173000  1
  O  O10  1  0.09097100  0.51108900  0.22951800  1
  O  O11  1  0.90902900  0.48891100  0.77048200  1
  O  O12  1  0.26138800  0.07881800  0.88741900  1
  O  O13  1  0.73861200  0.92118200  0.11258100  1
  O  O14  1  0.38949800  0.56982200  0.35292200  1
  O  O15  1  0.61050200  0.43017800  0.64707800  1
  O  O16  1  0.60383000  0.25545500  0.97971400  1
  O  O17  1  0.39617000  0.74454500  0.02028600  1
  O  O18  1  0.92955200  0.16182000  0.63568400  1
  O  O19  1  0.07044800  0.83818000  0.36431600  1
  O  O20  1  0.40408000  0.14020500  0.35566500  1
  O  O21  1  0.59592000  0.85979500  0.64433500  1
