# generated using pymatgen
data_Fe3BO5
_symmetry_space_group_name_H-M   'P 1'
_cell_length_a   3.10414300
_cell_length_b   9.63928700
_cell_length_c   12.49527800
_cell_angle_alpha   90.00000000
_cell_angle_beta   90.00000000
_cell_angle_gamma   90.00000000
_symmetry_Int_Tables_number   1
_chemical_formula_structural   Fe3BO5
_chemical_formula_sum   'Fe12 B4 O20'
_cell_volume   373.88027544
_cell_formula_units_Z   4
loop_
 _symmetry_equiv_pos_site_id
 _symmetry_equiv_pos_as_xyz
  1  'x, y, z'
loop_
 _atom_site_type_symbol
 _atom_site_label
 _atom_site_symmetry_multiplicity
 _atom_site_fract_x
 _atom_site_fract_y
 _atom_site_fract_z
 _atom_site_occupancy
  Fe  Fe0  1  0.50000000  0.50000000  0.00000000  1
  Fe  Fe1  1  0.50000000  0.00000000  0.50000000  1
  Fe  Fe2  1  0.50000000  0.74417400  0.38629300  1
  Fe  Fe3  1  0.00000000  0.00130400  0.72456800  1
  Fe  Fe4  1  0.00000000  0.99869600  0.27543200  1
  Fe  Fe5  1  0.00000000  0.49869600  0.22456800  1
  Fe  Fe6  1  0.50000000  0.75582600  0.88629300  1
  Fe  Fe7  1  0.00000000  0.50130400  0.77543200  1
  Fe  Fe8  1  0.00000000  0.50000000  0.50000000  1
  Fe  Fe9  1  0.50000000  0.25582600  0.61370700  1
  Fe  Fe10  1  0.50000000  0.24417400  0.11370700  1
  Fe  Fe11  1  0.00000000  0.00000000  0.00000000  1
  B  B12  1  0.50000000  0.73376000  0.63797900  1
  B  B13  1  0.50000000  0.76624000  0.13797900  1
  B  B14  1  0.50000000  0.23376000  0.86202100  1
  B  B15  1  0.50000000  0.26624000  0.36202100  1
  O  O16  1  0.50000000  0.65936300  0.54200900  1
  O  O17  1  0.50000000  0.37708800  0.86115200  1
  O  O18  1  0.00000000  0.11233300  0.14055900  1
  O  O19  1  0.00000000  0.11805900  0.58267500  1
  O  O20  1  0.50000000  0.33854500  0.26545100  1
  O  O21  1  0.50000000  0.62291200  0.13884800  1
  O  O22  1  0.00000000  0.38194100  0.08267500  1
  O  O23  1  0.00000000  0.61233300  0.35944100  1
  O  O24  1  0.00000000  0.88766700  0.85944100  1
  O  O25  1  0.00000000  0.61805900  0.91732500  1
  O  O26  1  0.00000000  0.88194100  0.41732500  1
  O  O27  1  0.50000000  0.83854500  0.23454900  1
  O  O28  1  0.50000000  0.34063700  0.45799100  1
  O  O29  1  0.50000000  0.66145500  0.73454900  1
  O  O30  1  0.50000000  0.15936300  0.95799100  1
  O  O31  1  0.50000000  0.84063700  0.04200900  1
  O  O32  1  0.00000000  0.38766700  0.64055900  1
  O  O33  1  0.50000000  0.12291200  0.36115200  1
  O  O34  1  0.50000000  0.16145500  0.76545100  1
  O  O35  1  0.50000000  0.87708800  0.63884800  1
