# generated using pymatgen
data_Na(CuS)4
_symmetry_space_group_name_H-M   'P 1'
_cell_length_a   3.82012809
_cell_length_b   3.82012809
_cell_length_c   12.15639800
_cell_angle_alpha   90.00000000
_cell_angle_beta   90.00000000
_cell_angle_gamma   120.00000159
_symmetry_Int_Tables_number   1
_chemical_formula_structural   Na(CuS)4
_chemical_formula_sum   'Na1 Cu4 S4'
_cell_volume   153.63543201
_cell_formula_units_Z   1
loop_
 _symmetry_equiv_pos_site_id
 _symmetry_equiv_pos_as_xyz
  1  'x, y, z'
loop_
 _atom_site_type_symbol
 _atom_site_label
 _atom_site_symmetry_multiplicity
 _atom_site_fract_x
 _atom_site_fract_y
 _atom_site_fract_z
 _atom_site_occupancy
  Na  Na0  1  0.00000000  0.00000000  0.50000000  1
  Cu  Cu1  1  0.66666700  0.33333300  0.85162800  1
  Cu  Cu2  1  0.33333300  0.66666700  0.14837200  1
  Cu  Cu3  1  0.33333300  0.66666700  0.68854400  1
  Cu  Cu4  1  0.66666700  0.33333300  0.31145600  1
  S  S5  1  0.00000000  0.00000000  0.91320000  1
  S  S6  1  0.00000000  0.00000000  0.08680000  1
  S  S7  1  0.66666700  0.33333300  0.65912100  1
  S  S8  1  0.33333300  0.66666700  0.34087900  1
