# generated using pymatgen
data_Pr2NCl3
_symmetry_space_group_name_H-M   'P 1'
_cell_length_a   8.29061466
_cell_length_b   8.29061466
_cell_length_c   8.29061466
_cell_angle_alpha   135.94084023
_cell_angle_beta   130.66720368
_cell_angle_gamma   68.26671258
_symmetry_Int_Tables_number   1
_chemical_formula_structural   Pr2NCl3
_chemical_formula_sum   'Pr4 N2 Cl6'
_cell_volume   295.34171475
_cell_formula_units_Z   2
loop_
 _symmetry_equiv_pos_site_id
 _symmetry_equiv_pos_as_xyz
  1  'x, y, z'
loop_
 _atom_site_type_symbol
 _atom_site_label
 _atom_site_symmetry_multiplicity
 _atom_site_fract_x
 _atom_site_fract_y
 _atom_site_fract_z
 _atom_site_occupancy
  Pr  Pr0  1  0.08267600  0.90702200  0.17565400  1
  Pr  Pr1  1  0.91732400  0.09297800  0.82434600  1
  Pr  Pr2  1  0.26863200  0.59297800  0.67565400  1
  Pr  Pr3  1  0.73136800  0.40702200  0.32434600  1
  N  N4  1  0.00000000  0.75000000  0.75000000  1
  N  N5  1  0.00000000  0.25000000  0.25000000  1
  Cl  Cl6  1  0.37756000  0.20313500  0.17442600  1
  Cl  Cl7  1  0.62244000  0.79686500  0.82557400  1
  Cl  Cl8  1  0.50000000  0.25000000  0.75000000  1
  Cl  Cl9  1  0.50000000  0.75000000  0.25000000  1
  Cl  Cl10  1  0.02870900  0.70313500  0.32557400  1
  Cl  Cl11  1  0.97129100  0.29686500  0.67442600  1
