# generated using pymatgen
data_K2CeTa5O15
_symmetry_space_group_name_H-M   'P 1'
_cell_length_a   12.70428000
_cell_length_b   12.70428000
_cell_length_c   3.95227600
_cell_angle_alpha   90.00000000
_cell_angle_beta   90.00000000
_cell_angle_gamma   90.00000000
_symmetry_Int_Tables_number   1
_chemical_formula_structural   K2CeTa5O15
_chemical_formula_sum   'K4 Ce2 Ta10 O30'
_cell_volume   637.89232827
_cell_formula_units_Z   2
loop_
 _symmetry_equiv_pos_site_id
 _symmetry_equiv_pos_as_xyz
  1  'x, y, z'
loop_
 _atom_site_type_symbol
 _atom_site_label
 _atom_site_symmetry_multiplicity
 _atom_site_fract_x
 _atom_site_fract_y
 _atom_site_fract_z
 _atom_site_occupancy
  K  K0  1  0.66909400  0.16909400  0.00000000  1
  K  K1  1  0.16909400  0.33090600  0.00000000  1
  K  K2  1  0.83090600  0.66909400  0.00000000  1
  K  K3  1  0.33090600  0.83090600  0.00000000  1
  Ce  Ce4  1  0.00000000  0.00000000  0.00000000  1
  Ce  Ce5  1  0.50000000  0.50000000  0.00000000  1
  Ta  Ta6  1  0.21341700  0.07644900  0.50000000  1
  Ta  Ta7  1  0.57644900  0.71341700  0.50000000  1
  Ta  Ta8  1  0.92355100  0.21341700  0.50000000  1
  Ta  Ta9  1  0.28658300  0.57644900  0.50000000  1
  Ta  Ta10  1  0.07644900  0.78658300  0.50000000  1
  Ta  Ta11  1  0.71341700  0.42355100  0.50000000  1
  Ta  Ta12  1  0.42355100  0.28658300  0.50000000  1
  Ta  Ta13  1  0.00000000  0.50000000  0.50000000  1
  Ta  Ta14  1  0.78658300  0.92355100  0.50000000  1
  Ta  Ta15  1  0.50000000  0.00000000  0.50000000  1
  O  O16  1  0.80694700  0.92383100  0.00000000  1
  O  O17  1  0.49857000  0.84266100  0.50000000  1
  O  O18  1  0.13201700  0.93885900  0.50000000  1
  O  O19  1  0.06114100  0.13201700  0.50000000  1
  O  O20  1  0.78396500  0.28396500  0.50000000  1
  O  O21  1  0.07616900  0.80694700  0.00000000  1
  O  O22  1  0.86798300  0.06114100  0.50000000  1
  O  O23  1  0.56114100  0.36798300  0.50000000  1
  O  O24  1  0.19305300  0.07616900  0.00000000  1
  O  O25  1  0.43885900  0.63201700  0.50000000  1
  O  O26  1  0.42383100  0.30694700  0.00000000  1
  O  O27  1  0.57616900  0.69305300  0.00000000  1
  O  O28  1  0.50143000  0.15733900  0.50000000  1
  O  O29  1  0.84266100  0.50143000  0.50000000  1
  O  O30  1  0.15733900  0.49857000  0.50000000  1
  O  O31  1  0.63201700  0.56114100  0.50000000  1
  O  O32  1  0.00143000  0.34266100  0.50000000  1
  O  O33  1  0.28396500  0.21603500  0.50000000  1
  O  O34  1  0.71603500  0.78396500  0.50000000  1
  O  O35  1  0.34266100  0.99857000  0.50000000  1
  O  O36  1  0.50000000  0.00000000  0.00000000  1
  O  O37  1  0.36798300  0.43885900  0.50000000  1
  O  O38  1  0.65733900  0.00143000  0.50000000  1
  O  O39  1  0.30694700  0.57616900  0.00000000  1
  O  O40  1  0.21603500  0.71603500  0.50000000  1
  O  O41  1  0.93885900  0.86798300  0.50000000  1
  O  O42  1  0.00000000  0.50000000  0.00000000  1
  O  O43  1  0.92383100  0.19305300  0.00000000  1
  O  O44  1  0.99857000  0.65733900  0.50000000  1
  O  O45  1  0.69305300  0.42383100  0.00000000  1
