# generated using pymatgen
data_Sr2Bi2O5
_symmetry_space_group_name_H-M   'P 1'
_cell_length_a   6.25426300
_cell_length_b   7.75965100
_cell_length_c   14.62049700
_cell_angle_alpha   90.00000000
_cell_angle_beta   90.00000000
_cell_angle_gamma   90.00000000
_symmetry_Int_Tables_number   1
_chemical_formula_structural   Sr2Bi2O5
_chemical_formula_sum   'Sr8 Bi8 O20'
_cell_volume   709.54585070
_cell_formula_units_Z   4
loop_
 _symmetry_equiv_pos_site_id
 _symmetry_equiv_pos_as_xyz
  1  'x, y, z'
loop_
 _atom_site_type_symbol
 _atom_site_label
 _atom_site_symmetry_multiplicity
 _atom_site_fract_x
 _atom_site_fract_y
 _atom_site_fract_z
 _atom_site_occupancy
  Sr  Sr0  1  0.25000000  0.37361500  0.43399100  1
  Sr  Sr1  1  0.75000000  0.87361500  0.06600900  1
  Sr  Sr2  1  0.75000000  0.62638500  0.56600900  1
  Sr  Sr3  1  0.25000000  0.12638500  0.93399100  1
  Sr  Sr4  1  0.75000000  0.37652400  0.05219400  1
  Sr  Sr5  1  0.25000000  0.87652400  0.44780600  1
  Sr  Sr6  1  0.75000000  0.12347600  0.55219400  1
  Sr  Sr7  1  0.25000000  0.62347600  0.94780600  1
  Bi  Bi8  1  0.75000000  0.88221600  0.81643700  1
  Bi  Bi9  1  0.75000000  0.13115500  0.30973100  1
  Bi  Bi10  1  0.75000000  0.36884500  0.80973100  1
  Bi  Bi11  1  0.25000000  0.63115500  0.19026900  1
  Bi  Bi12  1  0.75000000  0.61778400  0.31643700  1
  Bi  Bi13  1  0.25000000  0.38221600  0.68356300  1
  Bi  Bi14  1  0.25000000  0.11778400  0.18356300  1
  Bi  Bi15  1  0.25000000  0.86884500  0.69026900  1
  O  O16  1  0.50892100  0.11819000  0.40792300  1
  O  O17  1  0.50778900  0.86746800  0.91370500  1
  O  O18  1  0.49107900  0.61819000  0.09207700  1
  O  O19  1  0.00892100  0.88181000  0.59207700  1
  O  O20  1  0.25000000  0.37272600  0.24408400  1
  O  O21  1  0.99107900  0.11819000  0.40792300  1
  O  O22  1  0.99221100  0.63253200  0.41370500  1
  O  O23  1  0.75000000  0.62727400  0.75591600  1
  O  O24  1  0.49107900  0.88181000  0.59207700  1
  O  O25  1  0.50892100  0.38181000  0.90792300  1
  O  O26  1  0.49221100  0.13253200  0.08629500  1
  O  O27  1  0.99221100  0.86746800  0.91370500  1
  O  O28  1  0.00892100  0.61819000  0.09207700  1
  O  O29  1  0.00778900  0.13253200  0.08629500  1
  O  O30  1  0.49221100  0.36746800  0.58629500  1
  O  O31  1  0.25000000  0.12727400  0.74408400  1
  O  O32  1  0.00778900  0.36746800  0.58629500  1
  O  O33  1  0.99107900  0.38181000  0.90792300  1
  O  O34  1  0.50778900  0.63253200  0.41370500  1
  O  O35  1  0.75000000  0.87272600  0.25591600  1
