# generated using pymatgen
data_Re3Te4Cl5
_symmetry_space_group_name_H-M   'P 1'
_cell_length_a   9.43250600
_cell_length_b   16.00341100
_cell_length_c   20.33187700
_cell_angle_alpha   90.00000000
_cell_angle_beta   90.00000000
_cell_angle_gamma   90.00000000
_symmetry_Int_Tables_number   1
_chemical_formula_structural   Re3Te4Cl5
_chemical_formula_sum   'Re24 Te32 Cl40'
_cell_volume   3069.14299216
_cell_formula_units_Z   8
loop_
 _symmetry_equiv_pos_site_id
 _symmetry_equiv_pos_as_xyz
  1  'x, y, z'
loop_
 _atom_site_type_symbol
 _atom_site_label
 _atom_site_symmetry_multiplicity
 _atom_site_fract_x
 _atom_site_fract_y
 _atom_site_fract_z
 _atom_site_occupancy
  Re  Re0  1  0.45117700  0.76717800  0.34130300  1
  Re  Re1  1  0.95117700  0.23282200  0.65869700  1
  Re  Re2  1  0.45117700  0.73282200  0.84130300  1
  Re  Re3  1  0.95117700  0.26717800  0.15869700  1
  Re  Re4  1  0.80075600  0.69063700  0.27150900  1
  Re  Re5  1  0.30075600  0.30936300  0.72849100  1
  Re  Re6  1  0.80075600  0.80936300  0.77150900  1
  Re  Re7  1  0.30075600  0.19063700  0.22849100  1
  Re  Re8  1  0.52752200  0.66300300  0.24464400  1
  Re  Re9  1  0.02752200  0.33699700  0.75535600  1
  Re  Re10  1  0.52752200  0.83699700  0.74464400  1
  Re  Re11  1  0.02752200  0.16300300  0.25535600  1
  Re  Re12  1  0.62641200  0.81901200  0.24712000  1
  Re  Re13  1  0.12641200  0.18098800  0.75288000  1
  Re  Re14  1  0.62641200  0.68098800  0.74712000  1
  Re  Re15  1  0.12641200  0.31901200  0.25288000  1
  Re  Re16  1  0.62318400  0.63708400  0.36689700  1
  Re  Re17  1  0.12318400  0.36291600  0.63310300  1
  Re  Re18  1  0.62318400  0.86291600  0.86689700  1
  Re  Re19  1  0.12318400  0.13708400  0.13310300  1
  Re  Re20  1  0.72635100  0.79495300  0.36920500  1
  Re  Re21  1  0.22635100  0.20504700  0.63079500  1
  Re  Re22  1  0.72635100  0.70504700  0.86920500  1
  Re  Re23  1  0.22635100  0.29495300  0.13079500  1
  Te  Te24  1  0.55456600  0.92730800  0.34258600  1
  Te  Te25  1  0.05456600  0.07269200  0.65741400  1
  Te  Te26  1  0.55456600  0.57269200  0.84258600  1
  Te  Te27  1  0.05456600  0.42730800  0.15741400  1
  Te  Te28  1  0.54623000  0.74564800  0.46515200  1
  Te  Te29  1  0.04623000  0.25435200  0.53484800  1
  Te  Te30  1  0.54623000  0.75435200  0.96515200  1
  Te  Te31  1  0.04623000  0.24564800  0.03484800  1
  Te  Te32  1  0.34712800  0.60874900  0.33722900  1
  Te  Te33  1  0.84712800  0.39125100  0.66277100  1
  Te  Te34  1  0.34712800  0.89125100  0.83722900  1
  Te  Te35  1  0.84712800  0.10874900  0.16277100  1
  Te  Te36  1  0.61185100  0.52302600  0.46175500  1
  Te  Te37  1  0.11185100  0.47697400  0.53824500  1
  Te  Te38  1  0.61185100  0.97697400  0.96175500  1
  Te  Te39  1  0.11185100  0.02302600  0.03824500  1
  Te  Te40  1  0.90117500  0.85053600  0.27115500  1
  Te  Te41  1  0.40117500  0.14946400  0.72884500  1
  Te  Te42  1  0.90117500  0.64946400  0.77115500  1
  Te  Te43  1  0.40117500  0.35053600  0.22884500  1
  Te  Te44  1  0.88933200  0.89786300  0.44146100  1
  Te  Te45  1  0.38933200  0.10213700  0.55853900  1
  Te  Te46  1  0.88933200  0.60213700  0.94146100  1
  Te  Te47  1  0.38933200  0.39786300  0.05853900  1
  Te  Te48  1  0.90226200  0.66508700  0.39306300  1
  Te  Te49  1  0.40226200  0.33491300  0.60693700  1
  Te  Te50  1  0.90226200  0.83491300  0.89306300  1
  Te  Te51  1  0.40226200  0.16508700  0.10693700  1
  Te  Te52  1  0.69760300  0.53133900  0.26901800  1
  Te  Te53  1  0.19760300  0.46866100  0.73098200  1
  Te  Te54  1  0.69760300  0.96866100  0.76901800  1
  Te  Te55  1  0.19760300  0.03133900  0.23098200  1
  Cl  Cl56  1  0.98470400  0.81879200  0.53065500  1
  Cl  Cl57  1  0.48470400  0.18120800  0.46934500  1
  Cl  Cl58  1  0.98470400  0.68120800  0.03065500  1
  Cl  Cl59  1  0.48470400  0.31879200  0.96934500  1
  Cl  Cl60  1  0.80793500  0.42619000  0.44822200  1
  Cl  Cl61  1  0.30793500  0.57381000  0.55177800  1
  Cl  Cl62  1  0.80793500  0.07381000  0.94822200  1
  Cl  Cl63  1  0.30793500  0.92619000  0.05177800  1
  Cl  Cl64  1  0.22312500  0.81788300  0.37667300  1
  Cl  Cl65  1  0.72312500  0.18211700  0.62332700  1
  Cl  Cl66  1  0.22312500  0.68211700  0.87667300  1
  Cl  Cl67  1  0.72312500  0.31788300  0.12332700  1
  Cl  Cl68  1  0.44573100  0.41654600  0.42811000  1
  Cl  Cl69  1  0.94573100  0.58345400  0.57189000  1
  Cl  Cl70  1  0.44573100  0.08345400  0.92811000  1
  Cl  Cl71  1  0.94573100  0.91654600  0.07189000  1
  Cl  Cl72  1  0.40582900  0.59224600  0.15867000  1
  Cl  Cl73  1  0.90582900  0.40775400  0.84133000  1
  Cl  Cl74  1  0.40582900  0.90775400  0.65867000  1
  Cl  Cl75  1  0.90582900  0.09224600  0.34133000  1
  Cl  Cl76  1  0.60940500  0.92229400  0.16405600  1
  Cl  Cl77  1  0.10940500  0.07770600  0.83594400  1
  Cl  Cl78  1  0.60940500  0.57770600  0.66405600  1
  Cl  Cl79  1  0.10940500  0.42229400  0.33594400  1
  Cl  Cl80  1  0.01500100  0.64638700  0.22020100  1
  Cl  Cl81  1  0.51500100  0.35361300  0.77979900  1
  Cl  Cl82  1  0.01500100  0.85361300  0.72020100  1
  Cl  Cl83  1  0.51500100  0.14638700  0.27979900  1
  Cl  Cl84  1  0.73587000  0.97736900  0.51167900  1
  Cl  Cl85  1  0.23587000  0.02263100  0.48832100  1
  Cl  Cl86  1  0.73587000  0.52263100  0.01167900  1
  Cl  Cl87  1  0.23587000  0.47736900  0.98832100  1
  Cl  Cl88  1  0.69642000  0.71647400  0.15814900  1
  Cl  Cl89  1  0.19642000  0.28352600  0.84185100  1
  Cl  Cl90  1  0.69642000  0.78352600  0.65814900  1
  Cl  Cl91  1  0.19642000  0.21647400  0.34185100  1
  Cl  Cl92  1  0.36823000  0.78672700  0.22415500  1
  Cl  Cl93  1  0.86823000  0.21327300  0.77584500  1
  Cl  Cl94  1  0.36823000  0.71327300  0.72415500  1
  Cl  Cl95  1  0.86823000  0.28672700  0.27584500  1
