# generated using pymatgen
data_Sr(InSe2)2
_symmetry_space_group_name_H-M   'P 1'
_cell_length_a   15.82456160
_cell_length_b   13.12812932
_cell_length_c   13.11042448
_cell_angle_alpha   74.18494300
_cell_angle_beta   52.95866166
_cell_angle_gamma   52.85639534
_symmetry_Int_Tables_number   1
_chemical_formula_structural   Sr(InSe2)2
_chemical_formula_sum   'Sr8 In16 Se32'
_cell_volume   1715.07081665
_cell_formula_units_Z   8
loop_
 _symmetry_equiv_pos_site_id
 _symmetry_equiv_pos_as_xyz
  1  'x, y, z'
loop_
 _atom_site_type_symbol
 _atom_site_label
 _atom_site_symmetry_multiplicity
 _atom_site_fract_x
 _atom_site_fract_y
 _atom_site_fract_z
 _atom_site_occupancy
  Sr  Sr0  1  0.75000000  0.75000000  0.75000000  1
  Sr  Sr1  1  0.50000000  0.50000000  0.50000000  1
  Sr  Sr2  1  0.25000000  0.25000000  0.25000000  1
  Sr  Sr3  1  0.00000000  0.00000000  0.00000000  1
  Sr  Sr4  1  0.00272500  0.49727500  0.00272500  1
  Sr  Sr5  1  0.49727500  0.00272500  0.49727500  1
  Sr  Sr6  1  0.24727500  0.75272500  0.24727500  1
  Sr  Sr7  1  0.75272500  0.24727500  0.75272500  1
  In  In8  1  0.26722000  0.09172800  0.98232100  1
  In  In9  1  0.65873100  0.98232100  0.09172800  1
  In  In10  1  0.98232100  0.65873100  0.26722000  1
  In  In11  1  0.09172800  0.26722000  0.65873100  1
  In  In12  1  0.98278000  0.15827200  0.26767900  1
  In  In13  1  0.59126900  0.26767900  0.15827200  1
  In  In14  1  0.26767900  0.59126900  0.98278000  1
  In  In15  1  0.15827200  0.98278000  0.59126900  1
  In  In16  1  0.51097300  0.76214400  0.23787500  1
  In  In17  1  0.48900800  0.23787500  0.76214400  1
  In  In18  1  0.23787500  0.48900800  0.51097300  1
  In  In19  1  0.76214400  0.51097300  0.48900800  1
  In  In20  1  0.73902700  0.48785600  0.01212500  1
  In  In21  1  0.76099200  0.01212500  0.48785600  1
  In  In22  1  0.01212500  0.76099200  0.73902700  1
  In  In23  1  0.48785600  0.73902700  0.76099200  1
  Se  Se24  1  0.76595200  0.80779800  0.48063200  1
  Se  Se25  1  0.94561900  0.48063200  0.80779800  1
  Se  Se26  1  0.48063200  0.94561900  0.76595100  1
  Se  Se27  1  0.80779800  0.76595200  0.94561900  1
  Se  Se28  1  0.48404900  0.44220200  0.76936800  1
  Se  Se29  1  0.30438100  0.76936800  0.44220200  1
  Se  Se30  1  0.76936800  0.30438100  0.48404800  1
  Se  Se31  1  0.44220200  0.48404900  0.30438100  1
  Se  Se32  1  0.97829700  0.45732100  0.27384100  1
  Se  Se33  1  0.29054200  0.27384100  0.45732100  1
  Se  Se34  1  0.27384100  0.29054200  0.97829700  1
  Se  Se35  1  0.45732100  0.97829700  0.29054200  1
  Se  Se36  1  0.27170300  0.79267900  0.97615900  1
  Se  Se37  1  0.95945800  0.97615900  0.79267900  1
  Se  Se38  1  0.97615900  0.95945800  0.27170300  1
  Se  Se39  1  0.79267900  0.27170300  0.95945800  1
  Se  Se40  1  0.71406800  0.03612200  0.21596700  1
  Se  Se41  1  0.03384300  0.21596700  0.03612200  1
  Se  Se42  1  0.21596700  0.03384300  0.71406800  1
  Se  Se43  1  0.03612200  0.71406800  0.03384300  1
  Se  Se44  1  0.53593200  0.21387800  0.03403300  1
  Se  Se45  1  0.21615700  0.03403300  0.21387800  1
  Se  Se46  1  0.03403300  0.21615700  0.53593200  1
  Se  Se47  1  0.21387800  0.53593200  0.21615700  1
  Se  Se48  1  0.71339100  0.53729600  0.71556700  1
  Se  Se49  1  0.03374600  0.71556700  0.53729600  1
  Se  Se50  1  0.71556700  0.03374600  0.71339100  1
  Se  Se51  1  0.53729600  0.71339100  0.03374600  1
  Se  Se52  1  0.53660900  0.71270400  0.53443300  1
  Se  Se53  1  0.21625400  0.53443300  0.71270400  1
  Se  Se54  1  0.53443300  0.21625400  0.53660900  1
  Se  Se55  1  0.71270400  0.53660900  0.21625400  1
