# generated using pymatgen
data_Cd2As3Br
_symmetry_space_group_name_H-M   'P 1'
_cell_length_a   6.41327697
_cell_length_b   6.41327697
_cell_length_c   8.18268848
_cell_angle_alpha   82.66127356
_cell_angle_beta   82.66127356
_cell_angle_gamma   97.60593533
_symmetry_Int_Tables_number   1
_chemical_formula_structural   Cd2As3Br
_chemical_formula_sum   'Cd4 As6 Br2'
_cell_volume   327.26045546
_cell_formula_units_Z   2
loop_
 _symmetry_equiv_pos_site_id
 _symmetry_equiv_pos_as_xyz
  1  'x, y, z'
loop_
 _atom_site_type_symbol
 _atom_site_label
 _atom_site_symmetry_multiplicity
 _atom_site_fract_x
 _atom_site_fract_y
 _atom_site_fract_z
 _atom_site_occupancy
  Cd  Cd0  1  0.38822600  0.08700300  0.20804900  1
  Cd  Cd1  1  0.91299700  0.61177400  0.29195100  1
  Cd  Cd2  1  0.08700300  0.38822600  0.70804900  1
  Cd  Cd3  1  0.61177400  0.91299700  0.79195100  1
  As  As4  1  0.17415900  0.07967300  0.52830000  1
  As  As5  1  0.92032700  0.82584100  0.97170000  1
  As  As6  1  0.82584100  0.92032700  0.47170000  1
  As  As7  1  0.79090200  0.20909800  0.25000000  1
  As  As8  1  0.20909800  0.79090200  0.75000000  1
  As  As9  1  0.07967300  0.17415900  0.02830000  1
  Br  Br10  1  0.36162700  0.63837300  0.25000000  1
  Br  Br11  1  0.63837300  0.36162700  0.75000000  1
