# generated using pymatgen
data_VBr2O
_symmetry_space_group_name_H-M   'P 1'
_cell_length_a   3.71586178
_cell_length_b   3.65497858
_cell_length_c   7.60287552
_cell_angle_alpha   104.17206590
_cell_angle_beta   104.33662900
_cell_angle_gamma   89.98646616
_symmetry_Int_Tables_number   1
_chemical_formula_structural   VBr2O
_chemical_formula_sum   'V1 Br2 O1'
_cell_volume   96.79653057
_cell_formula_units_Z   1
loop_
 _symmetry_equiv_pos_site_id
 _symmetry_equiv_pos_as_xyz
  1  'x, y, z'
loop_
 _atom_site_type_symbol
 _atom_site_label
 _atom_site_symmetry_multiplicity
 _atom_site_fract_x
 _atom_site_fract_y
 _atom_site_fract_z
 _atom_site_occupancy
  V  V0  1  0.00000100  0.00000000  0.00000000  1
  Br  Br1  1  0.37223600  0.87138200  0.74792700  1
  Br  Br2  1  0.62776400  0.12861700  0.25207400  1
  O  O3  1  0.99999900  0.50000000  0.00000000  1
