# generated using pymatgen
data_Ca3(AlN2)2
_symmetry_space_group_name_H-M   'P 1'
_cell_length_a   5.85633600
_cell_length_b   10.75185600
_cell_length_c   15.91666800
_cell_angle_alpha   90.00000000
_cell_angle_beta   90.00000000
_cell_angle_gamma   90.00000000
_symmetry_Int_Tables_number   1
_chemical_formula_structural   Ca3(AlN2)2
_chemical_formula_sum   'Ca24 Al16 N32'
_cell_volume   1002.21657893
_cell_formula_units_Z   8
loop_
 _symmetry_equiv_pos_site_id
 _symmetry_equiv_pos_as_xyz
  1  'x, y, z'
loop_
 _atom_site_type_symbol
 _atom_site_label
 _atom_site_symmetry_multiplicity
 _atom_site_fract_x
 _atom_site_fract_y
 _atom_site_fract_z
 _atom_site_occupancy
  Ca  Ca0  1  0.72254700  0.76677900  0.55886100  1
  Ca  Ca1  1  0.22254700  0.73322100  0.44113900  1
  Ca  Ca2  1  0.27745300  0.26677900  0.94113900  1
  Ca  Ca3  1  0.77745300  0.23322100  0.05886100  1
  Ca  Ca4  1  0.99846500  0.50981000  0.57325500  1
  Ca  Ca5  1  0.49846500  0.99019000  0.42674500  1
  Ca  Ca6  1  0.00153500  0.00981000  0.92674500  1
  Ca  Ca7  1  0.50153500  0.49019000  0.07325500  1
  Ca  Ca8  1  0.03606400  0.97217600  0.70377900  1
  Ca  Ca9  1  0.53606400  0.52782400  0.29622100  1
  Ca  Ca10  1  0.96393600  0.47217600  0.79622100  1
  Ca  Ca11  1  0.46393600  0.02782400  0.20377900  1
  Ca  Ca12  1  0.20671400  0.75862200  0.06181200  1
  Ca  Ca13  1  0.70671400  0.74137800  0.93818800  1
  Ca  Ca14  1  0.79328600  0.25862200  0.43818800  1
  Ca  Ca15  1  0.29328600  0.24137800  0.56181200  1
  Ca  Ca16  1  0.23893000  0.73629200  0.83343600  1
  Ca  Ca17  1  0.73893000  0.76370800  0.16656400  1
  Ca  Ca18  1  0.76107000  0.23629200  0.66656400  1
  Ca  Ca19  1  0.26107000  0.26370800  0.33343600  1
  Ca  Ca20  1  0.46740400  0.49050700  0.67969400  1
  Ca  Ca21  1  0.96740400  0.00949300  0.32030600  1
  Ca  Ca22  1  0.53259600  0.99050700  0.82030600  1
  Ca  Ca23  1  0.03259600  0.50949300  0.17969400  1
  Al  Al24  1  0.01353200  0.99116300  0.50704100  1
  Al  Al25  1  0.51353200  0.50883700  0.49295900  1
  Al  Al26  1  0.98646800  0.49116300  0.99295900  1
  Al  Al27  1  0.48646800  0.00883700  0.00704100  1
  Al  Al28  1  0.25541100  0.24953500  0.74858800  1
  Al  Al29  1  0.75541100  0.25046500  0.25141200  1
  Al  Al30  1  0.74458900  0.74953500  0.75141200  1
  Al  Al31  1  0.24458900  0.75046500  0.24858800  1
  Al  Al32  1  0.26275200  0.75616100  0.62849500  1
  Al  Al33  1  0.76275200  0.74383900  0.37150500  1
  Al  Al34  1  0.73724800  0.25616100  0.87150500  1
  Al  Al35  1  0.23724800  0.24383900  0.12849500  1
  Al  Al36  1  0.49258400  0.98158800  0.63101600  1
  Al  Al37  1  0.99258400  0.51841200  0.36898400  1
  Al  Al38  1  0.50741600  0.48158800  0.86898400  1
  Al  Al39  1  0.00741600  0.01841200  0.13101600  1
  N  N40  1  0.88124500  0.86487200  0.82787200  1
  N  N41  1  0.38124500  0.63512800  0.17212800  1
  N  N42  1  0.11875500  0.36487200  0.67212800  1
  N  N43  1  0.61875500  0.13512800  0.32787200  1
  N  N44  1  0.97694200  0.70755300  0.67188900  1
  N  N45  1  0.47694200  0.79244700  0.32811100  1
  N  N46  1  0.02305800  0.20755300  0.82811100  1
  N  N47  1  0.52305800  0.29244700  0.17188900  1
  N  N48  1  0.12893600  0.88745300  0.19091500  1
  N  N49  1  0.62893600  0.61254700  0.80908500  1
  N  N50  1  0.87106400  0.38745300  0.30908500  1
  N  N51  1  0.37106400  0.11254700  0.69091500  1
  N  N52  1  0.21846100  0.52640200  0.91114300  1
  N  N53  1  0.71846100  0.97359800  0.08885700  1
  N  N54  1  0.78153900  0.02640200  0.58885700  1
  N  N55  1  0.28153900  0.47359800  0.41114300  1
  N  N56  1  0.27408800  0.90441100  0.55538900  1
  N  N57  1  0.77408800  0.59558900  0.44461100  1
  N  N58  1  0.72591200  0.40441100  0.94461100  1
  N  N59  1  0.22591200  0.09558900  0.05538900  1
  N  N60  1  0.37040200  0.87329900  0.94225100  1
  N  N61  1  0.87040200  0.62670100  0.05774900  1
  N  N62  1  0.62959800  0.37329900  0.55774900  1
  N  N63  1  0.12959800  0.12670100  0.44225100  1
  N  N64  1  0.38006000  0.62706700  0.56566300  1
  N  N65  1  0.88006000  0.87293300  0.43433700  1
  N  N66  1  0.61994000  0.12706700  0.93433700  1
  N  N67  1  0.11994000  0.37293300  0.06566300  1
  N  N68  1  0.48032100  0.83341000  0.70368300  1
  N  N69  1  0.98032100  0.66659000  0.29631700  1
  N  N70  1  0.51967900  0.33341000  0.79631700  1
  N  N71  1  0.01967900  0.16659000  0.20368300  1
