# generated using pymatgen
data_PuBrO
_symmetry_space_group_name_H-M   'P 1'
_cell_length_a   3.94262400
_cell_length_b   3.94262400
_cell_length_c   8.55871300
_cell_angle_alpha   90.00000000
_cell_angle_beta   90.00000000
_cell_angle_gamma   90.00000000
_symmetry_Int_Tables_number   1
_chemical_formula_structural   PuBrO
_chemical_formula_sum   'Pu2 Br2 O2'
_cell_volume   133.03906559
_cell_formula_units_Z   2
loop_
 _symmetry_equiv_pos_site_id
 _symmetry_equiv_pos_as_xyz
  1  'x, y, z'
loop_
 _atom_site_type_symbol
 _atom_site_label
 _atom_site_symmetry_multiplicity
 _atom_site_fract_x
 _atom_site_fract_y
 _atom_site_fract_z
 _atom_site_occupancy
  Pu  Pu0  1  0.50000000  0.00000000  0.86046100  1
  Pu  Pu1  1  0.00000000  0.50000000  0.13953900  1
  Br  Br2  1  0.00000000  0.50000000  0.67015900  1
  Br  Br3  1  0.50000000  0.00000000  0.32984100  1
  O  O4  1  0.00000000  0.00000000  0.00000000  1
  O  O5  1  0.50000000  0.50000000  0.00000000  1
