# generated using pymatgen
data_CeInCu
_symmetry_space_group_name_H-M   'P 1'
_cell_length_a   7.36684979
_cell_length_b   7.36684979
_cell_length_c   4.29487700
_cell_angle_alpha   90.00000000
_cell_angle_beta   90.00000000
_cell_angle_gamma   119.99999809
_symmetry_Int_Tables_number   1
_chemical_formula_structural   CeInCu
_chemical_formula_sum   'Ce3 In3 Cu3'
_cell_volume   201.85755092
_cell_formula_units_Z   3
loop_
 _symmetry_equiv_pos_site_id
 _symmetry_equiv_pos_as_xyz
  1  'x, y, z'
loop_
 _atom_site_type_symbol
 _atom_site_label
 _atom_site_symmetry_multiplicity
 _atom_site_fract_x
 _atom_site_fract_y
 _atom_site_fract_z
 _atom_site_occupancy
  Ce  Ce0  1  0.00000000  0.58185100  0.50000000  1
  Ce  Ce1  1  0.41814900  0.41814900  0.50000000  1
  Ce  Ce2  1  0.58185100  0.00000000  0.50000000  1
  In  In3  1  0.75277500  0.75277500  0.00000000  1
  In  In4  1  0.00000000  0.24722500  0.00000000  1
  In  In5  1  0.24722500  0.00000000  0.00000000  1
  Cu  Cu6  1  0.33333300  0.66666700  0.00000000  1
  Cu  Cu7  1  0.00000000  0.00000000  0.50000000  1
  Cu  Cu8  1  0.66666700  0.33333300  0.00000000  1
