# generated using pymatgen
data_CeSbRh
_symmetry_space_group_name_H-M   'P 1'
_cell_length_a   4.65769700
_cell_length_b   7.34159100
_cell_length_c   7.83682300
_cell_angle_alpha   90.00000000
_cell_angle_beta   90.00000000
_cell_angle_gamma   90.00000000
_symmetry_Int_Tables_number   1
_chemical_formula_structural   CeSbRh
_chemical_formula_sum   'Ce4 Sb4 Rh4'
_cell_volume   267.97942877
_cell_formula_units_Z   4
loop_
 _symmetry_equiv_pos_site_id
 _symmetry_equiv_pos_as_xyz
  1  'x, y, z'
loop_
 _atom_site_type_symbol
 _atom_site_label
 _atom_site_symmetry_multiplicity
 _atom_site_fract_x
 _atom_site_fract_y
 _atom_site_fract_z
 _atom_site_occupancy
  Ce  Ce0  1  0.25000000  0.51354500  0.19843600  1
  Ce  Ce1  1  0.75000000  0.48645500  0.80156400  1
  Ce  Ce2  1  0.25000000  0.01354500  0.30156400  1
  Ce  Ce3  1  0.75000000  0.98645500  0.69843600  1
  Sb  Sb4  1  0.25000000  0.18568700  0.90851700  1
  Sb  Sb5  1  0.75000000  0.31431300  0.40851700  1
  Sb  Sb6  1  0.25000000  0.68568700  0.59148300  1
  Sb  Sb7  1  0.75000000  0.81431300  0.09148300  1
  Rh  Rh8  1  0.75000000  0.21378200  0.07699200  1
  Rh  Rh9  1  0.25000000  0.28621800  0.57699200  1
  Rh  Rh10  1  0.75000000  0.71378200  0.42300800  1
  Rh  Rh11  1  0.25000000  0.78621800  0.92300800  1
