# generated using pymatgen
data_TlCl2
_symmetry_space_group_name_H-M   'P 1'
_cell_length_a   9.44554156
_cell_length_b   9.44554156
_cell_length_c   9.44554156
_cell_angle_alpha   135.42278761
_cell_angle_beta   135.42278761
_cell_angle_gamma   64.87398829
_symmetry_Int_Tables_number   1
_chemical_formula_structural   TlCl2
_chemical_formula_sum   'Tl4 Cl8'
_cell_volume   409.23766264
_cell_formula_units_Z   4
loop_
 _symmetry_equiv_pos_site_id
 _symmetry_equiv_pos_as_xyz
  1  'x, y, z'
loop_
 _atom_site_type_symbol
 _atom_site_label
 _atom_site_symmetry_multiplicity
 _atom_site_fract_x
 _atom_site_fract_y
 _atom_site_fract_z
 _atom_site_occupancy
  Tl  Tl0  1  0.25000000  0.75000000  0.50000000  1
  Tl  Tl1  1  0.50000000  0.50000000  0.00000000  1
  Tl  Tl2  1  0.75000000  0.25000000  0.50000000  1
  Tl  Tl3  1  0.00000000  0.00000000  0.00000000  1
  Cl  Cl4  1  0.82148800  0.41035300  0.90168100  1
  Cl  Cl5  1  0.16035300  0.75867300  0.08886500  1
  Cl  Cl6  1  0.66980700  0.07148800  0.91113500  1
  Cl  Cl7  1  0.50867300  0.91980700  0.09831900  1
  Cl  Cl8  1  0.24132700  0.33019300  0.40168100  1
  Cl  Cl9  1  0.08019300  0.17851200  0.58886500  1
  Cl  Cl10  1  0.58964700  0.49132700  0.41113500  1
  Cl  Cl11  1  0.92851200  0.83964700  0.59831900  1
