# generated using pymatgen
data_U2Fe2Sn
_symmetry_space_group_name_H-M   'P 1'
_cell_length_a   7.27432700
_cell_length_b   7.27432700
_cell_length_c   3.35550200
_cell_angle_alpha   90.00000000
_cell_angle_beta   90.00000000
_cell_angle_gamma   90.00000000
_symmetry_Int_Tables_number   1
_chemical_formula_structural   U2Fe2Sn
_chemical_formula_sum   'U4 Fe4 Sn2'
_cell_volume   177.55918448
_cell_formula_units_Z   2
loop_
 _symmetry_equiv_pos_site_id
 _symmetry_equiv_pos_as_xyz
  1  'x, y, z'
loop_
 _atom_site_type_symbol
 _atom_site_label
 _atom_site_symmetry_multiplicity
 _atom_site_fract_x
 _atom_site_fract_y
 _atom_site_fract_z
 _atom_site_occupancy
  U  U0  1  0.33485900  0.83485900  0.50000000  1
  U  U1  1  0.83485900  0.66514100  0.50000000  1
  U  U2  1  0.16514100  0.33485900  0.50000000  1
  U  U3  1  0.66514100  0.16514100  0.50000000  1
  Fe  Fe4  1  0.36490900  0.13509100  0.00000000  1
  Fe  Fe5  1  0.86490900  0.36490900  0.00000000  1
  Fe  Fe6  1  0.13509100  0.63509100  0.00000000  1
  Fe  Fe7  1  0.63509100  0.86490900  0.00000000  1
  Sn  Sn8  1  0.00000000  0.00000000  0.00000000  1
  Sn  Sn9  1  0.50000000  0.50000000  0.00000000  1
