# generated using pymatgen
data_SiH3I
_symmetry_space_group_name_H-M   'P 1'
_cell_length_a   8.87845000
_cell_length_b   4.90221400
_cell_length_c   11.04186803
_cell_angle_alpha   75.49338050
_cell_angle_beta   90.00000000
_cell_angle_gamma   90.00000000
_symmetry_Int_Tables_number   1
_chemical_formula_structural   SiH3I
_chemical_formula_sum   'Si4 H12 I4'
_cell_volume   465.26521421
_cell_formula_units_Z   4
loop_
 _symmetry_equiv_pos_site_id
 _symmetry_equiv_pos_as_xyz
  1  'x, y, z'
loop_
 _atom_site_type_symbol
 _atom_site_label
 _atom_site_symmetry_multiplicity
 _atom_site_fract_x
 _atom_site_fract_y
 _atom_site_fract_z
 _atom_site_occupancy
  Si  Si0  1  0.92610200  0.56119500  0.70989400  1
  Si  Si1  1  0.42610200  0.43880500  0.79010600  1
  Si  Si2  1  0.07389800  0.43880500  0.29010600  1
  Si  Si3  1  0.57389800  0.56119500  0.20989400  1
  H  H4  1  0.84107900  0.34182800  0.80194700  1
  H  H5  1  0.34107900  0.65817200  0.69805300  1
  H  H6  1  0.15892100  0.65817200  0.19805300  1
  H  H7  1  0.65892100  0.34182800  0.30194700  1
  H  H8  1  0.02713000  0.43548900  0.63113900  1
  H  H9  1  0.52713000  0.56451100  0.86886100  1
  H  H10  1  0.97287000  0.56451100  0.36886100  1
  H  H11  1  0.47287000  0.43548900  0.13113900  1
  H  H12  1  0.49191500  0.75493900  0.27109600  1
  H  H13  1  0.99191500  0.24506100  0.22890400  1
  H  H14  1  0.50808500  0.24506100  0.72890400  1
  H  H15  1  0.00808500  0.75493900  0.77109600  1
  I  I16  1  0.73683700  0.85163700  0.56852000  1
  I  I17  1  0.23683700  0.14836300  0.93148000  1
  I  I18  1  0.26316300  0.14836300  0.43148000  1
  I  I19  1  0.76316300  0.85163700  0.06852000  1
