# generated using pymatgen
data_Hf5FeTe3
_symmetry_space_group_name_H-M   'P 1'
_cell_length_a   3.67073900
_cell_length_b   13.37794800
_cell_length_c   18.07708300
_cell_angle_alpha   90.00000000
_cell_angle_beta   90.00000000
_cell_angle_gamma   90.00000000
_symmetry_Int_Tables_number   1
_chemical_formula_structural   Hf5FeTe3
_chemical_formula_sum   'Hf20 Fe4 Te12'
_cell_volume   887.71050979
_cell_formula_units_Z   4
loop_
 _symmetry_equiv_pos_site_id
 _symmetry_equiv_pos_as_xyz
  1  'x, y, z'
loop_
 _atom_site_type_symbol
 _atom_site_label
 _atom_site_symmetry_multiplicity
 _atom_site_fract_x
 _atom_site_fract_y
 _atom_site_fract_z
 _atom_site_occupancy
  Hf  Hf0  1  0.25000000  0.64049000  0.24321200  1
  Hf  Hf1  1  0.75000000  0.35951000  0.75678800  1
  Hf  Hf2  1  0.75000000  0.14049000  0.25678800  1
  Hf  Hf3  1  0.25000000  0.85951000  0.74321200  1
  Hf  Hf4  1  0.25000000  0.57013200  0.95721600  1
  Hf  Hf5  1  0.75000000  0.42986800  0.04278400  1
  Hf  Hf6  1  0.75000000  0.07013200  0.54278400  1
  Hf  Hf7  1  0.25000000  0.92986800  0.45721600  1
  Hf  Hf8  1  0.75000000  0.84992600  0.58911000  1
  Hf  Hf9  1  0.25000000  0.15007400  0.41089000  1
  Hf  Hf10  1  0.25000000  0.34992600  0.91089000  1
  Hf  Hf11  1  0.75000000  0.65007400  0.08911000  1
  Hf  Hf12  1  0.25000000  0.22548300  0.62267100  1
  Hf  Hf13  1  0.75000000  0.77451700  0.37732900  1
  Hf  Hf14  1  0.75000000  0.72548300  0.87732900  1
  Hf  Hf15  1  0.25000000  0.27451700  0.12267100  1
  Hf  Hf16  1  0.25000000  0.55973100  0.78973000  1
  Hf  Hf17  1  0.75000000  0.44026900  0.21027000  1
  Hf  Hf18  1  0.75000000  0.05973100  0.71027000  1
  Hf  Hf19  1  0.25000000  0.94026900  0.28973000  1
  Fe  Fe20  1  0.25000000  0.52243700  0.12988900  1
  Fe  Fe21  1  0.75000000  0.47756300  0.87011100  1
  Fe  Fe22  1  0.75000000  0.02243700  0.37011100  1
  Fe  Fe23  1  0.25000000  0.97756300  0.62988900  1
  Te  Te24  1  0.25000000  0.44325300  0.64824000  1
  Te  Te25  1  0.75000000  0.55674700  0.35176000  1
  Te  Te26  1  0.75000000  0.94325300  0.85176000  1
  Te  Te27  1  0.25000000  0.05674700  0.14824000  1
  Te  Te28  1  0.75000000  0.69376700  0.70637900  1
  Te  Te29  1  0.25000000  0.30623300  0.29362100  1
  Te  Te30  1  0.25000000  0.19376700  0.79362100  1
  Te  Te31  1  0.75000000  0.80623300  0.20637900  1
  Te  Te32  1  0.25000000  0.78620000  0.00062400  1
  Te  Te33  1  0.75000000  0.21380000  0.99937600  1
  Te  Te34  1  0.75000000  0.28620000  0.49937600  1
  Te  Te35  1  0.25000000  0.71380000  0.50062400  1
