# generated using pymatgen
data_Tl2Sn2S3
_symmetry_space_group_name_H-M   'P 1'
_cell_length_a   8.32711930
_cell_length_b   8.32711930
_cell_length_c   7.19098170
_cell_angle_alpha   76.16573650
_cell_angle_beta   76.16573650
_cell_angle_gamma   59.85931656
_symmetry_Int_Tables_number   1
_chemical_formula_structural   Tl2Sn2S3
_chemical_formula_sum   'Tl4 Sn4 S6'
_cell_volume   414.47399470
_cell_formula_units_Z   2
loop_
 _symmetry_equiv_pos_site_id
 _symmetry_equiv_pos_as_xyz
  1  'x, y, z'
loop_
 _atom_site_type_symbol
 _atom_site_label
 _atom_site_symmetry_multiplicity
 _atom_site_fract_x
 _atom_site_fract_y
 _atom_site_fract_z
 _atom_site_occupancy
  Tl  Tl0  1  0.23663100  0.00825300  0.47651200  1
  Tl  Tl1  1  0.99174700  0.76336900  0.02348800  1
  Tl  Tl2  1  0.76336900  0.99174700  0.52348800  1
  Tl  Tl3  1  0.00825300  0.23663100  0.97651200  1
  Sn  Sn4  1  0.74130700  0.49771700  0.53974600  1
  Sn  Sn5  1  0.50228300  0.25869300  0.96025400  1
  Sn  Sn6  1  0.25869300  0.50228300  0.46025400  1
  Sn  Sn7  1  0.49771700  0.74130700  0.03974600  1
  S  S8  1  0.64434800  0.80919900  0.31117000  1
  S  S9  1  0.19080100  0.35565200  0.18883000  1
  S  S10  1  0.35565200  0.19080100  0.68883000  1
  S  S11  1  0.80919900  0.64434800  0.81117000  1
  S  S12  1  0.58925100  0.41074900  0.25000000  1
  S  S13  1  0.41074900  0.58925100  0.75000000  1
