# generated using pymatgen
data_DyCl3
_symmetry_space_group_name_H-M   'P 1'
_cell_length_a   7.28090685
_cell_length_b   7.28090685
_cell_length_c   8.57310500
_cell_angle_alpha   90.00000000
_cell_angle_beta   90.00000000
_cell_angle_gamma   149.78397634
_symmetry_Int_Tables_number   1
_chemical_formula_structural   DyCl3
_chemical_formula_sum   'Dy2 Cl6'
_cell_volume   228.71935447
_cell_formula_units_Z   2
loop_
 _symmetry_equiv_pos_site_id
 _symmetry_equiv_pos_as_xyz
  1  'x, y, z'
loop_
 _atom_site_type_symbol
 _atom_site_label
 _atom_site_symmetry_multiplicity
 _atom_site_fract_x
 _atom_site_fract_y
 _atom_site_fract_z
 _atom_site_occupancy
  Dy  Dy0  1  0.24160100  0.75839900  0.25000000  1
  Dy  Dy1  1  0.75839900  0.24160100  0.75000000  1
  Cl  Cl2  1  0.83618600  0.16381400  0.06889900  1
  Cl  Cl3  1  0.16381400  0.83618600  0.93110100  1
  Cl  Cl4  1  0.39035800  0.60964200  0.75000000  1
  Cl  Cl5  1  0.60964200  0.39035800  0.25000000  1
  Cl  Cl6  1  0.83618600  0.16381400  0.43110100  1
  Cl  Cl7  1  0.16381400  0.83618600  0.56889900  1
