# generated using pymatgen
data_Sr4Cl6O
_symmetry_space_group_name_H-M   'P 1'
_cell_length_a   9.57617627
_cell_length_b   9.57617627
_cell_length_c   7.30659400
_cell_angle_alpha   90.00000000
_cell_angle_beta   90.00000000
_cell_angle_gamma   120.00000187
_symmetry_Int_Tables_number   1
_chemical_formula_structural   Sr4Cl6O
_chemical_formula_sum   'Sr8 Cl12 O2'
_cell_volume   580.26965873
_cell_formula_units_Z   2
loop_
 _symmetry_equiv_pos_site_id
 _symmetry_equiv_pos_as_xyz
  1  'x, y, z'
loop_
 _atom_site_type_symbol
 _atom_site_label
 _atom_site_symmetry_multiplicity
 _atom_site_fract_x
 _atom_site_fract_y
 _atom_site_fract_z
 _atom_site_occupancy
  Sr  Sr0  1  0.19703800  0.39407600  0.89570900  1
  Sr  Sr1  1  0.80296200  0.60592400  0.39570900  1
  Sr  Sr2  1  0.39407600  0.19703800  0.39570900  1
  Sr  Sr3  1  0.19703800  0.80296200  0.89570900  1
  Sr  Sr4  1  0.60592400  0.80296200  0.89570900  1
  Sr  Sr5  1  0.80296200  0.19703800  0.39570900  1
  Sr  Sr6  1  0.33333300  0.66666700  0.32632700  1
  Sr  Sr7  1  0.66666700  0.33333300  0.82632700  1
  Cl  Cl8  1  0.85861700  0.71723400  0.78413000  1
  Cl  Cl9  1  0.14138300  0.28276600  0.28413000  1
  Cl  Cl10  1  0.71723400  0.85861700  0.28413000  1
  Cl  Cl11  1  0.85861700  0.14138300  0.78413000  1
  Cl  Cl12  1  0.53480400  0.46519600  0.10810700  1
  Cl  Cl13  1  0.06960800  0.53480400  0.60810700  1
  Cl  Cl14  1  0.46519600  0.93039200  0.60810700  1
  Cl  Cl15  1  0.53480400  0.06960800  0.10810700  1
  Cl  Cl16  1  0.93039200  0.46519600  0.10810700  1
  Cl  Cl17  1  0.46519600  0.53480400  0.60810700  1
  Cl  Cl18  1  0.14138300  0.85861700  0.28413000  1
  Cl  Cl19  1  0.28276600  0.14138300  0.78413000  1
  O  O20  1  0.66666700  0.33333300  0.50128200  1
  O  O21  1  0.33333300  0.66666700  0.00128200  1
