# generated using pymatgen
data_Zn2BIr2
_symmetry_space_group_name_H-M   'P 1'
_cell_length_a   13.46772976
_cell_length_b   13.46772976
_cell_length_c   10.29398300
_cell_angle_alpha   90.00000000
_cell_angle_beta   90.00000000
_cell_angle_gamma   167.90254109
_symmetry_Int_Tables_number   1
_chemical_formula_structural   Zn2BIr2
_chemical_formula_sum   'Zn12 B6 Ir12'
_cell_volume   391.30204534
_cell_formula_units_Z   6
loop_
 _symmetry_equiv_pos_site_id
 _symmetry_equiv_pos_as_xyz
  1  'x, y, z'
loop_
 _atom_site_type_symbol
 _atom_site_label
 _atom_site_symmetry_multiplicity
 _atom_site_fract_x
 _atom_site_fract_y
 _atom_site_fract_z
 _atom_site_occupancy
  Zn  Zn0  1  0.08864300  0.91135700  0.11980500  1
  Zn  Zn1  1  0.91135700  0.08864300  0.88019500  1
  Zn  Zn2  1  0.91135700  0.08864300  0.61980500  1
  Zn  Zn3  1  0.08864300  0.91135700  0.38019500  1
  Zn  Zn4  1  0.23917200  0.76082800  0.61092700  1
  Zn  Zn5  1  0.76082800  0.23917200  0.38907300  1
  Zn  Zn6  1  0.00000000  0.00000000  0.00000000  1
  Zn  Zn7  1  0.00000000  0.00000000  0.50000000  1
  Zn  Zn8  1  0.81970500  0.18029500  0.75000000  1
  Zn  Zn9  1  0.18029500  0.81970500  0.25000000  1
  Zn  Zn10  1  0.23917200  0.76082800  0.88907300  1
  Zn  Zn11  1  0.76082800  0.23917200  0.11092700  1
  B  B12  1  0.13851300  0.86148700  0.60632500  1
  B  B13  1  0.86148700  0.13851300  0.39367500  1
  B  B14  1  0.86148700  0.13851300  0.10632500  1
  B  B15  1  0.13851300  0.86148700  0.89367500  1
  B  B16  1  0.95891200  0.04108800  0.25000000  1
  B  B17  1  0.04108800  0.95891200  0.75000000  1
  Ir  Ir18  1  0.33144100  0.66855900  0.53059300  1
  Ir  Ir19  1  0.66855900  0.33144100  0.46940700  1
  Ir  Ir20  1  0.66855900  0.33144100  0.03059300  1
  Ir  Ir21  1  0.33144100  0.66855900  0.96940700  1
  Ir  Ir22  1  0.51913900  0.48086100  0.25000000  1
  Ir  Ir23  1  0.48086100  0.51913900  0.75000000  1
  Ir  Ir24  1  0.32870100  0.67129900  0.25000000  1
  Ir  Ir25  1  0.67129900  0.32870100  0.75000000  1
  Ir  Ir26  1  0.57469200  0.42530800  0.60914500  1
  Ir  Ir27  1  0.42530800  0.57469200  0.39085500  1
  Ir  Ir28  1  0.42530800  0.57469200  0.10914500  1
  Ir  Ir29  1  0.57469200  0.42530800  0.89085500  1
