# generated using pymatgen
data_Rb2PrCl5
_symmetry_space_group_name_H-M   'P 1'
_cell_length_a   8.39186000
_cell_length_b   9.02279100
_cell_length_c   13.47205900
_cell_angle_alpha   90.00000000
_cell_angle_beta   90.00000000
_cell_angle_gamma   90.00000000
_symmetry_Int_Tables_number   1
_chemical_formula_structural   Rb2PrCl5
_chemical_formula_sum   'Rb8 Pr4 Cl20'
_cell_volume   1020.07734829
_cell_formula_units_Z   4
loop_
 _symmetry_equiv_pos_site_id
 _symmetry_equiv_pos_as_xyz
  1  'x, y, z'
loop_
 _atom_site_type_symbol
 _atom_site_label
 _atom_site_symmetry_multiplicity
 _atom_site_fract_x
 _atom_site_fract_y
 _atom_site_fract_z
 _atom_site_occupancy
  Rb  Rb0  1  0.44232400  0.50618900  0.67082000  1
  Rb  Rb1  1  0.94232400  0.49381100  0.82918000  1
  Rb  Rb2  1  0.55767600  0.00618900  0.32918000  1
  Rb  Rb3  1  0.05767600  0.99381100  0.17082000  1
  Rb  Rb4  1  0.94232400  0.00618900  0.82918000  1
  Rb  Rb5  1  0.44232400  0.99381100  0.67082000  1
  Rb  Rb6  1  0.05767600  0.50618900  0.17082000  1
  Rb  Rb7  1  0.55767600  0.49381100  0.32918000  1
  Pr  Pr8  1  0.92854700  0.75000000  0.50491300  1
  Pr  Pr9  1  0.42854700  0.25000000  0.99508700  1
  Pr  Pr10  1  0.07145300  0.25000000  0.49508700  1
  Pr  Pr11  1  0.57145300  0.75000000  0.00491300  1
  Cl  Cl12  1  0.33809600  0.95781300  0.92919600  1
  Cl  Cl13  1  0.83809600  0.04218700  0.57080400  1
  Cl  Cl14  1  0.66190400  0.45781300  0.07080400  1
  Cl  Cl15  1  0.16190400  0.54218700  0.42919600  1
  Cl  Cl16  1  0.66190400  0.04218700  0.07080400  1
  Cl  Cl17  1  0.16190400  0.95781300  0.42919600  1
  Cl  Cl18  1  0.33809600  0.54218700  0.92919600  1
  Cl  Cl19  1  0.83809600  0.45781300  0.57080400  1
  Cl  Cl20  1  0.38503400  0.75000000  0.17711700  1
  Cl  Cl21  1  0.88503400  0.25000000  0.32288300  1
  Cl  Cl22  1  0.61496600  0.25000000  0.82288300  1
  Cl  Cl23  1  0.11496600  0.75000000  0.67711700  1
  Cl  Cl24  1  0.09316200  0.25000000  0.98962400  1
  Cl  Cl25  1  0.59316200  0.75000000  0.51037600  1
  Cl  Cl26  1  0.90683800  0.75000000  0.01037600  1
  Cl  Cl27  1  0.40683800  0.25000000  0.48962400  1
  Cl  Cl28  1  0.65242400  0.75000000  0.80295100  1
  Cl  Cl29  1  0.15242400  0.25000000  0.69704900  1
  Cl  Cl30  1  0.34757600  0.25000000  0.19704900  1
  Cl  Cl31  1  0.84757600  0.75000000  0.30295100  1
