# generated using pymatgen
data_La3SiBr3
_symmetry_space_group_name_H-M   'P 1'
_cell_length_a   10.64249266
_cell_length_b   10.64249266
_cell_length_c   10.64249266
_cell_angle_alpha   109.47122063
_cell_angle_beta   109.47122063
_cell_angle_gamma   109.47122063
_symmetry_Int_Tables_number   1
_chemical_formula_structural   La3SiBr3
_chemical_formula_sum   'La12 Si4 Br12'
_cell_volume   927.91498184
_cell_formula_units_Z   4
loop_
 _symmetry_equiv_pos_site_id
 _symmetry_equiv_pos_as_xyz
  1  'x, y, z'
loop_
 _atom_site_type_symbol
 _atom_site_label
 _atom_site_symmetry_multiplicity
 _atom_site_fract_x
 _atom_site_fract_y
 _atom_site_fract_z
 _atom_site_occupancy
  La  La0  1  0.48994000  0.75000000  0.01006000  1
  La  La1  1  0.75000000  0.23994000  0.26006000  1
  La  La2  1  0.23994000  0.26006000  0.75000000  1
  La  La3  1  0.47988100  0.48994000  0.23994000  1
  La  La4  1  0.26006000  0.01006000  0.02011900  1
  La  La5  1  0.23994000  0.47988100  0.48994000  1
  La  La6  1  0.01006000  0.02011900  0.26006000  1
  La  La7  1  0.01006000  0.48994000  0.75000000  1
  La  La8  1  0.48994000  0.23994000  0.47988100  1
  La  La9  1  0.75000000  0.01006000  0.48994000  1
  La  La10  1  0.02011900  0.26006000  0.01006000  1
  La  La11  1  0.26006000  0.75000000  0.23994000  1
  Si  Si12  1  0.25000000  0.25000000  0.25000000  1
  Si  Si13  1  0.00000000  0.25000000  0.50000000  1
  Si  Si14  1  0.25000000  0.50000000  0.00000000  1
  Si  Si15  1  0.50000000  0.00000000  0.25000000  1
  Br  Br16  1  0.99572700  0.99145400  0.74572700  1
  Br  Br17  1  0.75427300  0.74572700  0.25000000  1
  Br  Br18  1  0.99145400  0.74572700  0.99572700  1
  Br  Br19  1  0.25000000  0.99572700  0.50427300  1
  Br  Br20  1  0.74572700  0.99572700  0.99145400  1
  Br  Br21  1  0.50427300  0.25000000  0.99572700  1
  Br  Br22  1  0.74572700  0.25000000  0.75427300  1
  Br  Br23  1  0.50427300  0.75427300  0.50854600  1
  Br  Br24  1  0.75427300  0.50854600  0.50427300  1
  Br  Br25  1  0.25000000  0.75427300  0.74572700  1
  Br  Br26  1  0.50854600  0.50427300  0.75427300  1
  Br  Br27  1  0.99572700  0.50427300  0.25000000  1
