# generated using pymatgen
data_Li4PbO4
_symmetry_space_group_name_H-M   'P 1'
_cell_length_a   5.60567122
_cell_length_b   5.60567122
_cell_length_c   6.63155700
_cell_angle_alpha   90.00000000
_cell_angle_beta   90.00000000
_cell_angle_gamma   97.96760705
_symmetry_Int_Tables_number   1
_chemical_formula_structural   Li4PbO4
_chemical_formula_sum   'Li8 Pb2 O8'
_cell_volume   206.37541696
_cell_formula_units_Z   2
loop_
 _symmetry_equiv_pos_site_id
 _symmetry_equiv_pos_as_xyz
  1  'x, y, z'
loop_
 _atom_site_type_symbol
 _atom_site_label
 _atom_site_symmetry_multiplicity
 _atom_site_fract_x
 _atom_site_fract_y
 _atom_site_fract_z
 _atom_site_occupancy
  Li  Li0  1  0.84513100  0.15486900  0.50000000  1
  Li  Li1  1  0.15486900  0.84513100  0.00000000  1
  Li  Li2  1  0.59504100  0.88736500  0.25000000  1
  Li  Li3  1  0.40495900  0.11263500  0.75000000  1
  Li  Li4  1  0.88736500  0.59504100  0.25000000  1
  Li  Li5  1  0.11263500  0.40495900  0.75000000  1
  Li  Li6  1  0.84513100  0.15486900  0.00000000  1
  Li  Li7  1  0.15486900  0.84513100  0.50000000  1
  Pb  Pb8  1  0.64594900  0.64594900  0.75000000  1
  Pb  Pb9  1  0.35405100  0.35405100  0.25000000  1
  O  O10  1  0.26004300  0.70555700  0.25000000  1
  O  O11  1  0.73995700  0.29444300  0.75000000  1
  O  O12  1  0.79535900  0.79535900  0.02057300  1
  O  O13  1  0.20464100  0.20464100  0.52057300  1
  O  O14  1  0.79535900  0.79535900  0.47942700  1
  O  O15  1  0.20464100  0.20464100  0.97942700  1
  O  O16  1  0.70555700  0.26004300  0.25000000  1
  O  O17  1  0.29444300  0.73995700  0.75000000  1
