# generated using pymatgen
data_NOF
_symmetry_space_group_name_H-M   'P 1'
_cell_length_a   4.22127900
_cell_length_b   4.47802600
_cell_length_c   10.50463600
_cell_angle_alpha   90.00000000
_cell_angle_beta   90.00000000
_cell_angle_gamma   90.00000000
_symmetry_Int_Tables_number   1
_chemical_formula_structural   NOF
_chemical_formula_sum   'N4 O4 F4'
_cell_volume   198.56910400
_cell_formula_units_Z   4
loop_
 _symmetry_equiv_pos_site_id
 _symmetry_equiv_pos_as_xyz
  1  'x, y, z'
loop_
 _atom_site_type_symbol
 _atom_site_label
 _atom_site_symmetry_multiplicity
 _atom_site_fract_x
 _atom_site_fract_y
 _atom_site_fract_z
 _atom_site_occupancy
  N  N0  1  0.34237200  0.50949900  0.89918100  1
  N  N1  1  0.84237200  0.99050100  0.10081900  1
  N  N2  1  0.15762800  0.49050100  0.39918100  1
  N  N3  1  0.65762800  0.00949900  0.60081900  1
  O  O4  1  0.89496100  0.96897400  0.64940800  1
  O  O5  1  0.10503900  0.46897400  0.85059200  1
  O  O6  1  0.39496100  0.53102600  0.35059200  1
  O  O7  1  0.60503900  0.03102600  0.14940800  1
  F  F8  1  0.53882100  0.35184200  0.62715500  1
  F  F9  1  0.03882100  0.14815800  0.37284500  1
  F  F10  1  0.46117900  0.85184200  0.87284500  1
  F  F11  1  0.96117900  0.64815800  0.12715500  1
