# generated using pymatgen
data_LiNiPO4
_symmetry_space_group_name_H-M   'P 1'
_cell_length_a   4.73214600
_cell_length_b   5.92667200
_cell_length_c   10.14381000
_cell_angle_alpha   89.99885199
_cell_angle_beta   89.99866274
_cell_angle_gamma   90.00273053
_symmetry_Int_Tables_number   1
_chemical_formula_structural   LiNiPO4
_chemical_formula_sum   'Li4 Ni4 P4 O16'
_cell_volume   284.49204937
_cell_formula_units_Z   4
loop_
 _symmetry_equiv_pos_site_id
 _symmetry_equiv_pos_as_xyz
  1  'x, y, z'
loop_
 _atom_site_type_symbol
 _atom_site_label
 _atom_site_symmetry_multiplicity
 _atom_site_fract_x
 _atom_site_fract_y
 _atom_site_fract_z
 _atom_site_occupancy
  Li  Li0  1  0.49819000  0.75041700  0.24891600  1
  Li  Li1  1  0.50186900  0.25040000  0.25109400  1
  Li  Li2  1  0.00178600  0.24954300  0.74890400  1
  Li  Li3  1  0.99814400  0.74956400  0.75111200  1
  Ni  Ni4  1  0.01840200  0.50077600  0.47431000  1
  Ni  Ni5  1  0.48165300  0.49930900  0.97428200  1
  Ni  Ni6  1  0.98168400  0.00104100  0.02569900  1
  Ni  Ni7  1  0.51829800  0.99897100  0.52565000  1
  P  P8  1  0.91674600  0.50106800  0.15579400  1
  P  P9  1  0.08323000  0.00100800  0.34420000  1
  P  P10  1  0.58326600  0.49892600  0.65579500  1
  P  P11  1  0.41675400  0.99899800  0.84419200  1
  O  O12  1  0.77491000  0.70827700  0.08457600  1
  O  O13  1  0.22508000  0.20820500  0.41550700  1
  O  O14  1  0.72507300  0.29171500  0.58457200  1
  O  O15  1  0.27491200  0.79180900  0.91550600  1
  O  O16  1  0.77554600  0.29351000  0.08450600  1
  O  O17  1  0.22448400  0.79335600  0.41545600  1
  O  O18  1  0.72445400  0.70649900  0.58450400  1
  O  O19  1  0.27550500  0.20663300  0.91544600  1
  O  O20  1  0.24093200  0.50089000  0.15021400  1
  O  O21  1  0.75896500  0.00081400  0.34977800  1
  O  O22  1  0.25908100  0.49911100  0.65023900  1
  O  O23  1  0.74101000  0.99917200  0.84978200  1
  O  O24  1  0.20088700  0.00117400  0.20112300  1
  O  O25  1  0.79919400  0.50110300  0.29886200  1
  O  O26  1  0.29910400  0.99882000  0.70112400  1
  O  O27  1  0.70084000  0.49889000  0.79885800  1
