# generated using pymatgen
data_TaTeBr9
_symmetry_space_group_name_H-M   'P 1'
_cell_length_a   12.50873400
_cell_length_b   7.31639600
_cell_length_c   10.47679150
_cell_angle_alpha   76.31484244
_cell_angle_beta   90.00000000
_cell_angle_gamma   90.00000000
_symmetry_Int_Tables_number   1
_chemical_formula_structural   TaTeBr9
_chemical_formula_sum   'Ta2 Te2 Br18'
_cell_volume   931.60333521
_cell_formula_units_Z   2
loop_
 _symmetry_equiv_pos_site_id
 _symmetry_equiv_pos_as_xyz
  1  'x, y, z'
loop_
 _atom_site_type_symbol
 _atom_site_label
 _atom_site_symmetry_multiplicity
 _atom_site_fract_x
 _atom_site_fract_y
 _atom_site_fract_z
 _atom_site_occupancy
  Ta  Ta0  1  0.25000000  0.64575400  0.85408800  1
  Ta  Ta1  1  0.75000000  0.35424600  0.14591200  1
  Te  Te2  1  0.25000000  0.75795900  0.46865600  1
  Te  Te3  1  0.75000000  0.24204100  0.53134400  1
  Br  Br4  1  0.60892100  0.44685700  0.30818100  1
  Br  Br5  1  0.10892100  0.55314300  0.69181900  1
  Br  Br6  1  0.39107900  0.55314300  0.69181900  1
  Br  Br7  1  0.89107900  0.44685700  0.30818100  1
  Br  Br8  1  0.75000000  0.67995000  0.01488400  1
  Br  Br9  1  0.25000000  0.32005000  0.98511600  1
  Br  Br10  1  0.75000000  0.50980000  0.64948900  1
  Br  Br11  1  0.25000000  0.49020000  0.35051100  1
  Br  Br12  1  0.75000000  0.02509700  0.31789800  1
  Br  Br13  1  0.25000000  0.97490300  0.68210200  1
  Br  Br14  1  0.89595700  0.24525300  0.02627100  1
  Br  Br15  1  0.39595700  0.75474700  0.97372900  1
  Br  Br16  1  0.10404300  0.75474700  0.97372900  1
  Br  Br17  1  0.60404300  0.24525300  0.02627100  1
  Br  Br18  1  0.90238900  0.05361400  0.66241400  1
  Br  Br19  1  0.40238900  0.94638600  0.33758600  1
  Br  Br20  1  0.09761100  0.94638600  0.33758600  1
  Br  Br21  1  0.59761100  0.05361400  0.66241400  1
