# generated using pymatgen
data_Br2O3
_symmetry_space_group_name_H-M   'P 1'
_cell_length_a   8.24236400
_cell_length_b   9.43030200
_cell_length_c   12.00089961
_cell_angle_alpha   70.84971133
_cell_angle_beta   90.00000000
_cell_angle_gamma   90.00000000
_symmetry_Int_Tables_number   1
_chemical_formula_structural   Br2O3
_chemical_formula_sum   'Br16 O24'
_cell_volume   881.18549490
_cell_formula_units_Z   8
loop_
 _symmetry_equiv_pos_site_id
 _symmetry_equiv_pos_as_xyz
  1  'x, y, z'
loop_
 _atom_site_type_symbol
 _atom_site_label
 _atom_site_symmetry_multiplicity
 _atom_site_fract_x
 _atom_site_fract_y
 _atom_site_fract_z
 _atom_site_occupancy
  Br  Br0  1  0.49669700  0.30762200  0.95150200  1
  Br  Br1  1  0.99669700  0.19237800  0.04849800  1
  Br  Br2  1  0.50330300  0.69237800  0.04849800  1
  Br  Br3  1  0.00330300  0.80762200  0.95150200  1
  Br  Br4  1  0.78599800  0.46632100  0.78050700  1
  Br  Br5  1  0.28599800  0.03367900  0.21949300  1
  Br  Br6  1  0.21400200  0.53367900  0.21949300  1
  Br  Br7  1  0.71400200  0.96632100  0.78050700  1
  Br  Br8  1  0.80322100  0.26012900  0.21894200  1
  Br  Br9  1  0.30322100  0.23987100  0.78105800  1
  Br  Br10  1  0.19677900  0.73987100  0.78105800  1
  Br  Br11  1  0.69677900  0.76012900  0.21894200  1
  Br  Br12  1  0.78702500  0.30203900  0.46961700  1
  Br  Br13  1  0.28702500  0.19796100  0.53038300  1
  Br  Br14  1  0.21297500  0.69796100  0.53038300  1
  Br  Br15  1  0.71297500  0.80203900  0.46961700  1
  O  O16  1  0.90471300  0.42998800  0.89857900  1
  O  O17  1  0.40471300  0.07001200  0.10142100  1
  O  O18  1  0.09528700  0.57001200  0.10142100  1
  O  O19  1  0.59528700  0.92998800  0.89857900  1
  O  O20  1  0.77018300  0.31508500  0.74215900  1
  O  O21  1  0.27018300  0.18491500  0.25784100  1
  O  O22  1  0.22981700  0.68491500  0.25784100  1
  O  O23  1  0.72981700  0.81508500  0.74215900  1
  O  O24  1  0.57362300  0.48486800  0.84456300  1
  O  O25  1  0.07362300  0.01513200  0.15543700  1
  O  O26  1  0.42637700  0.51513200  0.15543700  1
  O  O27  1  0.92637700  0.98486800  0.84456300  1
  O  O28  1  0.83730900  0.12581000  0.54159800  1
  O  O29  1  0.33730900  0.37419000  0.45840200  1
  O  O30  1  0.16269100  0.87419000  0.45840200  1
  O  O31  1  0.66269100  0.62581000  0.54159800  1
  O  O32  1  0.83115700  0.79299200  0.33720000  1
  O  O33  1  0.33115700  0.70700800  0.66280000  1
  O  O34  1  0.16884300  0.20700800  0.66280000  1
  O  O35  1  0.66884300  0.29299200  0.33720000  1
  O  O36  1  0.54557000  0.89163900  0.41183600  1
  O  O37  1  0.04557000  0.60836100  0.58816400  1
  O  O38  1  0.45443000  0.10836100  0.58816400  1
  O  O39  1  0.95443000  0.39163900  0.41183600  1
