# generated using pymatgen
data_K5As3O10
_symmetry_space_group_name_H-M   'P 1'
_cell_length_a   8.13689300
_cell_length_b   8.14210600
_cell_length_c   19.65770900
_cell_angle_alpha   90.00000000
_cell_angle_beta   90.00000000
_cell_angle_gamma   90.00000000
_symmetry_Int_Tables_number   1
_chemical_formula_structural   K5As3O10
_chemical_formula_sum   'K20 As12 O40'
_cell_volume   1302.35163286
_cell_formula_units_Z   4
loop_
 _symmetry_equiv_pos_site_id
 _symmetry_equiv_pos_as_xyz
  1  'x, y, z'
loop_
 _atom_site_type_symbol
 _atom_site_label
 _atom_site_symmetry_multiplicity
 _atom_site_fract_x
 _atom_site_fract_y
 _atom_site_fract_z
 _atom_site_occupancy
  K  K0  1  0.27411200  0.47451000  0.98364500  1
  K  K1  1  0.77411200  0.02549000  0.01635500  1
  K  K2  1  0.72588800  0.97451000  0.51635500  1
  K  K3  1  0.22588800  0.52549000  0.48364500  1
  K  K4  1  0.20756300  0.49884500  0.27963600  1
  K  K5  1  0.70756300  0.00115500  0.72036400  1
  K  K6  1  0.79243700  0.99884500  0.22036400  1
  K  K7  1  0.29243700  0.50115500  0.77963600  1
  K  K8  1  0.75056800  0.49734400  0.99874100  1
  K  K9  1  0.25056800  0.00265600  0.00125900  1
  K  K10  1  0.24943200  0.99734400  0.50125900  1
  K  K11  1  0.74943200  0.50265600  0.49874100  1
  K  K12  1  0.75734900  0.51461700  0.24427900  1
  K  K13  1  0.25734900  0.98538300  0.75572100  1
  K  K14  1  0.24265100  0.01461700  0.25572100  1
  K  K15  1  0.74265100  0.48538300  0.74427900  1
  K  K16  1  0.99036500  0.74204000  0.87303300  1
  K  K17  1  0.49036500  0.75796000  0.12696700  1
  K  K18  1  0.00963500  0.24204000  0.62696700  1
  K  K19  1  0.50963500  0.25796000  0.37303300  1
  As  As20  1  0.48057900  0.26749800  0.14441200  1
  As  As21  1  0.98057900  0.23250200  0.85558800  1
  As  As22  1  0.51942100  0.76749800  0.35558800  1
  As  As23  1  0.01942100  0.73250200  0.64441200  1
  As  As24  1  0.02798600  0.72353400  0.10252800  1
  As  As25  1  0.52798600  0.77646600  0.89747200  1
  As  As26  1  0.97201400  0.22353400  0.39747200  1
  As  As27  1  0.47201400  0.27646600  0.60252800  1
  As  As28  1  0.07574800  0.32066600  0.12585200  1
  As  As29  1  0.57574800  0.17933400  0.87414800  1
  As  As30  1  0.92425200  0.82066600  0.37414800  1
  As  As31  1  0.42425200  0.67933400  0.62585200  1
  O  O32  1  0.83405200  0.72484100  0.13429100  1
  O  O33  1  0.33405200  0.77515900  0.86570900  1
  O  O34  1  0.16594800  0.22484100  0.36570900  1
  O  O35  1  0.66594800  0.27515900  0.63429100  1
  O  O36  1  0.03058100  0.71460800  0.01572400  1
  O  O37  1  0.53058100  0.78539200  0.98427600  1
  O  O38  1  0.96941900  0.21460800  0.48427600  1
  O  O39  1  0.46941900  0.28539200  0.51572400  1
  O  O40  1  0.65923800  0.63422400  0.86596800  1
  O  O41  1  0.15923800  0.86577600  0.13403200  1
  O  O42  1  0.34076200  0.13422400  0.63403200  1
  O  O43  1  0.84076200  0.36577600  0.36596800  1
  O  O44  1  0.13529000  0.53335600  0.13281000  1
  O  O45  1  0.63529000  0.96664400  0.86719000  1
  O  O46  1  0.86471000  0.03335600  0.36719000  1
  O  O47  1  0.36471000  0.46664400  0.63281000  1
  O  O48  1  0.54435500  0.43866200  0.10356600  1
  O  O49  1  0.97103900  0.28261000  0.05407100  1
  O  O50  1  0.04435500  0.06133800  0.89643400  1
  O  O51  1  0.95564500  0.56133800  0.60356600  1
  O  O52  1  0.07274800  0.41202800  0.87743100  1
  O  O53  1  0.57274800  0.08797200  0.12256900  1
  O  O54  1  0.92725200  0.91202800  0.62256900  1
  O  O55  1  0.42725200  0.58797200  0.37743100  1
  O  O56  1  0.77076200  0.27150300  0.89013600  1
  O  O57  1  0.27076200  0.22849700  0.10986400  1
  O  O58  1  0.22923800  0.77150300  0.60986400  1
  O  O59  1  0.72923800  0.72849700  0.39013600  1
  O  O60  1  0.46191800  0.29082500  0.23046000  1
  O  O61  1  0.96191800  0.20917500  0.76954000  1
  O  O62  1  0.53808200  0.79082500  0.26954000  1
  O  O63  1  0.03808200  0.70917500  0.73046000  1
  O  O64  1  0.49879900  0.73320500  0.70262100  1
  O  O65  1  0.99879900  0.76679500  0.29737900  1
  O  O66  1  0.50120100  0.23320500  0.79737900  1
  O  O67  1  0.00120100  0.26679500  0.20262100  1
  O  O68  1  0.52896100  0.71739000  0.55407100  1
  O  O69  1  0.02896100  0.78261000  0.44592900  1
  O  O70  1  0.47103900  0.21739000  0.94592900  1
  O  O71  1  0.45564500  0.93866200  0.39643400  1
