# generated using pymatgen
data_Nb3Cl8
_symmetry_space_group_name_H-M   'P 1'
_cell_length_a   6.83140365
_cell_length_b   6.83140365
_cell_length_c   13.74890000
_cell_angle_alpha   90.00000000
_cell_angle_beta   90.00000000
_cell_angle_gamma   119.99999658
_symmetry_Int_Tables_number   1
_chemical_formula_structural   Nb3Cl8
_chemical_formula_sum   'Nb6 Cl16'
_cell_volume   555.67197554
_cell_formula_units_Z   2
loop_
 _symmetry_equiv_pos_site_id
 _symmetry_equiv_pos_as_xyz
  1  'x, y, z'
loop_
 _atom_site_type_symbol
 _atom_site_label
 _atom_site_symmetry_multiplicity
 _atom_site_fract_x
 _atom_site_fract_y
 _atom_site_fract_z
 _atom_site_occupancy
  Nb  Nb0  1  0.05681200  0.52840600  0.75335000  1
  Nb  Nb1  1  0.47159400  0.52840600  0.75335000  1
  Nb  Nb2  1  0.47159400  0.94318800  0.75335000  1
  Nb  Nb3  1  0.52840600  0.47159400  0.24665000  1
  Nb  Nb4  1  0.94318800  0.47159400  0.24665000  1
  Nb  Nb5  1  0.52840600  0.05681200  0.24665000  1
  Cl  Cl6  1  0.16965200  0.33930300  0.63302400  1
  Cl  Cl7  1  0.66069700  0.83034800  0.63302400  1
  Cl  Cl8  1  0.16965200  0.83034800  0.63302400  1
  Cl  Cl9  1  0.83034800  0.66069700  0.36697600  1
  Cl  Cl10  1  0.83034800  0.16965200  0.36697600  1
  Cl  Cl11  1  0.33930300  0.16965200  0.36697600  1
  Cl  Cl12  1  0.66666700  0.33333300  0.11280700  1
  Cl  Cl13  1  0.33333300  0.66666700  0.88719300  1
  Cl  Cl14  1  0.33333300  0.66666700  0.34461200  1
  Cl  Cl15  1  0.66666700  0.33333300  0.65538800  1
  Cl  Cl16  1  0.66831800  0.83415900  0.14813800  1
  Cl  Cl17  1  0.16584100  0.83415900  0.14813800  1
  Cl  Cl18  1  0.16584100  0.33168200  0.14813800  1
  Cl  Cl19  1  0.83415900  0.16584100  0.85186200  1
  Cl  Cl20  1  0.33168200  0.16584100  0.85186200  1
  Cl  Cl21  1  0.83415900  0.66831800  0.85186200  1
