# generated using pymatgen
data_MnH6(SO4)4
_symmetry_space_group_name_H-M   'P 1'
_cell_length_a   15.47389200
_cell_length_b   5.27710400
_cell_length_c   8.38263431
_cell_angle_alpha   76.05794466
_cell_angle_beta   90.00000000
_cell_angle_gamma   90.00000000
_symmetry_Int_Tables_number   1
_chemical_formula_structural   MnH6(SO4)4
_chemical_formula_sum   'Mn2 H12 S8 O32'
_cell_volume   664.33804814
_cell_formula_units_Z   2
loop_
 _symmetry_equiv_pos_site_id
 _symmetry_equiv_pos_as_xyz
  1  'x, y, z'
loop_
 _atom_site_type_symbol
 _atom_site_label
 _atom_site_symmetry_multiplicity
 _atom_site_fract_x
 _atom_site_fract_y
 _atom_site_fract_z
 _atom_site_occupancy
  Mn  Mn0  1  0.00000000  0.00000000  0.00000000  1
  Mn  Mn1  1  0.50000000  0.00000000  0.50000000  1
  H  H2  1  0.73240100  0.82450600  0.29798700  1
  H  H3  1  0.23240100  0.17549400  0.20201300  1
  H  H4  1  0.26759900  0.17549400  0.70201300  1
  H  H5  1  0.76759900  0.82450600  0.79798700  1
  H  H6  1  0.73732900  0.43092800  0.15987100  1
  H  H7  1  0.23732900  0.56907200  0.34012900  1
  H  H8  1  0.26267100  0.56907200  0.84012900  1
  H  H9  1  0.76267100  0.43092800  0.65987100  1
  H  H10  1  0.02322200  0.71709900  0.61149800  1
  H  H11  1  0.52322200  0.28290100  0.88850200  1
  H  H12  1  0.97677800  0.28290100  0.38850200  1
  H  H13  1  0.47677800  0.71709900  0.11149800  1
  S  S14  1  0.83193900  0.12632300  0.24926500  1
  S  S15  1  0.33193900  0.87367700  0.25073500  1
  S  S16  1  0.16806100  0.87367700  0.75073500  1
  S  S17  1  0.66806100  0.12632300  0.74926500  1
  S  S18  1  0.91394100  0.57893000  0.76621900  1
  S  S19  1  0.41394100  0.42107000  0.73378100  1
  S  S20  1  0.08605900  0.42107000  0.23378100  1
  S  S21  1  0.58605900  0.57893000  0.26621900  1
  O  O22  1  0.17950200  0.37907300  0.27270600  1
  O  O23  1  0.82049800  0.62092700  0.72729400  1
  O  O24  1  0.55951000  0.71204200  0.39210100  1
  O  O25  1  0.05951000  0.28795800  0.10789900  1
  O  O26  1  0.44049000  0.28795800  0.60789900  1
  O  O27  1  0.94049000  0.71204200  0.89210100  1
  O  O28  1  0.56367600  0.30145900  0.30716300  1
  O  O29  1  0.06367600  0.69854100  0.19283700  1
  O  O30  1  0.43632400  0.69854100  0.69283700  1
  O  O31  1  0.32049800  0.37907300  0.77270600  1
  O  O32  1  0.54189300  0.71290800  0.09906000  1
  O  O33  1  0.04189300  0.28709200  0.40094000  1
  O  O34  1  0.45810700  0.28709200  0.90094000  1
  O  O35  1  0.95810700  0.71290800  0.59906000  1
  O  O36  1  0.61336700  0.97971700  0.66328100  1
  O  O37  1  0.11336700  0.02028300  0.83671900  1
  O  O38  1  0.38663300  0.02028300  0.33671900  1
  O  O39  1  0.88663300  0.97971700  0.16328100  1
  O  O40  1  0.62682400  0.26816100  0.85595000  1
  O  O41  1  0.12682400  0.73183900  0.64405000  1
  O  O42  1  0.37317600  0.73183900  0.14405000  1
  O  O43  1  0.87317600  0.26816100  0.35595000  1
  O  O44  1  0.72120900  0.31323800  0.61368000  1
  O  O45  1  0.22120900  0.68676200  0.88632000  1
  O  O46  1  0.27879100  0.68676200  0.38632000  1
  O  O47  1  0.77879100  0.31323800  0.11368000  1
  O  O48  1  0.73399700  0.94185100  0.85790600  1
  O  O49  1  0.23399700  0.05814900  0.64209400  1
  O  O50  1  0.26600300  0.05814900  0.14209400  1
  O  O51  1  0.76600300  0.94185100  0.35790600  1
  O  O52  1  0.93632400  0.30145900  0.80716300  1
  O  O53  1  0.67950200  0.62092700  0.22729400  1
