# generated using pymatgen
data_Rb2In2Sb3
_symmetry_space_group_name_H-M   'P 1'
_cell_length_a   7.75793700
_cell_length_b   15.84724600
_cell_length_c   17.70024537
_cell_angle_alpha   89.51836362
_cell_angle_beta   90.00000000
_cell_angle_gamma   90.00000000
_symmetry_Int_Tables_number   1
_chemical_formula_structural   Rb2In2Sb3
_chemical_formula_sum   'Rb16 In16 Sb24'
_cell_volume   2176.02555088
_cell_formula_units_Z   8
loop_
 _symmetry_equiv_pos_site_id
 _symmetry_equiv_pos_as_xyz
  1  'x, y, z'
loop_
 _atom_site_type_symbol
 _atom_site_label
 _atom_site_symmetry_multiplicity
 _atom_site_fract_x
 _atom_site_fract_y
 _atom_site_fract_z
 _atom_site_occupancy
  Rb  Rb0  1  0.97072300  0.85756500  0.99286000  1
  Rb  Rb1  1  0.47072300  0.14243500  0.50714000  1
  Rb  Rb2  1  0.02927700  0.14243500  0.00714000  1
  Rb  Rb3  1  0.52927700  0.85756500  0.49286000  1
  Rb  Rb4  1  0.54648300  0.34643000  0.02113200  1
  Rb  Rb5  1  0.04648300  0.65357000  0.47886800  1
  Rb  Rb6  1  0.45351700  0.65357000  0.97886800  1
  Rb  Rb7  1  0.95351700  0.34643000  0.52113200  1
  Rb  Rb8  1  0.53225800  0.07700200  0.11113300  1
  Rb  Rb9  1  0.03225800  0.92299800  0.38886700  1
  Rb  Rb10  1  0.46774200  0.92299800  0.88886700  1
  Rb  Rb11  1  0.96774200  0.07700200  0.61113300  1
  Rb  Rb12  1  0.94535500  0.55703600  0.89762300  1
  Rb  Rb13  1  0.44535500  0.44296400  0.60237700  1
  Rb  Rb14  1  0.05464500  0.44296400  0.10237700  1
  Rb  Rb15  1  0.55464500  0.55703600  0.39762300  1
  In  In16  1  0.27858600  0.31580700  0.83050900  1
  In  In17  1  0.77858600  0.68419300  0.66949100  1
  In  In18  1  0.72141400  0.68419300  0.16949100  1
  In  In19  1  0.22141400  0.31580700  0.33050900  1
  In  In20  1  0.78834300  0.90738600  0.72962000  1
  In  In21  1  0.28834300  0.09261400  0.77038000  1
  In  In22  1  0.21165700  0.09261400  0.27038000  1
  In  In23  1  0.71165700  0.90738600  0.22962000  1
  In  In24  1  0.76280100  0.18164100  0.82271200  1
  In  In25  1  0.26280100  0.81835900  0.67728800  1
  In  In26  1  0.23719900  0.81835900  0.17728800  1
  In  In27  1  0.73719900  0.18164100  0.32271200  1
  In  In28  1  0.76013300  0.40661700  0.75946200  1
  In  In29  1  0.26013300  0.59338300  0.74053800  1
  In  In30  1  0.23986700  0.59338300  0.24053800  1
  In  In31  1  0.73986700  0.40661700  0.25946200  1
  Sb  Sb32  1  0.46306500  0.97359300  0.67217400  1
  Sb  Sb33  1  0.96306500  0.02640700  0.82782600  1
  Sb  Sb34  1  0.53693500  0.02640700  0.32782600  1
  Sb  Sb35  1  0.03693500  0.97359300  0.17217400  1
  Sb  Sb36  1  0.44490200  0.16374500  0.90475400  1
  Sb  Sb37  1  0.94490200  0.83625500  0.59524600  1
  Sb  Sb38  1  0.55509800  0.83625500  0.09524600  1
  Sb  Sb39  1  0.05509800  0.16374500  0.40475400  1
  Sb  Sb40  1  0.93475100  0.32966500  0.88946200  1
  Sb  Sb41  1  0.43475100  0.67033500  0.61053800  1
  Sb  Sb42  1  0.06524900  0.67033500  0.11053800  1
  Sb  Sb43  1  0.56524900  0.32966500  0.38946200  1
  Sb  Sb44  1  0.83541600  0.25162300  0.17512500  1
  Sb  Sb45  1  0.33541600  0.74837700  0.32487500  1
  Sb  Sb46  1  0.16458400  0.74837700  0.82487500  1
  Sb  Sb47  1  0.66458400  0.25162300  0.67512500  1
  Sb  Sb48  1  0.46053900  0.47684000  0.83746200  1
  Sb  Sb49  1  0.96053900  0.52316000  0.66253800  1
  Sb  Sb50  1  0.53946100  0.52316000  0.16253800  1
  Sb  Sb51  1  0.03946100  0.47684000  0.33746200  1
  Sb  Sb52  1  0.20815900  0.24742600  0.17933400  1
  Sb  Sb53  1  0.70815900  0.75257400  0.32066600  1
  Sb  Sb54  1  0.79184100  0.75257400  0.82066600  1
  Sb  Sb55  1  0.29184100  0.24742600  0.67933400  1
