# generated using pymatgen
data_PrClO
_symmetry_space_group_name_H-M   'P 1'
_cell_length_a   4.10760000
_cell_length_b   4.10760000
_cell_length_c   6.88123300
_cell_angle_alpha   90.00000000
_cell_angle_beta   90.00000000
_cell_angle_gamma   90.00000000
_symmetry_Int_Tables_number   1
_chemical_formula_structural   PrClO
_chemical_formula_sum   'Pr2 Cl2 O2'
_cell_volume   116.10276263
_cell_formula_units_Z   2
loop_
 _symmetry_equiv_pos_site_id
 _symmetry_equiv_pos_as_xyz
  1  'x, y, z'
loop_
 _atom_site_type_symbol
 _atom_site_label
 _atom_site_symmetry_multiplicity
 _atom_site_fract_x
 _atom_site_fract_y
 _atom_site_fract_z
 _atom_site_occupancy
  Pr  Pr0  1  0.50000000  0.00000000  0.82632400  1
  Pr  Pr1  1  0.00000000  0.50000000  0.17367600  1
  Cl  Cl2  1  0.00000000  0.50000000  0.62746700  1
  Cl  Cl3  1  0.50000000  0.00000000  0.37253300  1
  O  O4  1  0.00000000  0.00000000  0.00000000  1
  O  O5  1  0.50000000  0.50000000  0.00000000  1
