# generated using pymatgen
data_U(FeSi)2
_symmetry_space_group_name_H-M   'P 1'
_cell_length_a   5.41406501
_cell_length_b   5.41406501
_cell_length_c   5.41406501
_cell_angle_alpha   137.11104723
_cell_angle_beta   137.11104723
_cell_angle_gamma   62.26723614
_symmetry_Int_Tables_number   1
_chemical_formula_structural   U(FeSi)2
_chemical_formula_sum   'U1 Fe2 Si2'
_cell_volume   72.62678247
_cell_formula_units_Z   1
loop_
 _symmetry_equiv_pos_site_id
 _symmetry_equiv_pos_as_xyz
  1  'x, y, z'
loop_
 _atom_site_type_symbol
 _atom_site_label
 _atom_site_symmetry_multiplicity
 _atom_site_fract_x
 _atom_site_fract_y
 _atom_site_fract_z
 _atom_site_occupancy
  U  U0  1  0.00000000  0.00000000  0.00000000  1
  Fe  Fe1  1  0.25000000  0.75000000  0.50000000  1
  Fe  Fe2  1  0.75000000  0.25000000  0.50000000  1
  Si  Si3  1  0.62978100  0.62978100  0.00000000  1
  Si  Si4  1  0.37021900  0.37021900  0.00000000  1
