# generated using pymatgen
data_Co3(BO3)2
_symmetry_space_group_name_H-M   'P 1'
_cell_length_a   4.57234300
_cell_length_b   5.50239000
_cell_length_c   8.53012500
_cell_angle_alpha   90.00000000
_cell_angle_beta   90.00000000
_cell_angle_gamma   90.00000000
_symmetry_Int_Tables_number   1
_chemical_formula_structural   Co3(BO3)2
_chemical_formula_sum   'Co6 B4 O12'
_cell_volume   214.60783168
_cell_formula_units_Z   2
loop_
 _symmetry_equiv_pos_site_id
 _symmetry_equiv_pos_as_xyz
  1  'x, y, z'
loop_
 _atom_site_type_symbol
 _atom_site_label
 _atom_site_symmetry_multiplicity
 _atom_site_fract_x
 _atom_site_fract_y
 _atom_site_fract_z
 _atom_site_occupancy
  Co  Co0  1  0.00000000  0.00000000  0.31273300  1
  Co  Co1  1  0.00000000  0.50000000  0.50000000  1
  Co  Co2  1  0.50000000  0.50000000  0.81273300  1
  Co  Co3  1  0.50000000  0.50000000  0.18726700  1
  Co  Co4  1  0.00000000  0.00000000  0.68726700  1
  Co  Co5  1  0.50000000  0.00000000  0.00000000  1
  B  B6  1  0.45788700  0.24540900  0.50000000  1
  B  B7  1  0.04211300  0.74540900  0.00000000  1
  B  B8  1  0.95788700  0.25459100  0.00000000  1
  B  B9  1  0.54211300  0.75459100  0.50000000  1
  O  O10  1  0.24945100  0.81746100  0.50000000  1
  O  O11  1  0.74945100  0.68253900  0.00000000  1
  O  O12  1  0.80103800  0.20823400  0.13790100  1
  O  O13  1  0.25054900  0.31746100  0.00000000  1
  O  O14  1  0.30103800  0.29176600  0.36209900  1
  O  O15  1  0.69896200  0.70823400  0.36209900  1
  O  O16  1  0.30103800  0.29176600  0.63790100  1
  O  O17  1  0.69896200  0.70823400  0.63790100  1
  O  O18  1  0.75054900  0.18253900  0.50000000  1
  O  O19  1  0.19896200  0.79176600  0.86209900  1
  O  O20  1  0.19896200  0.79176600  0.13790100  1
  O  O21  1  0.80103800  0.20823400  0.86209900  1
