# generated using pymatgen
data_Ce2InPt2
_symmetry_space_group_name_H-M   'P 1'
_cell_length_a   7.85567600
_cell_length_b   7.85567600
_cell_length_c   3.76358300
_cell_angle_alpha   90.00000000
_cell_angle_beta   90.00000000
_cell_angle_gamma   90.00000000
_symmetry_Int_Tables_number   1
_chemical_formula_structural   Ce2InPt2
_chemical_formula_sum   'Ce4 In2 Pt4'
_cell_volume   232.25689959
_cell_formula_units_Z   2
loop_
 _symmetry_equiv_pos_site_id
 _symmetry_equiv_pos_as_xyz
  1  'x, y, z'
loop_
 _atom_site_type_symbol
 _atom_site_label
 _atom_site_symmetry_multiplicity
 _atom_site_fract_x
 _atom_site_fract_y
 _atom_site_fract_z
 _atom_site_occupancy
  Ce  Ce0  1  0.67251600  0.82748400  0.50000000  1
  Ce  Ce1  1  0.82748400  0.32748400  0.50000000  1
  Ce  Ce2  1  0.32748400  0.17251600  0.50000000  1
  Ce  Ce3  1  0.17251600  0.67251600  0.50000000  1
  In  In4  1  0.50000000  0.50000000  0.00000000  1
  In  In5  1  0.00000000  0.00000000  0.00000000  1
  Pt  Pt6  1  0.63101700  0.13101700  0.00000000  1
  Pt  Pt7  1  0.86898300  0.63101700  0.00000000  1
  Pt  Pt8  1  0.13101700  0.36898300  0.00000000  1
  Pt  Pt9  1  0.36898300  0.86898300  0.00000000  1
