# generated using pymatgen
data_V(HgO2)2
_symmetry_space_group_name_H-M   'P 1'
_cell_length_a   16.87505100
_cell_length_b   3.73899200
_cell_length_c   15.17658974
_cell_angle_alpha   75.82960440
_cell_angle_beta   90.00000000
_cell_angle_gamma   90.00000000
_symmetry_Int_Tables_number   1
_chemical_formula_structural   V(HgO2)2
_chemical_formula_sum   'V8 Hg16 O32'
_cell_volume   928.44006981
_cell_formula_units_Z   8
loop_
 _symmetry_equiv_pos_site_id
 _symmetry_equiv_pos_as_xyz
  1  'x, y, z'
loop_
 _atom_site_type_symbol
 _atom_site_label
 _atom_site_symmetry_multiplicity
 _atom_site_fract_x
 _atom_site_fract_y
 _atom_site_fract_z
 _atom_site_occupancy
  V  V0  1  0.82761400  0.13070800  0.87089400  1
  V  V1  1  0.32761400  0.86929200  0.62910600  1
  V  V2  1  0.17238600  0.86929200  0.12910600  1
  V  V3  1  0.67238600  0.13070800  0.37089400  1
  V  V4  1  0.67871400  0.62085900  0.88091100  1
  V  V5  1  0.17871400  0.37914100  0.61908900  1
  V  V6  1  0.32128600  0.37914100  0.11908900  1
  V  V7  1  0.82128600  0.62085900  0.38091100  1
  Hg  Hg8  1  0.67875600  0.87667500  0.12552800  1
  Hg  Hg9  1  0.00000000  0.00000000  0.50000000  1
  Hg  Hg10  1  0.50000000  0.50000000  0.50000000  1
  Hg  Hg11  1  0.00000000  0.50000000  0.00000000  1
  Hg  Hg12  1  0.50000000  0.00000000  0.00000000  1
  Hg  Hg13  1  0.17875600  0.12332500  0.37447200  1
  Hg  Hg14  1  0.32124400  0.12332500  0.87447200  1
  Hg  Hg15  1  0.82124400  0.87667500  0.62552800  1
  Hg  Hg16  1  0.49398300  0.75015800  0.25029900  1
  Hg  Hg17  1  0.99398300  0.24984200  0.24970100  1
  Hg  Hg18  1  0.50601700  0.24984200  0.74970100  1
  Hg  Hg19  1  0.00601700  0.75015800  0.75029900  1
  Hg  Hg20  1  0.83188700  0.99552800  0.12377800  1
  Hg  Hg21  1  0.33188700  0.00447200  0.37622200  1
  Hg  Hg22  1  0.16811300  0.00447200  0.87622200  1
  Hg  Hg23  1  0.66811300  0.99552800  0.62377800  1
  O  O24  1  0.62274900  0.22568200  0.27226600  1
  O  O25  1  0.12274900  0.77431800  0.22773400  1
  O  O26  1  0.37725100  0.77431800  0.72773400  1
  O  O27  1  0.87725100  0.22568200  0.77226600  1
  O  O28  1  0.79024500  0.12557200  0.37645400  1
  O  O29  1  0.29024500  0.87442800  0.12354600  1
  O  O30  1  0.20975500  0.87442800  0.62354600  1
  O  O31  1  0.70975500  0.12557200  0.87645400  1
  O  O32  1  0.60650200  0.04544100  0.45861200  1
  O  O33  1  0.10650200  0.95455900  0.04138800  1
  O  O34  1  0.39349800  0.95455900  0.54138800  1
  O  O35  1  0.89349800  0.04544100  0.95861200  1
  O  O36  1  0.55145400  0.81182500  0.12593300  1
  O  O37  1  0.05145400  0.18817500  0.37406700  1
  O  O38  1  0.44854600  0.18817500  0.87406700  1
  O  O39  1  0.94854600  0.81182500  0.62593300  1
  O  O40  1  0.38576700  0.28733000  0.20772200  1
  O  O41  1  0.88576700  0.71267000  0.29227800  1
  O  O42  1  0.61423300  0.71267000  0.79227800  1
  O  O43  1  0.11423300  0.28733000  0.70772200  1
  O  O44  1  0.70328100  0.62542800  0.37633400  1
  O  O45  1  0.20328100  0.37457200  0.12366600  1
  O  O46  1  0.29671900  0.37457200  0.62366600  1
  O  O47  1  0.79671900  0.62542800  0.87633400  1
  O  O48  1  0.87224800  0.52264400  0.47887500  1
  O  O49  1  0.37224800  0.47735600  0.02112500  1
  O  O50  1  0.12775200  0.47735600  0.52112500  1
  O  O51  1  0.62775200  0.52264400  0.97887500  1
  O  O52  1  0.43483500  0.62849000  0.37542800  1
  O  O53  1  0.56516500  0.37151000  0.62457200  1
  O  O54  1  0.93483500  0.37151000  0.12457200  1
  O  O55  1  0.06516500  0.62849000  0.87542800  1
