# generated using pymatgen
data_Ho(AlCl4)3
_symmetry_space_group_name_H-M   'P 1'
_cell_length_a   10.80024069
_cell_length_b   10.80024069
_cell_length_c   15.98017600
_cell_angle_alpha   90.00000000
_cell_angle_beta   90.00000000
_cell_angle_gamma   120.00000421
_symmetry_Int_Tables_number   1
_chemical_formula_structural   Ho(AlCl4)3
_chemical_formula_sum   'Ho3 Al9 Cl36'
_cell_volume   1614.28064410
_cell_formula_units_Z   3
loop_
 _symmetry_equiv_pos_site_id
 _symmetry_equiv_pos_as_xyz
  1  'x, y, z'
loop_
 _atom_site_type_symbol
 _atom_site_label
 _atom_site_symmetry_multiplicity
 _atom_site_fract_x
 _atom_site_fract_y
 _atom_site_fract_z
 _atom_site_occupancy
  Ho  Ho0  1  0.99092200  0.49546100  0.00000000  1
  Ho  Ho1  1  0.50453900  0.00907800  0.66666700  1
  Ho  Ho2  1  0.50453900  0.49546100  0.33333300  1
  Al  Al3  1  0.73133500  0.26866500  0.83333300  1
  Al  Al4  1  0.12903900  0.76300200  0.60299100  1
  Al  Al5  1  0.23699800  0.36603700  0.93632400  1
  Al  Al6  1  0.63396300  0.87096100  0.26965700  1
  Al  Al7  1  0.73133500  0.46266900  0.16666700  1
  Al  Al8  1  0.53733100  0.26866500  0.50000000  1
  Al  Al9  1  0.12903900  0.36603700  0.39700900  1
  Al  Al10  1  0.63396300  0.76300200  0.73034300  1
  Al  Al11  1  0.23699800  0.87096100  0.06367600  1
  Cl  Cl12  1  0.00803300  0.84065700  0.54361900  1
  Cl  Cl13  1  0.83262400  0.99196700  0.21028600  1
  Cl  Cl14  1  0.15934300  0.16737600  0.87695300  1
  Cl  Cl15  1  0.78971300  0.59034900  0.27976200  1
  Cl  Cl16  1  0.40965100  0.19936400  0.61309600  1
  Cl  Cl17  1  0.80063600  0.21028700  0.94642900  1
  Cl  Cl18  1  0.40965100  0.21028700  0.38690400  1
  Cl  Cl19  1  0.80063600  0.59034900  0.05357100  1
  Cl  Cl20  1  0.78971300  0.19936400  0.72023800  1
  Cl  Cl21  1  0.22665200  0.34600700  0.27842500  1
  Cl  Cl22  1  0.65399300  0.88064500  0.61175800  1
  Cl  Cl23  1  0.11935500  0.77334800  0.94509200  1
  Cl  Cl24  1  0.65399300  0.77334800  0.38824200  1
  Cl  Cl25  1  0.11935500  0.34600700  0.05490800  1
  Cl  Cl26  1  0.22665200  0.88064500  0.72157500  1
  Cl  Cl27  1  0.50344900  0.66082900  0.20503300  1
  Cl  Cl28  1  0.33917100  0.84262000  0.53836700  1
  Cl  Cl29  1  0.15738000  0.49655100  0.87170000  1
  Cl  Cl30  1  0.33917100  0.49655100  0.46163300  1
  Cl  Cl31  1  0.15738000  0.66082900  0.12830000  1
  Cl  Cl32  1  0.50344900  0.84262000  0.79496700  1
  Cl  Cl33  1  0.66181700  0.49704000  0.48205600  1
  Cl  Cl34  1  0.50296000  0.16477700  0.81539000  1
  Cl  Cl35  1  0.83522300  0.33818300  0.14872300  1
  Cl  Cl36  1  0.50296000  0.33818300  0.18461000  1
  Cl  Cl37  1  0.83522300  0.49704000  0.85127700  1
  Cl  Cl38  1  0.66181700  0.16477700  0.51794400  1
  Cl  Cl39  1  0.03143300  0.49039100  0.37648900  1
  Cl  Cl40  1  0.50960900  0.54104200  0.70982200  1
  Cl  Cl41  1  0.45895800  0.96856700  0.04315500  1
  Cl  Cl42  1  0.50960900  0.96856700  0.29017800  1
  Cl  Cl43  1  0.45895800  0.49039100  0.95684500  1
  Cl  Cl44  1  0.03143300  0.54104200  0.62351100  1
  Cl  Cl45  1  0.00803300  0.16737600  0.45638100  1
  Cl  Cl46  1  0.83262400  0.84065700  0.78971400  1
  Cl  Cl47  1  0.15934300  0.99196700  0.12304700  1
