# generated using pymatgen
data_K2Te2As
_symmetry_space_group_name_H-M   'P 1'
_cell_length_a   8.36750800
_cell_length_b   9.22282300
_cell_length_c   20.49369600
_cell_angle_alpha   90.00000000
_cell_angle_beta   90.00000000
_cell_angle_gamma   90.00000000
_symmetry_Int_Tables_number   1
_chemical_formula_structural   K2Te2As
_chemical_formula_sum   'K16 Te16 As8'
_cell_volume   1581.54043475
_cell_formula_units_Z   8
loop_
 _symmetry_equiv_pos_site_id
 _symmetry_equiv_pos_as_xyz
  1  'x, y, z'
loop_
 _atom_site_type_symbol
 _atom_site_label
 _atom_site_symmetry_multiplicity
 _atom_site_fract_x
 _atom_site_fract_y
 _atom_site_fract_z
 _atom_site_occupancy
  K  K0  1  0.25000000  0.41959600  0.54342100  1
  K  K1  1  0.75000000  0.58040400  0.45657900  1
  K  K2  1  0.75000000  0.91959600  0.95657900  1
  K  K3  1  0.25000000  0.08040400  0.04342100  1
  K  K4  1  0.25000000  0.49846200  0.18820400  1
  K  K5  1  0.75000000  0.50153800  0.81179600  1
  K  K6  1  0.75000000  0.99846200  0.31179600  1
  K  K7  1  0.25000000  0.00153800  0.68820400  1
  K  K8  1  0.25000000  0.60375900  0.71643600  1
  K  K9  1  0.75000000  0.39624100  0.28356400  1
  K  K10  1  0.75000000  0.10375900  0.78356400  1
  K  K11  1  0.25000000  0.89624100  0.21643600  1
  K  K12  1  0.25000000  0.92524700  0.44256200  1
  K  K13  1  0.75000000  0.07475300  0.55743800  1
  K  K14  1  0.75000000  0.42524700  0.05743800  1
  K  K15  1  0.25000000  0.57475300  0.94256200  1
  Te  Te16  1  0.99671300  0.23895900  0.41798200  1
  Te  Te17  1  0.49671300  0.76104100  0.58201800  1
  Te  Te18  1  0.00328700  0.73895900  0.08201800  1
  Te  Te19  1  0.50328700  0.26104100  0.91798200  1
  Te  Te20  1  0.00328700  0.76104100  0.58201800  1
  Te  Te21  1  0.50328700  0.23895900  0.41798200  1
  Te  Te22  1  0.99671300  0.26104100  0.91798200  1
  Te  Te23  1  0.49671300  0.73895900  0.08201800  1
  Te  Te24  1  0.99197000  0.18086900  0.17914600  1
  Te  Te25  1  0.49197000  0.81913100  0.82085400  1
  Te  Te26  1  0.00803000  0.68086900  0.32085400  1
  Te  Te27  1  0.50803000  0.31913100  0.67914600  1
  Te  Te28  1  0.00803000  0.81913100  0.82085400  1
  Te  Te29  1  0.50803000  0.18086900  0.17914600  1
  Te  Te30  1  0.99197000  0.31913100  0.67914600  1
  Te  Te31  1  0.49197000  0.68086900  0.32085400  1
  As  As32  1  0.25000000  0.31252300  0.34896700  1
  As  As33  1  0.75000000  0.68747700  0.65103300  1
  As  As34  1  0.75000000  0.81252300  0.15103300  1
  As  As35  1  0.25000000  0.18747700  0.84896700  1
  As  As36  1  0.25000000  0.57302800  0.38678600  1
  As  As37  1  0.75000000  0.42697200  0.61321400  1
  As  As38  1  0.75000000  0.07302800  0.11321400  1
  As  As39  1  0.25000000  0.92697200  0.88678600  1
