# generated using pymatgen
data_Tb2Ti3Ge4
_symmetry_space_group_name_H-M   'P 1'
_cell_length_a   7.05739600
_cell_length_b   7.18623500
_cell_length_c   13.49170300
_cell_angle_alpha   90.00000000
_cell_angle_beta   90.00000000
_cell_angle_gamma   90.00000000
_symmetry_Int_Tables_number   1
_chemical_formula_structural   Tb2Ti3Ge4
_chemical_formula_sum   'Tb8 Ti12 Ge16'
_cell_volume   684.24664141
_cell_formula_units_Z   4
loop_
 _symmetry_equiv_pos_site_id
 _symmetry_equiv_pos_as_xyz
  1  'x, y, z'
loop_
 _atom_site_type_symbol
 _atom_site_label
 _atom_site_symmetry_multiplicity
 _atom_site_fract_x
 _atom_site_fract_y
 _atom_site_fract_z
 _atom_site_occupancy
  Tb  Tb0  1  0.00311000  0.17315100  0.40495400  1
  Tb  Tb1  1  0.50311000  0.32684900  0.09504600  1
  Tb  Tb2  1  0.49689000  0.67315100  0.59504600  1
  Tb  Tb3  1  0.99689000  0.82684900  0.90495400  1
  Tb  Tb4  1  0.99689000  0.82684900  0.59504600  1
  Tb  Tb5  1  0.49689000  0.67315100  0.90495400  1
  Tb  Tb6  1  0.50311000  0.32684900  0.40495400  1
  Tb  Tb7  1  0.00311000  0.17315100  0.09504600  1
  Ti  Ti8  1  0.34106800  0.83213900  0.12793800  1
  Ti  Ti9  1  0.84106800  0.66786100  0.37206200  1
  Ti  Ti10  1  0.65893200  0.16786100  0.62793800  1
  Ti  Ti11  1  0.15893200  0.33213900  0.87206200  1
  Ti  Ti12  1  0.15893200  0.33213900  0.62793800  1
  Ti  Ti13  1  0.65893200  0.16786100  0.87206200  1
  Ti  Ti14  1  0.33339600  0.00918800  0.75000000  1
  Ti  Ti15  1  0.84106800  0.66786100  0.12793800  1
  Ti  Ti16  1  0.66660400  0.99081200  0.25000000  1
  Ti  Ti17  1  0.16660400  0.50918800  0.25000000  1
  Ti  Ti18  1  0.83339600  0.49081200  0.75000000  1
  Ti  Ti19  1  0.34106800  0.83213900  0.37206200  1
  Ge  Ge20  1  0.32788700  0.04420200  0.54470100  1
  Ge  Ge21  1  0.82788700  0.45579800  0.95529900  1
  Ge  Ge22  1  0.67211300  0.95579800  0.04470100  1
  Ge  Ge23  1  0.17211300  0.54420200  0.45529900  1
  Ge  Ge24  1  0.17211300  0.54420200  0.04470100  1
  Ge  Ge25  1  0.67211300  0.95579800  0.45529900  1
  Ge  Ge26  1  0.82788700  0.45579800  0.54470100  1
  Ge  Ge27  1  0.32788700  0.04420200  0.95529900  1
  Ge  Ge28  1  0.80852000  0.36561200  0.25000000  1
  Ge  Ge29  1  0.30852000  0.13438800  0.25000000  1
  Ge  Ge30  1  0.69148000  0.86561200  0.75000000  1
  Ge  Ge31  1  0.19148000  0.63438800  0.75000000  1
  Ge  Ge32  1  0.03932800  0.86770900  0.25000000  1
  Ge  Ge33  1  0.53932800  0.63229100  0.25000000  1
  Ge  Ge34  1  0.46067200  0.36770900  0.75000000  1
  Ge  Ge35  1  0.96067200  0.13229100  0.75000000  1
