# generated using pymatgen
data_KH3O2
_symmetry_space_group_name_H-M   'P 1'
_cell_length_a   5.79545000
_cell_length_b   5.96006400
_cell_length_c   7.96941872
_cell_angle_alpha   70.52539287
_cell_angle_beta   90.00000000
_cell_angle_gamma   90.00000000
_symmetry_Int_Tables_number   1
_chemical_formula_structural   KH3O2
_chemical_formula_sum   'K4 H12 O8'
_cell_volume   259.52511653
_cell_formula_units_Z   4
loop_
 _symmetry_equiv_pos_site_id
 _symmetry_equiv_pos_as_xyz
  1  'x, y, z'
loop_
 _atom_site_type_symbol
 _atom_site_label
 _atom_site_symmetry_multiplicity
 _atom_site_fract_x
 _atom_site_fract_y
 _atom_site_fract_z
 _atom_site_occupancy
  K  K0  1  0.75547100  0.69791800  0.57687400  1
  K  K1  1  0.25547100  0.30208200  0.92312600  1
  K  K2  1  0.24452900  0.30208200  0.42312600  1
  K  K3  1  0.74452900  0.69791800  0.07687400  1
  H  H4  1  0.99066900  0.98444100  0.75352800  1
  H  H5  1  0.49066900  0.01555900  0.74647200  1
  H  H6  1  0.00933100  0.01555900  0.24647200  1
  H  H7  1  0.50933100  0.98444100  0.25352800  1
  H  H8  1  0.71530700  0.22753000  0.84628600  1
  H  H9  1  0.21530700  0.77247000  0.65371400  1
  H  H10  1  0.28469300  0.77247000  0.15371400  1
  H  H11  1  0.78469300  0.22753000  0.34628600  1
  H  H12  1  0.70827200  0.22728400  0.54290200  1
  H  H13  1  0.79172800  0.22728400  0.04290200  1
  H  H14  1  0.29172800  0.77271600  0.45709800  1
  H  H15  1  0.20827200  0.77271600  0.95709800  1
  O  O16  1  0.24432700  0.65976200  0.08408400  1
  O  O17  1  0.15564300  0.94438200  0.76238700  1
  O  O18  1  0.34435700  0.94438200  0.26238700  1
  O  O19  1  0.84435700  0.05561800  0.23761300  1
  O  O20  1  0.75567300  0.34023800  0.91591600  1
  O  O21  1  0.25567300  0.65976200  0.58408400  1
  O  O22  1  0.74432700  0.34023800  0.41591600  1
  O  O23  1  0.65564300  0.05561800  0.73761300  1
