# generated using pymatgen
data_BaLi2Si
_symmetry_space_group_name_H-M   'P 1'
_cell_length_a   4.66525100
_cell_length_b   6.37400000
_cell_length_c   6.69409700
_cell_angle_alpha   90.00000000
_cell_angle_beta   90.00000000
_cell_angle_gamma   90.00000000
_symmetry_Int_Tables_number   1
_chemical_formula_structural   BaLi2Si
_chemical_formula_sum   'Ba2 Li4 Si2'
_cell_volume   199.05774272
_cell_formula_units_Z   2
loop_
 _symmetry_equiv_pos_site_id
 _symmetry_equiv_pos_as_xyz
  1  'x, y, z'
loop_
 _atom_site_type_symbol
 _atom_site_label
 _atom_site_symmetry_multiplicity
 _atom_site_fract_x
 _atom_site_fract_y
 _atom_site_fract_z
 _atom_site_occupancy
  Ba  Ba0  1  0.00000000  0.90633200  0.00000000  1
  Ba  Ba1  1  0.50000000  0.09366800  0.50000000  1
  Li  Li2  1  0.00000000  0.41156300  0.79866200  1
  Li  Li3  1  0.50000000  0.58843700  0.70133800  1
  Li  Li4  1  0.50000000  0.58843700  0.29866200  1
  Li  Li5  1  0.00000000  0.41156300  0.20133800  1
  Si  Si6  1  0.50000000  0.30655200  0.00000000  1
  Si  Si7  1  0.00000000  0.69344800  0.50000000  1
