# generated using pymatgen
data_Pu2Si4Tc3
_symmetry_space_group_name_H-M   'P 1'
_cell_length_a   8.11740400
_cell_length_b   5.55295500
_cell_length_c   6.65248825
_cell_angle_alpha   74.94206745
_cell_angle_beta   90.00000000
_cell_angle_gamma   90.00000000
_symmetry_Int_Tables_number   1
_chemical_formula_structural   Pu2Si4Tc3
_chemical_formula_sum   'Pu4 Si8 Tc6'
_cell_volume   289.56849531
_cell_formula_units_Z   2
loop_
 _symmetry_equiv_pos_site_id
 _symmetry_equiv_pos_as_xyz
  1  'x, y, z'
loop_
 _atom_site_type_symbol
 _atom_site_label
 _atom_site_symmetry_multiplicity
 _atom_site_fract_x
 _atom_site_fract_y
 _atom_site_fract_z
 _atom_site_occupancy
  Pu  Pu0  1  0.55330400  0.07657500  0.26982900  1
  Pu  Pu1  1  0.05330400  0.42342500  0.73017100  1
  Pu  Pu2  1  0.44669600  0.92342500  0.73017100  1
  Pu  Pu3  1  0.94669600  0.57657500  0.26982900  1
  Si  Si4  1  0.74911700  0.22310900  0.58357800  1
  Si  Si5  1  0.24911700  0.27689100  0.41642200  1
  Si  Si6  1  0.25088300  0.77689100  0.41642200  1
  Si  Si7  1  0.75088300  0.72310900  0.58357800  1
  Si  Si8  1  0.10295300  0.87124100  0.86637300  1
  Si  Si9  1  0.60295300  0.62875900  0.13362700  1
  Si  Si10  1  0.39704700  0.37124100  0.86637300  1
  Si  Si11  1  0.89704700  0.12875900  0.13362700  1
  Tc  Tc12  1  0.50000000  0.50000000  0.50000000  1
  Tc  Tc13  1  0.00000000  0.00000000  0.50000000  1
  Tc  Tc14  1  0.80580400  0.87804200  0.89841800  1
  Tc  Tc15  1  0.30580400  0.62195800  0.10158200  1
  Tc  Tc16  1  0.69419600  0.37804200  0.89841800  1
  Tc  Tc17  1  0.19419600  0.12195800  0.10158200  1
