# generated using pymatgen
data_ErSiRh
_symmetry_space_group_name_H-M   'P 1'
_cell_length_a   4.22441400
_cell_length_b   6.84521900
_cell_length_c   7.39847900
_cell_angle_alpha   90.00000000
_cell_angle_beta   90.00000000
_cell_angle_gamma   90.00000000
_symmetry_Int_Tables_number   1
_chemical_formula_structural   ErSiRh
_chemical_formula_sum   'Er4 Si4 Rh4'
_cell_volume   213.94210561
_cell_formula_units_Z   4
loop_
 _symmetry_equiv_pos_site_id
 _symmetry_equiv_pos_as_xyz
  1  'x, y, z'
loop_
 _atom_site_type_symbol
 _atom_site_label
 _atom_site_symmetry_multiplicity
 _atom_site_fract_x
 _atom_site_fract_y
 _atom_site_fract_z
 _atom_site_occupancy
  Er  Er0  1  0.25000000  0.50095800  0.69035200  1
  Er  Er1  1  0.75000000  0.49904200  0.30964800  1
  Er  Er2  1  0.25000000  0.00095800  0.80964800  1
  Er  Er3  1  0.75000000  0.99904200  0.19035200  1
  Si  Si4  1  0.25000000  0.29385800  0.10526800  1
  Si  Si5  1  0.75000000  0.70614200  0.89473200  1
  Si  Si6  1  0.25000000  0.79385800  0.39473200  1
  Si  Si7  1  0.75000000  0.20614200  0.60526800  1
  Rh  Rh8  1  0.75000000  0.84563000  0.56894500  1
  Rh  Rh9  1  0.25000000  0.15437000  0.43105500  1
  Rh  Rh10  1  0.75000000  0.34563000  0.93105500  1
  Rh  Rh11  1  0.25000000  0.65437000  0.06894500  1
