# generated using pymatgen
data_Sr2Cu2O5
_symmetry_space_group_name_H-M   'P 1'
_cell_length_a   3.75151600
_cell_length_b   5.54653000
_cell_length_c   11.03750500
_cell_angle_alpha   90.00000000
_cell_angle_beta   90.00000000
_cell_angle_gamma   90.00000000
_symmetry_Int_Tables_number   1
_chemical_formula_structural   Sr2Cu2O5
_chemical_formula_sum   'Sr4 Cu4 O10'
_cell_volume   229.66725658
_cell_formula_units_Z   2
loop_
 _symmetry_equiv_pos_site_id
 _symmetry_equiv_pos_as_xyz
  1  'x, y, z'
loop_
 _atom_site_type_symbol
 _atom_site_label
 _atom_site_symmetry_multiplicity
 _atom_site_fract_x
 _atom_site_fract_y
 _atom_site_fract_z
 _atom_site_occupancy
  Sr  Sr0  1  0.50000000  0.21304300  0.86503600  1
  Sr  Sr1  1  0.50000000  0.78695700  0.13496400  1
  Sr  Sr2  1  0.50000000  0.71304300  0.63496400  1
  Sr  Sr3  1  0.50000000  0.28695700  0.36503600  1
  Cu  Cu4  1  0.00000000  0.24220800  0.62255700  1
  Cu  Cu5  1  0.00000000  0.75779200  0.37744300  1
  Cu  Cu6  1  0.00000000  0.74220800  0.87744300  1
  Cu  Cu7  1  0.00000000  0.25779200  0.12255700  1
  O  O8  1  0.00000000  0.50000000  0.50000000  1
  O  O9  1  0.00000000  0.00000000  0.00000000  1
  O  O10  1  0.00000000  0.98248600  0.73076800  1
  O  O11  1  0.00000000  0.01751400  0.26923200  1
  O  O12  1  0.00000000  0.48248600  0.76923200  1
  O  O13  1  0.00000000  0.51751400  0.23076800  1
  O  O14  1  0.50000000  0.20711200  0.59623800  1
  O  O15  1  0.50000000  0.79288800  0.40376200  1
  O  O16  1  0.50000000  0.29288800  0.09623800  1
  O  O17  1  0.50000000  0.70711200  0.90376200  1
