# generated using pymatgen
data_NdSi2Ru
_symmetry_space_group_name_H-M   'P 1'
_cell_length_a   4.06988000
_cell_length_b   4.51103900
_cell_length_c   8.31400452
_cell_angle_alpha   78.11973000
_cell_angle_beta   90.00000000
_cell_angle_gamma   90.00000000
_symmetry_Int_Tables_number   1
_chemical_formula_structural   NdSi2Ru
_chemical_formula_sum   'Nd2 Si4 Ru2'
_cell_volume   149.37047046
_cell_formula_units_Z   2
loop_
 _symmetry_equiv_pos_site_id
 _symmetry_equiv_pos_as_xyz
  1  'x, y, z'
loop_
 _atom_site_type_symbol
 _atom_site_label
 _atom_site_symmetry_multiplicity
 _atom_site_fract_x
 _atom_site_fract_y
 _atom_site_fract_z
 _atom_site_occupancy
  Nd  Nd0  1  0.25000000  0.58440300  0.80013200  1
  Nd  Nd1  1  0.75000000  0.41559700  0.19986800  1
  Si  Si2  1  0.25000000  0.33277000  0.49086900  1
  Si  Si3  1  0.75000000  0.66723000  0.50913100  1
  Si  Si4  1  0.75000000  0.03643400  0.90900300  1
  Si  Si5  1  0.25000000  0.96356600  0.09099700  1
  Ru  Ru6  1  0.75000000  0.12051800  0.61216000  1
  Ru  Ru7  1  0.25000000  0.87948200  0.38784000  1
