# generated using pymatgen
data_V2WO6
_symmetry_space_group_name_H-M   'P 1'
_cell_length_a   4.70020000
_cell_length_b   4.70018700
_cell_length_c   9.17949800
_cell_angle_alpha   90.00027141
_cell_angle_beta   89.99995689
_cell_angle_gamma   90.00092645
_symmetry_Int_Tables_number   1
_chemical_formula_structural   V2WO6
_chemical_formula_sum   'V4 W2 O12'
_cell_volume   202.79180774
_cell_formula_units_Z   2
loop_
 _symmetry_equiv_pos_site_id
 _symmetry_equiv_pos_as_xyz
  1  'x, y, z'
loop_
 _atom_site_type_symbol
 _atom_site_label
 _atom_site_symmetry_multiplicity
 _atom_site_fract_x
 _atom_site_fract_y
 _atom_site_fract_z
 _atom_site_occupancy
  V  V0  1  0.50000000  0.49999900  0.16492900  1
  V  V1  1  0.99999900  0.99999900  0.33514200  1
  V  V2  1  0.99999900  0.00000000  0.66488600  1
  V  V3  1  0.50000000  0.49999900  0.83515400  1
  W  W4  1  0.00000000  0.99999800  0.99999000  1
  W  W5  1  0.50000000  0.49999800  0.50002000  1
  O  O6  1  0.29326100  0.29326100  0.00000800  1
  O  O7  1  0.20674200  0.79325700  0.49999800  1
  O  O8  1  0.79325400  0.20674500  0.49999700  1
  O  O9  1  0.70674000  0.70674000  0.00000700  1
  O  O10  1  0.69619100  0.69619100  0.65891700  1
  O  O11  1  0.30380800  0.30380800  0.65891700  1
  O  O12  1  0.69617800  0.69617900  0.34104600  1
  O  O13  1  0.19618100  0.80381900  0.15893800  1
  O  O14  1  0.80382000  0.19618100  0.15893800  1
  O  O15  1  0.80384300  0.19615700  0.84103200  1
  O  O16  1  0.19615900  0.80384100  0.84103300  1
  O  O17  1  0.30381900  0.30381900  0.34104700  1
