# generated using pymatgen
data_PtPbF6
_symmetry_space_group_name_H-M   'P 1'
_cell_length_a   4.91807647
_cell_length_b   4.91807647
_cell_length_c   4.91807674
_cell_angle_alpha   98.30089798
_cell_angle_beta   98.30089798
_cell_angle_gamma   98.30089840
_symmetry_Int_Tables_number   1
_chemical_formula_structural   PtPbF6
_chemical_formula_sum   'Pt1 Pb1 F6'
_cell_volume   114.80640446
_cell_formula_units_Z   1
loop_
 _symmetry_equiv_pos_site_id
 _symmetry_equiv_pos_as_xyz
  1  'x, y, z'
loop_
 _atom_site_type_symbol
 _atom_site_label
 _atom_site_symmetry_multiplicity
 _atom_site_fract_x
 _atom_site_fract_y
 _atom_site_fract_z
 _atom_site_occupancy
  Pt  Pt0  1  0.00000000  0.00000000  0.00000000  1
  Pb  Pb1  1  0.50000000  0.50000000  0.50000000  1
  F  F2  1  0.70661200  0.70661200  0.05988500  1
  F  F3  1  0.05988500  0.70661200  0.70661200  1
  F  F4  1  0.94011500  0.29338800  0.29338800  1
  F  F5  1  0.29338800  0.29338800  0.94011500  1
  F  F6  1  0.29338800  0.94011500  0.29338800  1
  F  F7  1  0.70661200  0.05988500  0.70661200  1
