# generated using pymatgen
data_Ba3MnNb2O9
_symmetry_space_group_name_H-M   'P 1'
_cell_length_a   9.36353739
_cell_length_b   9.36353730
_cell_length_c   11.81997335
_cell_angle_alpha   108.39614474
_cell_angle_beta   108.39614438
_cell_angle_gamma   66.26944326
_symmetry_Int_Tables_number   1
_chemical_formula_structural   Ba3MnNb2O9
_chemical_formula_sum   'Ba12 Mn4 Nb8 O36'
_cell_volume   878.75167231
_cell_formula_units_Z   4
loop_
 _symmetry_equiv_pos_site_id
 _symmetry_equiv_pos_as_xyz
  1  'x, y, z'
loop_
 _atom_site_type_symbol
 _atom_site_label
 _atom_site_symmetry_multiplicity
 _atom_site_fract_x
 _atom_site_fract_y
 _atom_site_fract_z
 _atom_site_occupancy
  Ba  Ba0  1  0.00000000  0.00000000  0.50000000  1
  Ba  Ba1  1  0.50000000  0.50000000  0.75000000  1
  Ba  Ba2  1  0.00000000  0.00000000  0.00000000  1
  Ba  Ba3  1  0.50000000  0.50000000  0.25000000  1
  Ba  Ba4  1  0.16684500  0.50017900  0.41675600  1
  Ba  Ba5  1  0.66684500  0.00017900  0.66675600  1
  Ba  Ba6  1  0.16684500  0.50017900  0.91675600  1
  Ba  Ba7  1  0.66684500  0.00017900  0.16675600  1
  Ba  Ba8  1  0.33315500  0.99982100  0.33324400  1
  Ba  Ba9  1  0.83315500  0.49982100  0.58324400  1
  Ba  Ba10  1  0.33315500  0.99982100  0.83324400  1
  Ba  Ba11  1  0.83315500  0.49982100  0.08324400  1
  Mn  Mn12  1  0.25000000  0.25000000  0.62500000  1
  Mn  Mn13  1  0.75000000  0.75000000  0.87500000  1
  Mn  Mn14  1  0.25000000  0.25000000  0.12500000  1
  Mn  Mn15  1  0.75000000  0.75000000  0.37500000  1
  Nb  Nb16  1  0.92092400  0.25425700  0.29379500  1
  Nb  Nb17  1  0.42092400  0.75425700  0.54379500  1
  Nb  Nb18  1  0.92092400  0.25425700  0.79379500  1
  Nb  Nb19  1  0.42092400  0.75425700  0.04379500  1
  Nb  Nb20  1  0.57907600  0.24574300  0.45620500  1
  Nb  Nb21  1  0.07907600  0.74574300  0.70620500  1
  Nb  Nb22  1  0.57907600  0.24574300  0.95620500  1
  Nb  Nb23  1  0.07907600  0.74574300  0.20620500  1
  O  O24  1  0.25000000  0.75000000  0.37500000  1
  O  O25  1  0.75000000  0.25000000  0.62500000  1
  O  O26  1  0.25000000  0.75000000  0.87500000  1
  O  O27  1  0.75000000  0.25000000  0.12500000  1
  O  O28  1  0.75000000  0.25000000  0.37500000  1
  O  O29  1  0.25000000  0.75000000  0.62500000  1
  O  O30  1  0.75000000  0.25000000  0.87500000  1
  O  O31  1  0.25000000  0.75000000  0.12500000  1
  O  O32  1  0.00000000  0.00000000  0.25000000  1
  O  O33  1  0.50000000  0.50000000  0.50000000  1
  O  O34  1  0.00000000  0.00000000  0.75000000  1
  O  O35  1  0.50000000  0.50000000  0.00000000  1
  O  O36  1  0.42589500  0.25243900  0.53949200  1
  O  O37  1  0.92589500  0.75243900  0.78949200  1
  O  O38  1  0.42589500  0.25243900  0.03949200  1
  O  O39  1  0.92589500  0.75243900  0.28949200  1
  O  O40  1  0.66571100  0.01262200  0.41958300  1
  O  O41  1  0.16571100  0.51262200  0.66958300  1
  O  O42  1  0.66571100  0.01262200  0.91958300  1
  O  O43  1  0.16571100  0.51262200  0.16958300  1
  O  O44  1  0.42589500  0.25243900  0.29967500  1
  O  O45  1  0.92589500  0.75243900  0.54967500  1
  O  O46  1  0.42589500  0.25243900  0.79967500  1
  O  O47  1  0.92589500  0.75243900  0.04967500  1
  O  O48  1  0.83428900  0.48737800  0.33041700  1
  O  O49  1  0.33428900  0.98737800  0.58041700  1
  O  O50  1  0.83428900  0.48737800  0.83041700  1
  O  O51  1  0.33428900  0.98737800  0.08041700  1
  O  O52  1  0.07410500  0.24756100  0.21050800  1
  O  O53  1  0.57410500  0.74756100  0.46050800  1
  O  O54  1  0.07410500  0.24756100  0.71050800  1
  O  O55  1  0.57410500  0.74756100  0.96050800  1
  O  O56  1  0.07410500  0.24756100  0.45032500  1
  O  O57  1  0.57410500  0.74756100  0.70032500  1
  O  O58  1  0.07410500  0.24756100  0.95032500  1
  O  O59  1  0.57410500  0.74756100  0.20032500  1
