# generated using pymatgen
data_In2O3
_symmetry_space_group_name_H-M   'P 1'
_cell_length_a   8.91968234
_cell_length_b   8.91968234
_cell_length_c   8.91968234
_cell_angle_alpha   109.47122063
_cell_angle_beta   109.47122063
_cell_angle_gamma   109.47122063
_symmetry_Int_Tables_number   1
_chemical_formula_structural   In2O3
_chemical_formula_sum   'In16 O24'
_cell_volume   546.29380183
_cell_formula_units_Z   8
loop_
 _symmetry_equiv_pos_site_id
 _symmetry_equiv_pos_as_xyz
  1  'x, y, z'
loop_
 _atom_site_type_symbol
 _atom_site_label
 _atom_site_symmetry_multiplicity
 _atom_site_fract_x
 _atom_site_fract_y
 _atom_site_fract_z
 _atom_site_occupancy
  In  In0  1  0.03344400  0.75000000  0.78344400  1
  In  In1  1  0.96655600  0.25000000  0.21655600  1
  In  In2  1  0.46655600  0.25000000  0.71655600  1
  In  In3  1  0.00000000  0.00000000  0.50000000  1
  In  In4  1  0.25000000  0.71655600  0.46655600  1
  In  In5  1  0.78344400  0.03344400  0.75000000  1
  In  In6  1  0.28344400  0.53344400  0.75000000  1
  In  In7  1  0.21655600  0.96655600  0.25000000  1
  In  In8  1  0.75000000  0.28344400  0.53344400  1
  In  In9  1  0.00000000  0.50000000  0.00000000  1
  In  In10  1  0.75000000  0.78344400  0.03344400  1
  In  In11  1  0.25000000  0.21655600  0.96655600  1
  In  In12  1  0.71655600  0.46655600  0.25000000  1
  In  In13  1  0.53344400  0.75000000  0.28344400  1
  In  In14  1  0.50000000  0.00000000  0.00000000  1
  In  In15  1  0.50000000  0.50000000  0.50000000  1
  O  O16  1  0.53616100  0.77198700  0.54414200  1
  O  O17  1  0.26417300  0.77215500  0.72801300  1
  O  O18  1  0.04414200  0.27215500  0.00798200  1
  O  O19  1  0.00798200  0.04414200  0.27215500  1
  O  O20  1  0.77215500  0.72801300  0.26417300  1
  O  O21  1  0.45585800  0.46383900  0.22801300  1
  O  O22  1  0.49201800  0.76417300  0.03616100  1
  O  O23  1  0.23582700  0.96383900  0.50798200  1
  O  O24  1  0.95585800  0.72784500  0.99201800  1
  O  O25  1  0.76417300  0.03616100  0.49201800  1
  O  O26  1  0.96383900  0.50798200  0.23582700  1
  O  O27  1  0.77198700  0.54414200  0.53616100  1
  O  O28  1  0.72784500  0.99201800  0.95585800  1
  O  O29  1  0.27215500  0.00798200  0.04414200  1
  O  O30  1  0.03616100  0.49201800  0.76417300  1
  O  O31  1  0.73582700  0.22784500  0.27198700  1
  O  O32  1  0.54414200  0.53616100  0.77198700  1
  O  O33  1  0.72801300  0.26417300  0.77215500  1
  O  O34  1  0.46383900  0.22801300  0.45585800  1
  O  O35  1  0.50798200  0.23582700  0.96383900  1
  O  O36  1  0.22801300  0.45585800  0.46383900  1
  O  O37  1  0.22784500  0.27198700  0.73582700  1
  O  O38  1  0.27198700  0.73582700  0.22784500  1
  O  O39  1  0.99201800  0.95585800  0.72784500  1
