# generated using pymatgen
data_EuOF
_symmetry_space_group_name_H-M   'P 1'
_cell_length_a   6.89060502
_cell_length_b   6.89060502
_cell_length_c   6.89060450
_cell_angle_alpha   33.33387895
_cell_angle_beta   33.33387895
_cell_angle_gamma   33.33387503
_symmetry_Int_Tables_number   1
_chemical_formula_structural   EuOF
_chemical_formula_sum   'Eu2 O2 F2'
_cell_volume   87.96664124
_cell_formula_units_Z   2
loop_
 _symmetry_equiv_pos_site_id
 _symmetry_equiv_pos_as_xyz
  1  'x, y, z'
loop_
 _atom_site_type_symbol
 _atom_site_label
 _atom_site_symmetry_multiplicity
 _atom_site_fract_x
 _atom_site_fract_y
 _atom_site_fract_z
 _atom_site_occupancy
  Eu  Eu0  1  0.75742100  0.75742100  0.75742100  1
  Eu  Eu1  1  0.24257900  0.24257900  0.24257900  1
  O  O2  1  0.87637200  0.87637200  0.87637200  1
  O  O3  1  0.12362800  0.12362800  0.12362800  1
  F  F4  1  0.37162400  0.37162400  0.37162400  1
  F  F5  1  0.62837600  0.62837600  0.62837600  1
