# generated using pymatgen
data_Pb3O4
_symmetry_space_group_name_H-M   'P 1'
_cell_length_a   9.03945400
_cell_length_b   9.03945400
_cell_length_c   6.77666600
_cell_angle_alpha   90.00000000
_cell_angle_beta   90.00000000
_cell_angle_gamma   90.00000000
_symmetry_Int_Tables_number   1
_chemical_formula_structural   Pb3O4
_chemical_formula_sum   'Pb12 O16'
_cell_volume   553.73309313
_cell_formula_units_Z   4
loop_
 _symmetry_equiv_pos_site_id
 _symmetry_equiv_pos_as_xyz
  1  'x, y, z'
loop_
 _atom_site_type_symbol
 _atom_site_label
 _atom_site_symmetry_multiplicity
 _atom_site_fract_x
 _atom_site_fract_y
 _atom_site_fract_z
 _atom_site_occupancy
  Pb  Pb0  1  0.50000000  0.00000000  0.25000000  1
  Pb  Pb1  1  0.00000000  0.50000000  0.75000000  1
  Pb  Pb2  1  0.50000000  0.00000000  0.75000000  1
  Pb  Pb3  1  0.00000000  0.50000000  0.25000000  1
  Pb  Pb4  1  0.14492600  0.16749000  0.00000000  1
  Pb  Pb5  1  0.16749000  0.85507400  0.50000000  1
  Pb  Pb6  1  0.83251000  0.14492600  0.50000000  1
  Pb  Pb7  1  0.85507400  0.83251000  0.00000000  1
  Pb  Pb8  1  0.35507400  0.66749000  0.00000000  1
  Pb  Pb9  1  0.64492600  0.33251000  0.00000000  1
  Pb  Pb10  1  0.66749000  0.64492600  0.50000000  1
  Pb  Pb11  1  0.33251000  0.35507400  0.50000000  1
  O  O12  1  0.67061700  0.17061700  0.25000000  1
  O  O13  1  0.17061700  0.32938300  0.75000000  1
  O  O14  1  0.82938300  0.67061700  0.75000000  1
  O  O15  1  0.32938300  0.82938300  0.25000000  1
  O  O16  1  0.32938300  0.82938300  0.75000000  1
  O  O17  1  0.82938300  0.67061700  0.25000000  1
  O  O18  1  0.17061700  0.32938300  0.25000000  1
  O  O19  1  0.67061700  0.17061700  0.75000000  1
  O  O20  1  0.40520900  0.13338600  0.00000000  1
  O  O21  1  0.13338600  0.59479100  0.50000000  1
  O  O22  1  0.86661400  0.40520900  0.50000000  1
  O  O23  1  0.59479100  0.86661400  0.00000000  1
  O  O24  1  0.09479100  0.63338600  0.00000000  1
  O  O25  1  0.90520900  0.36661400  0.00000000  1
  O  O26  1  0.63338600  0.90520900  0.50000000  1
  O  O27  1  0.36661400  0.09479100  0.50000000  1
