# generated using pymatgen
data_KI3F16
_symmetry_space_group_name_H-M   'P 1'
_cell_length_a   14.17130900
_cell_length_b   14.00626900
_cell_length_c   14.02255634
_cell_angle_alpha   89.92714300
_cell_angle_beta   90.00000000
_cell_angle_gamma   90.00000000
_symmetry_Int_Tables_number   1
_chemical_formula_structural   KI3F16
_chemical_formula_sum   'K8 I24 F128'
_cell_volume   2783.29521626
_cell_formula_units_Z   8
loop_
 _symmetry_equiv_pos_site_id
 _symmetry_equiv_pos_as_xyz
  1  'x, y, z'
loop_
 _atom_site_type_symbol
 _atom_site_label
 _atom_site_symmetry_multiplicity
 _atom_site_fract_x
 _atom_site_fract_y
 _atom_site_fract_z
 _atom_site_occupancy
  K  K0  1  0.45933000  0.98594600  0.24692800  1
  K  K1  1  0.95933000  0.51405400  0.75307200  1
  K  K2  1  0.54067000  0.01405400  0.75307200  1
  K  K3  1  0.04067000  0.48594600  0.24692800  1
  K  K4  1  0.98645300  0.98131700  0.25116200  1
  K  K5  1  0.48645300  0.51868300  0.74883800  1
  K  K6  1  0.01354700  0.01868300  0.74883800  1
  K  K7  1  0.51354700  0.48131700  0.25116200  1
  I  I8  1  0.71087500  0.54383000  0.51270400  1
  I  I9  1  0.21087500  0.95617000  0.48729600  1
  I  I10  1  0.28912500  0.45617000  0.48729600  1
  I  I11  1  0.78912500  0.04383000  0.51270400  1
  I  I12  1  0.95746300  0.71230000  0.47274900  1
  I  I13  1  0.45746300  0.78770000  0.52725100  1
  I  I14  1  0.04253700  0.28770000  0.52725100  1
  I  I15  1  0.54253700  0.21230000  0.47274900  1
  I  I16  1  0.76845800  0.76888700  0.71636100  1
  I  I17  1  0.26845800  0.73111300  0.28363900  1
  I  I18  1  0.23154200  0.23111300  0.28363900  1
  I  I19  1  0.73154200  0.26888700  0.71636100  1
  I  I20  1  0.21277800  0.72249200  0.78574700  1
  I  I21  1  0.71277800  0.77750800  0.21425300  1
  I  I22  1  0.78722200  0.27750800  0.21425300  1
  I  I23  1  0.28722200  0.22249200  0.78574700  1
  I  I24  1  0.28813800  0.52564600  0.01257800  1
  I  I25  1  0.78813800  0.97435400  0.98742200  1
  I  I26  1  0.71186200  0.47435400  0.98742200  1
  I  I27  1  0.21186200  0.02564600  0.01257800  1
  I  I28  1  0.45665200  0.77659200  0.96573000  1
  I  I29  1  0.95665200  0.72340800  0.03427000  1
  I  I30  1  0.54334800  0.22340800  0.03427000  1
  I  I31  1  0.04334800  0.27659200  0.96573000  1
  F  F32  1  0.62776500  0.54576500  0.40121600  1
  F  F33  1  0.12776500  0.95423500  0.59878400  1
  F  F34  1  0.37223500  0.45423500  0.59878400  1
  F  F35  1  0.87223500  0.04576500  0.40121600  1
  F  F36  1  0.81621600  0.54313000  0.42568300  1
  F  F37  1  0.31621600  0.95687000  0.57431700  1
  F  F38  1  0.18378400  0.45687000  0.57431700  1
  F  F39  1  0.68378400  0.04313000  0.42568300  1
  F  F40  1  0.79467300  0.50077100  0.61324100  1
  F  F41  1  0.29467300  0.99922900  0.38675900  1
  F  F42  1  0.20532700  0.49922900  0.38675900  1
  F  F43  1  0.70532700  0.00077100  0.61324100  1
  F  F44  1  0.60364300  0.50406000  0.59236500  1
  F  F45  1  0.10364300  0.99594000  0.40763500  1
  F  F46  1  0.39635700  0.49594000  0.40763500  1
  F  F47  1  0.89635700  0.00406000  0.59236500  1
  F  F48  1  0.71252200  0.41268900  0.48566200  1
  F  F49  1  0.21252200  0.08731100  0.51433800  1
  F  F50  1  0.28747800  0.58731100  0.51433800  1
  F  F51  1  0.78747800  0.91268900  0.48566200  1
  F  F52  1  0.98681300  0.60692100  0.55658500  1
  F  F53  1  0.48681300  0.89307900  0.44341500  1
  F  F54  1  0.01318700  0.39307900  0.44341500  1
  F  F55  1  0.51318700  0.10692100  0.55658500  1
  F  F56  1  0.96855600  0.79727500  0.58012200  1
  F  F57  1  0.46855600  0.70272500  0.41987800  1
  F  F58  1  0.03144400  0.20272500  0.41987800  1
  F  F59  1  0.53144400  0.29727500  0.58012200  1
  F  F60  1  0.96851300  0.82388900  0.38883700  1
  F  F61  1  0.46851300  0.67611100  0.61116300  1
  F  F62  1  0.03148700  0.17611100  0.61116300  1
  F  F63  1  0.53148700  0.32388900  0.38883700  1
  F  F64  1  0.98666700  0.62951100  0.36400400  1
  F  F65  1  0.48666700  0.87048900  0.63599600  1
  F  F66  1  0.01333300  0.37048900  0.63599600  1
  F  F67  1  0.51333300  0.12951100  0.36400400  1
  F  F68  1  0.08959400  0.72550000  0.47348900  1
  F  F69  1  0.58959400  0.77450000  0.52651100  1
  F  F70  1  0.91040600  0.27450000  0.52651100  1
  F  F71  1  0.41040600  0.22550000  0.47348900  1
  F  F72  1  0.87516300  0.68533100  0.73612000  1
  F  F73  1  0.37516300  0.81466900  0.26388000  1
  F  F74  1  0.12483700  0.31466900  0.26388000  1
  F  F75  1  0.62483700  0.18533100  0.73612000  1
  F  F76  1  0.68719900  0.65793300  0.71453200  1
  F  F77  1  0.18719900  0.84206700  0.28546800  1
  F  F78  1  0.31280100  0.34206700  0.28546800  1
  F  F79  1  0.81280100  0.15793300  0.71453200  1
  F  F80  1  0.65587400  0.84461600  0.73907500  1
  F  F81  1  0.15587400  0.65538400  0.26092500  1
  F  F82  1  0.34412600  0.15538400  0.26092500  1
  F  F83  1  0.84412600  0.34461600  0.73907500  1
  F  F84  1  0.84780100  0.87517900  0.75931300  1
  F  F85  1  0.34780100  0.62482100  0.24068700  1
  F  F86  1  0.15219900  0.12482100  0.24068700  1
  F  F87  1  0.65219900  0.37517900  0.75931300  1
  F  F88  1  0.75789400  0.75077000  0.84833900  1
  F  F89  1  0.25789400  0.74923000  0.15166100  1
  F  F90  1  0.24210600  0.24923000  0.15166100  1
  F  F91  1  0.74210600  0.25077000  0.84833900  1
  F  F92  1  0.30557000  0.62998600  0.74467000  1
  F  F93  1  0.80557000  0.87001400  0.25533000  1
  F  F94  1  0.69443000  0.37001400  0.25533000  1
  F  F95  1  0.19443000  0.12998600  0.74467000  1
  F  F96  1  0.31049400  0.81886000  0.78992200  1
  F  F97  1  0.81049400  0.68114000  0.21007800  1
  F  F98  1  0.68950600  0.18114000  0.21007800  1
  F  F99  1  0.18950600  0.31886000  0.78992200  1
  F  F100  1  0.11962700  0.82494300  0.78702100  1
  F  F101  1  0.61962700  0.67505700  0.21297900  1
  F  F102  1  0.88037300  0.17505700  0.21297900  1
  F  F103  1  0.38037300  0.32494300  0.78702100  1
  F  F104  1  0.11483500  0.63470800  0.74062500  1
  F  F105  1  0.61483500  0.86529200  0.25937500  1
  F  F106  1  0.88516500  0.36529200  0.25937500  1
  F  F107  1  0.38516500  0.13470800  0.74062500  1
  F  F108  1  0.21692800  0.75376600  0.65577300  1
  F  F109  1  0.71692800  0.74623400  0.34422700  1
  F  F110  1  0.78307200  0.24623400  0.34422700  1
  F  F111  1  0.28307200  0.25376600  0.65577300  1
  F  F112  1  0.19246100  0.50983800  0.11185800  1
  F  F113  1  0.69246100  0.99016200  0.88814200  1
  F  F114  1  0.80753900  0.49016200  0.88814200  1
  F  F115  1  0.30753900  0.00983800  0.11185800  1
  F  F116  1  0.18653400  0.53806100  0.92101500  1
  F  F117  1  0.68653400  0.96193900  0.07898500  1
  F  F118  1  0.81346600  0.46193900  0.07898500  1
  F  F119  1  0.31346600  0.03806100  0.92101500  1
  F  F120  1  0.37462800  0.50115700  0.90869500  1
  F  F121  1  0.87462800  0.99884300  0.09130500  1
  F  F122  1  0.62537200  0.49884300  0.09130500  1
  F  F123  1  0.12537200  0.00115700  0.90869500  1
  F  F124  1  0.38263500  0.47013800  0.09831400  1
  F  F125  1  0.88263500  0.02986200  0.90168600  1
  F  F126  1  0.61736500  0.52986200  0.90168600  1
  F  F127  1  0.11736500  0.97013800  0.09831400  1
  F  F128  1  0.26071600  0.39591200  0.99311800  1
  F  F129  1  0.76071600  0.10408800  0.00688200  1
  F  F130  1  0.73928400  0.60408800  0.00688200  1
  F  F131  1  0.23928400  0.89591200  0.99311800  1
  F  F132  1  0.46588500  0.66269300  0.04368400  1
  F  F133  1  0.96588500  0.83730700  0.95631600  1
  F  F134  1  0.53411500  0.33730700  0.95631600  1
  F  F135  1  0.03411500  0.16269300  0.04368400  1
  F  F136  1  0.48972500  0.70161400  0.85475000  1
  F  F137  1  0.98972500  0.79838600  0.14525000  1
  F  F138  1  0.51027500  0.29838600  0.14525000  1
  F  F139  1  0.01027500  0.20161400  0.85475000  1
  F  F140  1  0.48734000  0.89256000  0.89289900  1
  F  F141  1  0.98734000  0.60744000  0.10710100  1
  F  F142  1  0.51266000  0.10744000  0.10710100  1
  F  F143  1  0.01266000  0.39256000  0.89289900  1
  F  F144  1  0.46416500  0.85180900  0.08312000  1
  F  F145  1  0.96416500  0.64819100  0.91688000  1
  F  F146  1  0.53583500  0.14819100  0.91688000  1
  F  F147  1  0.03583500  0.35180900  0.08312000  1
  F  F148  1  0.58799500  0.77463900  0.98267800  1
  F  F149  1  0.08799500  0.72536100  0.01732200  1
  F  F150  1  0.41200500  0.22536100  0.01732200  1
  F  F151  1  0.91200500  0.27463900  0.98267800  1
  F  F152  1  0.79700300  0.69504000  0.55260300  1
  F  F153  1  0.29700300  0.80496000  0.44739700  1
  F  F154  1  0.20299700  0.30496000  0.44739700  1
  F  F155  1  0.70299700  0.19504000  0.55260300  1
  F  F156  1  0.30466200  0.68974100  0.94074100  1
  F  F157  1  0.80466200  0.81025900  0.05925900  1
  F  F158  1  0.69533800  0.31025900  0.05925900  1
  F  F159  1  0.19533800  0.18974100  0.94074100  1
