# generated using pymatgen
data_Rb9O2
_symmetry_space_group_name_H-M   'P 1'
_cell_length_a   14.08719300
_cell_length_b   8.43479300
_cell_length_c   11.74084057
_cell_angle_alpha   75.53398970
_cell_angle_beta   90.00000000
_cell_angle_gamma   90.00000000
_symmetry_Int_Tables_number   1
_chemical_formula_structural   Rb9O2
_chemical_formula_sum   'Rb18 O4'
_cell_volume   1350.84718985
_cell_formula_units_Z   2
loop_
 _symmetry_equiv_pos_site_id
 _symmetry_equiv_pos_as_xyz
  1  'x, y, z'
loop_
 _atom_site_type_symbol
 _atom_site_label
 _atom_site_symmetry_multiplicity
 _atom_site_fract_x
 _atom_site_fract_y
 _atom_site_fract_z
 _atom_site_occupancy
  Rb  Rb0  1  0.89102700  0.27668400  0.45793900  1
  Rb  Rb1  1  0.39102700  0.72331600  0.54206100  1
  Rb  Rb2  1  0.10897300  0.72331600  0.54206100  1
  Rb  Rb3  1  0.60897300  0.27668400  0.45793900  1
  Rb  Rb4  1  0.87801900  0.05971800  0.18394100  1
  Rb  Rb5  1  0.37801900  0.94028200  0.81605900  1
  Rb  Rb6  1  0.12198100  0.94028200  0.81605900  1
  Rb  Rb7  1  0.62198100  0.05971800  0.18394100  1
  Rb  Rb8  1  0.75000000  0.97112500  0.89383200  1
  Rb  Rb9  1  0.25000000  0.02887500  0.10616800  1
  Rb  Rb10  1  0.75000000  0.85277500  0.49692700  1
  Rb  Rb11  1  0.25000000  0.14722500  0.50307300  1
  Rb  Rb12  1  0.75000000  0.43743300  0.15335800  1
  Rb  Rb13  1  0.25000000  0.56256700  0.84664200  1
  Rb  Rb14  1  0.60921300  0.38913400  0.86313200  1
  Rb  Rb15  1  0.10921300  0.61086600  0.13686800  1
  Rb  Rb16  1  0.39078700  0.61086600  0.13686800  1
  Rb  Rb17  1  0.89078700  0.38913400  0.86313200  1
  O  O18  1  0.25000000  0.84361300  0.65662400  1
  O  O19  1  0.75000000  0.15638700  0.34337600  1
  O  O20  1  0.25000000  0.77980400  0.99748600  1
  O  O21  1  0.75000000  0.22019600  0.00251400  1
