# generated using pymatgen
data_CaGe
_symmetry_space_group_name_H-M   'P 1'
_cell_length_a   5.90698875
_cell_length_b   5.90698875
_cell_length_c   4.02001800
_cell_angle_alpha   90.00000000
_cell_angle_beta   90.00000000
_cell_angle_gamma   134.29177674
_symmetry_Int_Tables_number   1
_chemical_formula_structural   CaGe
_chemical_formula_sum   'Ca2 Ge2'
_cell_volume   100.40323617
_cell_formula_units_Z   2
loop_
 _symmetry_equiv_pos_site_id
 _symmetry_equiv_pos_as_xyz
  1  'x, y, z'
loop_
 _atom_site_type_symbol
 _atom_site_label
 _atom_site_symmetry_multiplicity
 _atom_site_fract_x
 _atom_site_fract_y
 _atom_site_fract_z
 _atom_site_occupancy
  Ca  Ca0  1  0.63674100  0.36325900  0.75000000  1
  Ca  Ca1  1  0.36325900  0.63674100  0.25000000  1
  Ge  Ge2  1  0.92317400  0.07682600  0.75000000  1
  Ge  Ge3  1  0.07682600  0.92317400  0.25000000  1
