# generated using pymatgen
data_Cs2Mn3S4
_symmetry_space_group_name_H-M   'P 1'
_cell_length_a   9.69763797
_cell_length_b   9.69763797
_cell_length_c   9.69763797
_cell_angle_alpha   143.16876729
_cell_angle_beta   105.96041935
_cell_angle_gamma   85.67706103
_symmetry_Int_Tables_number   1
_chemical_formula_structural   Cs2Mn3S4
_chemical_formula_sum   'Cs4 Mn6 S8'
_cell_volume   508.79826266
_cell_formula_units_Z   2
loop_
 _symmetry_equiv_pos_site_id
 _symmetry_equiv_pos_as_xyz
  1  'x, y, z'
loop_
 _atom_site_type_symbol
 _atom_site_label
 _atom_site_symmetry_multiplicity
 _atom_site_fract_x
 _atom_site_fract_y
 _atom_site_fract_z
 _atom_site_occupancy
  Cs  Cs0  1  0.12020100  0.23717100  0.35737200  1
  Cs  Cs1  1  0.37979900  0.73717100  0.11696900  1
  Cs  Cs2  1  0.62020100  0.26282900  0.88303100  1
  Cs  Cs3  1  0.87979900  0.76282900  0.64262800  1
  Mn  Mn4  1  0.25000000  0.75000000  0.50000000  1
  Mn  Mn5  1  0.75000000  0.25000000  0.50000000  1
  Mn  Mn6  1  0.47512900  0.25000000  0.22512900  1
  Mn  Mn7  1  0.02487100  0.25000000  0.77487100  1
  Mn  Mn8  1  0.97512900  0.75000000  0.22512900  1
  Mn  Mn9  1  0.52487100  0.75000000  0.77487100  1
  S  S10  1  0.47893600  0.62740500  0.41874300  1
  S  S11  1  0.02106400  0.43980600  0.14846900  1
  S  S12  1  0.29133800  0.87259500  0.85153100  1
  S  S13  1  0.20866200  0.06019400  0.58125700  1
  S  S14  1  0.70866200  0.12740500  0.14846900  1
  S  S15  1  0.79133800  0.93980600  0.41874300  1
  S  S16  1  0.97893600  0.56019400  0.85153100  1
  S  S17  1  0.52106400  0.37259500  0.58125700  1
