# generated using pymatgen
data_YNiSn2
_symmetry_space_group_name_H-M   'P 1'
_cell_length_a   4.44692400
_cell_length_b   14.72319900
_cell_length_c   16.11723400
_cell_angle_alpha   90.00000000
_cell_angle_beta   90.00000000
_cell_angle_gamma   90.00000000
_symmetry_Int_Tables_number   1
_chemical_formula_structural   YNiSn2
_chemical_formula_sum   'Y12 Ni12 Sn24'
_cell_volume   1055.24280731
_cell_formula_units_Z   12
loop_
 _symmetry_equiv_pos_site_id
 _symmetry_equiv_pos_as_xyz
  1  'x, y, z'
loop_
 _atom_site_type_symbol
 _atom_site_label
 _atom_site_symmetry_multiplicity
 _atom_site_fract_x
 _atom_site_fract_y
 _atom_site_fract_z
 _atom_site_occupancy
  Y  Y0  1  0.25000000  0.97412800  0.34918900  1
  Y  Y1  1  0.25000000  0.52587200  0.84918900  1
  Y  Y2  1  0.75000000  0.02587200  0.65081100  1
  Y  Y3  1  0.75000000  0.47412800  0.15081100  1
  Y  Y4  1  0.25000000  0.27140500  0.87395600  1
  Y  Y5  1  0.25000000  0.22859500  0.37395600  1
  Y  Y6  1  0.75000000  0.72859500  0.12604400  1
  Y  Y7  1  0.75000000  0.77140500  0.62604400  1
  Y  Y8  1  0.25000000  0.39362700  0.64496500  1
  Y  Y9  1  0.25000000  0.10637300  0.14496500  1
  Y  Y10  1  0.75000000  0.60637300  0.35503500  1
  Y  Y11  1  0.75000000  0.89362700  0.85503500  1
  Ni  Ni12  1  0.25000000  0.60506500  0.05141100  1
  Ni  Ni13  1  0.25000000  0.89493500  0.55141100  1
  Ni  Ni14  1  0.75000000  0.39493500  0.94858900  1
  Ni  Ni15  1  0.75000000  0.10506500  0.44858900  1
  Ni  Ni16  1  0.25000000  0.74876800  0.30357800  1
  Ni  Ni17  1  0.25000000  0.75123200  0.80357800  1
  Ni  Ni18  1  0.75000000  0.25123200  0.69642200  1
  Ni  Ni19  1  0.75000000  0.24876800  0.19642200  1
  Ni  Ni20  1  0.25000000  0.04511900  0.79871500  1
  Ni  Ni21  1  0.25000000  0.45488100  0.29871500  1
  Ni  Ni22  1  0.75000000  0.95488100  0.20128500  1
  Ni  Ni23  1  0.75000000  0.54511900  0.70128500  1
  Sn  Sn24  1  0.25000000  0.17512300  0.68411400  1
  Sn  Sn25  1  0.25000000  0.32487700  0.18411400  1
  Sn  Sn26  1  0.75000000  0.82487700  0.31588600  1
  Sn  Sn27  1  0.75000000  0.67512300  0.81588600  1
  Sn  Sn28  1  0.25000000  0.04969300  0.95538600  1
  Sn  Sn29  1  0.25000000  0.45030700  0.45538600  1
  Sn  Sn30  1  0.75000000  0.95030700  0.04461400  1
  Sn  Sn31  1  0.75000000  0.54969300  0.54461400  1
  Sn  Sn32  1  0.25000000  0.07811600  0.51968200  1
  Sn  Sn33  1  0.25000000  0.42188400  0.01968200  1
  Sn  Sn34  1  0.75000000  0.92188400  0.48031800  1
  Sn  Sn35  1  0.75000000  0.57811600  0.98031800  1
  Sn  Sn36  1  0.25000000  0.60593200  0.21389400  1
  Sn  Sn37  1  0.25000000  0.89406800  0.71389400  1
  Sn  Sn38  1  0.75000000  0.39406800  0.78610600  1
  Sn  Sn39  1  0.75000000  0.10593200  0.28610600  1
  Sn  Sn40  1  0.25000000  0.73922900  0.46642900  1
  Sn  Sn41  1  0.25000000  0.76077100  0.96642900  1
  Sn  Sn42  1  0.75000000  0.26077100  0.53357100  1
  Sn  Sn43  1  0.75000000  0.23922900  0.03357100  1
  Sn  Sn44  1  0.25000000  0.87203000  0.17380500  1
  Sn  Sn45  1  0.25000000  0.62797000  0.67380500  1
  Sn  Sn46  1  0.75000000  0.12797000  0.82619500  1
  Sn  Sn47  1  0.75000000  0.37203000  0.32619500  1
