# generated using pymatgen
data_ErGePd2
_symmetry_space_group_name_H-M   'P 1'
_cell_length_a   5.60410000
_cell_length_b   7.15365600
_cell_length_c   7.32839000
_cell_angle_alpha   90.00000000
_cell_angle_beta   90.00000000
_cell_angle_gamma   90.00000000
_symmetry_Int_Tables_number   1
_chemical_formula_structural   ErGePd2
_chemical_formula_sum   'Er4 Ge4 Pd8'
_cell_volume   293.79371573
_cell_formula_units_Z   4
loop_
 _symmetry_equiv_pos_site_id
 _symmetry_equiv_pos_as_xyz
  1  'x, y, z'
loop_
 _atom_site_type_symbol
 _atom_site_label
 _atom_site_symmetry_multiplicity
 _atom_site_fract_x
 _atom_site_fract_y
 _atom_site_fract_z
 _atom_site_occupancy
  Er  Er0  1  0.64428300  0.25000000  0.97513900  1
  Er  Er1  1  0.85571700  0.25000000  0.47513900  1
  Er  Er2  1  0.35571700  0.75000000  0.02486100  1
  Er  Er3  1  0.14428300  0.75000000  0.52486100  1
  Ge  Ge4  1  0.35887400  0.25000000  0.62160100  1
  Ge  Ge5  1  0.85887400  0.75000000  0.87839900  1
  Ge  Ge6  1  0.64112600  0.75000000  0.37839900  1
  Ge  Ge7  1  0.14112600  0.25000000  0.12160100  1
  Pd  Pd8  1  0.41201900  0.05127500  0.31717600  1
  Pd  Pd9  1  0.08798100  0.05127500  0.81717600  1
  Pd  Pd10  1  0.41201900  0.44872500  0.31717600  1
  Pd  Pd11  1  0.91201900  0.55127500  0.18282400  1
  Pd  Pd12  1  0.58798100  0.55127500  0.68282400  1
  Pd  Pd13  1  0.08798100  0.44872500  0.81717600  1
  Pd  Pd14  1  0.58798100  0.94872500  0.68282400  1
  Pd  Pd15  1  0.91201900  0.94872500  0.18282400  1
