# generated using pymatgen
data_CsHF2
_symmetry_space_group_name_H-M   'P 1'
_cell_length_a   5.93108622
_cell_length_b   5.93108622
_cell_length_c   5.93108622
_cell_angle_alpha   116.53235477
_cell_angle_beta   116.53235477
_cell_angle_gamma   96.11899895
_symmetry_Int_Tables_number   1
_chemical_formula_structural   CsHF2
_chemical_formula_sum   'Cs2 H2 F4'
_cell_volume   154.31225798
_cell_formula_units_Z   2
loop_
 _symmetry_equiv_pos_site_id
 _symmetry_equiv_pos_as_xyz
  1  'x, y, z'
loop_
 _atom_site_type_symbol
 _atom_site_label
 _atom_site_symmetry_multiplicity
 _atom_site_fract_x
 _atom_site_fract_y
 _atom_site_fract_z
 _atom_site_occupancy
  Cs  Cs0  1  0.25000000  0.25000000  0.00000000  1
  Cs  Cs1  1  0.75000000  0.75000000  0.00000000  1
  H  H2  1  0.00000000  0.50000000  0.50000000  1
  H  H3  1  0.50000000  0.00000000  0.50000000  1
  F  F4  1  0.86924000  0.36924000  0.23847900  1
  F  F5  1  0.36924000  0.13076000  0.50000000  1
  F  F6  1  0.13076000  0.63076000  0.76152100  1
  F  F7  1  0.63076000  0.86924000  0.50000000  1
