# generated using pymatgen
data_Na4Sn3F10
_symmetry_space_group_name_H-M   'P 1'
_cell_length_a   11.10159253
_cell_length_b   11.10159253
_cell_length_c   5.55515469
_cell_angle_alpha   89.09757863
_cell_angle_beta   89.09757863
_cell_angle_gamma   112.44978125
_symmetry_Int_Tables_number   1
_chemical_formula_structural   Na4Sn3F10
_chemical_formula_sum   'Na8 Sn6 F20'
_cell_volume   632.50679442
_cell_formula_units_Z   2
loop_
 _symmetry_equiv_pos_site_id
 _symmetry_equiv_pos_as_xyz
  1  'x, y, z'
loop_
 _atom_site_type_symbol
 _atom_site_label
 _atom_site_symmetry_multiplicity
 _atom_site_fract_x
 _atom_site_fract_y
 _atom_site_fract_z
 _atom_site_occupancy
  Na  Na0  1  0.55582600  0.09776800  0.75260500  1
  Na  Na1  1  0.90223200  0.44417400  0.74739500  1
  Na  Na2  1  0.44417400  0.90223200  0.24739500  1
  Na  Na3  1  0.09776800  0.55582600  0.25260500  1
  Na  Na4  1  0.65690500  0.34309500  0.25000000  1
  Na  Na5  1  0.34309500  0.65690500  0.75000000  1
  Na  Na6  1  0.54724300  0.45275700  0.75000000  1
  Na  Na7  1  0.45275700  0.54724300  0.25000000  1
  Sn  Sn8  1  0.66387400  0.82674700  0.66299300  1
  Sn  Sn9  1  0.17325300  0.33612600  0.83700700  1
  Sn  Sn10  1  0.33612600  0.17325300  0.33700700  1
  Sn  Sn11  1  0.82674700  0.66387400  0.16299300  1
  Sn  Sn12  1  0.84219400  0.15780600  0.25000000  1
  Sn  Sn13  1  0.15780600  0.84219400  0.75000000  1
  F  F14  1  0.20332700  0.72123600  0.51649100  1
  F  F15  1  0.27876400  0.79667300  0.98350900  1
  F  F16  1  0.79667300  0.27876400  0.48350900  1
  F  F17  1  0.72123600  0.20332700  0.01649100  1
  F  F18  1  0.09726600  0.43729300  0.60890600  1
  F  F19  1  0.56270700  0.90273400  0.89109400  1
  F  F20  1  0.90273400  0.56270700  0.39109400  1
  F  F21  1  0.43729300  0.09726600  0.10890600  1
  F  F22  1  0.34694800  0.44339400  0.61357200  1
  F  F23  1  0.55660600  0.65305200  0.88642800  1
  F  F24  1  0.65305200  0.55660600  0.38642800  1
  F  F25  1  0.44339400  0.34694800  0.11357200  1
  F  F26  1  0.00951100  0.65356000  0.93691400  1
  F  F27  1  0.34644000  0.99048900  0.56308600  1
  F  F28  1  0.50414600  0.25675300  0.54824300  1
  F  F29  1  0.74324700  0.49585400  0.95175700  1
  F  F30  1  0.49585400  0.74324700  0.45175700  1
  F  F31  1  0.25675300  0.50414600  0.04824300  1
  F  F32  1  0.65356000  0.00951100  0.43691400  1
  F  F33  1  0.99048900  0.34644000  0.06308600  1
