# generated using pymatgen
data_K2NaInP2
_symmetry_space_group_name_H-M   'P 1'
_cell_length_a   8.88468087
_cell_length_b   8.88468087
_cell_length_c   8.88468087
_cell_angle_alpha   135.82085912
_cell_angle_beta   135.74664516
_cell_angle_gamma   64.31485463
_symmetry_Int_Tables_number   1
_chemical_formula_structural   K2NaInP2
_chemical_formula_sum   'K4 Na2 In2 P4'
_cell_volume   336.39889723
_cell_formula_units_Z   2
loop_
 _symmetry_equiv_pos_site_id
 _symmetry_equiv_pos_as_xyz
  1  'x, y, z'
loop_
 _atom_site_type_symbol
 _atom_site_label
 _atom_site_symmetry_multiplicity
 _atom_site_fract_x
 _atom_site_fract_y
 _atom_site_fract_z
 _atom_site_occupancy
  K  K0  1  0.17730900  0.93906700  0.76175800  1
  K  K1  1  0.82269100  0.06093300  0.23824200  1
  K  K2  1  0.32269100  0.58444900  0.26175800  1
  K  K3  1  0.67730900  0.41555100  0.73824200  1
  Na  Na4  1  0.75000000  0.00000000  0.75000000  1
  Na  Na5  1  0.25000000  0.00000000  0.25000000  1
  In  In6  1  0.25000000  0.50000000  0.75000000  1
  In  In7  1  0.75000000  0.50000000  0.25000000  1
  P  P8  1  0.40077500  0.18557300  0.78479800  1
  P  P9  1  0.59922500  0.81442700  0.21520200  1
  P  P10  1  0.09922500  0.38402200  0.28479800  1
  P  P11  1  0.90077500  0.61597800  0.71520200  1
