# generated using pymatgen
data_Sc5Re2C7
_symmetry_space_group_name_H-M   'P 1'
_cell_length_a   7.89308426
_cell_length_b   7.89308426
_cell_length_c   3.21922300
_cell_angle_alpha   90.00000000
_cell_angle_beta   90.00000000
_cell_angle_gamma   120.67494687
_symmetry_Int_Tables_number   1
_chemical_formula_structural   Sc5Re2C7
_chemical_formula_sum   'Sc5 Re2 C7'
_cell_volume   172.49681506
_cell_formula_units_Z   1
loop_
 _symmetry_equiv_pos_site_id
 _symmetry_equiv_pos_as_xyz
  1  'x, y, z'
loop_
 _atom_site_type_symbol
 _atom_site_label
 _atom_site_symmetry_multiplicity
 _atom_site_fract_x
 _atom_site_fract_y
 _atom_site_fract_z
 _atom_site_occupancy
  Sc  Sc0  1  0.08329200  0.33860300  0.50000000  1
  Sc  Sc1  1  0.33860300  0.08329200  0.50000000  1
  Sc  Sc2  1  0.50000000  0.50000000  0.00000000  1
  Sc  Sc3  1  0.91670800  0.66139700  0.50000000  1
  Sc  Sc4  1  0.66139700  0.91670800  0.50000000  1
  Re  Re5  1  0.71531800  0.28468200  0.00000000  1
  Re  Re6  1  0.28468200  0.71531800  0.00000000  1
  C  C7  1  0.00000000  0.00000000  0.00000000  1
  C  C8  1  0.00000000  0.50000000  0.00000000  1
  C  C9  1  0.50000000  0.00000000  0.00000000  1
  C  C10  1  0.17349000  0.17349000  0.00000000  1
  C  C11  1  0.82651000  0.82651000  0.00000000  1
  C  C12  1  0.61877300  0.38122700  0.50000000  1
  C  C13  1  0.38122700  0.61877300  0.50000000  1
