# generated using pymatgen
data_Pd7Se4
_symmetry_space_group_name_H-M   'P 1'
_cell_length_a   5.43502800
_cell_length_b   7.02426600
_cell_length_c   10.32102700
_cell_angle_alpha   90.00000000
_cell_angle_beta   90.00000000
_cell_angle_gamma   90.00000000
_symmetry_Int_Tables_number   1
_chemical_formula_structural   Pd7Se4
_chemical_formula_sum   'Pd14 Se8'
_cell_volume   394.02669812
_cell_formula_units_Z   2
loop_
 _symmetry_equiv_pos_site_id
 _symmetry_equiv_pos_as_xyz
  1  'x, y, z'
loop_
 _atom_site_type_symbol
 _atom_site_label
 _atom_site_symmetry_multiplicity
 _atom_site_fract_x
 _atom_site_fract_y
 _atom_site_fract_z
 _atom_site_occupancy
  Pd  Pd0  1  0.34916500  0.18887500  0.58381400  1
  Pd  Pd1  1  0.34916500  0.81112500  0.41618600  1
  Pd  Pd2  1  0.65083500  0.31112500  0.08381400  1
  Pd  Pd3  1  0.65083500  0.68887500  0.91618600  1
  Pd  Pd4  1  0.00355500  0.08418500  0.77445000  1
  Pd  Pd5  1  0.00355500  0.91581500  0.22555000  1
  Pd  Pd6  1  0.99644500  0.41581500  0.27445000  1
  Pd  Pd7  1  0.99644500  0.58418500  0.72555000  1
  Pd  Pd8  1  0.33810200  0.37196100  0.86876900  1
  Pd  Pd9  1  0.33810200  0.62803900  0.13123100  1
  Pd  Pd10  1  0.66189800  0.12803900  0.36876900  1
  Pd  Pd11  1  0.66189800  0.87196100  0.63123100  1
  Pd  Pd12  1  0.67593900  0.50000000  0.50000000  1
  Pd  Pd13  1  0.32406100  0.00000000  0.00000000  1
  Se  Se14  1  0.68268500  0.32413700  0.72067200  1
  Se  Se15  1  0.68268500  0.67586300  0.27932800  1
  Se  Se16  1  0.31731500  0.17586300  0.22067200  1
  Se  Se17  1  0.31731500  0.82413700  0.77932800  1
  Se  Se18  1  0.17031300  0.50000000  0.50000000  1
  Se  Se19  1  0.82968700  0.00000000  0.00000000  1
  Se  Se20  1  0.99923500  0.00000000  0.50000000  1
  Se  Se21  1  0.00076500  0.50000000  0.00000000  1
