# generated using pymatgen
data_Ti(SeO3)2
_symmetry_space_group_name_H-M   'P 1'
_cell_length_a   8.44663500
_cell_length_b   4.87599100
_cell_length_c   7.00913467
_cell_angle_alpha   68.33267019
_cell_angle_beta   90.00000000
_cell_angle_gamma   90.00000000
_symmetry_Int_Tables_number   1
_chemical_formula_structural   Ti(SeO3)2
_chemical_formula_sum   'Ti2 Se4 O12'
_cell_volume   268.27930753
_cell_formula_units_Z   2
loop_
 _symmetry_equiv_pos_site_id
 _symmetry_equiv_pos_as_xyz
  1  'x, y, z'
loop_
 _atom_site_type_symbol
 _atom_site_label
 _atom_site_symmetry_multiplicity
 _atom_site_fract_x
 _atom_site_fract_y
 _atom_site_fract_z
 _atom_site_occupancy
  Ti  Ti0  1  0.50000000  0.50000000  0.50000000  1
  Ti  Ti1  1  0.00000000  0.50000000  0.00000000  1
  Se  Se2  1  0.64015500  0.14033000  0.17947200  1
  Se  Se3  1  0.14015500  0.85967000  0.32052800  1
  Se  Se4  1  0.35984500  0.85967000  0.82052800  1
  Se  Se5  1  0.85984500  0.14033000  0.67947200  1
  O  O6  1  0.15316300  0.16770000  0.09624900  1
  O  O7  1  0.65316300  0.83230000  0.40375100  1
  O  O8  1  0.84683700  0.83230000  0.90375100  1
  O  O9  1  0.34683700  0.16770000  0.59624900  1
  O  O10  1  0.05131500  0.60024900  0.24404800  1
  O  O11  1  0.55131500  0.39975100  0.25595200  1
  O  O12  1  0.66190700  0.24397800  0.67028600  1
  O  O13  1  0.16190700  0.75602200  0.82971400  1
  O  O14  1  0.33809300  0.75602200  0.32971400  1
  O  O15  1  0.83809300  0.24397800  0.17028600  1
  O  O16  1  0.44868500  0.60024900  0.74404800  1
  O  O17  1  0.94868500  0.39975100  0.75595200  1
