# generated using pymatgen
data_Bi2W2O9
_symmetry_space_group_name_H-M   'P 1'
_cell_length_a   5.44997700
_cell_length_b   5.47846000
_cell_length_c   24.59469400
_cell_angle_alpha   90.00000000
_cell_angle_beta   90.00000000
_cell_angle_gamma   90.00000000
_symmetry_Int_Tables_number   1
_chemical_formula_structural   Bi2W2O9
_chemical_formula_sum   'Bi8 W8 O36'
_cell_volume   734.33560869
_cell_formula_units_Z   4
loop_
 _symmetry_equiv_pos_site_id
 _symmetry_equiv_pos_as_xyz
  1  'x, y, z'
loop_
 _atom_site_type_symbol
 _atom_site_label
 _atom_site_symmetry_multiplicity
 _atom_site_fract_x
 _atom_site_fract_y
 _atom_site_fract_z
 _atom_site_occupancy
  Bi  Bi0  1  0.27198900  0.63170300  0.69741800  1
  Bi  Bi1  1  0.22801100  0.36829700  0.19741800  1
  Bi  Bi2  1  0.72801100  0.13170300  0.69741800  1
  Bi  Bi3  1  0.77198900  0.86829700  0.19741800  1
  Bi  Bi4  1  0.77198900  0.63170300  0.80258200  1
  Bi  Bi5  1  0.72801100  0.36829700  0.30258200  1
  Bi  Bi6  1  0.22801100  0.13170300  0.80258200  1
  Bi  Bi7  1  0.27198900  0.86829700  0.30258200  1
  W  W8  1  0.74858900  0.30591200  0.07661300  1
  W  W9  1  0.75141100  0.69408800  0.57661300  1
  W  W10  1  0.25141100  0.80591200  0.07661300  1
  W  W11  1  0.24858900  0.19408800  0.57661300  1
  W  W12  1  0.25141100  0.69408800  0.92338700  1
  W  W13  1  0.24858900  0.30591200  0.42338700  1
  W  W14  1  0.74858900  0.19408800  0.92338700  1
  W  W15  1  0.75141100  0.80591200  0.42338700  1
  O  O16  1  0.17755700  0.72336400  0.84803000  1
  O  O17  1  0.32244300  0.27663600  0.34803000  1
  O  O18  1  0.82244300  0.22336400  0.84803000  1
  O  O19  1  0.67755700  0.77663600  0.34803000  1
  O  O20  1  0.46954300  0.50068000  0.08839500  1
  O  O21  1  0.03045700  0.49932000  0.58839500  1
  O  O22  1  0.53045700  0.00068000  0.08839500  1
  O  O23  1  0.96954300  0.99932000  0.58839500  1
  O  O24  1  0.53045700  0.49932000  0.91160500  1
  O  O25  1  0.96954300  0.50068000  0.41160500  1
  O  O26  1  0.46954300  0.99932000  0.91160500  1
  O  O27  1  0.03045700  0.00068000  0.41160500  1
  O  O28  1  0.82244300  0.27663600  0.15197000  1
  O  O29  1  0.67755700  0.72336400  0.65197000  1
  O  O30  1  0.17755700  0.77663600  0.15197000  1
  O  O31  1  0.32244300  0.22336400  0.65197000  1
  O  O32  1  0.00845000  0.09480800  0.25080500  1
  O  O33  1  0.49155000  0.90519200  0.75080500  1
  O  O34  1  0.99155000  0.59480800  0.25080500  1
  O  O35  1  0.50845000  0.40519200  0.75080500  1
  O  O36  1  0.50845000  0.09480800  0.24919500  1
  O  O37  1  0.99155000  0.90519200  0.74919500  1
  O  O38  1  0.49155000  0.59480800  0.24919500  1
  O  O39  1  0.00845000  0.40519200  0.74919500  1
  O  O40  1  0.18685200  0.25000000  0.50000000  1
  O  O41  1  0.31314800  0.75000000  0.00000000  1
  O  O42  1  0.96489900  0.56084900  0.06565500  1
  O  O43  1  0.68685200  0.25000000  0.00000000  1
  O  O44  1  0.53510100  0.06084900  0.43434500  1
  O  O45  1  0.96489900  0.93915100  0.93434500  1
  O  O46  1  0.46489900  0.56084900  0.43434500  1
  O  O47  1  0.03510100  0.43915100  0.93434500  1
  O  O48  1  0.46489900  0.93915100  0.56565500  1
  O  O49  1  0.03510100  0.06084900  0.06565500  1
  O  O50  1  0.53510100  0.43915100  0.56565500  1
  O  O51  1  0.81314800  0.75000000  0.50000000  1
