# generated using pymatgen
data_PdSO4
_symmetry_space_group_name_H-M   'P 1'
_cell_length_a   4.84341410
_cell_length_b   4.84341410
_cell_length_c   8.02275286
_cell_angle_alpha   84.57908232
_cell_angle_beta   84.57908232
_cell_angle_gamma   71.17734617
_symmetry_Int_Tables_number   1
_chemical_formula_structural   PdSO4
_chemical_formula_sum   'Pd2 S2 O8'
_cell_volume   176.93214194
_cell_formula_units_Z   2
loop_
 _symmetry_equiv_pos_site_id
 _symmetry_equiv_pos_as_xyz
  1  'x, y, z'
loop_
 _atom_site_type_symbol
 _atom_site_label
 _atom_site_symmetry_multiplicity
 _atom_site_fract_x
 _atom_site_fract_y
 _atom_site_fract_z
 _atom_site_occupancy
  Pd  Pd0  1  0.00000000  0.50000000  0.50000000  1
  Pd  Pd1  1  0.50000000  0.00000000  0.00000000  1
  S  S2  1  0.07341100  0.92658900  0.75000000  1
  S  S3  1  0.92658900  0.07341100  0.25000000  1
  O  O4  1  0.76909700  0.91319200  0.78531400  1
  O  O5  1  0.08680800  0.23090300  0.71468600  1
  O  O6  1  0.23090300  0.08680800  0.21468600  1
  O  O7  1  0.91319200  0.76909700  0.28531400  1
  O  O8  1  0.79817400  0.24777800  0.39938800  1
  O  O9  1  0.75222300  0.20182600  0.10061200  1
  O  O10  1  0.20182600  0.75222300  0.60061200  1
  O  O11  1  0.24777700  0.79817400  0.89938800  1
