# generated using pymatgen
data_EuMnO3
_symmetry_space_group_name_H-M   'P 1'
_cell_length_a   5.47936900
_cell_length_b   5.52682000
_cell_length_c   7.79094500
_cell_angle_alpha   90.00000000
_cell_angle_beta   90.00000000
_cell_angle_gamma   90.00000000
_symmetry_Int_Tables_number   1
_chemical_formula_structural   EuMnO3
_chemical_formula_sum   'Eu4 Mn4 O12'
_cell_volume   235.93697521
_cell_formula_units_Z   4
loop_
 _symmetry_equiv_pos_site_id
 _symmetry_equiv_pos_as_xyz
  1  'x, y, z'
loop_
 _atom_site_type_symbol
 _atom_site_label
 _atom_site_symmetry_multiplicity
 _atom_site_fract_x
 _atom_site_fract_y
 _atom_site_fract_z
 _atom_site_occupancy
  Eu  Eu0  1  0.00633600  0.96241500  0.75000000  1
  Eu  Eu1  1  0.50633600  0.53758500  0.25000000  1
  Eu  Eu2  1  0.49366400  0.46241500  0.75000000  1
  Eu  Eu3  1  0.99366400  0.03758500  0.25000000  1
  Mn  Mn4  1  0.50000000  0.00000000  0.50000000  1
  Mn  Mn5  1  0.00000000  0.50000000  0.50000000  1
  Mn  Mn6  1  0.00000000  0.50000000  0.00000000  1
  Mn  Mn7  1  0.50000000  0.00000000  0.00000000  1
  O  O8  1  0.70963300  0.29060700  0.46228400  1
  O  O9  1  0.20963300  0.20939300  0.53771600  1
  O  O10  1  0.79036700  0.79060700  0.03771600  1
  O  O11  1  0.29036700  0.70939300  0.96228400  1
  O  O12  1  0.29036700  0.70939300  0.53771600  1
  O  O13  1  0.79036700  0.79060700  0.46228400  1
  O  O14  1  0.20963300  0.20939300  0.96228400  1
  O  O15  1  0.70963300  0.29060700  0.03771600  1
  O  O16  1  0.07181800  0.48376400  0.25000000  1
  O  O17  1  0.57181800  0.01623600  0.75000000  1
  O  O18  1  0.42818200  0.98376400  0.25000000  1
  O  O19  1  0.92818200  0.51623600  0.75000000  1
