# generated using pymatgen
data_K2CuF4
_symmetry_space_group_name_H-M   'P 1'
_cell_length_a   13.56057746
_cell_length_b   13.56057746
_cell_length_c   13.56057746
_cell_angle_alpha   154.71797066
_cell_angle_beta   154.71797066
_cell_angle_gamma   36.05687867
_symmetry_Int_Tables_number   1
_chemical_formula_structural   K2CuF4
_chemical_formula_sum   'K8 Cu4 F16'
_cell_volume   454.24616675
_cell_formula_units_Z   4
loop_
 _symmetry_equiv_pos_site_id
 _symmetry_equiv_pos_as_xyz
  1  'x, y, z'
loop_
 _atom_site_type_symbol
 _atom_site_label
 _atom_site_symmetry_multiplicity
 _atom_site_fract_x
 _atom_site_fract_y
 _atom_site_fract_z
 _atom_site_occupancy
  K  K0  1  0.42895800  0.42895800  0.00000000  1
  K  K1  1  0.57104200  0.57104200  0.00000000  1
  K  K2  1  0.07104200  0.07104200  0.00000000  1
  K  K3  1  0.92895800  0.92895800  0.00000000  1
  K  K4  1  0.32104200  0.82104200  0.50000000  1
  K  K5  1  0.17895800  0.67895800  0.50000000  1
  K  K6  1  0.67895800  0.17895800  0.50000000  1
  K  K7  1  0.82104200  0.32104200  0.50000000  1
  Cu  Cu8  1  0.25000000  0.25000000  0.00000000  1
  Cu  Cu9  1  0.75000000  0.75000000  0.00000000  1
  Cu  Cu10  1  0.50000000  0.00000000  0.50000000  1
  Cu  Cu11  1  0.00000000  0.50000000  0.50000000  1
  F  F12  1  0.51811500  0.98188500  0.00000000  1
  F  F13  1  0.01811500  0.01811500  0.53623100  1
  F  F14  1  0.48188500  0.48188500  0.46376900  1
  F  F15  1  0.98188500  0.51811500  0.00000000  1
  F  F16  1  0.76811500  0.73188500  0.50000000  1
  F  F17  1  0.26811500  0.76811500  0.03623100  1
  F  F18  1  0.73188500  0.23188500  0.96376900  1
  F  F19  1  0.23188500  0.26811500  0.50000000  1
  F  F20  1  0.32677000  0.32677000  0.00000000  1
  F  F21  1  0.67323000  0.67323000  0.00000000  1
  F  F22  1  0.17323000  0.17323000  0.00000000  1
  F  F23  1  0.82677000  0.82677000  0.00000000  1
  F  F24  1  0.92323000  0.42323000  0.50000000  1
  F  F25  1  0.57677000  0.07677000  0.50000000  1
  F  F26  1  0.07677000  0.57677000  0.50000000  1
  F  F27  1  0.42323000  0.92323000  0.50000000  1
