# generated using pymatgen
data_AgBi3S5
_symmetry_space_group_name_H-M   'P 1'
_cell_length_a   7.12510483
_cell_length_b   7.12510483
_cell_length_c   16.69662864
_cell_angle_alpha   84.71927581
_cell_angle_beta   84.71927581
_cell_angle_gamma   33.11273282
_symmetry_Int_Tables_number   1
_chemical_formula_structural   AgBi3S5
_chemical_formula_sum   'Ag2 Bi6 S10'
_cell_volume   460.91607527
_cell_formula_units_Z   2
loop_
 _symmetry_equiv_pos_site_id
 _symmetry_equiv_pos_as_xyz
  1  'x, y, z'
loop_
 _atom_site_type_symbol
 _atom_site_label
 _atom_site_symmetry_multiplicity
 _atom_site_fract_x
 _atom_site_fract_y
 _atom_site_fract_z
 _atom_site_occupancy
  Ag  Ag0  1  0.50000000  0.50000000  0.50000000  1
  Ag  Ag1  1  0.00000000  0.00000000  0.00000000  1
  Bi  Bi2  1  0.21977300  0.21977300  0.60605300  1
  Bi  Bi3  1  0.78022700  0.78022700  0.39394700  1
  Bi  Bi4  1  0.47445300  0.47445300  0.78297900  1
  Bi  Bi5  1  0.52554700  0.52554700  0.21702100  1
  Bi  Bi6  1  0.73652400  0.73652400  0.89117200  1
  Bi  Bi7  1  0.26347600  0.26347600  0.10882800  1
  S  S8  1  0.84878300  0.84878300  0.53458300  1
  S  S9  1  0.15121700  0.15121700  0.46541700  1
  S  S10  1  0.57586600  0.57586600  0.63583400  1
  S  S11  1  0.42413400  0.42413400  0.36416600  1
  S  S12  1  0.84621700  0.84621700  0.74423100  1
  S  S13  1  0.15378300  0.15378300  0.25576900  1
  S  S14  1  0.08919000  0.08919000  0.85940700  1
  S  S15  1  0.91081000  0.91081000  0.14059300  1
  S  S16  1  0.64637100  0.64637100  0.05753200  1
  S  S17  1  0.35362900  0.35362900  0.94246800  1
