# generated using pymatgen
data_NaBiF6
_symmetry_space_group_name_H-M   'P 1'
_cell_length_a   6.10212224
_cell_length_b   6.10212224
_cell_length_c   6.10212232
_cell_angle_alpha   53.63630056
_cell_angle_beta   53.63630056
_cell_angle_gamma   53.63629770
_symmetry_Int_Tables_number   1
_chemical_formula_structural   NaBiF6
_chemical_formula_sum   'Na1 Bi1 F6'
_cell_volume   136.75441734
_cell_formula_units_Z   1
loop_
 _symmetry_equiv_pos_site_id
 _symmetry_equiv_pos_as_xyz
  1  'x, y, z'
loop_
 _atom_site_type_symbol
 _atom_site_label
 _atom_site_symmetry_multiplicity
 _atom_site_fract_x
 _atom_site_fract_y
 _atom_site_fract_z
 _atom_site_occupancy
  Na  Na0  1  0.50000000  0.50000000  0.50000000  1
  Bi  Bi1  1  0.00000000  0.00000000  0.00000000  1
  F  F2  1  0.37075200  0.76667400  0.09174200  1
  F  F3  1  0.76667400  0.09174200  0.37075200  1
  F  F4  1  0.90825800  0.62924800  0.23332600  1
  F  F5  1  0.23332600  0.90825800  0.62924800  1
  F  F6  1  0.62924800  0.23332600  0.90825800  1
  F  F7  1  0.09174200  0.37075200  0.76667400  1
