# generated using pymatgen
data_PBr5
_symmetry_space_group_name_H-M   'P 1'
_cell_length_a   5.97971800
_cell_length_b   8.79649200
_cell_length_c   17.40530300
_cell_angle_alpha   90.00000000
_cell_angle_beta   90.00000000
_cell_angle_gamma   90.00000000
_symmetry_Int_Tables_number   1
_chemical_formula_structural   PBr5
_chemical_formula_sum   'P4 Br20'
_cell_volume   915.52836363
_cell_formula_units_Z   4
loop_
 _symmetry_equiv_pos_site_id
 _symmetry_equiv_pos_as_xyz
  1  'x, y, z'
loop_
 _atom_site_type_symbol
 _atom_site_label
 _atom_site_symmetry_multiplicity
 _atom_site_fract_x
 _atom_site_fract_y
 _atom_site_fract_z
 _atom_site_occupancy
  P  P0  1  0.03787400  0.75000000  0.63638200  1
  P  P1  1  0.03787400  0.25000000  0.86361800  1
  P  P2  1  0.96212600  0.25000000  0.36361800  1
  P  P3  1  0.96212600  0.75000000  0.13638200  1
  Br  Br4  1  0.17003600  0.75000000  0.24174300  1
  Br  Br5  1  0.17003600  0.25000000  0.25825700  1
  Br  Br6  1  0.82996400  0.25000000  0.75825700  1
  Br  Br7  1  0.82996400  0.75000000  0.74174300  1
  Br  Br8  1  0.75386600  0.95885600  0.13171900  1
  Br  Br9  1  0.75386600  0.04114400  0.36828100  1
  Br  Br10  1  0.24613400  0.45885600  0.86828100  1
  Br  Br11  1  0.24613400  0.54114400  0.63171900  1
  Br  Br12  1  0.24613400  0.04114400  0.86828100  1
  Br  Br13  1  0.24613400  0.95885600  0.63171900  1
  Br  Br14  1  0.75386600  0.54114400  0.13171900  1
  Br  Br15  1  0.75386600  0.45885600  0.36828100  1
  Br  Br16  1  0.48364300  0.75000000  0.38675100  1
  Br  Br17  1  0.48364300  0.25000000  0.11324900  1
  Br  Br18  1  0.51635700  0.25000000  0.61324900  1
  Br  Br19  1  0.51635700  0.75000000  0.88675100  1
  Br  Br20  1  0.81203400  0.75000000  0.53640900  1
  Br  Br21  1  0.81203400  0.25000000  0.96359100  1
  Br  Br22  1  0.18796600  0.25000000  0.46359100  1
  Br  Br23  1  0.18796600  0.75000000  0.03640900  1
