# generated using pymatgen
data_Be(PO3)2
_symmetry_space_group_name_H-M   'P 1'
_cell_length_a   13.08094400
_cell_length_b   4.96265600
_cell_length_c   7.31194997
_cell_angle_alpha   67.27221100
_cell_angle_beta   90.00000000
_cell_angle_gamma   90.00000000
_symmetry_Int_Tables_number   1
_chemical_formula_structural   Be(PO3)2
_chemical_formula_sum   'Be4 P8 O24'
_cell_volume   437.80690260
_cell_formula_units_Z   4
loop_
 _symmetry_equiv_pos_site_id
 _symmetry_equiv_pos_as_xyz
  1  'x, y, z'
loop_
 _atom_site_type_symbol
 _atom_site_label
 _atom_site_symmetry_multiplicity
 _atom_site_fract_x
 _atom_site_fract_y
 _atom_site_fract_z
 _atom_site_occupancy
  Be  Be0  1  0.93274100  0.64720000  0.23356400  1
  Be  Be1  1  0.43274100  0.35280000  0.26643600  1
  Be  Be2  1  0.06725900  0.35280000  0.76643600  1
  Be  Be3  1  0.56725900  0.64720000  0.73356400  1
  P  P4  1  0.86960900  0.02545200  0.82880300  1
  P  P5  1  0.65084600  0.04658300  0.91534200  1
  P  P6  1  0.15084600  0.95341700  0.58465800  1
  P  P7  1  0.34915400  0.95341700  0.08465800  1
  P  P8  1  0.84915400  0.04658300  0.41534200  1
  P  P9  1  0.63039100  0.02545200  0.32880300  1
  P  P10  1  0.13039100  0.97454800  0.17119700  1
  P  P11  1  0.36960900  0.97454800  0.67119700  1
  O  O12  1  0.23598100  0.82153700  0.14830800  1
  O  O13  1  0.63595000  0.78986500  0.85949500  1
  O  O14  1  0.13595000  0.21013500  0.64050500  1
  O  O15  1  0.36405000  0.21013500  0.14050500  1
  O  O16  1  0.86405000  0.78986500  0.35949500  1
  O  O17  1  0.57656500  0.29392000  0.83676700  1
  O  O18  1  0.07656500  0.70608000  0.66323300  1
  O  O19  1  0.42343500  0.70608000  0.16323300  1
  O  O20  1  0.73598100  0.17846300  0.35169200  1
  O  O21  1  0.15498100  0.08075100  0.34740900  1
  O  O22  1  0.26401900  0.82153700  0.64830800  1
  O  O23  1  0.76401900  0.17846300  0.85169200  1
  O  O24  1  0.84501900  0.91924900  0.65259100  1
  O  O25  1  0.34501900  0.08075100  0.84740900  1
  O  O26  1  0.61252400  0.75268400  0.50863900  1
  O  O27  1  0.65498100  0.91924900  0.15259100  1
  O  O28  1  0.94778200  0.26284300  0.76846800  1
  O  O29  1  0.11252400  0.24731600  0.99136100  1
  O  O30  1  0.38747600  0.24731600  0.49136100  1
  O  O31  1  0.88747600  0.75268400  0.00863900  1
  O  O32  1  0.55221800  0.26284300  0.26846800  1
  O  O33  1  0.05221800  0.73715700  0.23153200  1
  O  O34  1  0.44778200  0.73715700  0.73153200  1
  O  O35  1  0.92343500  0.29392000  0.33676700  1
