# generated using pymatgen
data_Ba(InSe2)2
_symmetry_space_group_name_H-M   'P 1'
_cell_length_a   16.37160637
_cell_length_b   13.55625733
_cell_length_c   13.40166120
_cell_angle_alpha   74.78692981
_cell_angle_beta   53.03638727
_cell_angle_gamma   52.17668293
_symmetry_Int_Tables_number   1
_chemical_formula_structural   Ba(InSe2)2
_chemical_formula_sum   'Ba8 In16 Se32'
_cell_volume   1850.41406339
_cell_formula_units_Z   8
loop_
 _symmetry_equiv_pos_site_id
 _symmetry_equiv_pos_as_xyz
  1  'x, y, z'
loop_
 _atom_site_type_symbol
 _atom_site_label
 _atom_site_symmetry_multiplicity
 _atom_site_fract_x
 _atom_site_fract_y
 _atom_site_fract_z
 _atom_site_occupancy
  Ba  Ba0  1  0.49775100  0.49775100  0.00224900  1
  Ba  Ba1  1  0.00224900  0.00224900  0.49775100  1
  Ba  Ba2  1  0.75224900  0.75224900  0.24775100  1
  Ba  Ba3  1  0.24775100  0.24775100  0.75224900  1
  Ba  Ba4  1  0.25000000  0.25000000  0.25000000  1
  Ba  Ba5  1  0.00000000  0.00000000  0.00000000  1
  Ba  Ba6  1  0.75000000  0.75000000  0.75000000  1
  Ba  Ba7  1  0.50000000  0.50000000  0.50000000  1
  In  In8  1  0.59272900  0.15700900  0.26612800  1
  In  In9  1  0.98413500  0.26612800  0.15700900  1
  In  In10  1  0.26612800  0.98413500  0.59272900  1
  In  In11  1  0.15700900  0.59272900  0.98413500  1
  In  In12  1  0.65727100  0.09299100  0.98387200  1
  In  In13  1  0.26586500  0.98387200  0.09299100  1
  In  In14  1  0.98387200  0.26586500  0.65727100  1
  In  In15  1  0.09299100  0.65727100  0.26586500  1
  In  In16  1  0.23697800  0.51164000  0.48908800  1
  In  In17  1  0.76229400  0.48908800  0.51164000  1
  In  In18  1  0.48908800  0.76229400  0.23697800  1
  In  In19  1  0.51164000  0.23697800  0.76229400  1
  In  In20  1  0.01302200  0.73836000  0.76091200  1
  In  In21  1  0.48770600  0.76091200  0.73836000  1
  In  In22  1  0.76091200  0.48770600  0.01302200  1
  In  In23  1  0.73836000  0.01302200  0.48770600  1
  Se  Se24  1  0.30719900  0.44003800  0.77442200  1
  Se  Se25  1  0.47834200  0.77442200  0.44003800  1
  Se  Se26  1  0.77442200  0.47834200  0.30719900  1
  Se  Se27  1  0.44003800  0.30719900  0.47834200  1
  Se  Se28  1  0.94280100  0.80996200  0.47557800  1
  Se  Se29  1  0.77165800  0.47557800  0.80996200  1
  Se  Se30  1  0.47557800  0.77165800  0.94280100  1
  Se  Se31  1  0.80996200  0.94280100  0.77165800  1
  Se  Se32  1  0.96540300  0.78661400  0.97158600  1
  Se  Se33  1  0.27639700  0.97158600  0.78661400  1
  Se  Se34  1  0.97158600  0.27639700  0.96540300  1
  Se  Se35  1  0.78661400  0.96540300  0.27639700  1
  Se  Se36  1  0.28459700  0.46338600  0.27841400  1
  Se  Se37  1  0.97360300  0.27841400  0.46338600  1
  Se  Se38  1  0.27841400  0.97360300  0.28459700  1
  Se  Se39  1  0.46338600  0.28459700  0.97360300  1
  Se  Se40  1  0.21192700  0.20984200  0.03828900  1
  Se  Se41  1  0.53994200  0.03828900  0.20984200  1
  Se  Se42  1  0.03828900  0.53994200  0.21192700  1
  Se  Se43  1  0.20984200  0.21192700  0.53994200  1
  Se  Se44  1  0.03807300  0.04015800  0.21171100  1
  Se  Se45  1  0.71005800  0.21171100  0.04015800  1
  Se  Se46  1  0.21171100  0.71005800  0.03807300  1
  Se  Se47  1  0.04015800  0.03807300  0.71005800  1
  Se  Se48  1  0.54114500  0.53782800  0.70923000  1
  Se  Se49  1  0.21179700  0.70923000  0.53782800  1
  Se  Se50  1  0.70923000  0.21179700  0.54114500  1
  Se  Se51  1  0.53782800  0.54114500  0.21179700  1
  Se  Se52  1  0.70885500  0.71217200  0.54077000  1
  Se  Se53  1  0.03820300  0.54077000  0.71217200  1
  Se  Se54  1  0.54077000  0.03820300  0.70885500  1
  Se  Se55  1  0.71217200  0.70885500  0.03820300  1
