# generated using pymatgen
data_Na2Mn2S3
_symmetry_space_group_name_H-M   'P 1'
_cell_length_a   10.04786830
_cell_length_b   10.04786830
_cell_length_c   6.94902326
_cell_angle_alpha   70.20915640
_cell_angle_beta   70.20915640
_cell_angle_gamma   83.46445957
_symmetry_Int_Tables_number   1
_chemical_formula_structural   Na2Mn2S3
_chemical_formula_sum   'Na8 Mn8 S12'
_cell_volume   621.14156510
_cell_formula_units_Z   4
loop_
 _symmetry_equiv_pos_site_id
 _symmetry_equiv_pos_as_xyz
  1  'x, y, z'
loop_
 _atom_site_type_symbol
 _atom_site_label
 _atom_site_symmetry_multiplicity
 _atom_site_fract_x
 _atom_site_fract_y
 _atom_site_fract_z
 _atom_site_occupancy
  Na  Na0  1  0.98796200  0.81479900  0.12504400  1
  Na  Na1  1  0.18520100  0.01203800  0.37495600  1
  Na  Na2  1  0.01203800  0.18520100  0.87495600  1
  Na  Na3  1  0.81479900  0.98796200  0.62504400  1
  Na  Na4  1  0.28168200  0.71831800  0.25000000  1
  Na  Na5  1  0.71831800  0.28168200  0.75000000  1
  Na  Na6  1  0.57132000  0.42868000  0.25000000  1
  Na  Na7  1  0.42868000  0.57132000  0.75000000  1
  Mn  Mn8  1  0.08289500  0.55444000  0.75492900  1
  Mn  Mn9  1  0.91710500  0.44556000  0.24507100  1
  Mn  Mn10  1  0.55444000  0.08289500  0.25492900  1
  Mn  Mn11  1  0.36366500  0.21564200  0.79839800  1
  Mn  Mn12  1  0.78435800  0.63633500  0.70160200  1
  Mn  Mn13  1  0.63633500  0.78435800  0.20160200  1
  Mn  Mn14  1  0.21564200  0.36366500  0.29839800  1
  Mn  Mn15  1  0.44556000  0.91710500  0.74507100  1
  S  S16  1  0.22981200  0.00022500  0.95197500  1
  S  S17  1  0.00022500  0.22981200  0.45197500  1
  S  S18  1  0.77018800  0.99977500  0.04802500  1
  S  S19  1  0.57898200  0.14397400  0.55482500  1
  S  S20  1  0.85602600  0.42101800  0.94517500  1
  S  S21  1  0.42101800  0.85602600  0.44517500  1
  S  S22  1  0.99977500  0.77018800  0.54802500  1
  S  S23  1  0.14397400  0.57898200  0.05482500  1
  S  S24  1  0.42945900  0.27911900  0.06652800  1
  S  S25  1  0.72088100  0.57054100  0.43347200  1
  S  S26  1  0.57054100  0.72088100  0.93347200  1
  S  S27  1  0.27911900  0.42945900  0.56652800  1
