# generated using pymatgen
data_Sb2MoSe
_symmetry_space_group_name_H-M   'P 1'
_cell_length_a   6.57705100
_cell_length_b   6.66960600
_cell_length_c   18.75258009
_cell_angle_alpha   85.70729708
_cell_angle_beta   90.00000000
_cell_angle_gamma   90.00000000
_symmetry_Int_Tables_number   1
_chemical_formula_structural   Sb2MoSe
_chemical_formula_sum   'Sb16 Mo8 Se8'
_cell_volume   820.29935139
_cell_formula_units_Z   8
loop_
 _symmetry_equiv_pos_site_id
 _symmetry_equiv_pos_as_xyz
  1  'x, y, z'
loop_
 _atom_site_type_symbol
 _atom_site_label
 _atom_site_symmetry_multiplicity
 _atom_site_fract_x
 _atom_site_fract_y
 _atom_site_fract_z
 _atom_site_occupancy
  Sb  Sb0  1  0.40191400  0.19946900  0.27407400  1
  Sb  Sb1  1  0.90191400  0.80053100  0.22592600  1
  Sb  Sb2  1  0.59808600  0.80053100  0.72592600  1
  Sb  Sb3  1  0.09808600  0.19946900  0.77407400  1
  Sb  Sb4  1  0.84890500  0.20037300  0.27367500  1
  Sb  Sb5  1  0.34890500  0.79962700  0.22632500  1
  Sb  Sb6  1  0.15109500  0.79962700  0.72632500  1
  Sb  Sb7  1  0.65109500  0.20037300  0.77367500  1
  Sb  Sb8  1  0.37542200  0.07427300  0.42618800  1
  Sb  Sb9  1  0.87542200  0.92572700  0.07381200  1
  Sb  Sb10  1  0.62457800  0.92572700  0.57381200  1
  Sb  Sb11  1  0.12457800  0.07427300  0.92618800  1
  Sb  Sb12  1  0.87456000  0.07437600  0.42589300  1
  Sb  Sb13  1  0.37456000  0.92562400  0.07410700  1
  Sb  Sb14  1  0.12544000  0.92562400  0.57410700  1
  Sb  Sb15  1  0.62544000  0.07437600  0.92589300  1
  Mo  Mo16  1  0.87563200  0.67420600  0.49484200  1
  Mo  Mo17  1  0.37563200  0.32579400  0.00515800  1
  Mo  Mo18  1  0.12436800  0.32579400  0.50515800  1
  Mo  Mo19  1  0.62436800  0.67420600  0.99484200  1
  Mo  Mo20  1  0.62511200  0.32563700  0.50532000  1
  Mo  Mo21  1  0.12511200  0.67436300  0.99468000  1
  Mo  Mo22  1  0.37488800  0.67436300  0.49468000  1
  Mo  Mo23  1  0.87488800  0.32563700  0.00532000  1
  Se  Se24  1  0.87477900  0.41246900  0.59949600  1
  Se  Se25  1  0.37477900  0.58753100  0.90050400  1
  Se  Se26  1  0.12522100  0.58753100  0.40050400  1
  Se  Se27  1  0.62522100  0.41246900  0.09949600  1
  Se  Se28  1  0.62554900  0.58787400  0.40067300  1
  Se  Se29  1  0.12554900  0.41212600  0.09932700  1
  Se  Se30  1  0.37445100  0.41212600  0.59932700  1
  Se  Se31  1  0.87445100  0.58787400  0.90067300  1
