# generated using pymatgen
data_SrIn2
_symmetry_space_group_name_H-M   'P 1'
_cell_length_a   5.09665191
_cell_length_b   5.09665191
_cell_length_c   8.12729800
_cell_angle_alpha   90.00000000
_cell_angle_beta   90.00000000
_cell_angle_gamma   119.99999881
_symmetry_Int_Tables_number   1
_chemical_formula_structural   SrIn2
_chemical_formula_sum   'Sr2 In4'
_cell_volume   182.82970866
_cell_formula_units_Z   2
loop_
 _symmetry_equiv_pos_site_id
 _symmetry_equiv_pos_as_xyz
  1  'x, y, z'
loop_
 _atom_site_type_symbol
 _atom_site_label
 _atom_site_symmetry_multiplicity
 _atom_site_fract_x
 _atom_site_fract_y
 _atom_site_fract_z
 _atom_site_occupancy
  Sr  Sr0  1  0.00000000  0.00000000  0.75000000  1
  Sr  Sr1  1  0.00000000  0.00000000  0.25000000  1
  In  In2  1  0.33333300  0.66666700  0.95458400  1
  In  In3  1  0.66666700  0.33333300  0.45458400  1
  In  In4  1  0.33333300  0.66666700  0.54541600  1
  In  In5  1  0.66666700  0.33333300  0.04541600  1
