# generated using pymatgen
data_PuSi
_symmetry_space_group_name_H-M   'P 1'
_cell_length_a   3.88562000
_cell_length_b   5.74846500
_cell_length_c   7.87099600
_cell_angle_alpha   90.00000000
_cell_angle_beta   90.00000000
_cell_angle_gamma   90.00000000
_symmetry_Int_Tables_number   1
_chemical_formula_structural   PuSi
_chemical_formula_sum   'Pu4 Si4'
_cell_volume   175.80932602
_cell_formula_units_Z   4
loop_
 _symmetry_equiv_pos_site_id
 _symmetry_equiv_pos_as_xyz
  1  'x, y, z'
loop_
 _atom_site_type_symbol
 _atom_site_label
 _atom_site_symmetry_multiplicity
 _atom_site_fract_x
 _atom_site_fract_y
 _atom_site_fract_z
 _atom_site_occupancy
  Pu  Pu0  1  0.25000000  0.39380400  0.67604200  1
  Pu  Pu1  1  0.75000000  0.60619600  0.32395800  1
  Pu  Pu2  1  0.75000000  0.89380400  0.82395800  1
  Pu  Pu3  1  0.25000000  0.10619600  0.17604200  1
  Si  Si4  1  0.25000000  0.88163600  0.53245000  1
  Si  Si5  1  0.75000000  0.11836400  0.46755000  1
  Si  Si6  1  0.75000000  0.38163600  0.96755000  1
  Si  Si7  1  0.25000000  0.61836400  0.03245000  1
