# generated using pymatgen
data_Eu(BIr)2
_symmetry_space_group_name_H-M   'P 1'
_cell_length_a   7.13088764
_cell_length_b   6.16293083
_cell_length_c   5.59025973
_cell_angle_alpha   74.52660738
_cell_angle_beta   56.40122306
_cell_angle_gamma   49.07216956
_symmetry_Int_Tables_number   1
_chemical_formula_structural   Eu(BIr)2
_chemical_formula_sum   'Eu2 B4 Ir4'
_cell_volume   152.80727455
_cell_formula_units_Z   2
loop_
 _symmetry_equiv_pos_site_id
 _symmetry_equiv_pos_as_xyz
  1  'x, y, z'
loop_
 _atom_site_type_symbol
 _atom_site_label
 _atom_site_symmetry_multiplicity
 _atom_site_fract_x
 _atom_site_fract_y
 _atom_site_fract_z
 _atom_site_occupancy
  Eu  Eu0  1  0.75000000  0.75000000  0.75000000  1
  Eu  Eu1  1  0.50000000  0.50000000  0.50000000  1
  B  B2  1  0.07323000  0.42677000  0.07323000  1
  B  B3  1  0.82323000  0.17677000  0.82323000  1
  B  B4  1  0.42677000  0.07323000  0.42677000  1
  B  B5  1  0.17677000  0.82323000  0.17677000  1
  Ir  Ir6  1  0.38046100  0.38046100  0.11953900  1
  Ir  Ir7  1  0.13046100  0.13046100  0.86953900  1
  Ir  Ir8  1  0.86953900  0.86953900  0.13046100  1
  Ir  Ir9  1  0.11953900  0.11953900  0.38046100  1
