# generated using pymatgen
data_Ni11As8
_symmetry_space_group_name_H-M   'P 1'
_cell_length_a   6.89493800
_cell_length_b   6.89493800
_cell_length_c   21.85026100
_cell_angle_alpha   90.00000000
_cell_angle_beta   90.00000000
_cell_angle_gamma   90.00000000
_symmetry_Int_Tables_number   1
_chemical_formula_structural   Ni11As8
_chemical_formula_sum   'Ni44 As32'
_cell_volume   1038.76512301
_cell_formula_units_Z   4
loop_
 _symmetry_equiv_pos_site_id
 _symmetry_equiv_pos_as_xyz
  1  'x, y, z'
loop_
 _atom_site_type_symbol
 _atom_site_label
 _atom_site_symmetry_multiplicity
 _atom_site_fract_x
 _atom_site_fract_y
 _atom_site_fract_z
 _atom_site_occupancy
  Ni  Ni0  1  0.12251900  0.37386900  0.26813300  1
  Ni  Ni1  1  0.12613100  0.62251900  0.51813300  1
  Ni  Ni2  1  0.87386900  0.37748100  0.01813300  1
  Ni  Ni3  1  0.62251900  0.12613100  0.48186700  1
  Ni  Ni4  1  0.37748100  0.87386900  0.98186700  1
  Ni  Ni5  1  0.87748100  0.62613100  0.76813300  1
  Ni  Ni6  1  0.37386900  0.12251900  0.73186700  1
  Ni  Ni7  1  0.62613100  0.87748100  0.23186700  1
  Ni  Ni8  1  0.37713700  0.37713700  0.00000000  1
  Ni  Ni9  1  0.12286300  0.87713700  0.25000000  1
  Ni  Ni10  1  0.87713700  0.12286300  0.75000000  1
  Ni  Ni11  1  0.62286300  0.62286300  0.50000000  1
  Ni  Ni12  1  0.12699700  0.57133600  0.17178900  1
  Ni  Ni13  1  0.92866400  0.62699700  0.42178900  1
  Ni  Ni14  1  0.07133600  0.37300300  0.92178900  1
  Ni  Ni15  1  0.62699700  0.92866400  0.57821100  1
  Ni  Ni16  1  0.37300300  0.07133600  0.07821100  1
  Ni  Ni17  1  0.87300300  0.42866400  0.67178900  1
  Ni  Ni18  1  0.57133600  0.12699700  0.82821100  1
  Ni  Ni19  1  0.42866400  0.87300300  0.32821100  1
  Ni  Ni20  1  0.62125200  0.56517100  0.17136800  1
  Ni  Ni21  1  0.93482900  0.12125200  0.42136800  1
  Ni  Ni22  1  0.06517100  0.87874800  0.92136800  1
  Ni  Ni23  1  0.12125200  0.93482900  0.57863200  1
  Ni  Ni24  1  0.87874800  0.06517100  0.07863200  1
  Ni  Ni25  1  0.37874800  0.43482900  0.67136800  1
  Ni  Ni26  1  0.56517100  0.62125200  0.82863200  1
  Ni  Ni27  1  0.43482900  0.37874800  0.32863200  1
  Ni  Ni28  1  0.37278300  0.68157400  0.07890300  1
  Ni  Ni29  1  0.81842600  0.87278300  0.32890300  1
  Ni  Ni30  1  0.18157400  0.12721700  0.82890300  1
  Ni  Ni31  1  0.87278300  0.81842600  0.67109700  1
  Ni  Ni32  1  0.12721700  0.18157400  0.17109700  1
  Ni  Ni33  1  0.62721700  0.31842600  0.57890300  1
  Ni  Ni34  1  0.68157400  0.37278300  0.92109700  1
  Ni  Ni35  1  0.31842600  0.62721700  0.42109700  1
  Ni  Ni36  1  0.87766400  0.68975000  0.07889100  1
  Ni  Ni37  1  0.81025000  0.37766400  0.32889100  1
  Ni  Ni38  1  0.18975000  0.62233600  0.82889100  1
  Ni  Ni39  1  0.37766400  0.81025000  0.67110900  1
  Ni  Ni40  1  0.62233600  0.18975000  0.17110900  1
  Ni  Ni41  1  0.12233600  0.31025000  0.57889100  1
  Ni  Ni42  1  0.68975000  0.87766400  0.92110900  1
  Ni  Ni43  1  0.31025000  0.12233600  0.42110900  1
  As  As44  1  0.12152100  0.12152100  0.00000000  1
  As  As45  1  0.37847900  0.62152100  0.25000000  1
  As  As46  1  0.62152100  0.37847900  0.75000000  1
  As  As47  1  0.87847900  0.87847900  0.50000000  1
  As  As48  1  0.63057600  0.63057600  0.00000000  1
  As  As49  1  0.86942400  0.13057600  0.25000000  1
  As  As50  1  0.13057600  0.86942400  0.75000000  1
  As  As51  1  0.36942400  0.36942400  0.50000000  1
  As  As52  1  0.63166800  0.12125600  0.00021900  1
  As  As53  1  0.37874400  0.13166800  0.25021900  1
  As  As54  1  0.62125600  0.86833200  0.75021900  1
  As  As55  1  0.13166800  0.37874400  0.74978100  1
  As  As56  1  0.86833200  0.62125600  0.24978100  1
  As  As57  1  0.36833200  0.87874400  0.50021900  1
  As  As58  1  0.12125600  0.63166800  0.99978100  1
  As  As59  1  0.87874400  0.36833200  0.49978100  1
  As  As60  1  0.87430600  0.37749500  0.12562100  1
  As  As61  1  0.12250500  0.37430600  0.37562100  1
  As  As62  1  0.87749500  0.62569400  0.87562100  1
  As  As63  1  0.37430600  0.12250500  0.62437900  1
  As  As64  1  0.62569400  0.87749500  0.12437900  1
  As  As65  1  0.12569400  0.62250500  0.62562100  1
  As  As66  1  0.37749500  0.87430600  0.87437900  1
  As  As67  1  0.62250500  0.12569400  0.37437900  1
  As  As68  1  0.12515500  0.87636100  0.12869200  1
  As  As69  1  0.62363900  0.62515500  0.37869200  1
  As  As70  1  0.37636100  0.37484500  0.87869200  1
  As  As71  1  0.62515500  0.62363900  0.62130800  1
  As  As72  1  0.37484500  0.37636100  0.12130800  1
  As  As73  1  0.87484500  0.12363900  0.62869200  1
  As  As74  1  0.87636100  0.12515500  0.87130800  1
  As  As75  1  0.12363900  0.87484500  0.37130800  1
