# generated using pymatgen
data_Rb3Au3Cl8
_symmetry_space_group_name_H-M   'P 1'
_cell_length_a   7.27038692
_cell_length_b   7.27038692
_cell_length_c   18.76096225
_cell_angle_alpha   83.39086287
_cell_angle_beta   83.39086287
_cell_angle_gamma   64.04994448
_symmetry_Int_Tables_number   1
_chemical_formula_structural   Rb3Au3Cl8
_chemical_formula_sum   'Rb6 Au6 Cl16'
_cell_volume   883.43690440
_cell_formula_units_Z   2
loop_
 _symmetry_equiv_pos_site_id
 _symmetry_equiv_pos_as_xyz
  1  'x, y, z'
loop_
 _atom_site_type_symbol
 _atom_site_label
 _atom_site_symmetry_multiplicity
 _atom_site_fract_x
 _atom_site_fract_y
 _atom_site_fract_z
 _atom_site_occupancy
  Rb  Rb0  1  0.98423300  0.01576700  0.75000000  1
  Rb  Rb1  1  0.01576700  0.98423300  0.25000000  1
  Rb  Rb2  1  0.31305100  0.32204600  0.58378000  1
  Rb  Rb3  1  0.67795400  0.68694900  0.91622000  1
  Rb  Rb4  1  0.68694900  0.67795400  0.41622000  1
  Rb  Rb5  1  0.32204600  0.31305100  0.08378000  1
  Au  Au6  1  0.00000000  0.00000000  0.00000000  1
  Au  Au7  1  0.00000000  0.00000000  0.50000000  1
  Au  Au8  1  0.38226700  0.38846400  0.80883100  1
  Au  Au9  1  0.61153600  0.61773300  0.69116900  1
  Au  Au10  1  0.61773300  0.61153600  0.19116900  1
  Au  Au11  1  0.38846400  0.38226700  0.30883100  1
  Cl  Cl12  1  0.09770300  0.49768400  0.24657500  1
  Cl  Cl13  1  0.50231600  0.90229700  0.25342500  1
  Cl  Cl14  1  0.90229700  0.50231600  0.75342500  1
  Cl  Cl15  1  0.49768400  0.09770300  0.74657500  1
  Cl  Cl16  1  0.67166800  0.24588600  0.37592200  1
  Cl  Cl17  1  0.75411400  0.32833200  0.12407800  1
  Cl  Cl18  1  0.32833200  0.75411400  0.62407800  1
  Cl  Cl19  1  0.24588600  0.67166800  0.87592200  1
  Cl  Cl20  1  0.84110800  0.28457900  0.57074800  1
  Cl  Cl21  1  0.71542100  0.15889200  0.92925200  1
  Cl  Cl22  1  0.15889200  0.71542100  0.42925200  1
  Cl  Cl23  1  0.28457900  0.84110800  0.07074800  1
  Cl  Cl24  1  0.14837100  0.20542800  0.93623400  1
  Cl  Cl25  1  0.79457200  0.85162900  0.56376600  1
  Cl  Cl26  1  0.85162900  0.79457200  0.06376600  1
  Cl  Cl27  1  0.20542800  0.14837100  0.43623400  1
