# generated using pymatgen
data_YSiNi
_symmetry_space_group_name_H-M   'P 1'
_cell_length_a   4.15526700
_cell_length_b   6.89020200
_cell_length_c   7.18016900
_cell_angle_alpha   90.00000000
_cell_angle_beta   90.00000000
_cell_angle_gamma   90.00000000
_symmetry_Int_Tables_number   1
_chemical_formula_structural   YSiNi
_chemical_formula_sum   'Y4 Si4 Ni4'
_cell_volume   205.57275475
_cell_formula_units_Z   4
loop_
 _symmetry_equiv_pos_site_id
 _symmetry_equiv_pos_as_xyz
  1  'x, y, z'
loop_
 _atom_site_type_symbol
 _atom_site_label
 _atom_site_symmetry_multiplicity
 _atom_site_fract_x
 _atom_site_fract_y
 _atom_site_fract_z
 _atom_site_occupancy
  Y  Y0  1  0.25000000  0.49172700  0.20148100  1
  Y  Y1  1  0.75000000  0.50827300  0.79851900  1
  Y  Y2  1  0.25000000  0.99172700  0.29851900  1
  Y  Y3  1  0.75000000  0.00827300  0.70148100  1
  Si  Si4  1  0.25000000  0.80799300  0.91145700  1
  Si  Si5  1  0.75000000  0.19200700  0.08854300  1
  Si  Si6  1  0.25000000  0.30799300  0.58854300  1
  Si  Si7  1  0.75000000  0.69200700  0.41145700  1
  Ni  Ni8  1  0.75000000  0.81424200  0.08139100  1
  Ni  Ni9  1  0.25000000  0.18575800  0.91860900  1
  Ni  Ni10  1  0.75000000  0.31424200  0.41860900  1
  Ni  Ni11  1  0.25000000  0.68575800  0.58139100  1
