# generated using pymatgen
data_NaN3
_symmetry_space_group_name_H-M   'P 1'
_cell_length_a   5.54412777
_cell_length_b   5.54412777
_cell_length_c   5.54412807
_cell_angle_alpha   38.75785197
_cell_angle_beta   38.75785197
_cell_angle_gamma   38.75784712
_symmetry_Int_Tables_number   1
_chemical_formula_structural   NaN3
_chemical_formula_sum   'Na1 N3'
_cell_volume   60.03512197
_cell_formula_units_Z   1
loop_
 _symmetry_equiv_pos_site_id
 _symmetry_equiv_pos_as_xyz
  1  'x, y, z'
loop_
 _atom_site_type_symbol
 _atom_site_label
 _atom_site_symmetry_multiplicity
 _atom_site_fract_x
 _atom_site_fract_y
 _atom_site_fract_z
 _atom_site_occupancy
  Na  Na0  1  0.00000000  0.00000000  0.00000000  1
  N  N1  1  0.57715900  0.57715900  0.57715900  1
  N  N2  1  0.50000000  0.50000000  0.50000000  1
  N  N3  1  0.42284100  0.42284100  0.42284100  1
