# generated using pymatgen
data_Sm(Ni2P)2
_symmetry_space_group_name_H-M   'P 1'
_cell_length_a   3.73011400
_cell_length_b   10.70036500
_cell_length_c   14.10624600
_cell_angle_alpha   90.00000000
_cell_angle_beta   90.00000000
_cell_angle_gamma   90.00000000
_symmetry_Int_Tables_number   1
_chemical_formula_structural   Sm(Ni2P)2
_chemical_formula_sum   'Sm6 Ni24 P12'
_cell_volume   563.03079644
_cell_formula_units_Z   6
loop_
 _symmetry_equiv_pos_site_id
 _symmetry_equiv_pos_as_xyz
  1  'x, y, z'
loop_
 _atom_site_type_symbol
 _atom_site_label
 _atom_site_symmetry_multiplicity
 _atom_site_fract_x
 _atom_site_fract_y
 _atom_site_fract_z
 _atom_site_occupancy
  Sm  Sm0  1  0.00000000  0.87931400  0.27697600  1
  Sm  Sm1  1  0.00000000  0.12068600  0.72302400  1
  Sm  Sm2  1  0.00000000  0.00000000  0.00000000  1
  Sm  Sm3  1  0.50000000  0.62068600  0.77697600  1
  Sm  Sm4  1  0.50000000  0.37931400  0.22302400  1
  Sm  Sm5  1  0.50000000  0.50000000  0.50000000  1
  Ni  Ni6  1  0.50000000  0.24760500  0.41304000  1
  Ni  Ni7  1  0.00000000  0.59763200  0.94073300  1
  Ni  Ni8  1  0.00000000  0.92701800  0.56376700  1
  Ni  Ni9  1  0.50000000  0.32032500  0.78438900  1
  Ni  Ni10  1  0.50000000  0.06942900  0.17794200  1
  Ni  Ni11  1  0.00000000  0.07298200  0.43623300  1
  Ni  Ni12  1  0.50000000  0.93057100  0.82205800  1
  Ni  Ni13  1  0.00000000  0.40236800  0.05926700  1
  Ni  Ni14  1  0.00000000  0.43057100  0.67794200  1
  Ni  Ni15  1  0.50000000  0.77487400  0.96253700  1
  Ni  Ni16  1  0.00000000  0.82032500  0.71561100  1
  Ni  Ni17  1  0.50000000  0.75239500  0.58696000  1
  Ni  Ni18  1  0.00000000  0.27487400  0.53746300  1
  Ni  Ni19  1  0.50000000  0.57298200  0.06376700  1
  Ni  Ni20  1  0.00000000  0.56942900  0.32205800  1
  Ni  Ni21  1  0.00000000  0.25239500  0.91304000  1
  Ni  Ni22  1  0.50000000  0.09763200  0.55926700  1
  Ni  Ni23  1  0.00000000  0.17967500  0.28438900  1
  Ni  Ni24  1  0.50000000  0.67967500  0.21561100  1
  Ni  Ni25  1  0.50000000  0.42701800  0.93623300  1
  Ni  Ni26  1  0.00000000  0.74760500  0.08696000  1
  Ni  Ni27  1  0.50000000  0.22512600  0.03746300  1
  Ni  Ni28  1  0.00000000  0.72512600  0.46253700  1
  Ni  Ni29  1  0.50000000  0.90236800  0.44073300  1
  P  P30  1  0.00000000  0.20689100  0.12838500  1
  P  P31  1  0.00000000  0.63891300  0.61779600  1
  P  P32  1  0.00000000  0.36108700  0.38220400  1
  P  P33  1  0.50000000  0.13891300  0.88220400  1
  P  P34  1  0.00000000  0.43302100  0.84121800  1
  P  P35  1  0.50000000  0.29310900  0.62838500  1
  P  P36  1  0.50000000  0.86108700  0.11779600  1
  P  P37  1  0.00000000  0.79310900  0.87161500  1
  P  P38  1  0.50000000  0.70689100  0.37161500  1
  P  P39  1  0.50000000  0.06697900  0.34121800  1
  P  P40  1  0.00000000  0.56697900  0.15878200  1
  P  P41  1  0.50000000  0.93302100  0.65878200  1
