# generated using pymatgen
data_Cr2AgTe4
_symmetry_space_group_name_H-M   'P 1'
_cell_length_a   8.14585739
_cell_length_b   8.14585739
_cell_length_c   8.14585739
_cell_angle_alpha   60.00000000
_cell_angle_beta   60.00000000
_cell_angle_gamma   60.00000000
_symmetry_Int_Tables_number   1
_chemical_formula_structural   Cr2AgTe4
_chemical_formula_sum   'Cr4 Ag2 Te8'
_cell_volume   382.20416041
_cell_formula_units_Z   2
loop_
 _symmetry_equiv_pos_site_id
 _symmetry_equiv_pos_as_xyz
  1  'x, y, z'
loop_
 _atom_site_type_symbol
 _atom_site_label
 _atom_site_symmetry_multiplicity
 _atom_site_fract_x
 _atom_site_fract_y
 _atom_site_fract_z
 _atom_site_occupancy
  Cr  Cr0  1  0.12500000  0.12500000  0.12500000  1
  Cr  Cr1  1  0.62500000  0.12500000  0.12500000  1
  Cr  Cr2  1  0.12500000  0.12500000  0.62500000  1
  Cr  Cr3  1  0.12500000  0.62500000  0.12500000  1
  Ag  Ag4  1  0.75000000  0.75000000  0.75000000  1
  Ag  Ag5  1  0.50000000  0.50000000  0.50000000  1
  Te  Te6  1  0.33603700  0.88798800  0.88798800  1
  Te  Te7  1  0.36201200  0.36201200  0.36201200  1
  Te  Te8  1  0.88798800  0.88798800  0.33603700  1
  Te  Te9  1  0.88798800  0.33603700  0.88798800  1
  Te  Te10  1  0.36201200  0.36201200  0.91396300  1
  Te  Te11  1  0.36201200  0.91396300  0.36201200  1
  Te  Te12  1  0.91396300  0.36201200  0.36201200  1
  Te  Te13  1  0.88798800  0.88798800  0.88798800  1
