# generated using pymatgen
data_CeSiI
_symmetry_space_group_name_H-M   'P 1'
_cell_length_a   4.15374415
_cell_length_b   4.15374415
_cell_length_c   12.09161900
_cell_angle_alpha   90.00000000
_cell_angle_beta   90.00000000
_cell_angle_gamma   120.00000242
_symmetry_Int_Tables_number   1
_chemical_formula_structural   CeSiI
_chemical_formula_sum   'Ce2 Si2 I2'
_cell_volume   180.67354299
_cell_formula_units_Z   2
loop_
 _symmetry_equiv_pos_site_id
 _symmetry_equiv_pos_as_xyz
  1  'x, y, z'
loop_
 _atom_site_type_symbol
 _atom_site_label
 _atom_site_symmetry_multiplicity
 _atom_site_fract_x
 _atom_site_fract_y
 _atom_site_fract_z
 _atom_site_occupancy
  Ce  Ce0  1  0.00000000  0.00000000  0.84053900  1
  Ce  Ce1  1  0.00000000  0.00000000  0.15946100  1
  Si  Si2  1  0.33333300  0.66666700  0.99613000  1
  Si  Si3  1  0.66666700  0.33333300  0.00387000  1
  I  I4  1  0.33333300  0.66666700  0.33887500  1
  I  I5  1  0.66666700  0.33333300  0.66112500  1
