# generated using pymatgen
data_Li3FeN2
_symmetry_space_group_name_H-M   'P 1'
_cell_length_a   5.81705713
_cell_length_b   5.81705713
_cell_length_c   5.81705713
_cell_angle_alpha   132.72071052
_cell_angle_beta   131.24546631
_cell_angle_gamma   70.26248678
_symmetry_Int_Tables_number   1
_chemical_formula_structural   Li3FeN2
_chemical_formula_sum   'Li6 Fe2 N4'
_cell_volume   106.57171887
_cell_formula_units_Z   2
loop_
 _symmetry_equiv_pos_site_id
 _symmetry_equiv_pos_as_xyz
  1  'x, y, z'
loop_
 _atom_site_type_symbol
 _atom_site_label
 _atom_site_symmetry_multiplicity
 _atom_site_fract_x
 _atom_site_fract_y
 _atom_site_fract_z
 _atom_site_occupancy
  Li  Li0  1  0.50000000  0.25000000  0.75000000  1
  Li  Li1  1  0.50000000  0.75000000  0.25000000  1
  Li  Li2  1  0.74255100  0.99255100  0.25000000  1
  Li  Li3  1  0.25744900  0.50744900  0.25000000  1
  Li  Li4  1  0.74255100  0.49255100  0.75000000  1
  Li  Li5  1  0.25744900  0.00744900  0.75000000  1
  Fe  Fe6  1  0.00000000  0.25000000  0.25000000  1
  Fe  Fe7  1  0.00000000  0.75000000  0.75000000  1
  N  N8  1  0.66626400  0.88624300  0.78002100  1
  N  N9  1  0.89377900  0.61375700  0.28002200  1
  N  N10  1  0.33373600  0.11375700  0.21997800  1
  N  N11  1  0.10622100  0.38624300  0.71997800  1
