# generated using pymatgen
data_YbNiSn
_symmetry_space_group_name_H-M   'P 1'
_cell_length_a   4.45137200
_cell_length_b   7.16229500
_cell_length_c   7.63156200
_cell_angle_alpha   90.00000000
_cell_angle_beta   90.00000000
_cell_angle_gamma   90.00000000
_symmetry_Int_Tables_number   1
_chemical_formula_structural   YbNiSn
_chemical_formula_sum   'Yb4 Ni4 Sn4'
_cell_volume   243.30976051
_cell_formula_units_Z   4
loop_
 _symmetry_equiv_pos_site_id
 _symmetry_equiv_pos_as_xyz
  1  'x, y, z'
loop_
 _atom_site_type_symbol
 _atom_site_label
 _atom_site_symmetry_multiplicity
 _atom_site_fract_x
 _atom_site_fract_y
 _atom_site_fract_z
 _atom_site_occupancy
  Yb  Yb0  1  0.25000000  0.97546200  0.81576400  1
  Yb  Yb1  1  0.75000000  0.02453800  0.18423600  1
  Yb  Yb2  1  0.25000000  0.47546200  0.68423600  1
  Yb  Yb3  1  0.75000000  0.52453800  0.31576400  1
  Ni  Ni4  1  0.75000000  0.29380500  0.89571800  1
  Ni  Ni5  1  0.25000000  0.20619500  0.39571800  1
  Ni  Ni6  1  0.75000000  0.79380500  0.60428200  1
  Ni  Ni7  1  0.25000000  0.70619500  0.10428200  1
  Sn  Sn8  1  0.25000000  0.83223400  0.42397000  1
  Sn  Sn9  1  0.75000000  0.66776600  0.92397000  1
  Sn  Sn10  1  0.25000000  0.33223400  0.07603000  1
  Sn  Sn11  1  0.75000000  0.16776600  0.57603000  1
