# generated using pymatgen
data_Sr5Sb3
_symmetry_space_group_name_H-M   'P 1'
_cell_length_a   9.59541016
_cell_length_b   9.59541016
_cell_length_c   7.46355200
_cell_angle_alpha   90.00000000
_cell_angle_beta   90.00000000
_cell_angle_gamma   120.00000108
_symmetry_Int_Tables_number   1
_chemical_formula_structural   Sr5Sb3
_chemical_formula_sum   'Sr10 Sb6'
_cell_volume   595.11826116
_cell_formula_units_Z   2
loop_
 _symmetry_equiv_pos_site_id
 _symmetry_equiv_pos_as_xyz
  1  'x, y, z'
loop_
 _atom_site_type_symbol
 _atom_site_label
 _atom_site_symmetry_multiplicity
 _atom_site_fract_x
 _atom_site_fract_y
 _atom_site_fract_z
 _atom_site_occupancy
  Sr  Sr0  1  0.33333300  0.66666700  0.00000000  1
  Sr  Sr1  1  0.66666700  0.33333300  0.50000000  1
  Sr  Sr2  1  0.66666700  0.33333300  0.00000000  1
  Sr  Sr3  1  0.33333300  0.66666700  0.50000000  1
  Sr  Sr4  1  0.25317100  0.00000000  0.25000000  1
  Sr  Sr5  1  0.25317100  0.25317100  0.75000000  1
  Sr  Sr6  1  0.00000000  0.74682900  0.75000000  1
  Sr  Sr7  1  0.00000000  0.25317100  0.25000000  1
  Sr  Sr8  1  0.74682900  0.74682900  0.25000000  1
  Sr  Sr9  1  0.74682900  0.00000000  0.75000000  1
  Sb  Sb10  1  0.60976200  0.00000000  0.25000000  1
  Sb  Sb11  1  0.60976200  0.60976200  0.75000000  1
  Sb  Sb12  1  0.00000000  0.39023800  0.75000000  1
  Sb  Sb13  1  0.00000000  0.60976200  0.25000000  1
  Sb  Sb14  1  0.39023800  0.39023800  0.25000000  1
  Sb  Sb15  1  0.39023800  0.00000000  0.75000000  1
