# generated using pymatgen
data_Sr2Co(BrO)2
_symmetry_space_group_name_H-M   'P 1'
_cell_length_a   5.80191709
_cell_length_b   17.83705208
_cell_length_c   5.80191989
_cell_angle_alpha   99.35997899
_cell_angle_beta   90.00951753
_cell_angle_gamma   80.64464641
_symmetry_Int_Tables_number   1
_chemical_formula_structural   Sr2Co(BrO)2
_chemical_formula_sum   'Sr8 Co4 Br8 O8'
_cell_volume   584.34839701
_cell_formula_units_Z   4
loop_
 _symmetry_equiv_pos_site_id
 _symmetry_equiv_pos_as_xyz
  1  'x, y, z'
loop_
 _atom_site_type_symbol
 _atom_site_label
 _atom_site_symmetry_multiplicity
 _atom_site_fract_x
 _atom_site_fract_y
 _atom_site_fract_z
 _atom_site_occupancy
  Sr  Sr0  1  0.29738800  0.40525000  0.70265300  1
  Sr  Sr1  1  0.79735600  0.40525000  0.20262100  1
  Sr  Sr2  1  0.54738900  0.90525000  0.95265300  1
  Sr  Sr3  1  0.04735900  0.90525000  0.45262200  1
  Sr  Sr4  1  0.45261300  0.09474900  0.04734600  1
  Sr  Sr5  1  0.95264100  0.09474900  0.54737900  1
  Sr  Sr6  1  0.70264400  0.59475000  0.29737800  1
  Sr  Sr7  1  0.20261200  0.59475000  0.79734900  1
  Co  Co8  1  0.49999700  0.00000000  0.49999800  1
  Co  Co9  1  0.25000200  0.50000100  0.25000300  1
  Co  Co10  1  0.99999900  0.00000000  0.99999900  1
  Co  Co11  1  0.75000200  0.50000100  0.75000200  1
  Br  Br12  1  0.41377200  0.17256600  0.58623800  1
  Br  Br13  1  0.91378700  0.17256400  0.08622000  1
  Br  Br14  1  0.66378100  0.67256400  0.83621400  1
  Br  Br15  1  0.16376300  0.67256600  0.33623200  1
  Br  Br16  1  0.33623200  0.32743300  0.16376300  1
  Br  Br17  1  0.83621100  0.32743600  0.66377900  1
  Br  Br18  1  0.58623400  0.82743300  0.41376800  1
  Br  Br19  1  0.08621900  0.82743600  0.91378700  1
  O  O20  1  0.25000100  0.00000200  0.25000200  1
  O  O21  1  0.74999900  0.00000300  0.74999900  1
  O  O22  1  0.50000100  0.49999800  0.50000100  1
  O  O23  1  0.00000200  0.50000000  0.00000300  1
  O  O24  1  0.75001000  0.99997500  0.24998600  1
  O  O25  1  0.24998700  0.00002800  0.75001200  1
  O  O26  1  0.99998700  0.50002400  0.50001300  1
  O  O27  1  0.50001400  0.49997300  0.99998600  1
