# generated using pymatgen
data_SmFeO3
_symmetry_space_group_name_H-M   'P 1'
_cell_length_a   5.44908600
_cell_length_b   5.68044100
_cell_length_c   7.81482200
_cell_angle_alpha   90.00000000
_cell_angle_beta   90.00000000
_cell_angle_gamma   90.00000000
_symmetry_Int_Tables_number   1
_chemical_formula_structural   SmFeO3
_chemical_formula_sum   'Sm4 Fe4 O12'
_cell_volume   241.89383841
_cell_formula_units_Z   4
loop_
 _symmetry_equiv_pos_site_id
 _symmetry_equiv_pos_as_xyz
  1  'x, y, z'
loop_
 _atom_site_type_symbol
 _atom_site_label
 _atom_site_symmetry_multiplicity
 _atom_site_fract_x
 _atom_site_fract_y
 _atom_site_fract_z
 _atom_site_occupancy
  Sm  Sm0  1  0.51530800  0.56049600  0.25000000  1
  Sm  Sm1  1  0.98469200  0.06049600  0.25000000  1
  Sm  Sm2  1  0.48469200  0.43950400  0.75000000  1
  Sm  Sm3  1  0.01530800  0.93950400  0.75000000  1
  Fe  Fe4  1  0.50000000  0.00000000  0.00000000  1
  Fe  Fe5  1  0.00000000  0.50000000  0.50000000  1
  Fe  Fe6  1  0.50000000  0.00000000  0.50000000  1
  Fe  Fe7  1  0.00000000  0.50000000  0.00000000  1
  O  O8  1  0.39746000  0.96630100  0.25000000  1
  O  O9  1  0.10254000  0.46630100  0.25000000  1
  O  O10  1  0.60254000  0.03369900  0.75000000  1
  O  O11  1  0.89746000  0.53369900  0.75000000  1
  O  O12  1  0.80228000  0.80097800  0.05360700  1
  O  O13  1  0.69772000  0.30097800  0.44639300  1
  O  O14  1  0.19772000  0.19902200  0.55360700  1
  O  O15  1  0.30228000  0.69902200  0.94639300  1
  O  O16  1  0.19772000  0.19902200  0.94639300  1
  O  O17  1  0.30228000  0.69902200  0.55360700  1
  O  O18  1  0.80228000  0.80097800  0.44639300  1
  O  O19  1  0.69772000  0.30097800  0.05360700  1
