# generated using pymatgen
data_BaYbCo4O7
_symmetry_space_group_name_H-M   'P 1'
_cell_length_a   6.33368400
_cell_length_b   10.30971300
_cell_length_c   11.12437900
_cell_angle_alpha   90.00000000
_cell_angle_beta   90.00000000
_cell_angle_gamma   90.00000000
_symmetry_Int_Tables_number   1
_chemical_formula_structural   BaYbCo4O7
_chemical_formula_sum   'Ba4 Yb4 Co16 O28'
_cell_volume   726.40486469
_cell_formula_units_Z   4
loop_
 _symmetry_equiv_pos_site_id
 _symmetry_equiv_pos_as_xyz
  1  'x, y, z'
loop_
 _atom_site_type_symbol
 _atom_site_label
 _atom_site_symmetry_multiplicity
 _atom_site_fract_x
 _atom_site_fract_y
 _atom_site_fract_z
 _atom_site_occupancy
  Ba  Ba0  1  0.49672900  0.00724000  0.17259500  1
  Ba  Ba1  1  0.00327100  0.00724000  0.67259500  1
  Ba  Ba2  1  0.99672900  0.50724000  0.32740500  1
  Ba  Ba3  1  0.50327100  0.50724000  0.82740500  1
  Yb  Yb4  1  0.98984400  0.37179900  0.67076600  1
  Yb  Yb5  1  0.51015600  0.37179900  0.17076600  1
  Yb  Yb6  1  0.48984400  0.87179900  0.82923400  1
  Yb  Yb7  1  0.01015600  0.87179900  0.32923400  1
  Co  Co8  1  0.99852200  0.18466800  0.17124300  1
  Co  Co9  1  0.26710700  0.19258900  0.91388800  1
  Co  Co10  1  0.99660500  0.94500600  0.00036200  1
  Co  Co11  1  0.76710700  0.69258900  0.58611200  1
  Co  Co12  1  0.23289300  0.19258900  0.41388800  1
  Co  Co13  1  0.49660500  0.44500600  0.49963800  1
  Co  Co14  1  0.50339500  0.94500600  0.50036200  1
  Co  Co15  1  0.74822800  0.18042300  0.41727800  1
  Co  Co16  1  0.00339500  0.44500600  0.99963800  1
  Co  Co17  1  0.49852200  0.68466800  0.32875700  1
  Co  Co18  1  0.25177200  0.68042300  0.58272200  1
  Co  Co19  1  0.50147800  0.18466800  0.67124300  1
  Co  Co20  1  0.75177200  0.18042300  0.91727800  1
  Co  Co21  1  0.73289300  0.69258900  0.08611200  1
  Co  Co22  1  0.24822800  0.68042300  0.08272200  1
  Co  Co23  1  0.00147800  0.68466800  0.82875700  1
  O  O24  1  0.23001000  0.26657100  0.26474600  1
  O  O25  1  0.23226700  0.71685700  0.25195900  1
  O  O26  1  0.73001000  0.76657100  0.23525400  1
  O  O27  1  0.24569300  0.49145500  0.56945500  1
  O  O28  1  0.26773300  0.71685700  0.75195900  1
  O  O29  1  0.73226700  0.21685700  0.24804100  1
  O  O30  1  0.99700700  0.72874200  0.49015400  1
  O  O31  1  0.50299300  0.72874200  0.99015400  1
  O  O32  1  0.27921300  0.00744800  0.39973200  1
  O  O33  1  0.26999000  0.26657100  0.76474600  1
  O  O34  1  0.06260700  0.99768200  0.15425100  1
  O  O35  1  0.43739300  0.99768200  0.65425100  1
  O  O36  1  0.49103800  0.25511900  0.50067500  1
  O  O37  1  0.00896200  0.25511900  0.00067500  1
  O  O38  1  0.22078700  0.00744800  0.89973200  1
  O  O39  1  0.76999000  0.76657100  0.73525400  1
  O  O40  1  0.49700700  0.22874200  0.00984600  1
  O  O41  1  0.77921300  0.50744800  0.10026800  1
  O  O42  1  0.50896200  0.75511900  0.49932500  1
  O  O43  1  0.76773300  0.21685700  0.74804100  1
  O  O44  1  0.99103800  0.75511900  0.99932500  1
  O  O45  1  0.00299300  0.22874200  0.50984600  1
  O  O46  1  0.72078700  0.50744800  0.60026800  1
  O  O47  1  0.93739300  0.49768200  0.84574900  1
  O  O48  1  0.56260700  0.49768200  0.34574900  1
  O  O49  1  0.74569300  0.99145500  0.93054500  1
  O  O50  1  0.25430700  0.49145500  0.06945500  1
  O  O51  1  0.75430700  0.99145500  0.43054500  1
