# generated using pymatgen
data_Mn3Se3O10
_symmetry_space_group_name_H-M   'P 1'
_cell_length_a   8.74694590
_cell_length_b   8.74694590
_cell_length_c   9.94040169
_cell_angle_alpha   63.19078366
_cell_angle_beta   63.19078366
_cell_angle_gamma   45.76325183
_symmetry_Int_Tables_number   1
_chemical_formula_structural   Mn3Se3O10
_chemical_formula_sum   'Mn6 Se6 O20'
_cell_volume   475.13478097
_cell_formula_units_Z   2
loop_
 _symmetry_equiv_pos_site_id
 _symmetry_equiv_pos_as_xyz
  1  'x, y, z'
loop_
 _atom_site_type_symbol
 _atom_site_label
 _atom_site_symmetry_multiplicity
 _atom_site_fract_x
 _atom_site_fract_y
 _atom_site_fract_z
 _atom_site_occupancy
  Mn  Mn0  1  0.00000000  0.50000000  0.50000000  1
  Mn  Mn1  1  0.50000000  0.00000000  0.50000000  1
  Mn  Mn2  1  0.61715400  0.61715400  0.91524100  1
  Mn  Mn3  1  0.38284600  0.38284600  0.08475900  1
  Mn  Mn4  1  0.00000000  0.50000000  0.00000000  1
  Mn  Mn5  1  0.50000000  0.00000000  0.00000000  1
  Se  Se6  1  0.53129900  0.53129900  0.66731600  1
  Se  Se7  1  0.46870100  0.46870100  0.33268400  1
  Se  Se8  1  0.86049700  0.86049700  0.67304300  1
  Se  Se9  1  0.13950300  0.13950300  0.32695700  1
  Se  Se10  1  0.88627400  0.88627400  0.17062900  1
  Se  Se11  1  0.11372600  0.11372600  0.82937100  1
  O  O12  1  0.30742400  0.30742400  0.98494200  1
  O  O13  1  0.69257600  0.69257600  0.01505800  1
  O  O14  1  0.21619600  0.21619600  0.65180900  1
  O  O15  1  0.78380400  0.78380400  0.34819100  1
  O  O16  1  0.75081700  0.75081700  0.67049100  1
  O  O17  1  0.24918300  0.24918300  0.32950900  1
  O  O18  1  0.48302600  0.48302600  0.14029400  1
  O  O19  1  0.51697400  0.51697400  0.85970600  1
  O  O20  1  0.05840300  0.66707200  0.08094900  1
  O  O21  1  0.33292800  0.94159700  0.91905100  1
  O  O22  1  0.94159700  0.33292800  0.91905100  1
  O  O23  1  0.66707200  0.05840300  0.08094900  1
  O  O24  1  0.40241500  0.80361200  0.59192200  1
  O  O25  1  0.19638800  0.59758500  0.40807800  1
  O  O26  1  0.59758500  0.19638800  0.40807800  1
  O  O27  1  0.80361200  0.40241500  0.59192200  1
  O  O28  1  0.05077900  0.64887800  0.78576000  1
  O  O29  1  0.94922100  0.35112200  0.21424000  1
  O  O30  1  0.35112200  0.94922100  0.21424000  1
  O  O31  1  0.64887800  0.05077900  0.78576000  1
