# generated using pymatgen
data_TmSiRu
_symmetry_space_group_name_H-M   'P 1'
_cell_length_a   4.30933300
_cell_length_b   6.90849000
_cell_length_c   7.08271500
_cell_angle_alpha   90.00000000
_cell_angle_beta   90.00000000
_cell_angle_gamma   90.00000000
_symmetry_Int_Tables_number   1
_chemical_formula_structural   TmSiRu
_chemical_formula_sum   'Tm4 Si4 Ru4'
_cell_volume   210.85939450
_cell_formula_units_Z   4
loop_
 _symmetry_equiv_pos_site_id
 _symmetry_equiv_pos_as_xyz
  1  'x, y, z'
loop_
 _atom_site_type_symbol
 _atom_site_label
 _atom_site_symmetry_multiplicity
 _atom_site_fract_x
 _atom_site_fract_y
 _atom_site_fract_z
 _atom_site_occupancy
  Tm  Tm0  1  0.25000000  0.98670900  0.81184000  1
  Tm  Tm1  1  0.75000000  0.01329100  0.18816000  1
  Tm  Tm2  1  0.25000000  0.48670900  0.68816000  1
  Tm  Tm3  1  0.75000000  0.51329100  0.31184000  1
  Si  Si4  1  0.25000000  0.30164800  0.10615600  1
  Si  Si5  1  0.75000000  0.69835200  0.89384400  1
  Si  Si6  1  0.25000000  0.80164800  0.39384400  1
  Si  Si7  1  0.75000000  0.19835200  0.60615600  1
  Ru  Ru8  1  0.75000000  0.84518300  0.56647800  1
  Ru  Ru9  1  0.25000000  0.15481700  0.43352200  1
  Ru  Ru10  1  0.75000000  0.34518300  0.93352200  1
  Ru  Ru11  1  0.25000000  0.65481700  0.06647800  1
