# generated using pymatgen
data_La2Re3B7
_symmetry_space_group_name_H-M   'P 1'
_cell_length_a   6.80201100
_cell_length_b   7.72501700
_cell_length_c   11.69098300
_cell_angle_alpha   90.00000000
_cell_angle_beta   90.00000000
_cell_angle_gamma   90.00000000
_symmetry_Int_Tables_number   1
_chemical_formula_structural   La2Re3B7
_chemical_formula_sum   'La8 Re12 B28'
_cell_volume   614.31030800
_cell_formula_units_Z   4
loop_
 _symmetry_equiv_pos_site_id
 _symmetry_equiv_pos_as_xyz
  1  'x, y, z'
loop_
 _atom_site_type_symbol
 _atom_site_label
 _atom_site_symmetry_multiplicity
 _atom_site_fract_x
 _atom_site_fract_y
 _atom_site_fract_z
 _atom_site_occupancy
  La  La0  1  0.76216400  0.82138500  0.82147400  1
  La  La1  1  0.23783600  0.67861500  0.82147400  1
  La  La2  1  0.23783600  0.32138500  0.67852600  1
  La  La3  1  0.76216400  0.17861500  0.67852600  1
  La  La4  1  0.23783600  0.17861500  0.17852600  1
  La  La5  1  0.76216400  0.32138500  0.17852600  1
  La  La6  1  0.76216400  0.67861500  0.32147400  1
  La  La7  1  0.23783600  0.82138500  0.32147400  1
  Re  Re8  1  0.60536000  0.59123700  0.58003400  1
  Re  Re9  1  0.39464000  0.90876300  0.58003400  1
  Re  Re10  1  0.39464000  0.09123700  0.91996600  1
  Re  Re11  1  0.60536000  0.40876300  0.91996600  1
  Re  Re12  1  0.39464000  0.40876300  0.41996600  1
  Re  Re13  1  0.60536000  0.09123700  0.41996600  1
  Re  Re14  1  0.60536000  0.90876300  0.08003400  1
  Re  Re15  1  0.39464000  0.59123700  0.08003400  1
  Re  Re16  1  0.00000000  0.75000000  0.56766300  1
  Re  Re17  1  0.00000000  0.25000000  0.93233700  1
  Re  Re18  1  0.00000000  0.25000000  0.43233700  1
  Re  Re19  1  0.00000000  0.75000000  0.06766300  1
  B  B20  1  0.89699000  0.53319700  0.95857900  1
  B  B21  1  0.10301000  0.96680300  0.95857900  1
  B  B22  1  0.10301000  0.03319700  0.54142100  1
  B  B23  1  0.89699000  0.46680300  0.54142100  1
  B  B24  1  0.10301000  0.46680300  0.04142100  1
  B  B25  1  0.89699000  0.03319700  0.04142100  1
  B  B26  1  0.89699000  0.96680300  0.45857900  1
  B  B27  1  0.10301000  0.53319700  0.45857900  1
  B  B28  1  0.87906000  0.54019300  0.68312300  1
  B  B29  1  0.12094000  0.95980700  0.68312300  1
  B  B30  1  0.12094000  0.04019300  0.81687700  1
  B  B31  1  0.87906000  0.45980700  0.81687700  1
  B  B32  1  0.12094000  0.45980700  0.31687700  1
  B  B33  1  0.87906000  0.04019300  0.31687700  1
  B  B34  1  0.87906000  0.95980700  0.18312300  1
  B  B35  1  0.12094000  0.54019300  0.18312300  1
  B  B36  1  0.69861900  0.87075200  0.53807800  1
  B  B37  1  0.30138100  0.62924800  0.53807800  1
  B  B38  1  0.30138100  0.37075200  0.96192200  1
  B  B39  1  0.69861900  0.12924800  0.96192200  1
  B  B40  1  0.30138100  0.12924800  0.46192200  1
  B  B41  1  0.69861900  0.37075200  0.46192200  1
  B  B42  1  0.69861900  0.62924800  0.03807800  1
  B  B43  1  0.30138100  0.87075200  0.03807800  1
  B  B44  1  0.63629300  0.50000000  0.75000000  1
  B  B45  1  0.36370700  0.00000000  0.75000000  1
  B  B46  1  0.36370700  0.50000000  0.25000000  1
  B  B47  1  0.63629300  0.00000000  0.25000000  1
