# generated using pymatgen
data_TaSe3
_symmetry_space_group_name_H-M   'P 1'
_cell_length_a   3.51916100
_cell_length_b   10.37456500
_cell_length_c   10.89654300
_cell_angle_alpha   70.68957190
_cell_angle_beta   90.00000000
_cell_angle_gamma   90.00000000
_symmetry_Int_Tables_number   1
_chemical_formula_structural   TaSe3
_chemical_formula_sum   'Ta4 Se12'
_cell_volume   375.44860176
_cell_formula_units_Z   4
loop_
 _symmetry_equiv_pos_site_id
 _symmetry_equiv_pos_as_xyz
  1  'x, y, z'
loop_
 _atom_site_type_symbol
 _atom_site_label
 _atom_site_symmetry_multiplicity
 _atom_site_fract_x
 _atom_site_fract_y
 _atom_site_fract_z
 _atom_site_occupancy
  Ta  Ta0  1  0.25000000  0.37151500  0.19024500  1
  Ta  Ta1  1  0.75000000  0.62848500  0.80975500  1
  Ta  Ta2  1  0.25000000  0.04196500  0.66699300  1
  Ta  Ta3  1  0.75000000  0.95803500  0.33300700  1
  Se  Se4  1  0.25000000  0.43040600  0.91929900  1
  Se  Se5  1  0.75000000  0.56959400  0.08070100  1
  Se  Se6  1  0.25000000  0.79541100  0.86754000  1
  Se  Se7  1  0.75000000  0.20458900  0.13246000  1
  Se  Se8  1  0.25000000  0.93174600  0.16331800  1
  Se  Se9  1  0.75000000  0.06825400  0.83668200  1
  Se  Se10  1  0.25000000  0.58855600  0.64417400  1
  Se  Se11  1  0.75000000  0.41144400  0.35582600  1
  Se  Se12  1  0.25000000  0.75313800  0.39443500  1
  Se  Se13  1  0.75000000  0.24686200  0.60556500  1
  Se  Se14  1  0.25000000  0.11831000  0.39759700  1
  Se  Se15  1  0.75000000  0.88169000  0.60240300  1
