# generated using pymatgen
data_ThTl3F7
_symmetry_space_group_name_H-M   'P 1'
_cell_length_a   10.87444468
_cell_length_b   10.87444468
_cell_length_c   8.58498000
_cell_angle_alpha   90.00000000
_cell_angle_beta   90.00000000
_cell_angle_gamma   125.62819762
_symmetry_Int_Tables_number   1
_chemical_formula_structural   ThTl3F7
_chemical_formula_sum   'Th4 Tl12 F28'
_cell_volume   825.17247702
_cell_formula_units_Z   4
loop_
 _symmetry_equiv_pos_site_id
 _symmetry_equiv_pos_as_xyz
  1  'x, y, z'
loop_
 _atom_site_type_symbol
 _atom_site_label
 _atom_site_symmetry_multiplicity
 _atom_site_fract_x
 _atom_site_fract_y
 _atom_site_fract_z
 _atom_site_occupancy
  Th  Th0  1  0.10839700  0.89160300  0.00095600  1
  Th  Th1  1  0.89160300  0.10839700  0.50095600  1
  Th  Th2  1  0.89160300  0.10839700  0.99904400  1
  Th  Th3  1  0.10839700  0.89160300  0.49904400  1
  Tl  Tl4  1  0.36355300  0.63644700  0.53277500  1
  Tl  Tl5  1  0.63644700  0.36355300  0.03277500  1
  Tl  Tl6  1  0.63644700  0.36355300  0.46722500  1
  Tl  Tl7  1  0.36355300  0.63644700  0.96722500  1
  Tl  Tl8  1  0.49083900  0.97578700  0.25000000  1
  Tl  Tl9  1  0.50916100  0.02421300  0.75000000  1
  Tl  Tl10  1  0.02421300  0.50916100  0.25000000  1
  Tl  Tl11  1  0.97578700  0.49083900  0.75000000  1
  Tl  Tl12  1  0.67641100  0.70776100  0.25000000  1
  Tl  Tl13  1  0.32358900  0.29223900  0.75000000  1
  Tl  Tl14  1  0.29223900  0.32358900  0.25000000  1
  Tl  Tl15  1  0.70776100  0.67641100  0.75000000  1
  F  F16  1  0.91344400  0.64194400  0.94600700  1
  F  F17  1  0.08655600  0.35805600  0.44600700  1
  F  F18  1  0.08655600  0.35805600  0.05399300  1
  F  F19  1  0.91344400  0.64194400  0.55399300  1
  F  F20  1  0.64194400  0.91344400  0.44600700  1
  F  F21  1  0.35805600  0.08655600  0.94600700  1
  F  F22  1  0.35805600  0.08655600  0.55399300  1
  F  F23  1  0.64194400  0.91344400  0.05399300  1
  F  F24  1  0.94829600  0.05170400  0.25000000  1
  F  F25  1  0.05170400  0.94829600  0.75000000  1
  F  F26  1  0.82136000  0.17864000  0.25000000  1
  F  F27  1  0.17864000  0.82136000  0.75000000  1
  F  F28  1  0.22245200  0.77754800  0.06592500  1
  F  F29  1  0.77754800  0.22245200  0.56592500  1
  F  F30  1  0.77754800  0.22245200  0.93407500  1
  F  F31  1  0.22245200  0.77754800  0.43407500  1
  F  F32  1  0.12951500  0.12951500  0.00000000  1
  F  F33  1  0.87048500  0.87048500  0.50000000  1
  F  F34  1  0.87048500  0.87048500  0.00000000  1
  F  F35  1  0.12951500  0.12951500  0.50000000  1
  F  F36  1  0.50000000  0.50000000  0.50000000  1
  F  F37  1  0.50000000  0.50000000  0.00000000  1
  F  F38  1  0.63577800  0.36422200  0.75000000  1
  F  F39  1  0.36422200  0.63577800  0.25000000  1
  F  F40  1  0.76877900  0.97960400  0.75000000  1
  F  F41  1  0.23122100  0.02039600  0.25000000  1
  F  F42  1  0.02039600  0.23122100  0.75000000  1
  F  F43  1  0.97960400  0.76877900  0.25000000  1
