# generated using pymatgen
data_Th2NiB10
_symmetry_space_group_name_H-M   'P 1'
_cell_length_a   4.17778000
_cell_length_b   5.64828900
_cell_length_c   11.20446800
_cell_angle_alpha   90.00000000
_cell_angle_beta   90.00000000
_cell_angle_gamma   90.00000000
_symmetry_Int_Tables_number   1
_chemical_formula_structural   Th2NiB10
_chemical_formula_sum   'Th4 Ni2 B20'
_cell_volume   264.39529154
_cell_formula_units_Z   2
loop_
 _symmetry_equiv_pos_site_id
 _symmetry_equiv_pos_as_xyz
  1  'x, y, z'
loop_
 _atom_site_type_symbol
 _atom_site_label
 _atom_site_symmetry_multiplicity
 _atom_site_fract_x
 _atom_site_fract_y
 _atom_site_fract_z
 _atom_site_occupancy
  Th  Th0  1  0.50000000  0.30648200  0.86331600  1
  Th  Th1  1  0.50000000  0.69351800  0.13668400  1
  Th  Th2  1  0.50000000  0.80648200  0.63668400  1
  Th  Th3  1  0.50000000  0.19351800  0.36331600  1
  Ni  Ni4  1  0.00000000  0.50000000  0.50000000  1
  Ni  Ni5  1  0.00000000  0.00000000  0.00000000  1
  B  B6  1  0.00000000  0.12458600  0.54054400  1
  B  B7  1  0.00000000  0.87541400  0.45945600  1
  B  B8  1  0.00000000  0.62458600  0.95945600  1
  B  B9  1  0.00000000  0.37541400  0.04054400  1
  B  B10  1  0.00000000  0.15238000  0.69735700  1
  B  B11  1  0.00000000  0.84762000  0.30264300  1
  B  B12  1  0.30019200  0.20206600  0.11391800  1
  B  B13  1  0.30019200  0.79793400  0.88608200  1
  B  B14  1  0.69980800  0.70206600  0.38608200  1
  B  B15  1  0.69980800  0.29793400  0.61391800  1
  B  B16  1  0.69980800  0.79793400  0.88608200  1
  B  B17  1  0.69980800  0.20206600  0.11391800  1
  B  B18  1  0.30019200  0.29793400  0.61391800  1
  B  B19  1  0.30019200  0.70206600  0.38608200  1
  B  B20  1  0.00000000  0.03667300  0.18879300  1
  B  B21  1  0.00000000  0.96332700  0.81120700  1
  B  B22  1  0.00000000  0.53667300  0.31120700  1
  B  B23  1  0.00000000  0.46332700  0.68879300  1
  B  B24  1  0.00000000  0.34762000  0.19735700  1
  B  B25  1  0.00000000  0.65238000  0.80264300  1
