# generated using pymatgen
data_PrNiO3
_symmetry_space_group_name_H-M   'P 1'
_cell_length_a   5.46677200
_cell_length_b   5.48540400
_cell_length_c   7.74529200
_cell_angle_alpha   90.00000000
_cell_angle_beta   90.00000000
_cell_angle_gamma   90.00000000
_symmetry_Int_Tables_number   1
_chemical_formula_structural   PrNiO3
_chemical_formula_sum   'Pr4 Ni4 O12'
_cell_volume   232.26157979
_cell_formula_units_Z   4
loop_
 _symmetry_equiv_pos_site_id
 _symmetry_equiv_pos_as_xyz
  1  'x, y, z'
loop_
 _atom_site_type_symbol
 _atom_site_label
 _atom_site_symmetry_multiplicity
 _atom_site_fract_x
 _atom_site_fract_y
 _atom_site_fract_z
 _atom_site_occupancy
  Pr  Pr0  1  0.03745300  0.99157000  0.75000000  1
  Pr  Pr1  1  0.53745300  0.50843000  0.75000000  1
  Pr  Pr2  1  0.46254700  0.49157000  0.25000000  1
  Pr  Pr3  1  0.96254700  0.00843000  0.25000000  1
  Ni  Ni4  1  0.00000000  0.50000000  0.50000000  1
  Ni  Ni5  1  0.50000000  0.00000000  0.00000000  1
  Ni  Ni6  1  0.50000000  0.00000000  0.50000000  1
  Ni  Ni7  1  0.00000000  0.50000000  0.00000000  1
  O  O8  1  0.71900000  0.27972000  0.45883900  1
  O  O9  1  0.21900000  0.22028000  0.04116100  1
  O  O10  1  0.78100000  0.77972000  0.54116100  1
  O  O11  1  0.28100000  0.72028000  0.95883900  1
  O  O12  1  0.28100000  0.72028000  0.54116100  1
  O  O13  1  0.78100000  0.77972000  0.95883900  1
  O  O14  1  0.21900000  0.22028000  0.45883900  1
  O  O15  1  0.71900000  0.27972000  0.04116100  1
  O  O16  1  0.51030000  0.92537500  0.25000000  1
  O  O17  1  0.01030000  0.57462500  0.25000000  1
  O  O18  1  0.98970000  0.42537500  0.75000000  1
  O  O19  1  0.48970000  0.07462500  0.75000000  1
