# generated using pymatgen
data_Rb2CdO2
_symmetry_space_group_name_H-M   'P 1'
_cell_length_a   6.38626300
_cell_length_b   6.51181200
_cell_length_c   10.73777800
_cell_angle_alpha   90.00000000
_cell_angle_beta   90.00000000
_cell_angle_gamma   90.00000000
_symmetry_Int_Tables_number   1
_chemical_formula_structural   Rb2CdO2
_chemical_formula_sum   'Rb8 Cd4 O8'
_cell_volume   446.54278256
_cell_formula_units_Z   4
loop_
 _symmetry_equiv_pos_site_id
 _symmetry_equiv_pos_as_xyz
  1  'x, y, z'
loop_
 _atom_site_type_symbol
 _atom_site_label
 _atom_site_symmetry_multiplicity
 _atom_site_fract_x
 _atom_site_fract_y
 _atom_site_fract_z
 _atom_site_occupancy
  Rb  Rb0  1  0.39735900  0.10918800  0.34390800  1
  Rb  Rb1  1  0.60264100  0.39081200  0.84390800  1
  Rb  Rb2  1  0.89735900  0.89081200  0.34390800  1
  Rb  Rb3  1  0.10264100  0.60918800  0.84390800  1
  Rb  Rb4  1  0.60264100  0.89081200  0.65609200  1
  Rb  Rb5  1  0.39735900  0.60918800  0.15609200  1
  Rb  Rb6  1  0.89735900  0.39081200  0.15609200  1
  Rb  Rb7  1  0.10264100  0.10918800  0.65609200  1
  Cd  Cd8  1  0.75000000  0.46505900  0.50000000  1
  Cd  Cd9  1  0.25000000  0.53494100  0.50000000  1
  Cd  Cd10  1  0.75000000  0.96505900  0.00000000  1
  Cd  Cd11  1  0.25000000  0.03494100  0.00000000  1
  O  O12  1  0.51667900  0.18963600  0.09602100  1
  O  O13  1  0.01667900  0.81036400  0.09602100  1
  O  O14  1  0.51667900  0.68963600  0.40397900  1
  O  O15  1  0.48332100  0.31036400  0.59602100  1
  O  O16  1  0.48332100  0.81036400  0.90397900  1
  O  O17  1  0.98332100  0.18963600  0.90397900  1
  O  O18  1  0.01667900  0.31036400  0.40397900  1
  O  O19  1  0.98332100  0.68963600  0.59602100  1
