# generated using pymatgen
data_ThBrN
_symmetry_space_group_name_H-M   'P 1'
_cell_length_a   4.06090500
_cell_length_b   4.06090500
_cell_length_c   8.69248700
_cell_angle_alpha   90.00000000
_cell_angle_beta   90.00000000
_cell_angle_gamma   90.00000000
_symmetry_Int_Tables_number   1
_chemical_formula_structural   ThBrN
_chemical_formula_sum   'Th2 Br2 N2'
_cell_volume   143.34736344
_cell_formula_units_Z   2
loop_
 _symmetry_equiv_pos_site_id
 _symmetry_equiv_pos_as_xyz
  1  'x, y, z'
loop_
 _atom_site_type_symbol
 _atom_site_label
 _atom_site_symmetry_multiplicity
 _atom_site_fract_x
 _atom_site_fract_y
 _atom_site_fract_z
 _atom_site_occupancy
  Th  Th0  1  0.00000000  0.50000000  0.86591100  1
  Th  Th1  1  0.50000000  0.00000000  0.13408900  1
  Br  Br2  1  0.50000000  0.00000000  0.66611600  1
  Br  Br3  1  0.00000000  0.50000000  0.33388400  1
  N  N4  1  0.00000000  0.00000000  0.00000000  1
  N  N5  1  0.50000000  0.50000000  0.00000000  1
