# generated using pymatgen
data_HfNbP
_symmetry_space_group_name_H-M   'P 1'
_cell_length_a   3.54087500
_cell_length_b   6.88863300
_cell_length_c   8.32184600
_cell_angle_alpha   90.00000000
_cell_angle_beta   90.00000000
_cell_angle_gamma   90.00000000
_symmetry_Int_Tables_number   1
_chemical_formula_structural   HfNbP
_chemical_formula_sum   'Hf4 Nb4 P4'
_cell_volume   202.98470651
_cell_formula_units_Z   4
loop_
 _symmetry_equiv_pos_site_id
 _symmetry_equiv_pos_as_xyz
  1  'x, y, z'
loop_
 _atom_site_type_symbol
 _atom_site_label
 _atom_site_symmetry_multiplicity
 _atom_site_fract_x
 _atom_site_fract_y
 _atom_site_fract_z
 _atom_site_occupancy
  Hf  Hf0  1  0.25000000  0.03295700  0.66779800  1
  Hf  Hf1  1  0.25000000  0.53295700  0.83220200  1
  Hf  Hf2  1  0.75000000  0.46704300  0.16779800  1
  Hf  Hf3  1  0.75000000  0.96704300  0.33220200  1
  Nb  Nb4  1  0.75000000  0.85832800  0.93972400  1
  Nb  Nb5  1  0.25000000  0.64167200  0.43972400  1
  Nb  Nb6  1  0.75000000  0.35832800  0.56027600  1
  Nb  Nb7  1  0.25000000  0.14167200  0.06027600  1
  P  P8  1  0.25000000  0.26250800  0.35585000  1
  P  P9  1  0.25000000  0.76250800  0.14415000  1
  P  P10  1  0.75000000  0.73749200  0.64415000  1
  P  P11  1  0.75000000  0.23749200  0.85585000  1
