# generated using pymatgen
data_TaPbS2
_symmetry_space_group_name_H-M   'P 1'
_cell_length_a   3.37480623
_cell_length_b   3.37480623
_cell_length_c   18.03342900
_cell_angle_alpha   90.00000000
_cell_angle_beta   90.00000000
_cell_angle_gamma   120.00000460
_symmetry_Int_Tables_number   1
_chemical_formula_structural   TaPbS2
_chemical_formula_sum   'Ta2 Pb2 S4'
_cell_volume   177.87159990
_cell_formula_units_Z   2
loop_
 _symmetry_equiv_pos_site_id
 _symmetry_equiv_pos_as_xyz
  1  'x, y, z'
loop_
 _atom_site_type_symbol
 _atom_site_label
 _atom_site_symmetry_multiplicity
 _atom_site_fract_x
 _atom_site_fract_y
 _atom_site_fract_z
 _atom_site_occupancy
  Ta  Ta0  1  0.66666700  0.33333300  0.75000000  1
  Ta  Ta1  1  0.33333300  0.66666700  0.25000000  1
  Pb  Pb2  1  0.00000000  0.00000000  0.00000000  1
  Pb  Pb3  1  0.00000000  0.00000000  0.50000000  1
  S  S4  1  0.00000000  0.00000000  0.16423100  1
  S  S5  1  0.00000000  0.00000000  0.66423100  1
  S  S6  1  0.00000000  0.00000000  0.33576900  1
  S  S7  1  0.00000000  0.00000000  0.83576900  1
