# generated using pymatgen
data_Ce2BiO2
_symmetry_space_group_name_H-M   'P 1'
_cell_length_a   7.11814555
_cell_length_b   7.11814555
_cell_length_c   7.11814555
_cell_angle_alpha   147.08534324
_cell_angle_beta   147.08534324
_cell_angle_gamma   47.23743422
_symmetry_Int_Tables_number   1
_chemical_formula_structural   Ce2BiO2
_chemical_formula_sum   'Ce2 Bi1 O2'
_cell_volume   106.08714035
_cell_formula_units_Z   1
loop_
 _symmetry_equiv_pos_site_id
 _symmetry_equiv_pos_as_xyz
  1  'x, y, z'
loop_
 _atom_site_type_symbol
 _atom_site_label
 _atom_site_symmetry_multiplicity
 _atom_site_fract_x
 _atom_site_fract_y
 _atom_site_fract_z
 _atom_site_occupancy
  Ce  Ce0  1  0.65850200  0.65850200  0.00000000  1
  Ce  Ce1  1  0.34149800  0.34149800  0.00000000  1
  Bi  Bi2  1  0.00000000  0.00000000  0.00000000  1
  O  O3  1  0.75000000  0.25000000  0.50000000  1
  O  O4  1  0.25000000  0.75000000  0.50000000  1
