# generated using pymatgen
data_K4Zr5O12
_symmetry_space_group_name_H-M   'P 1'
_cell_length_a   5.90401614
_cell_length_b   5.90401614
_cell_length_c   10.59673000
_cell_angle_alpha   90.00000000
_cell_angle_beta   90.00000000
_cell_angle_gamma   120.00000155
_symmetry_Int_Tables_number   1
_chemical_formula_structural   K4Zr5O12
_chemical_formula_sum   'K4 Zr5 O12'
_cell_volume   319.88771788
_cell_formula_units_Z   1
loop_
 _symmetry_equiv_pos_site_id
 _symmetry_equiv_pos_as_xyz
  1  'x, y, z'
loop_
 _atom_site_type_symbol
 _atom_site_label
 _atom_site_symmetry_multiplicity
 _atom_site_fract_x
 _atom_site_fract_y
 _atom_site_fract_z
 _atom_site_occupancy
  K  K0  1  0.66666700  0.33333300  0.61322600  1
  K  K1  1  0.33333300  0.66666700  0.38677400  1
  K  K2  1  0.00000000  0.00000000  0.82114600  1
  K  K3  1  0.00000000  0.00000000  0.17885400  1
  Zr  Zr4  1  0.66666700  0.33333300  0.28337400  1
  Zr  Zr5  1  0.33333300  0.66666700  0.71662600  1
  Zr  Zr6  1  0.66666700  0.33333300  0.97590500  1
  Zr  Zr7  1  0.33333300  0.66666700  0.02409500  1
  Zr  Zr8  1  0.00000000  0.00000000  0.50000000  1
  O  O9  1  0.98084700  0.49042400  0.12241500  1
  O  O10  1  0.50957600  0.49042400  0.12241500  1
  O  O11  1  0.50957600  0.01915300  0.12241500  1
  O  O12  1  0.49042400  0.50957600  0.87758500  1
  O  O13  1  0.01915300  0.50957600  0.87758500  1
  O  O14  1  0.49042400  0.98084700  0.87758500  1
  O  O15  1  0.32994700  0.16497300  0.37859000  1
  O  O16  1  0.83502700  0.16497300  0.37859000  1
  O  O17  1  0.83502700  0.67005300  0.37859000  1
  O  O18  1  0.16497300  0.32994700  0.62141000  1
  O  O19  1  0.67005300  0.83502700  0.62141000  1
  O  O20  1  0.16497300  0.83502700  0.62141000  1
