# generated using pymatgen
data_TlF3
_symmetry_space_group_name_H-M   'P 1'
_cell_length_a   5.03605300
_cell_length_b   5.90977700
_cell_length_c   7.27018500
_cell_angle_alpha   90.00000000
_cell_angle_beta   90.00000000
_cell_angle_gamma   90.00000000
_symmetry_Int_Tables_number   1
_chemical_formula_structural   TlF3
_chemical_formula_sum   'Tl4 F12'
_cell_volume   216.37488384
_cell_formula_units_Z   4
loop_
 _symmetry_equiv_pos_site_id
 _symmetry_equiv_pos_as_xyz
  1  'x, y, z'
loop_
 _atom_site_type_symbol
 _atom_site_label
 _atom_site_symmetry_multiplicity
 _atom_site_fract_x
 _atom_site_fract_y
 _atom_site_fract_z
 _atom_site_occupancy
  Tl  Tl0  1  0.96076200  0.62938900  0.75000000  1
  Tl  Tl1  1  0.46076200  0.87061100  0.25000000  1
  Tl  Tl2  1  0.53923800  0.12938900  0.75000000  1
  Tl  Tl3  1  0.03923800  0.37061100  0.25000000  1
  F  F4  1  0.33079900  0.15805800  0.42970900  1
  F  F5  1  0.83079900  0.34194200  0.57029100  1
  F  F6  1  0.16920100  0.65805800  0.07029100  1
  F  F7  1  0.66920100  0.84194200  0.92970900  1
  F  F8  1  0.64281000  0.54016800  0.25000000  1
  F  F9  1  0.14281000  0.95983200  0.75000000  1
  F  F10  1  0.85719000  0.04016800  0.25000000  1
  F  F11  1  0.35719000  0.45983200  0.75000000  1
  F  F12  1  0.33079900  0.15805800  0.07029100  1
  F  F13  1  0.83079900  0.34194200  0.92970900  1
  F  F14  1  0.16920100  0.65805800  0.42970900  1
  F  F15  1  0.66920100  0.84194200  0.57029100  1
