# generated using pymatgen
data_Mo4P7O24
_symmetry_space_group_name_H-M   'P 1'
_cell_length_a   10.56087371
_cell_length_b   10.58488893
_cell_length_c   11.34206849
_cell_angle_alpha   112.88982416
_cell_angle_beta   109.69480619
_cell_angle_gamma   104.33281540
_symmetry_Int_Tables_number   1
_chemical_formula_structural   Mo4P7O24
_chemical_formula_sum   'Mo8 P14 O48'
_cell_volume   989.39451505
_cell_formula_units_Z   2
loop_
 _symmetry_equiv_pos_site_id
 _symmetry_equiv_pos_as_xyz
  1  'x, y, z'
loop_
 _atom_site_type_symbol
 _atom_site_label
 _atom_site_symmetry_multiplicity
 _atom_site_fract_x
 _atom_site_fract_y
 _atom_site_fract_z
 _atom_site_occupancy
  Mo  Mo0  1  0.75792200  0.15430300  0.26060800  1
  Mo  Mo1  1  0.92261800  0.30623500  0.92557500  1
  Mo  Mo2  1  0.62542900  0.77582400  0.11414500  1
  Mo  Mo3  1  0.57296000  0.41395900  0.58734600  1
  Mo  Mo4  1  0.42704100  0.58604100  0.41265400  1
  Mo  Mo5  1  0.37457100  0.22417600  0.88585500  1
  Mo  Mo6  1  0.07738200  0.69376500  0.07442500  1
  Mo  Mo7  1  0.24207800  0.84569800  0.73939200  1
  P  P8  1  0.38540900  0.94592400  0.11819200  1
  P  P9  1  0.29901500  0.51218100  0.04721600  1
  P  P10  1  0.70098400  0.48781900  0.95278400  1
  P  P11  1  0.61459100  0.05407700  0.88180800  1
  P  P12  1  0.26769400  0.12620600  0.51856700  1
  P  P13  1  0.73230600  0.87379500  0.48143300  1
  P  P14  1  0.50338600  0.27902600  0.24342900  1
  P  P15  1  0.93613500  0.68501300  0.73876300  1
  P  P16  1  0.99724800  0.99051200  0.76667500  1
  P  P17  1  0.24036900  0.81282200  0.43221300  1
  P  P18  1  0.06386500  0.31498700  0.26123700  1
  P  P19  1  0.00275200  0.00948800  0.23332600  1
  P  P20  1  0.49661500  0.72097400  0.75657100  1
  P  P21  1  0.75963000  0.18717800  0.56778700  1
  O  O22  1  0.97912700  0.12292300  0.86052900  1
  O  O23  1  0.99786200  0.31392400  0.11726200  1
  O  O24  1  0.96580600  0.32284600  0.33242200  1
  O  O25  1  0.68374000  0.10243100  0.04065200  1
  O  O26  1  0.83453500  0.18857400  0.47548400  1
  O  O27  1  0.87943200  0.28765100  0.73325100  1
  O  O28  1  0.74376000  0.64512800  0.07679500  1
  O  O29  1  0.84104900  0.97734100  0.20118200  1
  O  O30  1  0.00213800  0.68607700  0.88273800  1
  O  O31  1  0.03419400  0.67715400  0.66757800  1
  O  O32  1  0.31626000  0.89756900  0.95934800  1
  O  O33  1  0.02087300  0.87707700  0.13947100  1
  O  O34  1  0.16546500  0.81142500  0.52451500  1
  O  O35  1  0.12056800  0.71235000  0.26674900  1
  O  O36  1  0.25624000  0.35487100  0.92320400  1
  O  O37  1  0.15895100  0.02265800  0.79881800  1
  O  O38  1  0.30607500  0.98492300  0.45999200  1
  O  O39  1  0.33384700  0.69215500  0.69572500  1
  O  O40  1  0.09260300  0.06257100  0.40185000  1
  O  O41  1  0.06662700  0.14520500  0.21098400  1
  O  O42  1  0.22269700  0.43113600  0.36420400  1
  O  O43  1  0.27462400  0.16766000  0.66305200  1
  O  O44  1  0.37172300  0.77432100  0.46315600  1
  O  O45  1  0.13440400  0.51607100  0.00907300  1
  O  O46  1  0.29183500  0.85037100  0.15686700  1
  O  O47  1  0.56488300  0.72334300  0.89711400  1
  O  O48  1  0.59522800  0.88525100  0.78465200  1
  O  O49  1  0.35446500  0.24832600  0.50342000  1
  O  O50  1  0.51373800  0.60782200  0.63183900  1
  O  O51  1  0.45147700  0.04146000  0.82073100  1
  O  O52  1  0.59932700  0.36303600  0.95902200  1
  O  O53  1  0.35795500  0.53255800  0.19784400  1
  O  O54  1  0.64204400  0.46744200  0.80215600  1
  O  O55  1  0.40067300  0.63696400  0.04097800  1
  O  O56  1  0.54852200  0.95853900  0.17926900  1
  O  O57  1  0.48626200  0.39217900  0.36816000  1
  O  O58  1  0.64553500  0.75167400  0.49658000  1
  O  O59  1  0.40477300  0.11475000  0.21534900  1
  O  O60  1  0.43511700  0.27665700  0.10288600  1
  O  O61  1  0.70816500  0.14963000  0.84313300  1
  O  O62  1  0.86559700  0.48393000  0.99092800  1
  O  O63  1  0.62827800  0.22568000  0.53684500  1
  O  O64  1  0.72537600  0.83233900  0.33694700  1
  O  O65  1  0.77730400  0.56886400  0.63579600  1
  O  O66  1  0.93337200  0.85479400  0.78901600  1
  O  O67  1  0.69392500  0.01507700  0.54000900  1
  O  O68  1  0.66615200  0.30784600  0.30427400  1
  O  O69  1  0.90739700  0.93743000  0.59815000  1
