# generated using pymatgen
data_Ba(SbS2)2
_symmetry_space_group_name_H-M   'P 1'
_cell_length_a   8.38088700
_cell_length_b   9.05291900
_cell_length_c   20.88952390
_cell_angle_alpha   79.67987798
_cell_angle_beta   90.00000000
_cell_angle_gamma   90.00000000
_symmetry_Int_Tables_number   1
_chemical_formula_structural   Ba(SbS2)2
_chemical_formula_sum   'Ba8 Sb16 S32'
_cell_volume   1559.27879266
_cell_formula_units_Z   8
loop_
 _symmetry_equiv_pos_site_id
 _symmetry_equiv_pos_as_xyz
  1  'x, y, z'
loop_
 _atom_site_type_symbol
 _atom_site_label
 _atom_site_symmetry_multiplicity
 _atom_site_fract_x
 _atom_site_fract_y
 _atom_site_fract_z
 _atom_site_occupancy
  Ba  Ba0  1  0.94829600  0.51691600  0.20256700  1
  Ba  Ba1  1  0.44829600  0.48308400  0.29743300  1
  Ba  Ba2  1  0.05170400  0.48308400  0.79743300  1
  Ba  Ba3  1  0.55170400  0.51691600  0.70256700  1
  Ba  Ba4  1  0.54590600  0.01789000  0.69495100  1
  Ba  Ba5  1  0.04590600  0.98211000  0.80504900  1
  Ba  Ba6  1  0.45409400  0.98211000  0.30504900  1
  Ba  Ba7  1  0.95409400  0.01789000  0.19495100  1
  Sb  Sb8  1  0.99231300  0.84287900  0.61499700  1
  Sb  Sb9  1  0.49231300  0.15712100  0.88500300  1
  Sb  Sb10  1  0.00768700  0.15712100  0.38500300  1
  Sb  Sb11  1  0.50768700  0.84287900  0.11499700  1
  Sb  Sb12  1  0.69943100  0.42665500  0.46893800  1
  Sb  Sb13  1  0.19943100  0.57334500  0.03106200  1
  Sb  Sb14  1  0.30056900  0.57334500  0.53106200  1
  Sb  Sb15  1  0.80056900  0.42665500  0.96893800  1
  Sb  Sb16  1  0.65591700  0.85296700  0.49780500  1
  Sb  Sb17  1  0.15591700  0.14703300  0.00219500  1
  Sb  Sb18  1  0.34408300  0.14703300  0.50219500  1
  Sb  Sb19  1  0.84408300  0.85296700  0.99780500  1
  Sb  Sb20  1  0.98157900  0.29819000  0.62328300  1
  Sb  Sb21  1  0.48157900  0.70181000  0.87671700  1
  Sb  Sb22  1  0.01842100  0.70181000  0.37671700  1
  Sb  Sb23  1  0.51842100  0.29819000  0.12328300  1
  S  S24  1  0.84811100  0.65510500  0.53619500  1
  S  S25  1  0.34811100  0.34489500  0.96380500  1
  S  S26  1  0.15188900  0.34489500  0.46380500  1
  S  S27  1  0.65188900  0.65510500  0.03619500  1
  S  S28  1  0.16441100  0.49748300  0.65055700  1
  S  S29  1  0.66441100  0.50251700  0.84944300  1
  S  S30  1  0.83558900  0.50251700  0.34944300  1
  S  S31  1  0.33558900  0.49748300  0.15055700  1
  S  S32  1  0.32890000  0.74128800  0.77317400  1
  S  S33  1  0.82890000  0.25871200  0.72682600  1
  S  S34  1  0.67110000  0.25871200  0.22682600  1
  S  S35  1  0.17110000  0.74128800  0.27317400  1
  S  S36  1  0.65662400  0.92615500  0.84750800  1
  S  S37  1  0.15662400  0.07384500  0.65249200  1
  S  S38  1  0.34337600  0.07384500  0.15249200  1
  S  S39  1  0.84337600  0.92615500  0.34750800  1
  S  S40  1  0.34621200  0.23348900  0.78255200  1
  S  S41  1  0.84621200  0.76651100  0.71744800  1
  S  S42  1  0.65378800  0.76651100  0.21744800  1
  S  S43  1  0.15378800  0.23348900  0.28255200  1
  S  S44  1  0.50501000  0.63141100  0.42707500  1
  S  S45  1  0.00501000  0.36858900  0.07292500  1
  S  S46  1  0.49499000  0.36858900  0.57292500  1
  S  S47  1  0.99499000  0.63141100  0.92707500  1
  S  S48  1  0.71096400  0.03401500  0.06477400  1
  S  S49  1  0.21096400  0.96598500  0.43522600  1
  S  S50  1  0.28903600  0.96598500  0.93522600  1
  S  S51  1  0.78903600  0.03401500  0.56477400  1
  S  S52  1  0.94558800  0.22341700  0.91514600  1
  S  S53  1  0.44558800  0.77658300  0.58485400  1
  S  S54  1  0.05441200  0.77658300  0.08485400  1
  S  S55  1  0.55441200  0.22341700  0.41514600  1
