# generated using pymatgen
data_CsC8
_symmetry_space_group_name_H-M   'P 1'
_cell_length_a   4.97653771
_cell_length_b   4.97653771
_cell_length_c   6.12733000
_cell_angle_alpha   90.00000000
_cell_angle_beta   90.00000000
_cell_angle_gamma   119.99999619
_symmetry_Int_Tables_number   1
_chemical_formula_structural   CsC8
_chemical_formula_sum   'Cs1 C8'
_cell_volume   131.41850378
_cell_formula_units_Z   1
loop_
 _symmetry_equiv_pos_site_id
 _symmetry_equiv_pos_as_xyz
  1  'x, y, z'
loop_
 _atom_site_type_symbol
 _atom_site_label
 _atom_site_symmetry_multiplicity
 _atom_site_fract_x
 _atom_site_fract_y
 _atom_site_fract_z
 _atom_site_occupancy
  Cs  Cs0  1  0.00000000  0.00000000  0.50000000  1
  C  C1  1  0.16654400  0.33308900  0.00000000  1
  C  C2  1  0.83345600  0.16654400  0.00000000  1
  C  C3  1  0.33308900  0.16654400  0.00000000  1
  C  C4  1  0.66691100  0.83345600  0.00000000  1
  C  C5  1  0.16654400  0.83345600  0.00000000  1
  C  C6  1  0.83345600  0.66691100  0.00000000  1
  C  C7  1  0.33333300  0.66666700  0.00000000  1
  C  C8  1  0.66666700  0.33333300  0.00000000  1
