# generated using pymatgen
data_SrAl4
_symmetry_space_group_name_H-M   'P 1'
_cell_length_a   6.44916150
_cell_length_b   6.44916150
_cell_length_c   6.44916150
_cell_angle_alpha   139.50090528
_cell_angle_beta   139.50090528
_cell_angle_gamma   58.61189258
_symmetry_Int_Tables_number   1
_chemical_formula_structural   SrAl4
_chemical_formula_sum   'Sr1 Al4'
_cell_volume   112.07863737
_cell_formula_units_Z   1
loop_
 _symmetry_equiv_pos_site_id
 _symmetry_equiv_pos_as_xyz
  1  'x, y, z'
loop_
 _atom_site_type_symbol
 _atom_site_label
 _atom_site_symmetry_multiplicity
 _atom_site_fract_x
 _atom_site_fract_y
 _atom_site_fract_z
 _atom_site_occupancy
  Sr  Sr0  1  0.00000000  0.00000000  0.00000000  1
  Al  Al1  1  0.25000000  0.75000000  0.50000000  1
  Al  Al2  1  0.75000000  0.25000000  0.50000000  1
  Al  Al3  1  0.38373000  0.38373000  0.00000000  1
  Al  Al4  1  0.61627000  0.61627000  0.00000000  1
