# generated using pymatgen
data_K3Nb2Se11
_symmetry_space_group_name_H-M   'P 1'
_cell_length_a   9.29574100
_cell_length_b   8.12249500
_cell_length_c   26.44960514
_cell_angle_alpha   80.17953327
_cell_angle_beta   90.00000000
_cell_angle_gamma   90.00000000
_symmetry_Int_Tables_number   1
_chemical_formula_structural   K3Nb2Se11
_chemical_formula_sum   'K12 Nb8 Se44'
_cell_volume   1967.80416063
_cell_formula_units_Z   4
loop_
 _symmetry_equiv_pos_site_id
 _symmetry_equiv_pos_as_xyz
  1  'x, y, z'
loop_
 _atom_site_type_symbol
 _atom_site_label
 _atom_site_symmetry_multiplicity
 _atom_site_fract_x
 _atom_site_fract_y
 _atom_site_fract_z
 _atom_site_occupancy
  K  K0  1  0.73275300  0.74150800  0.17236600  1
  K  K1  1  0.23275300  0.25849200  0.32763400  1
  K  K2  1  0.26724700  0.25849200  0.82763400  1
  K  K3  1  0.76724700  0.74150800  0.67236600  1
  K  K4  1  0.76156700  0.20112500  0.01484000  1
  K  K5  1  0.26156700  0.79887500  0.48516000  1
  K  K6  1  0.23843300  0.79887500  0.98516000  1
  K  K7  1  0.73843300  0.20112500  0.51484000  1
  K  K8  1  0.70136600  0.24690900  0.31577200  1
  K  K9  1  0.20136600  0.75309100  0.18422800  1
  K  K10  1  0.29863400  0.75309100  0.68422800  1
  K  K11  1  0.79863400  0.24690900  0.81577200  1
  Nb  Nb12  1  0.17312100  0.21435400  0.07900800  1
  Nb  Nb13  1  0.67312100  0.78564600  0.42099200  1
  Nb  Nb14  1  0.82687900  0.78564600  0.92099200  1
  Nb  Nb15  1  0.32687900  0.21435400  0.57900800  1
  Nb  Nb16  1  0.45821800  0.32727400  0.16924000  1
  Nb  Nb17  1  0.95821800  0.67272600  0.33076000  1
  Nb  Nb18  1  0.54178200  0.67272600  0.83076000  1
  Nb  Nb19  1  0.04178200  0.32727400  0.66924000  1
  Se  Se20  1  0.46141700  0.49339200  0.23614300  1
  Se  Se21  1  0.96141700  0.50660800  0.26385700  1
  Se  Se22  1  0.53858300  0.50660800  0.76385700  1
  Se  Se23  1  0.03858300  0.49339200  0.73614300  1
  Se  Se24  1  0.60277400  0.48412600  0.09229600  1
  Se  Se25  1  0.10277400  0.51587400  0.40770400  1
  Se  Se26  1  0.39722600  0.51587400  0.90770300  1
  Se  Se27  1  0.89722600  0.48412600  0.59229700  1
  Se  Se28  1  0.01124500  0.98126800  0.08715600  1
  Se  Se29  1  0.51124500  0.01873200  0.41284400  1
  Se  Se30  1  0.98875500  0.01873200  0.91284400  1
  Se  Se31  1  0.48875500  0.98126800  0.58715600  1
  Se  Se32  1  0.69132600  0.14333000  0.19263500  1
  Se  Se33  1  0.19132600  0.85667000  0.30736500  1
  Se  Se34  1  0.30867400  0.85667000  0.80736500  1
  Se  Se35  1  0.80867400  0.14333000  0.69263500  1
  Se  Se36  1  0.46670100  0.02327800  0.22425800  1
  Se  Se37  1  0.96670100  0.97672200  0.27574200  1
  Se  Se38  1  0.53329900  0.97672200  0.77574200  1
  Se  Se39  1  0.03329900  0.02327800  0.72425800  1
  Se  Se40  1  0.03426700  0.43495900  0.12186500  1
  Se  Se41  1  0.53426700  0.56504100  0.37813500  1
  Se  Se42  1  0.96573300  0.56504100  0.87813500  1
  Se  Se43  1  0.46573300  0.43495900  0.62186500  1
  Se  Se44  1  0.37672700  0.16748100  0.01535400  1
  Se  Se45  1  0.87672700  0.83251900  0.48464600  1
  Se  Se46  1  0.62327300  0.83251900  0.98464600  1
  Se  Se47  1  0.12327300  0.16748100  0.51535400  1
  Se  Se48  1  0.09166400  0.40122300  0.99162900  1
  Se  Se49  1  0.59166400  0.59877700  0.50837100  1
  Se  Se50  1  0.90833600  0.59877700  0.00837100  1
  Se  Se51  1  0.40833600  0.40122300  0.49162900  1
  Se  Se52  1  0.34577500  0.51973400  0.09114300  1
  Se  Se53  1  0.84577500  0.48026600  0.40885700  1
  Se  Se54  1  0.65422500  0.48026600  0.90885700  1
  Se  Se55  1  0.15422500  0.51973400  0.59114300  1
  Se  Se56  1  0.17653600  0.23786400  0.17898000  1
  Se  Se57  1  0.67653600  0.76213600  0.32102000  1
  Se  Se58  1  0.82346400  0.76213600  0.82102000  1
  Se  Se59  1  0.32346400  0.23786400  0.67898000  1
  Se  Se60  1  0.41778100  0.06085400  0.10489900  1
  Se  Se61  1  0.91778100  0.93914600  0.39510100  1
  Se  Se62  1  0.58221900  0.93914600  0.89510100  1
  Se  Se63  1  0.08221900  0.06085400  0.60489900  1
