# generated using pymatgen
data_CsEu2I5
_symmetry_space_group_name_H-M   'P 1'
_cell_length_a   9.20404200
_cell_length_b   10.31771700
_cell_length_c   14.46814074
_cell_angle_alpha   89.45992870
_cell_angle_beta   90.00000000
_cell_angle_gamma   90.00000000
_symmetry_Int_Tables_number   1
_chemical_formula_structural   CsEu2I5
_chemical_formula_sum   'Cs4 Eu8 I20'
_cell_volume   1373.90161618
_cell_formula_units_Z   4
loop_
 _symmetry_equiv_pos_site_id
 _symmetry_equiv_pos_as_xyz
  1  'x, y, z'
loop_
 _atom_site_type_symbol
 _atom_site_label
 _atom_site_symmetry_multiplicity
 _atom_site_fract_x
 _atom_site_fract_y
 _atom_site_fract_z
 _atom_site_occupancy
  Cs  Cs0  1  0.94314300  0.50749500  0.16729600  1
  Cs  Cs1  1  0.44314300  0.49250500  0.33270400  1
  Cs  Cs2  1  0.05685700  0.49250500  0.83270400  1
  Cs  Cs3  1  0.55685700  0.50749500  0.66729600  1
  Eu  Eu4  1  0.52620600  0.00354300  0.68114100  1
  Eu  Eu5  1  0.02620600  0.99645700  0.81885900  1
  Eu  Eu6  1  0.47379400  0.99645700  0.31885900  1
  Eu  Eu7  1  0.97379400  0.00354300  0.18114100  1
  Eu  Eu8  1  0.57181500  0.24370600  0.99372200  1
  Eu  Eu9  1  0.07181500  0.75629400  0.50627800  1
  Eu  Eu10  1  0.42818500  0.75629400  0.00627800  1
  Eu  Eu11  1  0.92818500  0.24370600  0.49372200  1
  I  I12  1  0.84161800  0.78919200  0.68350700  1
  I  I13  1  0.34161800  0.21080800  0.81649300  1
  I  I14  1  0.15838200  0.21080800  0.31649300  1
  I  I15  1  0.65838200  0.78919200  0.18350700  1
  I  I16  1  0.81350100  0.21861600  0.71449800  1
  I  I17  1  0.31350100  0.78138400  0.78550200  1
  I  I18  1  0.18649900  0.78138400  0.28550200  1
  I  I19  1  0.68649900  0.21861600  0.21449800  1
  I  I20  1  0.67353800  0.53524600  0.92526300  1
  I  I21  1  0.17353800  0.46475400  0.57473700  1
  I  I22  1  0.32646200  0.46475400  0.07473700  1
  I  I23  1  0.82646200  0.53524600  0.42526300  1
  I  I24  1  0.83897800  0.95818700  0.40086900  1
  I  I25  1  0.33897800  0.04181300  0.09913100  1
  I  I26  1  0.16102200  0.04181300  0.59913100  1
  I  I27  1  0.66102200  0.95818700  0.90086900  1
  I  I28  1  0.95182300  0.20449100  0.99663500  1
  I  I29  1  0.45182300  0.79550900  0.50336500  1
  I  I30  1  0.04817700  0.79550900  0.00336500  1
  I  I31  1  0.54817700  0.20449100  0.49663500  1
