# generated using pymatgen
data_Na3B5S9
_symmetry_space_group_name_H-M   'P 1'
_cell_length_a   16.71574913
_cell_length_b   16.71574913
_cell_length_c   16.71574913
_cell_angle_alpha   128.39683905
_cell_angle_beta   128.39683905
_cell_angle_gamma   75.98304075
_symmetry_Int_Tables_number   1
_chemical_formula_structural   Na3B5S9
_chemical_formula_sum   'Na24 B40 S72'
_cell_volume   2789.39025788
_cell_formula_units_Z   8
loop_
 _symmetry_equiv_pos_site_id
 _symmetry_equiv_pos_as_xyz
  1  'x, y, z'
loop_
 _atom_site_type_symbol
 _atom_site_label
 _atom_site_symmetry_multiplicity
 _atom_site_fract_x
 _atom_site_fract_y
 _atom_site_fract_z
 _atom_site_occupancy
  Na  Na0  1  0.37500000  0.12500000  0.25000000  1
  Na  Na1  1  0.87500000  0.12500000  0.25000000  1
  Na  Na2  1  0.87500000  0.62500000  0.75000000  1
  Na  Na3  1  0.87500000  0.62500000  0.25000000  1
  Na  Na4  1  0.37500000  0.62500000  0.75000000  1
  Na  Na5  1  0.37500000  0.62500000  0.25000000  1
  Na  Na6  1  0.37500000  0.12500000  0.75000000  1
  Na  Na7  1  0.87500000  0.12500000  0.75000000  1
  Na  Na8  1  0.53827300  0.87500000  0.16327300  1
  Na  Na9  1  0.62500000  0.96172700  0.83672700  1
  Na  Na10  1  0.12500000  0.78827300  0.16327300  1
  Na  Na11  1  0.71172700  0.37500000  0.83672700  1
  Na  Na12  1  0.21172700  0.37500000  0.33672700  1
  Na  Na13  1  0.12500000  0.28827300  0.66327300  1
  Na  Na14  1  0.62500000  0.46172700  0.33672700  1
  Na  Na15  1  0.03827300  0.87500000  0.66327300  1
  Na  Na16  1  0.54607100  0.54607100  0.59214100  1
  Na  Na17  1  0.29607100  0.20392900  0.50000000  1
  Na  Na18  1  0.70392900  0.79607100  0.50000000  1
  Na  Na19  1  0.95392900  0.95392900  0.40785900  1
  Na  Na20  1  0.20392900  0.70392900  0.90785900  1
  Na  Na21  1  0.45392900  0.04607100  0.00000000  1
  Na  Na22  1  0.04607100  0.45392900  0.00000000  1
  Na  Na23  1  0.79607100  0.29607100  0.09214100  1
  B  B24  1  0.59909900  0.27443900  0.37372600  1
  B  B25  1  0.02443900  0.15071300  0.17534000  1
  B  B26  1  0.97537300  0.84909900  0.82466000  1
  B  B27  1  0.65090100  0.52462700  0.17534000  1
  B  B28  1  0.34928700  0.47556100  0.82466000  1
  B  B29  1  0.27462700  0.59928700  0.37372600  1
  B  B30  1  0.22556100  0.90090100  0.62627400  1
  B  B31  1  0.90071300  0.22537300  0.62627400  1
  B  B32  1  0.15090100  0.97556100  0.12627400  1
  B  B33  1  0.72556100  0.09928700  0.32466000  1
  B  B34  1  0.77462700  0.40090100  0.67534000  1
  B  B35  1  0.09909900  0.72537300  0.32466000  1
  B  B36  1  0.40071300  0.77443900  0.67534000  1
  B  B37  1  0.47537300  0.65071300  0.12627400  1
  B  B38  1  0.52443900  0.34909900  0.87372600  1
  B  B39  1  0.84928700  0.02462700  0.87372600  1
  B  B40  1  0.66540000  0.16540000  0.50000000  1
  B  B41  1  0.91540000  0.91540000  0.00000000  1
  B  B42  1  0.58460000  0.58460000  0.00000000  1
  B  B43  1  0.33460000  0.83460000  0.50000000  1
  B  B44  1  0.08460000  0.08460000  0.00000000  1
  B  B45  1  0.83460000  0.33460000  0.50000000  1
  B  B46  1  0.16540000  0.66540000  0.50000000  1
  B  B47  1  0.41540000  0.41540000  0.00000000  1
  B  B48  1  0.54533500  0.33485100  0.54639100  1
  B  B49  1  0.08485100  0.03846000  0.28951600  1
  B  B50  1  0.74894400  0.79533500  0.71048400  1
  B  B51  1  0.70466500  0.75105600  0.28951600  1
  B  B52  1  0.46154000  0.41514900  0.71048400  1
  B  B53  1  0.50105600  0.71154000  0.54639100  1
  B  B54  1  0.16514900  0.95466500  0.45360900  1
  B  B55  1  0.78846000  0.99894400  0.45360900  1
  B  B56  1  0.20466500  0.91514900  0.95360900  1
  B  B57  1  0.66514900  0.21154000  0.21048400  1
  B  B58  1  0.00105600  0.45466500  0.78951600  1
  B  B59  1  0.04533500  0.49894400  0.21048400  1
  B  B60  1  0.28846000  0.83485100  0.78951600  1
  B  B61  1  0.24894400  0.53846000  0.95360900  1
  B  B62  1  0.58485100  0.29533500  0.04639100  1
  B  B63  1  0.96154000  0.25105600  0.04639100  1
  S  S64  1  0.61675500  0.14165400  0.34509400  1
  S  S65  1  0.89165400  0.04656100  0.02489900  1
  S  S66  1  0.02166100  0.86675500  0.97510100  1
  S  S67  1  0.63324500  0.47833900  0.02489900  1
  S  S68  1  0.45343900  0.60834600  0.97510100  1
  S  S69  1  0.22833900  0.70343900  0.34509400  1
  S  S70  1  0.35834600  0.88324500  0.65490600  1
  S  S71  1  0.79656100  0.27166100  0.65490600  1
  S  S72  1  0.13324500  0.10834600  0.15490600  1
  S  S73  1  0.85834600  0.20343900  0.47510100  1
  S  S74  1  0.72833900  0.38324500  0.52489900  1
  S  S75  1  0.11675500  0.77166100  0.47510100  1
  S  S76  1  0.29656100  0.64165400  0.52489900  1
  S  S77  1  0.52166100  0.54656100  0.15490600  1
  S  S78  1  0.39165400  0.36675500  0.84509400  1
  S  S79  1  0.95343900  0.97833900  0.84509400  1
  S  S80  1  0.67287900  0.44673900  0.70321900  1
  S  S81  1  0.19673900  0.99352000  0.27386100  1
  S  S82  1  0.71966000  0.92287900  0.72613900  1
  S  S83  1  0.57712100  0.78034000  0.27386100  1
  S  S84  1  0.50648000  0.30326100  0.72613900  1
  S  S85  1  0.53034000  0.75648000  0.70321900  1
  S  S86  1  0.05326100  0.82712100  0.29678100  1
  S  S87  1  0.74352000  0.96966000  0.29678100  1
  S  S88  1  0.07712100  0.80326100  0.79678100  1
  S  S89  1  0.55326100  0.25648000  0.22613900  1
  S  S90  1  0.03034000  0.32712100  0.77386100  1
  S  S91  1  0.17287900  0.46966000  0.22613900  1
  S  S92  1  0.24352000  0.94673900  0.77386100  1
  S  S93  1  0.21966000  0.49352000  0.79678100  1
  S  S94  1  0.69673900  0.42287900  0.20321900  1
  S  S95  1  0.00648000  0.28034000  0.20321900  1
  S  S96  1  0.49344800  0.32051500  0.39540800  1
  S  S97  1  0.07051500  0.17510700  0.32706800  1
  S  S98  1  0.84804000  0.74344800  0.67293200  1
  S  S99  1  0.75655200  0.65196000  0.32706800  1
  S  S100  1  0.32489300  0.42948500  0.67293200  1
  S  S101  1  0.40196000  0.57489300  0.39540800  1
  S  S102  1  0.17948500  0.00655200  0.60459200  1
  S  S103  1  0.92510700  0.09804000  0.60459200  1
  S  S104  1  0.25655200  0.92948500  0.10459200  1
  S  S105  1  0.67948500  0.07489300  0.17293200  1
  S  S106  1  0.90196000  0.50655200  0.82706800  1
  S  S107  1  0.99344800  0.59804000  0.17293200  1
  S  S108  1  0.42510700  0.82051500  0.82706800  1
  S  S109  1  0.34804000  0.67510700  0.10459200  1
  S  S110  1  0.57051500  0.24344800  0.89540800  1
  S  S111  1  0.82489300  0.15196000  0.89540800  1
  S  S112  1  0.55991100  0.20483900  0.52017100  1
  S  S113  1  0.95483900  0.93466800  0.14492800  1
  S  S114  1  0.78974000  0.80991100  0.85507200  1
  S  S115  1  0.69008900  0.71026000  0.14492800  1
  S  S116  1  0.56533200  0.54516100  0.85507200  1
  S  S117  1  0.46026000  0.81533200  0.52017100  1
  S  S118  1  0.29516100  0.94008900  0.47982900  1
  S  S119  1  0.68466800  0.03974000  0.47982900  1
  S  S120  1  0.19008900  0.04516100  0.97982900  1
  S  S121  1  0.79516100  0.31533200  0.35507200  1
  S  S122  1  0.96026000  0.44008900  0.64492800  1
  S  S123  1  0.05991100  0.53974000  0.35507200  1
  S  S124  1  0.18466800  0.70483900  0.64492800  1
  S  S125  1  0.28974000  0.43466800  0.97982900  1
  S  S126  1  0.45483900  0.30991100  0.02017100  1
  S  S127  1  0.06533200  0.21026000  0.02017100  1
  S  S128  1  0.42908800  0.37500000  0.55408800  1
  S  S129  1  0.12500000  0.07091200  0.44591200  1
  S  S130  1  0.62500000  0.67908800  0.55408800  1
  S  S131  1  0.82091200  0.87500000  0.44591200  1
  S  S132  1  0.32091200  0.87500000  0.94591200  1
  S  S133  1  0.62500000  0.17908800  0.05408800  1
  S  S134  1  0.12500000  0.57091200  0.94591200  1
  S  S135  1  0.92908800  0.37500000  0.05408800  1
