# generated using pymatgen
data_K(V5S8)2
_symmetry_space_group_name_H-M   'P 1'
_cell_length_a   6.47140600
_cell_length_b   8.48001500
_cell_length_c   17.55674836
_cell_angle_alpha   75.66669834
_cell_angle_beta   90.00000000
_cell_angle_gamma   90.00000000
_symmetry_Int_Tables_number   1
_chemical_formula_structural   K(V5S8)2
_chemical_formula_sum   'K2 V20 S32'
_cell_volume   933.48159575
_cell_formula_units_Z   2
loop_
 _symmetry_equiv_pos_site_id
 _symmetry_equiv_pos_as_xyz
  1  'x, y, z'
loop_
 _atom_site_type_symbol
 _atom_site_label
 _atom_site_symmetry_multiplicity
 _atom_site_fract_x
 _atom_site_fract_y
 _atom_site_fract_z
 _atom_site_occupancy
  K  K0  1  0.37519000  0.00000000  0.75000000  1
  K  K1  1  0.62481000  0.00000000  0.25000000  1
  V  V2  1  0.63054400  0.85879100  0.04013200  1
  V  V3  1  0.63054400  0.14120900  0.45986800  1
  V  V4  1  0.12691500  0.86118800  0.03939500  1
  V  V5  1  0.12691500  0.13881200  0.46060500  1
  V  V6  1  0.36945600  0.85879100  0.54013200  1
  V  V7  1  0.36945600  0.14120900  0.95986800  1
  V  V8  1  0.87308500  0.86118800  0.53939500  1
  V  V9  1  0.87308500  0.13881200  0.96060500  1
  V  V10  1  0.37943800  0.50588800  0.89774400  1
  V  V11  1  0.37943800  0.49411200  0.60225600  1
  V  V12  1  0.87840600  0.50463300  0.89737000  1
  V  V13  1  0.87840600  0.49536700  0.60263000  1
  V  V14  1  0.62056200  0.50588800  0.39774400  1
  V  V15  1  0.62056200  0.49411200  0.10225600  1
  V  V16  1  0.12159400  0.50463300  0.39737000  1
  V  V17  1  0.12159400  0.49536700  0.10263000  1
  V  V18  1  0.65533600  0.50000000  0.75000000  1
  V  V19  1  0.10323200  0.50000000  0.75000000  1
  V  V20  1  0.34466400  0.50000000  0.25000000  1
  V  V21  1  0.89676800  0.50000000  0.25000000  1
  S  S22  1  0.62843100  0.32711000  0.32221400  1
  S  S23  1  0.87927000  0.31416700  0.82646300  1
  S  S24  1  0.62971300  0.99464500  0.91147800  1
  S  S25  1  0.62971300  0.00535500  0.58852200  1
  S  S26  1  0.12756800  0.99549100  0.91048300  1
  S  S27  1  0.12756800  0.00450900  0.58951700  1
  S  S28  1  0.37028700  0.99464500  0.41147800  1
  S  S29  1  0.37028700  0.00535500  0.08852200  1
  S  S30  1  0.87243200  0.99549100  0.41048300  1
  S  S31  1  0.87243200  0.00450900  0.08951700  1
  S  S32  1  0.37870400  0.66014000  0.00951900  1
  S  S33  1  0.37870400  0.33986000  0.49048100  1
  S  S34  1  0.87861300  0.65819800  0.00933200  1
  S  S35  1  0.87861300  0.34180200  0.49066800  1
  S  S36  1  0.12138700  0.65819800  0.50933200  1
  S  S37  1  0.12138700  0.34180200  0.99066800  1
  S  S38  1  0.62129600  0.66014000  0.50951900  1
  S  S39  1  0.62129600  0.33986000  0.99048100  1
  S  S40  1  0.63273200  0.68475900  0.83366100  1
  S  S41  1  0.63273200  0.31524100  0.66633900  1
  S  S42  1  0.12531100  0.68415200  0.83388600  1
  S  S43  1  0.12531100  0.31584800  0.66611400  1
  S  S44  1  0.36726800  0.68475900  0.33366100  1
  S  S45  1  0.36726800  0.31524100  0.16633900  1
  S  S46  1  0.87468900  0.68415200  0.33388600  1
  S  S47  1  0.87468900  0.31584800  0.16611400  1
  S  S48  1  0.62843100  0.67289000  0.17778600  1
  S  S49  1  0.37156900  0.32711000  0.82221400  1
  S  S50  1  0.12073000  0.68583300  0.17353700  1
  S  S51  1  0.12073000  0.31416700  0.32646300  1
  S  S52  1  0.37156900  0.67289000  0.67778600  1
  S  S53  1  0.87927000  0.68583300  0.67353700  1
