# generated using pymatgen
data_FeBPbO4
_symmetry_space_group_name_H-M   'P 1'
_cell_length_a   6.03230000
_cell_length_b   7.09786200
_cell_length_c   8.56492400
_cell_angle_alpha   90.00000000
_cell_angle_beta   90.00000000
_cell_angle_gamma   90.00000000
_symmetry_Int_Tables_number   1
_chemical_formula_structural   FeBPbO4
_chemical_formula_sum   'Fe4 B4 Pb4 O16'
_cell_volume   366.71949410
_cell_formula_units_Z   4
loop_
 _symmetry_equiv_pos_site_id
 _symmetry_equiv_pos_as_xyz
  1  'x, y, z'
loop_
 _atom_site_type_symbol
 _atom_site_label
 _atom_site_symmetry_multiplicity
 _atom_site_fract_x
 _atom_site_fract_y
 _atom_site_fract_z
 _atom_site_occupancy
  Fe  Fe0  1  0.00000000  0.50000000  0.50000000  1
  Fe  Fe1  1  0.50000000  0.50000000  0.50000000  1
  Fe  Fe2  1  0.50000000  0.00000000  0.00000000  1
  Fe  Fe3  1  0.00000000  0.00000000  0.00000000  1
  B  B4  1  0.25000000  0.78035900  0.73408200  1
  B  B5  1  0.25000000  0.28035900  0.76591800  1
  B  B6  1  0.75000000  0.71964100  0.23408200  1
  B  B7  1  0.75000000  0.21964100  0.26591800  1
  Pb  Pb8  1  0.25000000  0.56144800  0.14728500  1
  Pb  Pb9  1  0.75000000  0.43855200  0.85271500  1
  Pb  Pb10  1  0.25000000  0.06144800  0.35271500  1
  Pb  Pb11  1  0.75000000  0.93855200  0.64728500  1
  O  O12  1  0.05083800  0.33020800  0.69489400  1
  O  O13  1  0.55083800  0.66979200  0.30510600  1
  O  O14  1  0.44916200  0.83020800  0.80510600  1
  O  O15  1  0.94916200  0.16979200  0.19489400  1
  O  O16  1  0.25000000  0.18559800  0.90810600  1
  O  O17  1  0.75000000  0.31440200  0.40810600  1
  O  O18  1  0.75000000  0.81440200  0.09189400  1
  O  O19  1  0.25000000  0.68559800  0.59189400  1
  O  O20  1  0.25000000  0.89396500  0.11472800  1
  O  O21  1  0.75000000  0.10603500  0.88527200  1
  O  O22  1  0.25000000  0.39396500  0.38527200  1
  O  O23  1  0.75000000  0.60603500  0.61472800  1
  O  O24  1  0.05083800  0.83020800  0.80510600  1
  O  O25  1  0.55083800  0.16979200  0.19489400  1
  O  O26  1  0.44916200  0.33020800  0.69489400  1
  O  O27  1  0.94916200  0.66979200  0.30510600  1
