# generated using pymatgen
data_NiBi3
_symmetry_space_group_name_H-M   'P 1'
_cell_length_a   4.15882300
_cell_length_b   8.90949000
_cell_length_c   11.54692500
_cell_angle_alpha   90.00000000
_cell_angle_beta   90.00000000
_cell_angle_gamma   90.00000000
_symmetry_Int_Tables_number   1
_chemical_formula_structural   NiBi3
_chemical_formula_sum   'Ni4 Bi12'
_cell_volume   427.84811884
_cell_formula_units_Z   4
loop_
 _symmetry_equiv_pos_site_id
 _symmetry_equiv_pos_as_xyz
  1  'x, y, z'
loop_
 _atom_site_type_symbol
 _atom_site_label
 _atom_site_symmetry_multiplicity
 _atom_site_fract_x
 _atom_site_fract_y
 _atom_site_fract_z
 _atom_site_occupancy
  Ni  Ni0  1  0.25000000  0.08909200  0.48102200  1
  Ni  Ni1  1  0.75000000  0.91090800  0.51897800  1
  Ni  Ni2  1  0.25000000  0.58909200  0.01897800  1
  Ni  Ni3  1  0.75000000  0.41090800  0.98102200  1
  Bi  Bi4  1  0.75000000  0.20171000  0.60944000  1
  Bi  Bi5  1  0.25000000  0.79829000  0.39056000  1
  Bi  Bi6  1  0.75000000  0.70171000  0.89056000  1
  Bi  Bi7  1  0.25000000  0.29829000  0.10944000  1
  Bi  Bi8  1  0.75000000  0.11972200  0.90775500  1
  Bi  Bi9  1  0.25000000  0.88027800  0.09224500  1
  Bi  Bi10  1  0.75000000  0.61972200  0.59224500  1
  Bi  Bi11  1  0.25000000  0.38027800  0.40775500  1
  Bi  Bi12  1  0.25000000  0.41054100  0.82273000  1
  Bi  Bi13  1  0.75000000  0.58945900  0.17727000  1
  Bi  Bi14  1  0.25000000  0.91054100  0.67727000  1
  Bi  Bi15  1  0.75000000  0.08945900  0.32273000  1
