# generated using pymatgen
data_Na3BiO3
_symmetry_space_group_name_H-M   'P 1'
_cell_length_a   8.46866324
_cell_length_b   8.46866324
_cell_length_c   8.46866324
_cell_angle_alpha   109.47122063
_cell_angle_beta   109.47122063
_cell_angle_gamma   109.47122063
_symmetry_Int_Tables_number   1
_chemical_formula_structural   Na3BiO3
_chemical_formula_sum   'Na12 Bi4 O12'
_cell_volume   467.54422690
_cell_formula_units_Z   4
loop_
 _symmetry_equiv_pos_site_id
 _symmetry_equiv_pos_as_xyz
  1  'x, y, z'
loop_
 _atom_site_type_symbol
 _atom_site_label
 _atom_site_symmetry_multiplicity
 _atom_site_fract_x
 _atom_site_fract_y
 _atom_site_fract_z
 _atom_site_occupancy
  Na  Na0  1  0.24634700  0.72161800  0.72161800  1
  Na  Na1  1  0.72161800  0.72161800  0.24634700  1
  Na  Na2  1  0.72161800  0.24634700  0.72161800  1
  Na  Na3  1  0.00000000  0.52472900  0.27838200  1
  Na  Na4  1  0.00000000  0.27838200  0.52472900  1
  Na  Na5  1  0.75365300  0.47527100  0.47527100  1
  Na  Na6  1  0.47527100  0.47527100  0.75365300  1
  Na  Na7  1  0.52472900  0.27838200  0.00000000  1
  Na  Na8  1  0.27838200  0.00000000  0.52472900  1
  Na  Na9  1  0.52472900  0.00000000  0.27838200  1
  Na  Na10  1  0.47527100  0.75365300  0.47527100  1
  Na  Na11  1  0.27838200  0.52472900  0.00000000  1
  Bi  Bi12  1  0.00000000  0.71468300  0.00000000  1
  Bi  Bi13  1  0.00000000  0.00000000  0.71468300  1
  Bi  Bi14  1  0.28531700  0.28531700  0.28531700  1
  Bi  Bi15  1  0.71468300  0.00000000  0.00000000  1
  O  O16  1  0.48433700  0.25596700  0.48433700  1
  O  O17  1  0.25596700  0.48433700  0.48433700  1
  O  O18  1  0.48433700  0.48433700  0.25596700  1
  O  O19  1  0.51566300  0.77163100  0.00000000  1
  O  O20  1  0.77163100  0.00000000  0.51566300  1
  O  O21  1  0.51566300  0.00000000  0.77163100  1
  O  O22  1  0.22836900  0.74403300  0.22836900  1
  O  O23  1  0.77163100  0.51566300  0.00000000  1
  O  O24  1  0.00000000  0.51566300  0.77163100  1
  O  O25  1  0.22836900  0.22836900  0.74403300  1
  O  O26  1  0.74403300  0.22836900  0.22836900  1
  O  O27  1  0.00000000  0.77163100  0.51566300  1
