# generated using pymatgen
data_Cd(W3Br7)2
_symmetry_space_group_name_H-M   'P 1'
_cell_length_a   13.70908200
_cell_length_b   13.70908200
_cell_length_c   13.70908200
_cell_angle_alpha   90.00000000
_cell_angle_beta   90.00000000
_cell_angle_gamma   90.00000000
_symmetry_Int_Tables_number   1
_chemical_formula_structural   Cd(W3Br7)2
_chemical_formula_sum   'Cd4 W24 Br56'
_cell_volume   2576.47019253
_cell_formula_units_Z   4
loop_
 _symmetry_equiv_pos_site_id
 _symmetry_equiv_pos_as_xyz
  1  'x, y, z'
loop_
 _atom_site_type_symbol
 _atom_site_label
 _atom_site_symmetry_multiplicity
 _atom_site_fract_x
 _atom_site_fract_y
 _atom_site_fract_z
 _atom_site_occupancy
  Cd  Cd0  1  0.75000000  0.75000000  0.75000000  1
  Cd  Cd1  1  0.25000000  0.25000000  0.75000000  1
  Cd  Cd2  1  0.75000000  0.25000000  0.25000000  1
  Cd  Cd3  1  0.25000000  0.75000000  0.25000000  1
  W  W4  1  0.27348500  0.88191000  0.77875900  1
  W  W5  1  0.77875900  0.27348500  0.88191000  1
  W  W6  1  0.88191000  0.77875900  0.27348500  1
  W  W7  1  0.11809000  0.22124100  0.27348500  1
  W  W8  1  0.77875900  0.72651500  0.11809000  1
  W  W9  1  0.11809000  0.77875900  0.72651500  1
  W  W10  1  0.22124100  0.72651500  0.88191000  1
  W  W11  1  0.22124100  0.27348500  0.11809000  1
  W  W12  1  0.88191000  0.22124100  0.72651500  1
  W  W13  1  0.27348500  0.11809000  0.22124100  1
  W  W14  1  0.72651500  0.88191000  0.22124100  1
  W  W15  1  0.72651500  0.11809000  0.77875900  1
  W  W16  1  0.22651500  0.61809000  0.72124100  1
  W  W17  1  0.72124100  0.22651500  0.61809000  1
  W  W18  1  0.61809000  0.72124100  0.22651500  1
  W  W19  1  0.38191000  0.27875900  0.22651500  1
  W  W20  1  0.72124100  0.77348500  0.38191000  1
  W  W21  1  0.38191000  0.72124100  0.77348500  1
  W  W22  1  0.27875900  0.77348500  0.61809000  1
  W  W23  1  0.27875900  0.22651500  0.38191000  1
  W  W24  1  0.61809000  0.27875900  0.77348500  1
  W  W25  1  0.22651500  0.38191000  0.27875900  1
  W  W26  1  0.77348500  0.61809000  0.27875900  1
  W  W27  1  0.77348500  0.38191000  0.72124100  1
  Br  Br28  1  0.17146200  0.93357700  0.62395100  1
  Br  Br29  1  0.62395100  0.17146200  0.93357700  1
  Br  Br30  1  0.93357700  0.62395100  0.17146200  1
  Br  Br31  1  0.06642300  0.37604900  0.17146200  1
  Br  Br32  1  0.62395100  0.82853800  0.06642300  1
  Br  Br33  1  0.06642300  0.62395100  0.82853800  1
  Br  Br34  1  0.37604900  0.82853800  0.93357700  1
  Br  Br35  1  0.37604900  0.17146200  0.06642300  1
  Br  Br36  1  0.93357700  0.37604900  0.82853800  1
  Br  Br37  1  0.17146200  0.06642300  0.37604900  1
  Br  Br38  1  0.82853800  0.93357700  0.37604900  1
  Br  Br39  1  0.82853800  0.06642300  0.62395100  1
  Br  Br40  1  0.32853800  0.56642300  0.87604900  1
  Br  Br41  1  0.87604900  0.32853800  0.56642300  1
  Br  Br42  1  0.56642300  0.87604900  0.32853800  1
  Br  Br43  1  0.43357700  0.12395100  0.32853800  1
  Br  Br44  1  0.87604900  0.67146200  0.43357700  1
  Br  Br45  1  0.43357700  0.87604900  0.67146200  1
  Br  Br46  1  0.12395100  0.67146200  0.56642300  1
  Br  Br47  1  0.12395100  0.32853800  0.43357700  1
  Br  Br48  1  0.56642300  0.12395100  0.67146200  1
  Br  Br49  1  0.32853800  0.43357700  0.12395100  1
  Br  Br50  1  0.67146200  0.56642300  0.12395100  1
  Br  Br51  1  0.67146200  0.43357700  0.87604900  1
  Br  Br52  1  0.56613100  0.67434200  0.81206800  1
  Br  Br53  1  0.81206800  0.56613100  0.67434200  1
  Br  Br54  1  0.67434200  0.81206800  0.56613100  1
  Br  Br55  1  0.32565800  0.18793200  0.56613100  1
  Br  Br56  1  0.81206800  0.43386900  0.32565800  1
  Br  Br57  1  0.32565800  0.81206800  0.43386900  1
  Br  Br58  1  0.18793200  0.43386900  0.67434200  1
  Br  Br59  1  0.18793200  0.56613100  0.32565800  1
  Br  Br60  1  0.67434200  0.18793200  0.43386900  1
  Br  Br61  1  0.56613100  0.32565800  0.18793200  1
  Br  Br62  1  0.43386900  0.67434200  0.18793200  1
  Br  Br63  1  0.43386900  0.32565800  0.81206800  1
  Br  Br64  1  0.93386900  0.82565800  0.68793200  1
  Br  Br65  1  0.68793200  0.93386900  0.82565800  1
  Br  Br66  1  0.82565800  0.68793200  0.93386900  1
  Br  Br67  1  0.17434200  0.31206800  0.93386900  1
  Br  Br68  1  0.68793200  0.06613100  0.17434200  1
  Br  Br69  1  0.17434200  0.68793200  0.06613100  1
  Br  Br70  1  0.31206800  0.06613100  0.82565800  1
  Br  Br71  1  0.31206800  0.93386900  0.17434200  1
  Br  Br72  1  0.82565800  0.31206800  0.06613100  1
  Br  Br73  1  0.93386900  0.17434200  0.31206800  1
  Br  Br74  1  0.06613100  0.82565800  0.31206800  1
  Br  Br75  1  0.06613100  0.17434200  0.68793200  1
  Br  Br76  1  0.38703700  0.38703700  0.38703700  1
  Br  Br77  1  0.61296300  0.61296300  0.38703700  1
  Br  Br78  1  0.38703700  0.61296300  0.61296300  1
  Br  Br79  1  0.61296300  0.38703700  0.61296300  1
  Br  Br80  1  0.11296300  0.11296300  0.11296300  1
  Br  Br81  1  0.88703700  0.88703700  0.11296300  1
  Br  Br82  1  0.11296300  0.88703700  0.88703700  1
  Br  Br83  1  0.88703700  0.11296300  0.88703700  1
