# generated using pymatgen
data_K2PuCl5
_symmetry_space_group_name_H-M   'P 1'
_cell_length_a   8.03115900
_cell_length_b   8.57492000
_cell_length_c   13.06594700
_cell_angle_alpha   90.00000000
_cell_angle_beta   90.00000000
_cell_angle_gamma   90.00000000
_symmetry_Int_Tables_number   1
_chemical_formula_structural   K2PuCl5
_chemical_formula_sum   'K8 Pu4 Cl20'
_cell_volume   899.80663922
_cell_formula_units_Z   4
loop_
 _symmetry_equiv_pos_site_id
 _symmetry_equiv_pos_as_xyz
  1  'x, y, z'
loop_
 _atom_site_type_symbol
 _atom_site_label
 _atom_site_symmetry_multiplicity
 _atom_site_fract_x
 _atom_site_fract_y
 _atom_site_fract_z
 _atom_site_occupancy
  K  K0  1  0.53796300  0.49231000  0.32259800  1
  K  K1  1  0.96203700  0.49231000  0.82259800  1
  K  K2  1  0.03796300  0.50769000  0.17740200  1
  K  K3  1  0.53796300  0.00769000  0.32259800  1
  K  K4  1  0.46203700  0.50769000  0.67740200  1
  K  K5  1  0.46203700  0.99231000  0.67740200  1
  K  K6  1  0.96203700  0.00769000  0.82259800  1
  K  K7  1  0.03796300  0.99231000  0.17740200  1
  Pu  Pu8  1  0.06603800  0.25000000  0.49413400  1
  Pu  Pu9  1  0.43396200  0.25000000  0.99413400  1
  Pu  Pu10  1  0.56603800  0.75000000  0.00586600  1
  Pu  Pu11  1  0.93396200  0.75000000  0.50586600  1
  Cl  Cl12  1  0.82466200  0.75000000  0.30619100  1
  Cl  Cl13  1  0.15941600  0.95791800  0.42018200  1
  Cl  Cl14  1  0.65941600  0.45791800  0.07981800  1
  Cl  Cl15  1  0.12892800  0.75000000  0.67723800  1
  Cl  Cl16  1  0.08256100  0.25000000  0.98235800  1
  Cl  Cl17  1  0.37107200  0.75000000  0.17723800  1
  Cl  Cl18  1  0.17533800  0.25000000  0.69380900  1
  Cl  Cl19  1  0.41743900  0.25000000  0.48235800  1
  Cl  Cl20  1  0.34058400  0.54208200  0.92018200  1
  Cl  Cl21  1  0.34058400  0.95791800  0.92018200  1
  Cl  Cl22  1  0.67533800  0.75000000  0.80619100  1
  Cl  Cl23  1  0.62892800  0.25000000  0.82276200  1
  Cl  Cl24  1  0.65941600  0.04208200  0.07981800  1
  Cl  Cl25  1  0.87107200  0.25000000  0.32276200  1
  Cl  Cl26  1  0.84058400  0.45791800  0.57981800  1
  Cl  Cl27  1  0.32466200  0.25000000  0.19380900  1
  Cl  Cl28  1  0.15941600  0.54208200  0.42018200  1
  Cl  Cl29  1  0.58256100  0.75000000  0.51764200  1
  Cl  Cl30  1  0.84058400  0.04208200  0.57981800  1
  Cl  Cl31  1  0.91743900  0.75000000  0.01764200  1
