# generated using pymatgen
data_Tb(FeP3)4
_symmetry_space_group_name_H-M   'P 1'
_cell_length_a   6.73840510
_cell_length_b   6.73840510
_cell_length_c   6.73840510
_cell_angle_alpha   109.47122063
_cell_angle_beta   109.47122063
_cell_angle_gamma   109.47122063
_symmetry_Int_Tables_number   1
_chemical_formula_structural   Tb(FeP3)4
_chemical_formula_sum   'Tb1 Fe4 P12'
_cell_volume   235.53175002
_cell_formula_units_Z   1
loop_
 _symmetry_equiv_pos_site_id
 _symmetry_equiv_pos_as_xyz
  1  'x, y, z'
loop_
 _atom_site_type_symbol
 _atom_site_label
 _atom_site_symmetry_multiplicity
 _atom_site_fract_x
 _atom_site_fract_y
 _atom_site_fract_z
 _atom_site_occupancy
  Tb  Tb0  1  0.00000000  0.00000000  0.00000000  1
  Fe  Fe1  1  0.50000000  0.00000000  0.00000000  1
  Fe  Fe2  1  0.50000000  0.50000000  0.50000000  1
  Fe  Fe3  1  0.00000000  0.50000000  0.00000000  1
  Fe  Fe4  1  0.00000000  0.00000000  0.50000000  1
  P  P5  1  0.15084000  0.79867200  0.64783300  1
  P  P6  1  0.15084000  0.50300700  0.35216700  1
  P  P7  1  0.84916000  0.49699300  0.64783300  1
  P  P8  1  0.35216700  0.15084000  0.50300700  1
  P  P9  1  0.79867200  0.64783300  0.15084000  1
  P  P10  1  0.84916000  0.20132800  0.35216700  1
  P  P11  1  0.64783300  0.15084000  0.79867200  1
  P  P12  1  0.49699300  0.64783300  0.84916000  1
  P  P13  1  0.64783300  0.84916000  0.49699300  1
  P  P14  1  0.50300700  0.35216700  0.15084000  1
  P  P15  1  0.35216700  0.84916000  0.20132800  1
  P  P16  1  0.20132800  0.35216700  0.84916000  1
