# generated using pymatgen
data_YH3(SO4)3
_symmetry_space_group_name_H-M   'P 1'
_cell_length_a   9.62295900
_cell_length_b   12.17667200
_cell_length_c   17.01644500
_cell_angle_alpha   90.00000000
_cell_angle_beta   90.00000000
_cell_angle_gamma   90.00000000
_symmetry_Int_Tables_number   1
_chemical_formula_structural   YH3(SO4)3
_chemical_formula_sum   'Y8 H24 S24 O96'
_cell_volume   1993.91241501
_cell_formula_units_Z   8
loop_
 _symmetry_equiv_pos_site_id
 _symmetry_equiv_pos_as_xyz
  1  'x, y, z'
loop_
 _atom_site_type_symbol
 _atom_site_label
 _atom_site_symmetry_multiplicity
 _atom_site_fract_x
 _atom_site_fract_y
 _atom_site_fract_z
 _atom_site_occupancy
  Y  Y0  1  0.83287700  0.60648900  0.26903000  1
  Y  Y1  1  0.33287700  0.39351100  0.23097000  1
  Y  Y2  1  0.66712300  0.10648900  0.73097000  1
  Y  Y3  1  0.16712300  0.89351100  0.76903000  1
  Y  Y4  1  0.16712300  0.39351100  0.73097000  1
  Y  Y5  1  0.66712300  0.60648900  0.76903000  1
  Y  Y6  1  0.33287700  0.89351100  0.26903000  1
  Y  Y7  1  0.83287700  0.10648900  0.23097000  1
  H  H8  1  0.10081900  0.75998700  0.07049500  1
  H  H9  1  0.60081900  0.24001300  0.42950500  1
  H  H10  1  0.39918100  0.25998700  0.92950500  1
  H  H11  1  0.89918100  0.74001300  0.57049500  1
  H  H12  1  0.89918100  0.24001300  0.92950500  1
  H  H13  1  0.39918100  0.75998700  0.57049500  1
  H  H14  1  0.60081900  0.74001300  0.07049500  1
  H  H15  1  0.10081900  0.25998700  0.42950500  1
  H  H16  1  0.61804100  0.42028300  0.99729300  1
  H  H17  1  0.11804100  0.57971700  0.50270700  1
  H  H18  1  0.88195900  0.92028300  0.00270700  1
  H  H19  1  0.38195900  0.07971700  0.49729300  1
  H  H20  1  0.38195900  0.57971700  0.00270700  1
  H  H21  1  0.88195900  0.42028300  0.49729300  1
  H  H22  1  0.11804100  0.07971700  0.99729300  1
  H  H23  1  0.61804100  0.92028300  0.50270700  1
  H  H24  1  0.87847800  0.42159600  0.05579900  1
  H  H25  1  0.37847800  0.57840400  0.44420100  1
  H  H26  1  0.62152200  0.92159600  0.94420100  1
  H  H27  1  0.12152200  0.07840400  0.55579900  1
  H  H28  1  0.12152200  0.57840400  0.94420100  1
  H  H29  1  0.62152200  0.42159600  0.55579900  1
  H  H30  1  0.37847800  0.07840400  0.05579900  1
  H  H31  1  0.87847800  0.92159600  0.44420100  1
  S  S32  1  0.16956000  0.65838700  0.16585800  1
  S  S33  1  0.66956000  0.34161300  0.33414200  1
  S  S34  1  0.33044000  0.15838700  0.83414200  1
  S  S35  1  0.83044000  0.84161300  0.66585800  1
  S  S36  1  0.83044000  0.34161300  0.83414200  1
  S  S37  1  0.33044000  0.65838700  0.66585800  1
  S  S38  1  0.66956000  0.84161300  0.16585800  1
  S  S39  1  0.16956000  0.15838700  0.33414200  1
  S  S40  1  0.09277500  0.48378800  0.39763600  1
  S  S41  1  0.59277500  0.51621200  0.10236400  1
  S  S42  1  0.40722500  0.98378800  0.60236400  1
  S  S43  1  0.90722500  0.01621200  0.89763600  1
  S  S44  1  0.90722500  0.51621200  0.60236400  1
  S  S45  1  0.40722500  0.48378800  0.89763600  1
  S  S46  1  0.59277500  0.01621200  0.39763600  1
  S  S47  1  0.09277500  0.98378800  0.10236400  1
  S  S48  1  0.98294800  0.36361500  0.15926600  1
  S  S49  1  0.48294800  0.63638500  0.34073400  1
  S  S50  1  0.51705200  0.86361500  0.84073400  1
  S  S51  1  0.01705200  0.13638500  0.65926600  1
  S  S52  1  0.01705200  0.63638500  0.84073400  1
  S  S53  1  0.51705200  0.36361500  0.65926600  1
  S  S54  1  0.48294800  0.13638500  0.15926600  1
  S  S55  1  0.98294800  0.86361500  0.34073400  1
  O  O56  1  0.03566100  0.66632300  0.20673100  1
  O  O57  1  0.53566100  0.33367700  0.29326900  1
  O  O58  1  0.46433900  0.16632300  0.79326900  1
  O  O59  1  0.96433900  0.83367700  0.70673100  1
  O  O60  1  0.96433900  0.33367700  0.79326900  1
  O  O61  1  0.46433900  0.66632300  0.70673100  1
  O  O62  1  0.53566100  0.83367700  0.20673100  1
  O  O63  1  0.03566100  0.16632300  0.29326900  1
  O  O64  1  0.76873900  0.75966800  0.19382500  1
  O  O65  1  0.26873900  0.24033200  0.30617500  1
  O  O66  1  0.73126100  0.25966800  0.80617500  1
  O  O67  1  0.23126100  0.74033200  0.69382500  1
  O  O68  1  0.23126100  0.24033200  0.80617500  1
  O  O69  1  0.73126100  0.75966800  0.69382500  1
  O  O70  1  0.26873900  0.74033200  0.19382500  1
  O  O71  1  0.76873900  0.25966800  0.30617500  1
  O  O72  1  0.14154300  0.68417400  0.07633300  1
  O  O73  1  0.64154300  0.31582600  0.42366700  1
  O  O74  1  0.35845700  0.18417400  0.92366700  1
  O  O75  1  0.85845700  0.81582600  0.57633300  1
  O  O76  1  0.85845700  0.31582600  0.92366700  1
  O  O77  1  0.35845700  0.68417400  0.57633300  1
  O  O78  1  0.64154300  0.81582600  0.07633300  1
  O  O79  1  0.14154300  0.18417400  0.42366700  1
  O  O80  1  0.22687200  0.54769700  0.16407700  1
  O  O81  1  0.72687200  0.45230300  0.33592300  1
  O  O82  1  0.27312800  0.04769700  0.83592300  1
  O  O83  1  0.77312800  0.95230300  0.66407700  1
  O  O84  1  0.77312800  0.45230300  0.83592300  1
  O  O85  1  0.27312800  0.54769700  0.66407700  1
  O  O86  1  0.72687200  0.95230300  0.16407700  1
  O  O87  1  0.22687200  0.04769700  0.33592300  1
  O  O88  1  0.69652000  0.54595300  0.16053400  1
  O  O89  1  0.19652000  0.45404700  0.33946600  1
  O  O90  1  0.80348000  0.04595300  0.83946600  1
  O  O91  1  0.30348000  0.95404700  0.66053400  1
  O  O92  1  0.30348000  0.45404700  0.83946600  1
  O  O93  1  0.80348000  0.54595300  0.66053400  1
  O  O94  1  0.19652000  0.95404700  0.16053400  1
  O  O95  1  0.69652000  0.04595300  0.33946600  1
  O  O96  1  0.98698800  0.55999400  0.36939500  1
  O  O97  1  0.48698800  0.44000600  0.13060500  1
  O  O98  1  0.51301200  0.05999400  0.63060500  1
  O  O99  1  0.01301200  0.94000600  0.86939500  1
  O  O100  1  0.01301200  0.44000600  0.63060500  1
  O  O101  1  0.51301200  0.55999400  0.86939500  1
  O  O102  1  0.48698800  0.94000600  0.36939500  1
  O  O103  1  0.98698800  0.05999400  0.13060500  1
  O  O104  1  0.03017000  0.38860400  0.43803300  1
  O  O105  1  0.53017000  0.61139600  0.06196700  1
  O  O106  1  0.46983000  0.88860400  0.56196700  1
  O  O107  1  0.96983000  0.11139600  0.93803300  1
  O  O108  1  0.96983000  0.61139600  0.56196700  1
  O  O109  1  0.46983000  0.38860400  0.93803300  1
  O  O110  1  0.53017000  0.11139600  0.43803300  1
  O  O111  1  0.03017000  0.88860400  0.06196700  1
  O  O112  1  0.68161300  0.45041100  0.03895100  1
  O  O113  1  0.18161300  0.54958900  0.46104900  1
  O  O114  1  0.81838700  0.95041100  0.96104900  1
  O  O115  1  0.31838700  0.04958900  0.53895100  1
  O  O116  1  0.31838700  0.54958900  0.96104900  1
  O  O117  1  0.81838700  0.45041100  0.53895100  1
  O  O118  1  0.18161300  0.04958900  0.03895100  1
  O  O119  1  0.68161300  0.95041100  0.46104900  1
  O  O120  1  0.13009900  0.33531900  0.16754200  1
  O  O121  1  0.63009900  0.66468100  0.33245800  1
  O  O122  1  0.36990100  0.83531900  0.83245800  1
  O  O123  1  0.86990100  0.16468100  0.66754200  1
  O  O124  1  0.86990100  0.66468100  0.83245800  1
  O  O125  1  0.36990100  0.33531900  0.66754200  1
  O  O126  1  0.63009900  0.16468100  0.16754200  1
  O  O127  1  0.13009900  0.83531900  0.33245800  1
  O  O128  1  0.93910900  0.44534200  0.21737900  1
  O  O129  1  0.43910900  0.55465800  0.28262100  1
  O  O130  1  0.56089100  0.94534200  0.78262100  1
  O  O131  1  0.06089100  0.05465800  0.71737900  1
  O  O132  1  0.06089100  0.55465800  0.78262100  1
  O  O133  1  0.56089100  0.44534200  0.71737900  1
  O  O134  1  0.43910900  0.05465800  0.21737900  1
  O  O135  1  0.93910900  0.94534200  0.28262100  1
  O  O136  1  0.97575100  0.41770300  0.07483900  1
  O  O137  1  0.47575100  0.58229700  0.42516100  1
  O  O138  1  0.52424900  0.91770300  0.92516100  1
  O  O139  1  0.02424900  0.08229700  0.57483900  1
  O  O140  1  0.02424900  0.58229700  0.92516100  1
  O  O141  1  0.52424900  0.41770300  0.57483900  1
  O  O142  1  0.47575100  0.08229700  0.07483900  1
  O  O143  1  0.97575100  0.91770300  0.42516100  1
  O  O144  1  0.89178700  0.26762000  0.15677800  1
  O  O145  1  0.39178700  0.73238000  0.34322200  1
  O  O146  1  0.60821300  0.76762000  0.84322200  1
  O  O147  1  0.10821300  0.23238000  0.65677800  1
  O  O148  1  0.10821300  0.73238000  0.84322200  1
  O  O149  1  0.60821300  0.26762000  0.65677800  1
  O  O150  1  0.39178700  0.23238000  0.15677800  1
  O  O151  1  0.89178700  0.76762000  0.34322200  1
