# generated using pymatgen
data_Na2ZrF6
_symmetry_space_group_name_H-M   'P 1'
_cell_length_a   5.50083700
_cell_length_b   5.65683100
_cell_length_c   16.36556087
_cell_angle_alpha   84.02942499
_cell_angle_beta   90.00000000
_cell_angle_gamma   90.00000000
_symmetry_Int_Tables_number   1
_chemical_formula_structural   Na2ZrF6
_chemical_formula_sum   'Na8 Zr4 F24'
_cell_volume   506.48968762
_cell_formula_units_Z   4
loop_
 _symmetry_equiv_pos_site_id
 _symmetry_equiv_pos_as_xyz
  1  'x, y, z'
loop_
 _atom_site_type_symbol
 _atom_site_label
 _atom_site_symmetry_multiplicity
 _atom_site_fract_x
 _atom_site_fract_y
 _atom_site_fract_z
 _atom_site_occupancy
  Na  Na0  1  0.50176100  0.32658600  0.59195900  1
  Na  Na1  1  0.00176100  0.67341400  0.90804100  1
  Na  Na2  1  0.49823900  0.67341400  0.40804100  1
  Na  Na3  1  0.99823900  0.32658600  0.09195900  1
  Na  Na4  1  0.46239600  0.24365400  0.25282300  1
  Na  Na5  1  0.96239600  0.75634600  0.24717700  1
  Na  Na6  1  0.53760400  0.75634600  0.74717700  1
  Na  Na7  1  0.03760400  0.24365400  0.75282300  1
  Zr  Zr8  1  0.55173700  0.17597200  0.90109100  1
  Zr  Zr9  1  0.05173700  0.82402800  0.59890900  1
  Zr  Zr10  1  0.44826300  0.82402800  0.09890900  1
  Zr  Zr11  1  0.94826300  0.17597200  0.40109100  1
  F  F12  1  0.82860300  0.86963300  0.48839100  1
  F  F13  1  0.32860300  0.13036700  0.01160900  1
  F  F14  1  0.17139700  0.13036700  0.51160900  1
  F  F15  1  0.67139700  0.86963300  0.98839100  1
  F  F16  1  0.78167500  0.43024300  0.31693600  1
  F  F17  1  0.28167500  0.56975700  0.18306400  1
  F  F18  1  0.21832500  0.56975700  0.68306400  1
  F  F19  1  0.71832500  0.43024300  0.81693600  1
  F  F20  1  0.72925600  0.60221000  0.13549200  1
  F  F21  1  0.22925600  0.39779000  0.36450800  1
  F  F22  1  0.27074400  0.39779000  0.86450800  1
  F  F23  1  0.77074400  0.60221000  0.63549200  1
  F  F24  1  0.28955300  0.01942400  0.66490700  1
  F  F25  1  0.78955300  0.98057600  0.83509300  1
  F  F26  1  0.71044700  0.98057600  0.33509300  1
  F  F27  1  0.21044700  0.01942400  0.16490700  1
  F  F28  1  0.81926300  0.05800400  0.64992900  1
  F  F29  1  0.31926300  0.94199600  0.85007100  1
  F  F30  1  0.18073700  0.94199600  0.35007100  1
  F  F31  1  0.68073700  0.05800400  0.14992900  1
  F  F32  1  0.77544400  0.34580400  0.97539100  1
  F  F33  1  0.27544400  0.65419600  0.52460900  1
  F  F34  1  0.22455600  0.65419600  0.02460900  1
  F  F35  1  0.72455600  0.34580400  0.47539100  1
