# generated using pymatgen
data_Sr5(B5Rh7)2
_symmetry_space_group_name_H-M   'P 1'
_cell_length_a   15.35334125
_cell_length_b   14.79546281
_cell_length_c   5.72806065
_cell_angle_alpha   84.58639052
_cell_angle_beta   73.61049853
_cell_angle_gamma   21.80311095
_symmetry_Int_Tables_number   1
_chemical_formula_structural   Sr5(B5Rh7)2
_chemical_formula_sum   'Sr5 B10 Rh14'
_cell_volume   409.13160280
_cell_formula_units_Z   1
loop_
 _symmetry_equiv_pos_site_id
 _symmetry_equiv_pos_as_xyz
  1  'x, y, z'
loop_
 _atom_site_type_symbol
 _atom_site_label
 _atom_site_symmetry_multiplicity
 _atom_site_fract_x
 _atom_site_fract_y
 _atom_site_fract_z
 _atom_site_occupancy
  Sr  Sr0  1  0.71156100  0.71156100  0.28843900  1
  Sr  Sr1  1  0.28843900  0.28843900  0.71156100  1
  Sr  Sr2  1  0.60450600  0.60450600  0.39549400  1
  Sr  Sr3  1  0.39549400  0.39549400  0.60450600  1
  Sr  Sr4  1  0.50000000  0.50000000  0.50000000  1
  B  B5  1  0.03553000  0.36776200  0.63223800  1
  B  B6  1  0.96447000  0.63223800  0.36776200  1
  B  B7  1  0.63223800  0.96447000  0.03553000  1
  B  B8  1  0.36776200  0.03553000  0.96447000  1
  B  B9  1  0.93606900  0.26616300  0.73383700  1
  B  B10  1  0.06393100  0.73383700  0.26616300  1
  B  B11  1  0.73383700  0.06393100  0.93606900  1
  B  B12  1  0.26616300  0.93606900  0.06393100  1
  B  B13  1  0.83378000  0.16622000  0.83378000  1
  B  B14  1  0.16622000  0.83378000  0.16622000  1
  Rh  Rh15  1  0.75000000  0.75000000  0.75000000  1
  Rh  Rh16  1  0.25000000  0.25000000  0.25000000  1
  Rh  Rh17  1  0.65150300  0.65150300  0.84849700  1
  Rh  Rh18  1  0.84849700  0.84849700  0.65150300  1
  Rh  Rh19  1  0.34849700  0.34849700  0.15150300  1
  Rh  Rh20  1  0.15150300  0.15150300  0.34849700  1
  Rh  Rh21  1  0.55073800  0.55073800  0.94926200  1
  Rh  Rh22  1  0.94926200  0.94926200  0.55073800  1
  Rh  Rh23  1  0.44926200  0.44926200  0.05073800  1
  Rh  Rh24  1  0.05073800  0.05073800  0.44926200  1
  Rh  Rh25  1  0.84724500  0.84724500  0.15275500  1
  Rh  Rh26  1  0.15275500  0.15275500  0.84724500  1
  Rh  Rh27  1  0.94951600  0.94951600  0.05048400  1
  Rh  Rh28  1  0.05048400  0.05048400  0.94951600  1
