# generated using pymatgen
data_Sr4PdO6
_symmetry_space_group_name_H-M   'P 1'
_cell_length_a   6.95126664
_cell_length_b   6.95126664
_cell_length_c   6.95126586
_cell_angle_alpha   90.14209303
_cell_angle_beta   90.14209303
_cell_angle_gamma   90.14209458
_symmetry_Int_Tables_number   1
_chemical_formula_structural   Sr4PdO6
_chemical_formula_sum   'Sr8 Pd2 O12'
_cell_volume   335.88281247
_cell_formula_units_Z   2
loop_
 _symmetry_equiv_pos_site_id
 _symmetry_equiv_pos_as_xyz
  1  'x, y, z'
loop_
 _atom_site_type_symbol
 _atom_site_label
 _atom_site_symmetry_multiplicity
 _atom_site_fract_x
 _atom_site_fract_y
 _atom_site_fract_z
 _atom_site_occupancy
  Sr  Sr0  1  0.75000000  0.75000000  0.75000000  1
  Sr  Sr1  1  0.25000000  0.25000000  0.25000000  1
  Sr  Sr2  1  0.25000000  0.62005900  0.87994100  1
  Sr  Sr3  1  0.87994100  0.25000000  0.62005900  1
  Sr  Sr4  1  0.62005900  0.87994100  0.25000000  1
  Sr  Sr5  1  0.75000000  0.37994100  0.12005900  1
  Sr  Sr6  1  0.12005900  0.75000000  0.37994100  1
  Sr  Sr7  1  0.37994100  0.12005900  0.75000000  1
  Pd  Pd8  1  0.50000000  0.50000000  0.50000000  1
  Pd  Pd9  1  0.00000000  0.00000000  0.00000000  1
  O  O10  1  0.07189900  0.28614400  0.94268500  1
  O  O11  1  0.94268500  0.07189900  0.28614400  1
  O  O12  1  0.28614400  0.94268500  0.07189900  1
  O  O13  1  0.42810100  0.55731500  0.21385600  1
  O  O14  1  0.21385600  0.42810100  0.55731500  1
  O  O15  1  0.55731500  0.21385600  0.42810100  1
  O  O16  1  0.92810100  0.71385600  0.05731500  1
  O  O17  1  0.05731500  0.92810100  0.71385600  1
  O  O18  1  0.71385600  0.05731500  0.92810100  1
  O  O19  1  0.57189900  0.44268500  0.78614400  1
  O  O20  1  0.44268500  0.78614400  0.57189900  1
  O  O21  1  0.78614400  0.57189900  0.44268500  1
