# generated using pymatgen
data_SBr2O
_symmetry_space_group_name_H-M   'P 1'
_cell_length_a   4.51625400
_cell_length_b   12.28549100
_cell_length_c   19.38082300
_cell_angle_alpha   90.00000000
_cell_angle_beta   90.00000000
_cell_angle_gamma   90.00000000
_symmetry_Int_Tables_number   1
_chemical_formula_structural   SBr2O
_chemical_formula_sum   'S8 Br16 O8'
_cell_volume   1075.33329439
_cell_formula_units_Z   8
loop_
 _symmetry_equiv_pos_site_id
 _symmetry_equiv_pos_as_xyz
  1  'x, y, z'
loop_
 _atom_site_type_symbol
 _atom_site_label
 _atom_site_symmetry_multiplicity
 _atom_site_fract_x
 _atom_site_fract_y
 _atom_site_fract_z
 _atom_site_occupancy
  S  S0  1  0.63609300  0.23699200  0.18640000  1
  S  S1  1  0.12818800  0.48255200  0.51624100  1
  S  S2  1  0.12818800  0.01744800  0.01624100  1
  S  S3  1  0.87181200  0.98255200  0.51624100  1
  S  S4  1  0.36390700  0.76300800  0.68640000  1
  S  S5  1  0.36390700  0.73699200  0.18640000  1
  S  S6  1  0.63609300  0.26300800  0.68640000  1
  S  S7  1  0.87181200  0.51744800  0.01624100  1
  Br  Br8  1  0.85361100  0.40496300  0.20513200  1
  Br  Br9  1  0.14638900  0.59503700  0.70513200  1
  Br  Br10  1  0.14638900  0.90496300  0.20513200  1
  Br  Br11  1  0.85361100  0.09503700  0.70513200  1
  Br  Br12  1  0.51258600  0.19497700  0.29751200  1
  Br  Br13  1  0.48741400  0.80502300  0.79751200  1
  Br  Br14  1  0.48741400  0.69497700  0.29751200  1
  Br  Br15  1  0.51258600  0.30502300  0.79751200  1
  Br  Br16  1  0.00081800  0.94296300  0.40494900  1
  Br  Br17  1  0.99918200  0.05703700  0.90494900  1
  Br  Br18  1  0.99918200  0.44296300  0.40494900  1
  Br  Br19  1  0.00081800  0.55703700  0.90494900  1
  Br  Br20  1  0.64920700  0.14985800  0.49871900  1
  Br  Br21  1  0.35079300  0.85014200  0.99871900  1
  Br  Br22  1  0.35079300  0.64985800  0.49871900  1
  Br  Br23  1  0.64920700  0.35014200  0.99871900  1
  O  O24  1  0.86716500  0.33805700  0.66442100  1
  O  O25  1  0.13283500  0.66194300  0.16442100  1
  O  O26  1  0.13283500  0.83805700  0.66442100  1
  O  O27  1  0.86716500  0.16194300  0.16442100  1
  O  O28  1  0.35738800  0.09388100  0.03742600  1
  O  O29  1  0.35738800  0.40611900  0.53742600  1
  O  O30  1  0.64261200  0.59388100  0.03742600  1
  O  O31  1  0.64261200  0.90611900  0.53742600  1
