# generated using pymatgen
data_PbSeO4
_symmetry_space_group_name_H-M   'P 1'
_cell_length_a   7.55523700
_cell_length_b   7.06769800
_cell_length_c   8.89620578
_cell_angle_alpha   53.00625195
_cell_angle_beta   90.00000000
_cell_angle_gamma   90.00000000
_symmetry_Int_Tables_number   1
_chemical_formula_structural   PbSeO4
_chemical_formula_sum   'Pb4 Se4 O16'
_cell_volume   379.41563129
_cell_formula_units_Z   4
loop_
 _symmetry_equiv_pos_site_id
 _symmetry_equiv_pos_as_xyz
  1  'x, y, z'
loop_
 _atom_site_type_symbol
 _atom_site_label
 _atom_site_symmetry_multiplicity
 _atom_site_fract_x
 _atom_site_fract_y
 _atom_site_fract_z
 _atom_site_occupancy
  Pb  Pb0  1  0.64718400  0.80668000  0.28605100  1
  Pb  Pb1  1  0.14718400  0.19332000  0.21394900  1
  Pb  Pb2  1  0.35281600  0.19332000  0.71394900  1
  Pb  Pb3  1  0.85281600  0.80668000  0.78605100  1
  Se  Se4  1  0.66421900  0.31289000  0.30406400  1
  Se  Se5  1  0.16421900  0.68711000  0.19593600  1
  Se  Se6  1  0.33578100  0.68711000  0.69593600  1
  Se  Se7  1  0.83578100  0.31289000  0.80406400  1
  O  O8  1  0.70864100  0.59295900  0.11967100  1
  O  O9  1  0.20864100  0.40704100  0.38032900  1
  O  O10  1  0.29135900  0.40704100  0.88032900  1
  O  O11  1  0.79135900  0.59295900  0.61967100  1
  O  O12  1  0.60765200  0.34515900  0.47171900  1
  O  O13  1  0.10765200  0.65484100  0.02828100  1
  O  O14  1  0.39234800  0.65484100  0.52828100  1
  O  O15  1  0.89234800  0.34515900  0.97171900  1
  O  O16  1  0.99441100  0.18754700  0.76028800  1
  O  O17  1  0.49441100  0.81245300  0.73971200  1
  O  O18  1  0.00558900  0.81245300  0.23971200  1
  O  O19  1  0.50558900  0.18754700  0.26028800  1
  O  O20  1  0.65837500  0.13278800  0.88207000  1
  O  O21  1  0.15837500  0.86721200  0.61793000  1
  O  O22  1  0.34162500  0.86721200  0.11793000  1
  O  O23  1  0.84162500  0.13278800  0.38207000  1
