# generated using pymatgen
data_CsI3F16
_symmetry_space_group_name_H-M   'P 1'
_cell_length_a   14.40090307
_cell_length_b   14.40090307
_cell_length_c   14.40090307
_cell_angle_alpha   90.00000000
_cell_angle_beta   90.00000000
_cell_angle_gamma   90.00000000
_symmetry_Int_Tables_number   1
_chemical_formula_structural   CsI3F16
_chemical_formula_sum   'Cs8 I24 F128'
_cell_volume   2986.54581702
_cell_formula_units_Z   8
loop_
 _symmetry_equiv_pos_site_id
 _symmetry_equiv_pos_as_xyz
  1  'x, y, z'
loop_
 _atom_site_type_symbol
 _atom_site_label
 _atom_site_symmetry_multiplicity
 _atom_site_fract_x
 _atom_site_fract_y
 _atom_site_fract_z
 _atom_site_occupancy
  Cs  Cs0  1  0.00000000  -0.00000000  0.00000000  1
  Cs  Cs1  1  0.50000000  0.50000000  0.50000000  1
  Cs  Cs2  1  0.00000000  0.50000000  0.50000000  1
  Cs  Cs3  1  0.50000000  -0.00000000  0.00000000  1
  Cs  Cs4  1  -0.00000000  -0.00000000  0.50000000  1
  Cs  Cs5  1  -0.00000000  0.50000000  0.00000000  1
  Cs  Cs6  1  0.50000000  -0.00000000  0.50000000  1
  Cs  Cs7  1  0.50000000  0.50000000  0.00000000  1
  I  I8  1  0.24935170  0.46788390  0.25370226  1
  I  I9  1  0.25064830  0.75370226  0.03211610  1
  I  I10  1  0.25064830  0.24629774  0.96788390  1
  I  I11  1  0.24629774  0.03211610  0.74935170  1
  I  I12  1  0.75370226  0.03211610  0.25064830  1
  I  I13  1  0.96788390  0.25064830  0.24629774  1
  I  I14  1  0.03211610  0.74935170  0.24629774  1
  I  I15  1  0.25370226  0.24935170  0.46788390  1
  I  I16  1  0.46788390  0.25370226  0.24935170  1
  I  I17  1  0.53211610  0.74629774  0.24935170  1
  I  I18  1  0.25370226  0.75064830  0.53211610  1
  I  I19  1  0.53211610  0.25370226  0.75064830  1
  I  I20  1  0.74629774  0.75064830  0.46788390  1
  I  I21  1  0.74629774  0.24935170  0.53211610  1
  I  I22  1  0.46788390  0.74629774  0.75064830  1
  I  I23  1  0.24935170  0.53211610  0.74629774  1
  I  I24  1  0.75064830  0.46788390  0.74629774  1
  I  I25  1  0.75064830  0.53211610  0.25370226  1
  I  I26  1  0.03211610  0.25064830  0.75370226  1
  I  I27  1  0.96788390  0.74935170  0.75370226  1
  I  I28  1  0.24629774  0.96788390  0.25064830  1
  I  I29  1  0.75370226  0.96788390  0.74935170  1
  I  I30  1  0.74935170  0.24629774  0.03211610  1
  I  I31  1  0.74935170  0.75370226  0.96788390  1
  F  F32  1  0.26791066  0.59424457  0.22919627  1
  F  F33  1  0.23208934  0.72919627  0.90575543  1
  F  F34  1  0.23208934  0.27080373  0.09424457  1
  F  F35  1  0.27080373  0.90575543  0.76791066  1
  F  F36  1  0.72919627  0.90575543  0.23208934  1
  F  F37  1  0.09424457  0.23208934  0.27080373  1
  F  F38  1  0.90575543  0.76791066  0.27080373  1
  F  F39  1  0.22919627  0.26791066  0.59424457  1
  F  F40  1  0.59424457  0.22919627  0.26791066  1
  F  F41  1  0.40575543  0.77080373  0.26791066  1
  F  F42  1  0.22919627  0.73208934  0.40575543  1
  F  F43  1  0.40575543  0.22919627  0.73208934  1
  F  F44  1  0.77080373  0.73208934  0.59424457  1
  F  F45  1  0.77080373  0.26791066  0.40575543  1
  F  F46  1  0.59424457  0.77080373  0.73208934  1
  F  F47  1  0.26791066  0.40575543  0.77080373  1
  F  F48  1  0.73208934  0.59424457  0.77080373  1
  F  F49  1  0.73208934  0.40575543  0.22919627  1
  F  F50  1  0.90575543  0.23208934  0.72919627  1
  F  F51  1  0.09424457  0.76791066  0.72919627  1
  F  F52  1  0.27080373  0.09424457  0.23208934  1
  F  F53  1  0.72919627  0.09424457  0.76791066  1
  F  F54  1  0.76791066  0.27080373  0.90575543  1
  F  F55  1  0.76791066  0.72919627  0.09424457  1
  F  F56  1  0.36442209  0.45694558  0.18443117  1
  F  F57  1  0.13557791  0.68443117  0.04305442  1
  F  F58  1  0.13557791  0.31556883  0.95694558  1
  F  F59  1  0.31556883  0.04305442  0.86442209  1
  F  F60  1  0.68443117  0.04305442  0.13557791  1
  F  F61  1  0.95694558  0.13557791  0.31556883  1
  F  F62  1  0.04305442  0.86442209  0.31556883  1
  F  F63  1  0.18443117  0.36442209  0.45694558  1
  F  F64  1  0.45694558  0.18443117  0.36442209  1
  F  F65  1  0.54305442  0.81556883  0.36442209  1
  F  F66  1  0.18443117  0.63557791  0.54305442  1
  F  F67  1  0.54305442  0.18443117  0.63557791  1
  F  F68  1  0.81556883  0.63557791  0.45694558  1
  F  F69  1  0.81556883  0.36442209  0.54305442  1
  F  F70  1  0.45694558  0.81556883  0.63557791  1
  F  F71  1  0.36442209  0.54305442  0.81556883  1
  F  F72  1  0.63557791  0.45694558  0.81556883  1
  F  F73  1  0.63557791  0.54305442  0.18443117  1
  F  F74  1  0.04305442  0.13557791  0.68443117  1
  F  F75  1  0.95694558  0.86442209  0.68443117  1
  F  F76  1  0.31556883  0.95694558  0.13557791  1
  F  F77  1  0.68443117  0.95694558  0.86442209  1
  F  F78  1  0.86442209  0.31556883  0.04305442  1
  F  F79  1  0.86442209  0.68443117  0.95694558  1
  F  F80  1  0.13854597  0.51609083  0.31514519  1
  F  F81  1  0.36145403  0.81514519  0.98390917  1
  F  F82  1  0.36145403  0.18485481  0.01609083  1
  F  F83  1  0.18485481  0.98390917  0.63854597  1
  F  F84  1  0.81514519  0.98390917  0.36145403  1
  F  F85  1  0.01609083  0.36145403  0.18485481  1
  F  F86  1  0.98390917  0.63854597  0.18485481  1
  F  F87  1  0.31514519  0.13854597  0.51609083  1
  F  F88  1  0.51609083  0.31514519  0.13854597  1
  F  F89  1  0.48390917  0.68485481  0.13854597  1
  F  F90  1  0.31514519  0.86145403  0.48390917  1
  F  F91  1  0.48390917  0.31514519  0.86145403  1
  F  F92  1  0.68485481  0.86145403  0.51609083  1
  F  F93  1  0.68485481  0.13854597  0.48390917  1
  F  F94  1  0.51609083  0.68485481  0.86145403  1
  F  F95  1  0.13854597  0.48390917  0.68485481  1
  F  F96  1  0.86145403  0.51609083  0.68485481  1
  F  F97  1  0.86145403  0.48390917  0.31514519  1
  F  F98  1  0.98390917  0.36145403  0.81514519  1
  F  F99  1  0.01609083  0.63854597  0.81514519  1
  F  F100  1  0.18485481  0.01609083  0.36145403  1
  F  F101  1  0.81514519  0.01609083  0.63854597  1
  F  F102  1  0.63854597  0.18485481  0.98390917  1
  F  F103  1  0.63854597  0.81514519  0.01609083  1
  F  F104  1  0.32003958  0.50050182  0.36254895  1
  F  F105  1  0.17996042  0.86254895  0.99949818  1
  F  F106  1  0.17996042  0.13745105  0.00050182  1
  F  F107  1  0.13745105  0.99949818  0.82003958  1
  F  F108  1  0.86254895  0.99949818  0.17996042  1
  F  F109  1  0.00050182  0.17996042  0.13745105  1
  F  F110  1  0.99949818  0.82003958  0.13745105  1
  F  F111  1  0.36254895  0.32003958  0.50050182  1
  F  F112  1  0.50050182  0.36254895  0.32003958  1
  F  F113  1  0.49949818  0.63745105  0.32003958  1
  F  F114  1  0.36254895  0.67996042  0.49949818  1
  F  F115  1  0.49949818  0.36254895  0.67996042  1
  F  F116  1  0.63745105  0.67996042  0.50050182  1
  F  F117  1  0.63745105  0.32003958  0.49949818  1
  F  F118  1  0.50050182  0.63745105  0.67996042  1
  F  F119  1  0.32003958  0.49949818  0.63745105  1
  F  F120  1  0.67996042  0.50050182  0.63745105  1
  F  F121  1  0.67996042  0.49949818  0.36254895  1
  F  F122  1  0.99949818  0.17996042  0.86254895  1
  F  F123  1  0.00050182  0.82003958  0.86254895  1
  F  F124  1  0.13745105  0.00050182  0.17996042  1
  F  F125  1  0.86254895  0.00050182  0.82003958  1
  F  F126  1  0.82003958  0.13745105  0.99949818  1
  F  F127  1  0.82003958  0.86254895  0.00050182  1
  F  F128  1  0.18415116  0.47637311  0.13533119  1
  F  F129  1  0.31584884  0.63533119  0.02362689  1
  F  F130  1  0.31584884  0.36466881  0.97637311  1
  F  F131  1  0.36466881  0.02362689  0.68415116  1
  F  F132  1  0.63533119  0.02362689  0.31584884  1
  F  F133  1  0.97637311  0.31584884  0.36466881  1
  F  F134  1  0.02362689  0.68415116  0.36466881  1
  F  F135  1  0.13533119  0.18415116  0.47637311  1
  F  F136  1  0.47637311  0.13533119  0.18415116  1
  F  F137  1  0.52362689  0.86466881  0.18415116  1
  F  F138  1  0.13533119  0.81584884  0.52362689  1
  F  F139  1  0.52362689  0.13533119  0.81584884  1
  F  F140  1  0.86466881  0.81584884  0.47637311  1
  F  F141  1  0.86466881  0.18415116  0.52362689  1
  F  F142  1  0.47637311  0.86466881  0.81584884  1
  F  F143  1  0.18415116  0.52362689  0.86466881  1
  F  F144  1  0.81584884  0.47637311  0.86466881  1
  F  F145  1  0.81584884  0.52362689  0.13533119  1
  F  F146  1  0.02362689  0.31584884  0.63533119  1
  F  F147  1  0.97637311  0.68415116  0.63533119  1
  F  F148  1  0.36466881  0.97637311  0.31584884  1
  F  F149  1  0.63533119  0.97637311  0.68415116  1
  F  F150  1  0.68415116  0.36466881  0.02362689  1
  F  F151  1  0.68415116  0.63533119  0.97637311  1
  F  F152  1  0.69172831  0.30827169  0.69172831  1
  F  F153  1  0.80827169  0.19172831  0.19172831  1
  F  F154  1  0.80827169  0.80827169  0.80827169  1
  F  F155  1  0.19172831  0.19172831  0.80827169  1
  F  F156  1  0.69172831  0.69172831  0.30827169  1
  F  F157  1  0.30827169  0.69172831  0.69172831  1
  F  F158  1  0.30827169  0.30827169  0.30827169  1
  F  F159  1  0.19172831  0.80827169  0.19172831  1
