# generated using pymatgen
data_Sr(BiO2)2
_symmetry_space_group_name_H-M   'P 1'
_cell_length_a   10.36901392
_cell_length_b   10.36901392
_cell_length_c   6.43951780
_cell_angle_alpha   83.19007594
_cell_angle_beta   83.19007594
_cell_angle_gamma   24.41829731
_symmetry_Int_Tables_number   1
_chemical_formula_structural   Sr(BiO2)2
_chemical_formula_sum   'Sr2 Bi4 O8'
_cell_volume   284.10173462
_cell_formula_units_Z   2
loop_
 _symmetry_equiv_pos_site_id
 _symmetry_equiv_pos_as_xyz
  1  'x, y, z'
loop_
 _atom_site_type_symbol
 _atom_site_label
 _atom_site_symmetry_multiplicity
 _atom_site_fract_x
 _atom_site_fract_y
 _atom_site_fract_z
 _atom_site_occupancy
  Sr  Sr0  1  0.24096800  0.24096800  0.74586800  1
  Sr  Sr1  1  0.75903200  0.75903200  0.25413200  1
  Bi  Bi2  1  0.41385100  0.41385100  0.27658700  1
  Bi  Bi3  1  0.58614900  0.58614900  0.72341300  1
  Bi  Bi4  1  0.09920500  0.09920500  0.15947000  1
  Bi  Bi5  1  0.90079500  0.90079500  0.84053000  1
  O  O6  1  0.09830000  0.09830000  0.82002900  1
  O  O7  1  0.90170000  0.90170000  0.17997100  1
  O  O8  1  0.20100100  0.20100100  0.13569600  1
  O  O9  1  0.79899900  0.79899900  0.86430400  1
  O  O10  1  0.31527500  0.31527500  0.40332000  1
  O  O11  1  0.68472500  0.68472500  0.59668000  1
  O  O12  1  0.59119300  0.59119300  0.05941900  1
  O  O13  1  0.40880700  0.40880700  0.94058100  1
