# generated using pymatgen
data_CsSbSe2
_symmetry_space_group_name_H-M   'P 1'
_cell_length_a   10.26352600
_cell_length_b   7.59011000
_cell_length_c   8.07089206
_cell_angle_alpha   77.52361478
_cell_angle_beta   90.00000000
_cell_angle_gamma   90.00000000
_symmetry_Int_Tables_number   1
_chemical_formula_structural   CsSbSe2
_chemical_formula_sum   'Cs4 Sb4 Se8'
_cell_volume   613.88546815
_cell_formula_units_Z   4
loop_
 _symmetry_equiv_pos_site_id
 _symmetry_equiv_pos_as_xyz
  1  'x, y, z'
loop_
 _atom_site_type_symbol
 _atom_site_label
 _atom_site_symmetry_multiplicity
 _atom_site_fract_x
 _atom_site_fract_y
 _atom_site_fract_z
 _atom_site_occupancy
  Cs  Cs0  1  0.93648200  0.28603000  0.34588300  1
  Cs  Cs1  1  0.43648200  0.21397000  0.65411700  1
  Cs  Cs2  1  0.06351800  0.71397000  0.65411700  1
  Cs  Cs3  1  0.56351800  0.78603000  0.34588300  1
  Sb  Sb4  1  0.16509200  0.86479900  0.08887900  1
  Sb  Sb5  1  0.83490800  0.13520100  0.91112100  1
  Sb  Sb6  1  0.66509200  0.63520100  0.91112100  1
  Sb  Sb7  1  0.33490800  0.36479900  0.08887900  1
  Se  Se8  1  0.07510500  0.19706700  0.82401100  1
  Se  Se9  1  0.57510500  0.30293300  0.17598900  1
  Se  Se10  1  0.92489500  0.80293300  0.17598900  1
  Se  Se11  1  0.42489500  0.69706700  0.82401100  1
  Se  Se12  1  0.24842700  0.04420400  0.31110400  1
  Se  Se13  1  0.74842700  0.45579600  0.68889600  1
  Se  Se14  1  0.75157300  0.95579600  0.68889600  1
  Se  Se15  1  0.25157300  0.54420400  0.31110400  1
