# generated using pymatgen
data_PrFeO3
_symmetry_space_group_name_H-M   'P 1'
_cell_length_a   5.53827400
_cell_length_b   5.69721700
_cell_length_c   7.90274100
_cell_angle_alpha   90.00000000
_cell_angle_beta   90.00000000
_cell_angle_gamma   90.00000000
_symmetry_Int_Tables_number   1
_chemical_formula_structural   PrFeO3
_chemical_formula_sum   'Pr4 Fe4 O12'
_cell_volume   249.35320147
_cell_formula_units_Z   4
loop_
 _symmetry_equiv_pos_site_id
 _symmetry_equiv_pos_as_xyz
  1  'x, y, z'
loop_
 _atom_site_type_symbol
 _atom_site_label
 _atom_site_symmetry_multiplicity
 _atom_site_fract_x
 _atom_site_fract_y
 _atom_site_fract_z
 _atom_site_occupancy
  Pr  Pr0  1  0.01289000  0.94782100  0.75000000  1
  Pr  Pr1  1  0.51289000  0.55217900  0.25000000  1
  Pr  Pr2  1  0.48711000  0.44782100  0.75000000  1
  Pr  Pr3  1  0.98711000  0.05217900  0.25000000  1
  Fe  Fe4  1  0.00000000  0.50000000  0.50000000  1
  Fe  Fe5  1  0.50000000  0.00000000  0.50000000  1
  Fe  Fe6  1  0.50000000  0.00000000  0.00000000  1
  Fe  Fe7  1  0.00000000  0.50000000  0.00000000  1
  O  O8  1  0.70626400  0.29394600  0.45181100  1
  O  O9  1  0.20626400  0.20605400  0.54818900  1
  O  O10  1  0.79373600  0.79394600  0.04818900  1
  O  O11  1  0.29373600  0.70605400  0.95181100  1
  O  O12  1  0.29373600  0.70605400  0.54818900  1
  O  O13  1  0.79373600  0.79394600  0.45181100  1
  O  O14  1  0.20626400  0.20605400  0.95181100  1
  O  O15  1  0.70626400  0.29394600  0.04818900  1
  O  O16  1  0.09026000  0.47412800  0.25000000  1
  O  O17  1  0.59026000  0.02587200  0.75000000  1
  O  O18  1  0.40974000  0.97412800  0.25000000  1
  O  O19  1  0.90974000  0.52587200  0.75000000  1
