# generated using pymatgen
data_K3PSe16
_symmetry_space_group_name_H-M   'P 1'
_cell_length_a   11.88976435
_cell_length_b   11.88976435
_cell_length_c   11.88976435
_cell_angle_alpha   60.00000000
_cell_angle_beta   60.00000000
_cell_angle_gamma   60.00000000
_symmetry_Int_Tables_number   1
_chemical_formula_structural   K3PSe16
_chemical_formula_sum   'K6 P2 Se32'
_cell_volume   1188.51520982
_cell_formula_units_Z   2
loop_
 _symmetry_equiv_pos_site_id
 _symmetry_equiv_pos_as_xyz
  1  'x, y, z'
loop_
 _atom_site_type_symbol
 _atom_site_label
 _atom_site_symmetry_multiplicity
 _atom_site_fract_x
 _atom_site_fract_y
 _atom_site_fract_z
 _atom_site_occupancy
  K  K0  1  0.25000000  0.25000000  0.25000000  1
  K  K1  1  0.62500000  0.62500000  0.12500000  1
  K  K2  1  0.12500000  0.62500000  0.62500000  1
  K  K3  1  0.62500000  0.12500000  0.62500000  1
  K  K4  1  0.62500000  0.62500000  0.62500000  1
  K  K5  1  0.00000000  0.00000000  0.00000000  1
  P  P6  1  0.50000000  0.50000000  0.50000000  1
  P  P7  1  0.75000000  0.75000000  0.75000000  1
  Se  Se8  1  0.57242900  0.15962600  0.31739800  1
  Se  Se9  1  0.31739900  0.15962600  0.95054700  1
  Se  Se10  1  0.15962600  0.57242900  0.95054700  1
  Se  Se11  1  0.15962600  0.31739900  0.57242900  1
  Se  Se12  1  0.95054700  0.31739800  0.15962600  1
  Se  Se13  1  0.31739900  0.57242900  0.15962600  1
  Se  Se14  1  0.95054700  0.15962600  0.57242900  1
  Se  Se15  1  0.15962600  0.95054700  0.31739900  1
  Se  Se16  1  0.67757100  0.93260100  0.29945300  1
  Se  Se17  1  0.29945300  0.67757100  0.93260100  1
  Se  Se18  1  0.93260100  0.29945300  0.67757100  1
  Se  Se19  1  0.67757100  0.09037400  0.93260200  1
  Se  Se20  1  0.57242900  0.95054700  0.15962600  1
  Se  Se21  1  0.93260100  0.09037400  0.29945300  1
  Se  Se22  1  0.09037400  0.67757100  0.29945300  1
  Se  Se23  1  0.09037400  0.93260100  0.67757100  1
  Se  Se24  1  0.29945300  0.93260100  0.09037400  1
  Se  Se25  1  0.93260100  0.67757100  0.09037400  1
  Se  Se26  1  0.29945300  0.09037400  0.67757100  1
  Se  Se27  1  0.09037400  0.29945300  0.93260100  1
  Se  Se28  1  0.42318500  0.42318500  0.73044600  1
  Se  Se29  1  0.73044600  0.42318500  0.42318500  1
  Se  Se30  1  0.42318500  0.73044600  0.42318500  1
  Se  Se31  1  0.42318500  0.42318500  0.42318500  1
  Se  Se32  1  0.82681500  0.82681500  0.51955400  1
  Se  Se33  1  0.51955400  0.82681500  0.82681500  1
  Se  Se34  1  0.82681500  0.51955400  0.82681500  1
  Se  Se35  1  0.82681500  0.82681500  0.82681500  1
  Se  Se36  1  0.31739800  0.95054700  0.57242900  1
  Se  Se37  1  0.95054700  0.57242900  0.31739800  1
  Se  Se38  1  0.57242900  0.31739900  0.95054700  1
  Se  Se39  1  0.67757100  0.29945300  0.09037400  1
