# generated using pymatgen
data_K6Sn2Se7
_symmetry_space_group_name_H-M   'P 1'
_cell_length_a   12.57401400
_cell_length_b   17.35977200
_cell_length_c   20.07002539
_cell_angle_alpha   77.28194911
_cell_angle_beta   90.00000000
_cell_angle_gamma   90.00000000
_symmetry_Int_Tables_number   1
_chemical_formula_structural   K6Sn2Se7
_chemical_formula_sum   'K48 Sn16 Se56'
_cell_volume   4273.44061905
_cell_formula_units_Z   8
loop_
 _symmetry_equiv_pos_site_id
 _symmetry_equiv_pos_as_xyz
  1  'x, y, z'
loop_
 _atom_site_type_symbol
 _atom_site_label
 _atom_site_symmetry_multiplicity
 _atom_site_fract_x
 _atom_site_fract_y
 _atom_site_fract_z
 _atom_site_occupancy
  K  K0  1  0.04977500  0.35028300  0.31472900  1
  K  K1  1  0.54977500  0.64971700  0.18527100  1
  K  K2  1  0.95022500  0.64971700  0.68527100  1
  K  K3  1  0.45022500  0.35028300  0.81472900  1
  K  K4  1  0.11482300  0.87619500  0.05406800  1
  K  K5  1  0.61482300  0.12380500  0.44593200  1
  K  K6  1  0.88517700  0.12380500  0.94593200  1
  K  K7  1  0.38517700  0.87619500  0.55406800  1
  K  K8  1  0.83751800  0.25511200  0.74084600  1
  K  K9  1  0.33751800  0.74488800  0.75915400  1
  K  K10  1  0.16248200  0.74488800  0.25915400  1
  K  K11  1  0.66248200  0.25511200  0.24084600  1
  K  K12  1  0.32645600  0.19314900  0.47704000  1
  K  K13  1  0.82645600  0.80685100  0.02296000  1
  K  K14  1  0.67354400  0.80685100  0.52296000  1
  K  K15  1  0.17354400  0.19314900  0.97704000  1
  K  K16  1  0.07854200  0.37522000  0.83035800  1
  K  K17  1  0.57854200  0.62478000  0.66964200  1
  K  K18  1  0.92145800  0.62478000  0.16964200  1
  K  K19  1  0.42145800  0.37522000  0.33035800  1
  K  K20  1  0.06034800  0.36029400  0.57857700  1
  K  K21  1  0.56034800  0.63970600  0.92142300  1
  K  K22  1  0.93965200  0.63970600  0.42142300  1
  K  K23  1  0.43965200  0.36029400  0.07857700  1
  K  K24  1  0.22026500  0.00990300  0.87050900  1
  K  K25  1  0.72026500  0.99009700  0.62949100  1
  K  K26  1  0.77973500  0.99009700  0.12949100  1
  K  K27  1  0.27973500  0.00990300  0.37050900  1
  K  K28  1  0.04995600  0.78063100  0.84800700  1
  K  K29  1  0.54995600  0.21936900  0.65199300  1
  K  K30  1  0.95004400  0.21936900  0.15199300  1
  K  K31  1  0.45004400  0.78063100  0.34800700  1
  K  K32  1  0.76901100  0.45436900  0.30467300  1
  K  K33  1  0.26901100  0.54563100  0.19532700  1
  K  K34  1  0.23098900  0.54563100  0.69532700  1
  K  K35  1  0.73098900  0.45436900  0.80467300  1
  K  K36  1  0.99722000  0.03023700  0.73324900  1
  K  K37  1  0.49722000  0.96976300  0.76675100  1
  K  K38  1  0.00278000  0.96976300  0.26675100  1
  K  K39  1  0.50278000  0.03023700  0.23324900  1
  K  K40  1  0.97216900  0.13630300  0.46741400  1
  K  K41  1  0.47216900  0.86369700  0.03258600  1
  K  K42  1  0.02783100  0.86369700  0.53258600  1
  K  K43  1  0.52783100  0.13630300  0.96741400  1
  K  K44  1  0.39103700  0.43363900  0.55328000  1
  K  K45  1  0.89103700  0.56636100  0.94672000  1
  K  K46  1  0.60896300  0.56636100  0.44672000  1
  K  K47  1  0.10896300  0.43363900  0.05328000  1
  Sn  Sn48  1  0.23564900  0.21482300  0.74341700  1
  Sn  Sn49  1  0.73564900  0.78517700  0.75658300  1
  Sn  Sn50  1  0.76435100  0.78517700  0.25658300  1
  Sn  Sn51  1  0.26435100  0.21482300  0.24341700  1
  Sn  Sn52  1  0.27299800  0.03594800  0.62755400  1
  Sn  Sn53  1  0.77299800  0.96405200  0.87244600  1
  Sn  Sn54  1  0.72700200  0.96405200  0.37244600  1
  Sn  Sn55  1  0.22700200  0.03594800  0.12755400  1
  Sn  Sn56  1  0.21566900  0.51724200  0.39333400  1
  Sn  Sn57  1  0.71566900  0.48275800  0.10666600  1
  Sn  Sn58  1  0.78433100  0.48275800  0.60666600  1
  Sn  Sn59  1  0.28433100  0.51724200  0.89333400  1
  Sn  Sn60  1  0.25731300  0.69810300  0.50893000  1
  Sn  Sn61  1  0.75731300  0.30189700  0.99107000  1
  Sn  Sn62  1  0.74268700  0.30189700  0.49107000  1
  Sn  Sn63  1  0.24268700  0.69810300  0.00893000  1
  Se  Se64  1  0.18220800  0.01794800  0.51876300  1
  Se  Se65  1  0.68220800  0.98205200  0.98123700  1
  Se  Se66  1  0.81779200  0.98205200  0.48123700  1
  Se  Se67  1  0.31779200  0.01794800  0.01876300  1
  Se  Se68  1  0.17570300  0.16865100  0.63219200  1
  Se  Se69  1  0.67570300  0.83134900  0.86780800  1
  Se  Se70  1  0.82429700  0.83134900  0.36780800  1
  Se  Se71  1  0.32429700  0.16865100  0.13219200  1
  Se  Se72  1  0.21725200  0.36856600  0.44145400  1
  Se  Se73  1  0.71725200  0.63143400  0.05854600  1
  Se  Se74  1  0.78274800  0.63143400  0.55854600  1
  Se  Se75  1  0.28274800  0.36856600  0.94145400  1
  Se  Se76  1  0.16812000  0.56007400  0.50889800  1
  Se  Se77  1  0.66812000  0.43992600  0.99110200  1
  Se  Se78  1  0.83188000  0.43992600  0.49110200  1
  Se  Se79  1  0.33188000  0.56007400  0.00889800  1
  Se  Se80  1  0.24016200  0.93195300  0.73472400  1
  Se  Se81  1  0.74016200  0.06804700  0.76527600  1
  Se  Se82  1  0.75983800  0.06804700  0.26527600  1
  Se  Se83  1  0.25983800  0.93195300  0.23472400  1
  Se  Se84  1  0.07332100  0.18176700  0.82090000  1
  Se  Se85  1  0.57332100  0.81823300  0.67910000  1
  Se  Se86  1  0.92667900  0.81823300  0.17910000  1
  Se  Se87  1  0.42667900  0.18176700  0.32090000  1
  Se  Se88  1  0.40471400  0.15311300  0.79902700  1
  Se  Se89  1  0.90471400  0.84688700  0.70097300  1
  Se  Se90  1  0.59528600  0.84688700  0.20097300  1
  Se  Se91  1  0.09528600  0.15311300  0.29902700  1
  Se  Se92  1  0.06545100  0.55513500  0.30797800  1
  Se  Se93  1  0.56545100  0.44486500  0.19202200  1
  Se  Se94  1  0.93454900  0.44486500  0.69202200  1
  Se  Se95  1  0.43454900  0.55513500  0.80797800  1
  Se  Se96  1  0.46849700  0.06044300  0.59681800  1
  Se  Se97  1  0.96849700  0.93955700  0.90318200  1
  Se  Se98  1  0.53150300  0.93955700  0.40318200  1
  Se  Se99  1  0.03150300  0.06044300  0.09681800  1
  Se  Se100  1  0.25896000  0.36234900  0.69742400  1
  Se  Se101  1  0.75896000  0.63765100  0.80257600  1
  Se  Se102  1  0.74104000  0.63765100  0.30257600  1
  Se  Se103  1  0.24104000  0.36234900  0.19742400  1
  Se  Se104  1  0.39102500  0.57189600  0.34025400  1
  Se  Se105  1  0.89102500  0.42810400  0.15974600  1
  Se  Se106  1  0.60897500  0.42810400  0.65974600  1
  Se  Se107  1  0.10897500  0.57189600  0.84025400  1
  Se  Se108  1  0.81079000  0.27084800  0.38002200  1
  Se  Se109  1  0.31079000  0.72915200  0.11997800  1
  Se  Se110  1  0.18921000  0.72915200  0.61997800  1
  Se  Se111  1  0.68921000  0.27084800  0.88002200  1
  Se  Se112  1  0.54201600  0.31812500  0.48239000  1
  Se  Se113  1  0.04201600  0.68187500  0.01761000  1
  Se  Se114  1  0.45798400  0.68187500  0.51761000  1
  Se  Se115  1  0.95798400  0.31812500  0.98239000  1
  Se  Se116  1  0.80552000  0.19709200  0.59222800  1
  Se  Se117  1  0.30552000  0.80290800  0.90777200  1
  Se  Se118  1  0.19448000  0.80290800  0.40777200  1
  Se  Se119  1  0.69448000  0.19709200  0.09222800  1
