# generated using pymatgen
data_Na8Ga2O7
_symmetry_space_group_name_H-M   'P 1'
_cell_length_a   11.10286700
_cell_length_b   8.73675900
_cell_length_c   10.15465850
_cell_angle_alpha   72.38394578
_cell_angle_beta   90.00000000
_cell_angle_gamma   90.00000000
_symmetry_Int_Tables_number   1
_chemical_formula_structural   Na8Ga2O7
_chemical_formula_sum   'Na32 Ga8 O28'
_cell_volume   938.84084874
_cell_formula_units_Z   4
loop_
 _symmetry_equiv_pos_site_id
 _symmetry_equiv_pos_as_xyz
  1  'x, y, z'
loop_
 _atom_site_type_symbol
 _atom_site_label
 _atom_site_symmetry_multiplicity
 _atom_site_fract_x
 _atom_site_fract_y
 _atom_site_fract_z
 _atom_site_occupancy
  Na  Na0  1  0.73166500  0.49872900  0.62802500  1
  Na  Na1  1  0.99602400  0.65843600  0.01873100  1
  Na  Na2  1  0.49602400  0.34156400  0.48126900  1
  Na  Na3  1  0.00397600  0.34156400  0.98126900  1
  Na  Na4  1  0.50397600  0.65843600  0.51873100  1
  Na  Na5  1  0.52467100  0.11998700  0.07567100  1
  Na  Na6  1  0.02467100  0.88001300  0.42432900  1
  Na  Na7  1  0.47532900  0.88001300  0.92432900  1
  Na  Na8  1  0.76037000  0.89259400  0.03291600  1
  Na  Na9  1  0.26037000  0.10740600  0.46708400  1
  Na  Na10  1  0.23963000  0.10740600  0.96708400  1
  Na  Na11  1  0.73963000  0.89259400  0.53291600  1
  Na  Na12  1  0.55468600  0.74487100  0.21213400  1
  Na  Na13  1  0.05468600  0.25512900  0.28786600  1
  Na  Na14  1  0.44531400  0.25512900  0.78786600  1
  Na  Na15  1  0.94531400  0.74487100  0.71213400  1
  Na  Na16  1  0.03921700  0.91535900  0.14297700  1
  Na  Na17  1  0.53921700  0.08464100  0.35702300  1
  Na  Na18  1  0.96078300  0.08464100  0.85702300  1
  Na  Na19  1  0.46078300  0.91535900  0.64297700  1
  Na  Na20  1  0.52956900  0.43120300  0.14376100  1
  Na  Na21  1  0.02956900  0.56879700  0.35623900  1
  Na  Na22  1  0.47043100  0.56879700  0.85623900  1
  Na  Na23  1  0.97043100  0.43120300  0.64376100  1
  Na  Na24  1  0.24992400  0.71431400  0.06993200  1
  Na  Na25  1  0.74992400  0.28568600  0.43006800  1
  Na  Na26  1  0.75007600  0.28568600  0.93006800  1
  Na  Na27  1  0.25007600  0.71431400  0.56993200  1
  Na  Na28  1  0.76833500  0.49872900  0.12802500  1
  Na  Na29  1  0.26833500  0.50127100  0.37197500  1
  Na  Na30  1  0.23166500  0.50127100  0.87197500  1
  Na  Na31  1  0.97532900  0.11998700  0.57567100  1
  Ga  Ga32  1  0.71447200  0.69069600  0.84653900  1
  Ga  Ga33  1  0.21447200  0.30930400  0.65346100  1
  Ga  Ga34  1  0.28552800  0.30930400  0.15346100  1
  Ga  Ga35  1  0.78552800  0.69069600  0.34653900  1
  Ga  Ga36  1  0.70147900  0.09307600  0.72611900  1
  Ga  Ga37  1  0.20147900  0.90692400  0.77388100  1
  Ga  Ga38  1  0.29852100  0.90692400  0.27388100  1
  Ga  Ga39  1  0.79852100  0.09307600  0.22611900  1
  O  O40  1  0.38249200  0.32566400  0.29930300  1
  O  O41  1  0.11049200  0.89597600  0.62243100  1
  O  O42  1  0.61049200  0.10402400  0.87756900  1
  O  O43  1  0.88950800  0.10402400  0.37756900  1
  O  O44  1  0.38950800  0.89597600  0.12243100  1
  O  O45  1  0.11636100  0.32850300  0.49692500  1
  O  O46  1  0.61636100  0.67149700  0.00307500  1
  O  O47  1  0.60958600  0.10656500  0.56805100  1
  O  O48  1  0.20498600  0.10410500  0.21704500  1
  O  O49  1  0.70498600  0.89589500  0.28295500  1
  O  O50  1  0.79501400  0.89589500  0.78295500  1
  O  O51  1  0.29501400  0.10410500  0.71704500  1
  O  O52  1  0.15285000  0.45506800  0.10716400  1
  O  O53  1  0.65285000  0.54493200  0.39283600  1
  O  O54  1  0.84715000  0.54493200  0.89283600  1
  O  O55  1  0.34715000  0.45506800  0.60716400  1
  O  O56  1  0.88249200  0.67433600  0.20069700  1
  O  O57  1  0.38363900  0.32850300  0.99692500  1
  O  O58  1  0.11750800  0.32566400  0.79930300  1
  O  O59  1  0.61750800  0.67433600  0.70069700  1
  O  O60  1  0.67571900  0.24712500  0.18425500  1
  O  O61  1  0.17571900  0.75287500  0.31574500  1
  O  O62  1  0.32428100  0.75287500  0.81574500  1
  O  O63  1  0.82428100  0.24712500  0.68425500  1
  O  O64  1  0.89041400  0.10656500  0.06805100  1
  O  O65  1  0.39041400  0.89343500  0.43194900  1
  O  O66  1  0.10958600  0.89343500  0.93194900  1
  O  O67  1  0.88363900  0.67149700  0.50307500  1
