# generated using pymatgen
data_KCr3H6(SO7)2
_symmetry_space_group_name_H-M   'P 1'
_cell_length_a   7.23522805
_cell_length_b   10.31913962
_cell_length_c   7.35942375
_cell_angle_alpha   90.00063034
_cell_angle_beta   89.99902840
_cell_angle_gamma   91.39302390
_symmetry_Int_Tables_number   1
_chemical_formula_structural   KCr3H6(SO7)2
_chemical_formula_sum   'K2 Cr6 H12 S4 O28'
_cell_volume   549.30196361
_cell_formula_units_Z   2
loop_
 _symmetry_equiv_pos_site_id
 _symmetry_equiv_pos_as_xyz
  1  'x, y, z'
loop_
 _atom_site_type_symbol
 _atom_site_label
 _atom_site_symmetry_multiplicity
 _atom_site_fract_x
 _atom_site_fract_y
 _atom_site_fract_z
 _atom_site_occupancy
  K  K0  1  0.99990300  0.00009500  0.00002500  1
  K  K1  1  0.50006200  0.49992500  0.49999300  1
  Cr  Cr2  1  0.49980700  0.99982600  0.99997800  1
  Cr  Cr3  1  0.00019600  0.50014600  0.50003200  1
  Cr  Cr4  1  0.74997300  0.74998600  0.25000500  1
  Cr  Cr5  1  0.25000600  0.24999900  0.24999000  1
  Cr  Cr6  1  0.75003500  0.75001500  0.74998900  1
  Cr  Cr7  1  0.25002000  0.24999800  0.75000200  1
  H  H8  1  0.18103600  0.48835300  0.79577800  1
  H  H9  1  0.68076800  0.98839800  0.29585900  1
  H  H10  1  0.18103400  0.48837200  0.20426300  1
  H  H11  1  0.68098700  0.98840400  0.70435200  1
  H  H12  1  0.97673000  0.69265400  0.00002300  1
  H  H13  1  0.47681700  0.19242400  0.49999700  1
  H  H14  1  0.02319500  0.30757700  0.99999700  1
  H  H15  1  0.52328500  0.80734200  0.49999000  1
  H  H16  1  0.81922100  0.51158400  0.20413700  1
  H  H17  1  0.31895000  0.01165200  0.70422800  1
  H  H18  1  0.81899000  0.51161300  0.79564700  1
  H  H19  1  0.31894600  0.01162900  0.29574700  1
  S  S20  1  0.39141600  0.69561400  0.99995800  1
  S  S21  1  0.89139800  0.19573200  0.50004100  1
  S  S22  1  0.60861100  0.30427700  0.99995900  1
  S  S23  1  0.10858100  0.80438400  0.50002000  1
  O  O24  1  0.77592300  0.38795500  0.99994900  1
  O  O25  1  0.27591400  0.88801900  0.49999900  1
  O  O26  1  0.22407400  0.61198600  0.99997700  1
  O  O27  1  0.72408000  0.11205900  0.50005500  1
  O  O28  1  0.49657600  0.33157700  0.83350900  1
  O  O29  1  0.99653300  0.83150500  0.33353100  1
  O  O30  1  0.49657200  0.33154000  0.16642700  1
  O  O31  1  0.99656300  0.83156200  0.66652900  1
  O  O32  1  0.66288900  0.16498800  0.99993600  1
  O  O33  1  0.16316500  0.66513300  0.50005600  1
  O  O34  1  0.33683100  0.83486100  0.99994700  1
  O  O35  1  0.83708600  0.33501400  0.50006800  1
  O  O36  1  0.50342000  0.66847200  0.16647100  1
  O  O37  1  0.00343700  0.16844700  0.66648800  1
  O  O38  1  0.50348300  0.66846700  0.83347000  1
  O  O39  1  0.00343200  0.16847500  0.33357300  1
  O  O40  1  0.83417600  0.57103500  0.69211100  1
  O  O41  1  0.33403400  0.07092200  0.19207000  1
  O  O42  1  0.83323700  0.57061400  0.30822400  1
  O  O43  1  0.33406000  0.07101800  0.80783200  1
  O  O44  1  0.14130300  0.26256400  0.00000700  1
  O  O45  1  0.64200600  0.76310700  0.49995300  1
  O  O46  1  0.85800900  0.73689200  0.00006100  1
  O  O47  1  0.35870400  0.23743200  0.49997000  1
  O  O48  1  0.16597200  0.42905200  0.30791200  1
  O  O49  1  0.66583700  0.92898100  0.80788500  1
  O  O50  1  0.16596000  0.42896700  0.69218700  1
  O  O51  1  0.66675800  0.92935700  0.19179200  1
