# generated using pymatgen
data_Mn3GaC
_symmetry_space_group_name_H-M   'P 1'
_cell_length_a   5.53948251
_cell_length_b   5.32845496
_cell_length_c   5.32550548
_cell_angle_alpha   60.00163344
_cell_angle_beta   90.00908325
_cell_angle_gamma   118.73222200
_symmetry_Int_Tables_number   1
_chemical_formula_structural   Mn3GaC
_chemical_formula_sum   'Mn6 Ga2 C2'
_cell_volume   113.24529345
_cell_formula_units_Z   2
loop_
 _symmetry_equiv_pos_site_id
 _symmetry_equiv_pos_as_xyz
  1  'x, y, z'
loop_
 _atom_site_type_symbol
 _atom_site_label
 _atom_site_symmetry_multiplicity
 _atom_site_fract_x
 _atom_site_fract_y
 _atom_site_fract_z
 _atom_site_occupancy
  Mn  Mn0  1  0.49999900  0.50000900  0.99999300  1
  Mn  Mn1  1  0.49999700  0.49999000  0.50000400  1
  Mn  Mn2  1  0.49999600  0.99998300  0.00001500  1
  Mn  Mn3  1  0.99999800  0.49999700  0.50000000  1
  Mn  Mn4  1  0.99999900  0.50000600  0.99999600  1
  Mn  Mn5  1  0.99998400  0.99998000  0.50001100  1
  Ga  Ga6  1  0.00000300  0.99999600  0.00001300  1
  Ga  Ga7  1  0.49999900  0.00000000  0.49999100  1
  C  C8  1  0.74996900  0.49997700  0.75003500  1
  C  C9  1  0.25005500  0.50006300  0.24994300  1
