# generated using pymatgen
data_NiRhF6
_symmetry_space_group_name_H-M   'P 1'
_cell_length_a   5.42135359
_cell_length_b   5.42135359
_cell_length_c   5.42135369
_cell_angle_alpha   56.16887251
_cell_angle_beta   56.16887251
_cell_angle_gamma   56.16887742
_symmetry_Int_Tables_number   1
_chemical_formula_structural   NiRhF6
_chemical_formula_sum   'Ni1 Rh1 F6'
_cell_volume   102.67753388
_cell_formula_units_Z   1
loop_
 _symmetry_equiv_pos_site_id
 _symmetry_equiv_pos_as_xyz
  1  'x, y, z'
loop_
 _atom_site_type_symbol
 _atom_site_label
 _atom_site_symmetry_multiplicity
 _atom_site_fract_x
 _atom_site_fract_y
 _atom_site_fract_z
 _atom_site_occupancy
  Ni  Ni0  1  0.50000000  0.50000000  0.50000000  1
  Rh  Rh1  1  0.00000000  0.00000000  0.00000000  1
  F  F2  1  0.10938000  0.38069500  0.75724100  1
  F  F3  1  0.75724100  0.10938000  0.38069500  1
  F  F4  1  0.61930500  0.24275900  0.89062000  1
  F  F5  1  0.24275900  0.89062000  0.61930500  1
  F  F6  1  0.89062000  0.61930500  0.24275900  1
  F  F7  1  0.38069500  0.75724100  0.10938000  1
