# generated using pymatgen
data_K2NiH12(SO7)2
_symmetry_space_group_name_H-M   'P 1'
_cell_length_a   12.30355300
_cell_length_b   6.20036200
_cell_length_c   9.02423109
_cell_angle_alpha   75.36776454
_cell_angle_beta   90.00000000
_cell_angle_gamma   90.00000000
_symmetry_Int_Tables_number   1
_chemical_formula_structural   K2NiH12(SO7)2
_chemical_formula_sum   'K4 Ni2 H24 S4 O28'
_cell_volume   666.09923615
_cell_formula_units_Z   2
loop_
 _symmetry_equiv_pos_site_id
 _symmetry_equiv_pos_as_xyz
  1  'x, y, z'
loop_
 _atom_site_type_symbol
 _atom_site_label
 _atom_site_symmetry_multiplicity
 _atom_site_fract_x
 _atom_site_fract_y
 _atom_site_fract_z
 _atom_site_occupancy
  K  K0  1  0.34467900  0.65536100  0.13599500  1
  K  K1  1  0.65532100  0.34463900  0.86400500  1
  K  K2  1  0.84467900  0.34463900  0.36400500  1
  K  K3  1  0.15532100  0.65536100  0.63599500  1
  Ni  Ni4  1  0.00000000  0.00000000  0.00000000  1
  Ni  Ni5  1  0.50000000  0.00000000  0.50000000  1
  H  H6  1  0.59959200  0.92705100  0.77004600  1
  H  H7  1  0.31129900  0.00081800  0.36020700  1
  H  H8  1  0.08780200  0.68012700  0.21693000  1
  H  H9  1  0.81129900  0.99918200  0.13979300  1
  H  H10  1  0.90040800  0.92705100  0.27004600  1
  H  H11  1  0.91219800  0.31987300  0.78307000  1
  H  H12  1  0.18870100  0.00081800  0.86020700  1
  H  H13  1  0.40040800  0.07294900  0.22995400  1
  H  H14  1  0.44158300  0.33918800  0.60047000  1
  H  H15  1  0.37551300  0.91186500  0.75004300  1
  H  H16  1  0.35512000  0.32817100  0.47233000  1
  H  H17  1  0.64488000  0.67182900  0.52767000  1
  H  H18  1  0.14488000  0.32817100  0.97233000  1
  H  H19  1  0.09959200  0.07294900  0.72995400  1
  H  H20  1  0.41219800  0.68012700  0.71693000  1
  H  H21  1  0.94158300  0.66081200  0.89953000  1
  H  H22  1  0.58780200  0.31987300  0.28307000  1
  H  H23  1  0.68870100  0.99918200  0.63979300  1
  H  H24  1  0.55841700  0.66081200  0.39953000  1
  H  H25  1  0.62448700  0.08813500  0.24995700  1
  H  H26  1  0.87551300  0.08813500  0.74995700  1
  H  H27  1  0.12448700  0.91186500  0.25004300  1
  H  H28  1  0.05841700  0.33918800  0.10047000  1
  H  H29  1  0.85512000  0.67182900  0.02767000  1
  S  S30  1  0.36403100  0.27406500  0.91107900  1
  S  S31  1  0.86403100  0.72593500  0.58892100  1
  S  S32  1  0.63596900  0.72593500  0.08892100  1
  S  S33  1  0.13596900  0.27406500  0.41107900  1
  O  O34  1  0.43311400  0.30010700  0.50102400  1
  O  O35  1  0.23219100  0.42205700  0.41027600  1
  O  O36  1  0.88812900  0.16524100  0.83226700  1
  O  O37  1  0.11391300  0.96590700  0.83136900  1
  O  O38  1  0.93311400  0.69989300  0.99897600  1
  O  O39  1  0.32681800  0.05265800  0.89062600  1
  O  O40  1  0.56688600  0.69989300  0.49897600  1
  O  O41  1  0.88608700  0.03409300  0.16863100  1
  O  O42  1  0.11187100  0.83475900  0.16773300  1
  O  O43  1  0.38812900  0.83475900  0.66773300  1
  O  O44  1  0.06250800  0.38513100  0.28190800  1
  O  O45  1  0.42455100  0.24396000  0.05741200  1
  O  O46  1  0.43749200  0.38513100  0.78190800  1
  O  O47  1  0.06688600  0.30010700  0.00102400  1
  O  O48  1  0.61187100  0.16524100  0.33226700  1
  O  O49  1  0.38608700  0.96590700  0.33136900  1
  O  O50  1  0.07544900  0.24396000  0.55741200  1
  O  O51  1  0.56250800  0.61486900  0.21809200  1
  O  O52  1  0.73219100  0.57794300  0.08972400  1
  O  O53  1  0.82681800  0.94734200  0.60937400  1
  O  O54  1  0.17318200  0.05265800  0.39062600  1
  O  O55  1  0.92455100  0.75604000  0.44258800  1
  O  O56  1  0.93749200  0.61486900  0.71809200  1
  O  O57  1  0.67318200  0.94734200  0.10937400  1
  O  O58  1  0.26780900  0.42205700  0.91027600  1
  O  O59  1  0.76780900  0.57794300  0.58972400  1
  O  O60  1  0.57544900  0.75604000  0.94258800  1
  O  O61  1  0.61391300  0.03409300  0.66863100  1
