# generated using pymatgen
data_BaTe2
_symmetry_space_group_name_H-M   'P 1'
_cell_length_a   6.86323689
_cell_length_b   6.86323689
_cell_length_c   6.86323689
_cell_angle_alpha   116.36389731
_cell_angle_beta   116.36389731
_cell_angle_gamma   96.42246760
_symmetry_Int_Tables_number   1
_chemical_formula_structural   BaTe2
_chemical_formula_sum   'Ba2 Te4'
_cell_volume   239.53147520
_cell_formula_units_Z   2
loop_
 _symmetry_equiv_pos_site_id
 _symmetry_equiv_pos_as_xyz
  1  'x, y, z'
loop_
 _atom_site_type_symbol
 _atom_site_label
 _atom_site_symmetry_multiplicity
 _atom_site_fract_x
 _atom_site_fract_y
 _atom_site_fract_z
 _atom_site_occupancy
  Ba  Ba0  1  0.75000000  0.75000000  0.00000000  1
  Ba  Ba1  1  0.25000000  0.25000000  0.00000000  1
  Te  Te2  1  0.36193000  0.86193000  0.22386000  1
  Te  Te3  1  0.86193000  0.63807000  0.50000000  1
  Te  Te4  1  0.63807000  0.13807000  0.77614000  1
  Te  Te5  1  0.13807000  0.36193000  0.50000000  1
