# generated using pymatgen
data_Ga3Te3I
_symmetry_space_group_name_H-M   'P 1'
_cell_length_a   4.17004900
_cell_length_b   11.62151600
_cell_length_c   20.94671900
_cell_angle_alpha   90.00000000
_cell_angle_beta   90.00000000
_cell_angle_gamma   90.00000000
_symmetry_Int_Tables_number   1
_chemical_formula_structural   Ga3Te3I
_chemical_formula_sum   'Ga12 Te12 I4'
_cell_volume   1015.12599532
_cell_formula_units_Z   4
loop_
 _symmetry_equiv_pos_site_id
 _symmetry_equiv_pos_as_xyz
  1  'x, y, z'
loop_
 _atom_site_type_symbol
 _atom_site_label
 _atom_site_symmetry_multiplicity
 _atom_site_fract_x
 _atom_site_fract_y
 _atom_site_fract_z
 _atom_site_occupancy
  Ga  Ga0  1  0.75000000  0.33071600  0.87024100  1
  Ga  Ga1  1  0.25000000  0.66928400  0.12975900  1
  Ga  Ga2  1  0.75000000  0.83071600  0.62975900  1
  Ga  Ga3  1  0.25000000  0.16928400  0.37024100  1
  Ga  Ga4  1  0.25000000  0.17065900  0.00400800  1
  Ga  Ga5  1  0.75000000  0.82934100  0.99599200  1
  Ga  Ga6  1  0.25000000  0.67065900  0.49599200  1
  Ga  Ga7  1  0.75000000  0.32934100  0.50400800  1
  Ga  Ga8  1  0.25000000  0.05610000  0.90492700  1
  Ga  Ga9  1  0.75000000  0.94390000  0.09507300  1
  Ga  Ga10  1  0.25000000  0.55610000  0.59507300  1
  Ga  Ga11  1  0.75000000  0.44390000  0.40492700  1
  Te  Te12  1  0.25000000  0.22237500  0.81484600  1
  Te  Te13  1  0.75000000  0.77762500  0.18515400  1
  Te  Te14  1  0.25000000  0.72237500  0.68515400  1
  Te  Te15  1  0.75000000  0.27762500  0.31484600  1
  Te  Te16  1  0.75000000  0.91592800  0.87695100  1
  Te  Te17  1  0.25000000  0.08407200  0.12304900  1
  Te  Te18  1  0.75000000  0.41592800  0.62304900  1
  Te  Te19  1  0.25000000  0.58407200  0.37695100  1
  Te  Te20  1  0.75000000  0.32091100  0.99813500  1
  Te  Te21  1  0.25000000  0.67908900  0.00186500  1
  Te  Te22  1  0.75000000  0.82091100  0.50186500  1
  Te  Te23  1  0.25000000  0.17908900  0.49813500  1
  I  I24  1  0.75000000  0.54159100  0.83356500  1
  I  I25  1  0.25000000  0.45840900  0.16643500  1
  I  I26  1  0.75000000  0.04159100  0.66643500  1
  I  I27  1  0.25000000  0.95840900  0.33356500  1
