# generated using pymatgen
data_Ba2GdCl7
_symmetry_space_group_name_H-M   'P 1'
_cell_length_a   15.76147200
_cell_length_b   6.95889800
_cell_length_c   10.69881842
_cell_angle_alpha   89.23507983
_cell_angle_beta   90.00000000
_cell_angle_gamma   90.00000000
_symmetry_Int_Tables_number   1
_chemical_formula_structural   Ba2GdCl7
_chemical_formula_sum   'Ba8 Gd4 Cl28'
_cell_volume   1173.36832088
_cell_formula_units_Z   4
loop_
 _symmetry_equiv_pos_site_id
 _symmetry_equiv_pos_as_xyz
  1  'x, y, z'
loop_
 _atom_site_type_symbol
 _atom_site_label
 _atom_site_symmetry_multiplicity
 _atom_site_fract_x
 _atom_site_fract_y
 _atom_site_fract_z
 _atom_site_occupancy
  Ba  Ba0  1  0.06072800  0.26746800  0.82441200  1
  Ba  Ba1  1  0.56072800  0.73253200  0.67558800  1
  Ba  Ba2  1  0.93927200  0.73253200  0.17558800  1
  Ba  Ba3  1  0.43927200  0.26746800  0.32441200  1
  Ba  Ba4  1  0.27936700  0.73223200  0.04991400  1
  Ba  Ba5  1  0.77936700  0.26776800  0.45008600  1
  Ba  Ba6  1  0.72063300  0.26776800  0.95008600  1
  Ba  Ba7  1  0.22063300  0.73223200  0.54991400  1
  Gd  Gd8  1  0.12727100  0.21675600  0.28300300  1
  Gd  Gd9  1  0.62727100  0.78324400  0.21699700  1
  Gd  Gd10  1  0.87272900  0.78324400  0.71699700  1
  Gd  Gd11  1  0.37272900  0.21675600  0.78300300  1
  Cl  Cl12  1  0.14090200  0.29041800  0.53070500  1
  Cl  Cl13  1  0.64090200  0.70958200  0.96929500  1
  Cl  Cl14  1  0.85909800  0.70958200  0.46929500  1
  Cl  Cl15  1  0.35909800  0.29041800  0.03070500  1
  Cl  Cl16  1  0.07108700  0.86878400  0.37607600  1
  Cl  Cl17  1  0.57108700  0.13121600  0.12392400  1
  Cl  Cl18  1  0.92891300  0.13121600  0.62392400  1
  Cl  Cl19  1  0.42891300  0.86878400  0.87607600  1
  Cl  Cl20  1  0.95952000  0.30068300  0.29012400  1
  Cl  Cl21  1  0.45952000  0.69931700  0.20987600  1
  Cl  Cl22  1  0.04048000  0.69931700  0.70987600  1
  Cl  Cl23  1  0.54048000  0.30068300  0.79012400  1
  Cl  Cl24  1  0.39606700  0.99922500  0.57105600  1
  Cl  Cl25  1  0.89606700  0.00077500  0.92894400  1
  Cl  Cl26  1  0.60393300  0.00077500  0.42894400  1
  Cl  Cl27  1  0.10393300  0.99922500  0.07105600  1
  Cl  Cl28  1  0.24194100  0.48947700  0.80300700  1
  Cl  Cl29  1  0.74194100  0.51052300  0.69699300  1
  Cl  Cl30  1  0.75805900  0.51052300  0.19699300  1
  Cl  Cl31  1  0.25805900  0.48947700  0.30300700  1
  Cl  Cl32  1  0.22607900  0.99903700  0.79516500  1
  Cl  Cl33  1  0.72607900  0.00096300  0.70483500  1
  Cl  Cl34  1  0.77392100  0.00096300  0.20483500  1
  Cl  Cl35  1  0.27392100  0.99903700  0.29516500  1
  Cl  Cl36  1  0.39522000  0.48751600  0.58498700  1
  Cl  Cl37  1  0.89522000  0.51248400  0.91501300  1
  Cl  Cl38  1  0.60478000  0.51248400  0.41501300  1
  Cl  Cl39  1  0.10478000  0.48751600  0.08498700  1
