# generated using pymatgen
data_PWO4F
_symmetry_space_group_name_H-M   'P 1'
_cell_length_a   5.38158700
_cell_length_b   5.38506768
_cell_length_c   7.72598680
_cell_angle_alpha   106.32328365
_cell_angle_beta   109.04388697
_cell_angle_gamma   94.97538671
_symmetry_Int_Tables_number   1
_chemical_formula_structural   PWO4F
_chemical_formula_sum   'P2 W2 O8 F2'
_cell_volume   199.14728987
_cell_formula_units_Z   2
loop_
 _symmetry_equiv_pos_site_id
 _symmetry_equiv_pos_as_xyz
  1  'x, y, z'
loop_
 _atom_site_type_symbol
 _atom_site_label
 _atom_site_symmetry_multiplicity
 _atom_site_fract_x
 _atom_site_fract_y
 _atom_site_fract_z
 _atom_site_occupancy
  P  P0  1  0.88504000  0.57486300  0.23803500  1
  P  P1  1  0.11496000  0.42513700  0.76196500  1
  W  W2  1  0.00000000  0.00000000  0.00000000  1
  W  W3  1  0.50000000  0.50000000  0.50000000  1
  O  O4  1  0.18642000  0.72167600  0.88433000  1
  O  O5  1  0.15569600  0.26039800  0.89916800  1
  O  O6  1  0.82121200  0.34644500  0.61550700  1
  O  O7  1  0.30418000  0.36436300  0.65023400  1
  O  O8  1  0.84430400  0.73960200  0.10083200  1
  O  O9  1  0.17878800  0.65355500  0.38449300  1
  O  O10  1  0.69582000  0.63563700  0.34976600  1
  O  O11  1  0.81358000  0.27832400  0.11567000  1
  F  F12  1  0.67109900  0.85330900  0.73520100  1
  F  F13  1  0.32890100  0.14669100  0.26479900  1
