# generated using pymatgen
data_Y4CI5
_symmetry_space_group_name_H-M   'P 1'
_cell_length_a   9.84015690
_cell_length_b   9.84015690
_cell_length_c   8.60615076
_cell_angle_alpha   77.80984051
_cell_angle_beta   77.80984051
_cell_angle_gamma   23.33168478
_symmetry_Int_Tables_number   1
_chemical_formula_structural   Y4CI5
_chemical_formula_sum   'Y4 C1 I5'
_cell_volume   322.27734150
_cell_formula_units_Z   1
loop_
 _symmetry_equiv_pos_site_id
 _symmetry_equiv_pos_as_xyz
  1  'x, y, z'
loop_
 _atom_site_type_symbol
 _atom_site_label
 _atom_site_symmetry_multiplicity
 _atom_site_fract_x
 _atom_site_fract_y
 _atom_site_fract_z
 _atom_site_occupancy
  Y  Y0  1  0.37229800  0.37229800  0.06317000  1
  Y  Y1  1  0.00045400  0.00045400  0.18916400  1
  Y  Y2  1  0.62770200  0.62770200  0.93683000  1
  Y  Y3  1  0.99954600  0.99954600  0.81083600  1
  C  C4  1  0.50000000  0.50000000  0.00000000  1
  I  I5  1  0.83735900  0.83735900  0.33899700  1
  I  I6  1  0.83361700  0.83361700  0.82196200  1
  I  I7  1  0.16638300  0.16638300  0.17803800  1
  I  I8  1  0.50000000  0.50000000  0.50000000  1
  I  I9  1  0.16264100  0.16264100  0.66100300  1
