# generated using pymatgen
data_LiMn(PO3)4
_symmetry_space_group_name_H-M   'P 1'
_cell_length_a   8.40922700
_cell_length_b   9.39196900
_cell_length_c   12.81822600
_cell_angle_alpha   90.00000000
_cell_angle_beta   90.00000000
_cell_angle_gamma   90.00000000
_symmetry_Int_Tables_number   1
_chemical_formula_structural   LiMn(PO3)4
_chemical_formula_sum   'Li4 Mn4 P16 O48'
_cell_volume   1012.37322590
_cell_formula_units_Z   4
loop_
 _symmetry_equiv_pos_site_id
 _symmetry_equiv_pos_as_xyz
  1  'x, y, z'
loop_
 _atom_site_type_symbol
 _atom_site_label
 _atom_site_symmetry_multiplicity
 _atom_site_fract_x
 _atom_site_fract_y
 _atom_site_fract_z
 _atom_site_occupancy
  Li  Li0  1  0.00220700  0.75000000  0.00000000  1
  Li  Li1  1  0.50220700  0.75000000  0.50000000  1
  Li  Li2  1  0.49779300  0.25000000  0.50000000  1
  Li  Li3  1  0.99779300  0.25000000  0.00000000  1
  Mn  Mn4  1  0.37379500  0.75000000  0.00000000  1
  Mn  Mn5  1  0.12620500  0.25000000  0.50000000  1
  Mn  Mn6  1  0.87379500  0.75000000  0.50000000  1
  Mn  Mn7  1  0.62620500  0.25000000  0.00000000  1
  P  P8  1  0.46440500  0.00663900  0.14841500  1
  P  P9  1  0.32013800  0.49791000  0.63823400  1
  P  P10  1  0.96440500  0.49336100  0.64841500  1
  P  P11  1  0.17986200  0.50209000  0.13823400  1
  P  P12  1  0.53559500  0.99336100  0.85158500  1
  P  P13  1  0.67986200  0.99791000  0.63823400  1
  P  P14  1  0.03559500  0.99336100  0.64841500  1
  P  P15  1  0.82013800  0.00209000  0.13823400  1
  P  P16  1  0.53559500  0.50663900  0.14841500  1
  P  P17  1  0.82013800  0.49791000  0.86176600  1
  P  P18  1  0.17986200  0.99791000  0.86176600  1
  P  P19  1  0.67986200  0.50209000  0.36176600  1
  P  P20  1  0.03559500  0.50663900  0.35158500  1
  P  P21  1  0.96440500  0.00663900  0.35158500  1
  P  P22  1  0.46440500  0.49336100  0.85158500  1
  P  P23  1  0.32013800  0.00209000  0.36176600  1
  O  O24  1  0.37080400  0.87299900  0.12125300  1
  O  O25  1  0.96056800  0.37464300  0.57038300  1
  O  O26  1  0.59673900  0.37128400  0.39465100  1
  O  O27  1  0.90326100  0.62871600  0.89465100  1
  O  O28  1  0.81244700  0.36978300  0.93363400  1
  O  O29  1  0.62919600  0.12700100  0.87874700  1
  O  O30  1  0.87080400  0.87299900  0.37874700  1
  O  O31  1  0.35795600  0.46307900  0.17811600  1
  O  O32  1  0.40326100  0.62871600  0.60534900  1
  O  O33  1  0.85795600  0.03692100  0.67811600  1
  O  O34  1  0.85795600  0.46307900  0.32188400  1
  O  O35  1  0.35795600  0.03692100  0.82188400  1
  O  O36  1  0.53943200  0.87464300  0.92961700  1
  O  O37  1  0.46056800  0.37464300  0.92961700  1
  O  O38  1  0.39408800  0.06658900  0.25457400  1
  O  O39  1  0.37080400  0.62700100  0.87874700  1
  O  O40  1  0.59673900  0.12871600  0.60534900  1
  O  O41  1  0.10591200  0.93341100  0.75457400  1
  O  O42  1  0.39408800  0.43341100  0.74542600  1
  O  O43  1  0.53943200  0.62535700  0.07038300  1
  O  O44  1  0.60591200  0.56658900  0.25457400  1
  O  O45  1  0.87080400  0.62700100  0.62125300  1
  O  O46  1  0.68755300  0.63021700  0.43363400  1
  O  O47  1  0.12919600  0.12700100  0.62125300  1
  O  O48  1  0.14204400  0.96307900  0.32188400  1
  O  O49  1  0.10591200  0.56658900  0.24542600  1
  O  O50  1  0.12919600  0.37299900  0.37874700  1
  O  O51  1  0.14204400  0.53692100  0.67811600  1
  O  O52  1  0.64204400  0.96307900  0.17811600  1
  O  O53  1  0.68755300  0.86978300  0.56636600  1
  O  O54  1  0.96056800  0.12535700  0.42961700  1
  O  O55  1  0.40326100  0.87128400  0.39465100  1
  O  O56  1  0.03943200  0.87464300  0.57038300  1
  O  O57  1  0.09673900  0.37128400  0.10534900  1
  O  O58  1  0.18755300  0.86978300  0.93363400  1
  O  O59  1  0.03943200  0.62535700  0.42961700  1
  O  O60  1  0.31244700  0.13021700  0.43363400  1
  O  O61  1  0.90326100  0.87128400  0.10534900  1
  O  O62  1  0.60591200  0.93341100  0.74542600  1
  O  O63  1  0.46056800  0.12535700  0.07038300  1
  O  O64  1  0.64204400  0.53692100  0.82188400  1
  O  O65  1  0.89408800  0.06658900  0.24542600  1
  O  O66  1  0.89408800  0.43341100  0.75457400  1
  O  O67  1  0.31244700  0.36978300  0.56636600  1
  O  O68  1  0.81244700  0.13021700  0.06636600  1
  O  O69  1  0.09673900  0.12871600  0.89465100  1
  O  O70  1  0.62919600  0.37299900  0.12125300  1
  O  O71  1  0.18755300  0.63021700  0.06636600  1
