# generated using pymatgen
data_W(S4Cl3)2
_symmetry_space_group_name_H-M   'P 1'
_cell_length_a   8.51266600
_cell_length_b   8.51737074
_cell_length_c   14.51295618
_cell_angle_alpha   95.80326955
_cell_angle_beta   99.44390663
_cell_angle_gamma   90.11016704
_symmetry_Int_Tables_number   1
_chemical_formula_structural   W(S4Cl3)2
_chemical_formula_sum   'W2 S16 Cl12'
_cell_volume   1032.50427910
_cell_formula_units_Z   2
loop_
 _symmetry_equiv_pos_site_id
 _symmetry_equiv_pos_as_xyz
  1  'x, y, z'
loop_
 _atom_site_type_symbol
 _atom_site_label
 _atom_site_symmetry_multiplicity
 _atom_site_fract_x
 _atom_site_fract_y
 _atom_site_fract_z
 _atom_site_occupancy
  W  W0  1  0.71266600  0.22347600  0.89277700  1
  W  W1  1  0.28733400  0.77652400  0.10722300  1
  S  S2  1  0.42719300  0.75090400  0.65678300  1
  S  S3  1  0.57280700  0.24909600  0.34321700  1
  S  S4  1  0.26817000  0.89800800  0.58654100  1
  S  S5  1  0.73183000  0.10199200  0.41345900  1
  S  S6  1  0.09257400  0.95775900  0.66548200  1
  S  S7  1  0.90742600  0.04224100  0.33451800  1
  S  S8  1  0.89602500  0.81208100  0.61828600  1
  S  S9  1  0.10397500  0.18791900  0.38171400  1
  S  S10  1  0.90113100  0.62899700  0.70154100  1
  S  S11  1  0.09886900  0.37100300  0.29845900  1
  S  S12  1  0.99686800  0.43392400  0.63677400  1
  S  S13  1  0.00313200  0.56607600  0.36322600  1
  S  S14  1  0.23500900  0.42234000  0.69231900  1
  S  S15  1  0.76499100  0.57766000  0.30768100  1
  S  S16  1  0.63116600  0.48004800  0.39452700  1
  S  S17  1  0.36883400  0.51995200  0.60547300  1
  Cl  Cl18  1  0.75240900  0.25004400  0.05457000  1
  Cl  Cl19  1  0.24759100  0.74995600  0.94543000  1
  Cl  Cl20  1  0.67284400  0.19632600  0.73050800  1
  Cl  Cl21  1  0.32715600  0.80367400  0.26949200  1
  Cl  Cl22  1  0.45096500  0.14731900  0.88924700  1
  Cl  Cl23  1  0.54903500  0.85268100  0.11075300  1
  Cl  Cl24  1  0.63685200  0.48379600  0.89214600  1
  Cl  Cl25  1  0.36314800  0.51620400  0.10785400  1
  Cl  Cl26  1  0.97403600  0.30045900  0.89579700  1
  Cl  Cl27  1  0.02596400  0.69954100  0.10420300  1
  Cl  Cl28  1  0.78812600  0.96305800  0.89285800  1
  Cl  Cl29  1  0.21187400  0.03694200  0.10714200  1
