# generated using pymatgen
data_Ca5P8
_symmetry_space_group_name_H-M   'P 1'
_cell_length_a   6.89475716
_cell_length_b   6.89475716
_cell_length_c   7.51671781
_cell_angle_alpha   80.97725046
_cell_angle_beta   80.97725046
_cell_angle_gamma   119.64125153
_symmetry_Int_Tables_number   1
_chemical_formula_structural   Ca5P8
_chemical_formula_sum   'Ca5 P8'
_cell_volume   295.06801807
_cell_formula_units_Z   1
loop_
 _symmetry_equiv_pos_site_id
 _symmetry_equiv_pos_as_xyz
  1  'x, y, z'
loop_
 _atom_site_type_symbol
 _atom_site_label
 _atom_site_symmetry_multiplicity
 _atom_site_fract_x
 _atom_site_fract_y
 _atom_site_fract_z
 _atom_site_occupancy
  Ca  Ca0  1  0.50000000  0.50000000  0.50000000  1
  Ca  Ca1  1  0.82473900  0.17526100  0.50000000  1
  Ca  Ca2  1  0.17526100  0.82473900  0.50000000  1
  Ca  Ca3  1  0.33465000  0.66535000  0.00000000  1
  Ca  Ca4  1  0.66535000  0.33465000  0.00000000  1
  P  P5  1  0.77773200  0.77773200  0.75802500  1
  P  P6  1  0.22226800  0.22226800  0.24197500  1
  P  P7  1  0.07882700  0.38459200  0.76024700  1
  P  P8  1  0.61540800  0.92117300  0.23975300  1
  P  P9  1  0.92117300  0.61540800  0.23975300  1
  P  P10  1  0.38459200  0.07882700  0.76024700  1
  P  P11  1  0.05241900  0.05241900  0.83652400  1
  P  P12  1  0.94758100  0.94758100  0.16347600  1
