# generated using pymatgen
data_CeGeIr
_symmetry_space_group_name_H-M   'P 1'
_cell_length_a   4.39859800
_cell_length_b   7.03606300
_cell_length_c   7.67076500
_cell_angle_alpha   90.00000000
_cell_angle_beta   90.00000000
_cell_angle_gamma   90.00000000
_symmetry_Int_Tables_number   1
_chemical_formula_structural   CeGeIr
_chemical_formula_sum   'Ce4 Ge4 Ir4'
_cell_volume   237.40106879
_cell_formula_units_Z   4
loop_
 _symmetry_equiv_pos_site_id
 _symmetry_equiv_pos_as_xyz
  1  'x, y, z'
loop_
 _atom_site_type_symbol
 _atom_site_label
 _atom_site_symmetry_multiplicity
 _atom_site_fract_x
 _atom_site_fract_y
 _atom_site_fract_z
 _atom_site_occupancy
  Ce  Ce0  1  0.75000000  0.51355000  0.79989100  1
  Ce  Ce1  1  0.25000000  0.98645000  0.29989100  1
  Ce  Ce2  1  0.75000000  0.01355000  0.70010900  1
  Ce  Ce3  1  0.25000000  0.48645000  0.20010900  1
  Ge  Ge4  1  0.25000000  0.82143400  0.91761400  1
  Ge  Ge5  1  0.25000000  0.32143400  0.58238600  1
  Ge  Ge6  1  0.75000000  0.17856600  0.08238600  1
  Ge  Ge7  1  0.75000000  0.67856600  0.41761400  1
  Ir  Ir8  1  0.25000000  0.21832100  0.90969700  1
  Ir  Ir9  1  0.25000000  0.71832100  0.59030300  1
  Ir  Ir10  1  0.75000000  0.28167900  0.40969700  1
  Ir  Ir11  1  0.75000000  0.78167900  0.09030300  1
