# generated using pymatgen
data_Ca2GeN2
_symmetry_space_group_name_H-M   'P 1'
_cell_length_a   11.24800000
_cell_length_b   11.24800000
_cell_length_c   5.05587400
_cell_angle_alpha   90.00000000
_cell_angle_beta   90.00000000
_cell_angle_gamma   90.00000000
_symmetry_Int_Tables_number   1
_chemical_formula_structural   Ca2GeN2
_chemical_formula_sum   'Ca16 Ge8 N16'
_cell_volume   639.65655902
_cell_formula_units_Z   8
loop_
 _symmetry_equiv_pos_site_id
 _symmetry_equiv_pos_as_xyz
  1  'x, y, z'
loop_
 _atom_site_type_symbol
 _atom_site_label
 _atom_site_symmetry_multiplicity
 _atom_site_fract_x
 _atom_site_fract_y
 _atom_site_fract_z
 _atom_site_occupancy
  Ca  Ca0  1  0.52116300  0.85008000  0.50000000  1
  Ca  Ca1  1  0.85008000  0.47883700  0.00000000  1
  Ca  Ca2  1  0.14992000  0.52116300  0.00000000  1
  Ca  Ca3  1  0.64992000  0.97883700  0.00000000  1
  Ca  Ca4  1  0.42531400  0.36715100  0.00000000  1
  Ca  Ca5  1  0.02116300  0.64992000  0.50000000  1
  Ca  Ca6  1  0.35008000  0.02116300  0.00000000  1
  Ca  Ca7  1  0.13284900  0.07468600  0.50000000  1
  Ca  Ca8  1  0.86715100  0.92531400  0.50000000  1
  Ca  Ca9  1  0.92531400  0.13284900  0.00000000  1
  Ca  Ca10  1  0.07468600  0.86715100  0.00000000  1
  Ca  Ca11  1  0.57468600  0.63284900  0.00000000  1
  Ca  Ca12  1  0.63284900  0.42531400  0.50000000  1
  Ca  Ca13  1  0.36715100  0.57468600  0.50000000  1
  Ca  Ca14  1  0.47883700  0.14992000  0.50000000  1
  Ca  Ca15  1  0.97883700  0.35008000  0.50000000  1
  Ge  Ge16  1  0.24545700  0.34412000  0.50000000  1
  Ge  Ge17  1  0.75454300  0.65588000  0.50000000  1
  Ge  Ge18  1  0.65588000  0.24545700  0.00000000  1
  Ge  Ge19  1  0.84412000  0.74545700  0.00000000  1
  Ge  Ge20  1  0.74545700  0.15588000  0.50000000  1
  Ge  Ge21  1  0.25454300  0.84412000  0.50000000  1
  Ge  Ge22  1  0.15588000  0.25454300  0.00000000  1
  Ge  Ge23  1  0.34412000  0.75454300  0.00000000  1
  N  N24  1  0.16338100  0.49126800  0.50000000  1
  N  N25  1  0.63586700  0.41062700  0.00000000  1
  N  N26  1  0.36413300  0.58937300  0.00000000  1
  N  N27  1  0.86413300  0.91062700  0.00000000  1
  N  N28  1  0.91062700  0.13586700  0.50000000  1
  N  N29  1  0.08937300  0.86413300  0.50000000  1
  N  N30  1  0.13586700  0.08937300  0.00000000  1
  N  N31  1  0.00873200  0.33661900  0.00000000  1
  N  N32  1  0.33661900  0.99126800  0.50000000  1
  N  N33  1  0.66338100  0.00873200  0.50000000  1
  N  N34  1  0.41062700  0.36413300  0.50000000  1
  N  N35  1  0.99126800  0.66338100  0.00000000  1
  N  N36  1  0.49126800  0.83661900  0.00000000  1
  N  N37  1  0.50873200  0.16338100  0.00000000  1
  N  N38  1  0.83661900  0.50873200  0.50000000  1
  N  N39  1  0.58937300  0.63586700  0.50000000  1
