# generated using pymatgen
data_NaPt2Se3
_symmetry_space_group_name_H-M   'P 1'
_cell_length_a   7.52501375
_cell_length_b   7.52501375
_cell_length_c   11.64048300
_cell_angle_alpha   90.00000000
_cell_angle_beta   90.00000000
_cell_angle_gamma   119.99999781
_symmetry_Int_Tables_number   1
_chemical_formula_structural   NaPt2Se3
_chemical_formula_sum   'Na4 Pt8 Se12'
_cell_volume   570.84241914
_cell_formula_units_Z   4
loop_
 _symmetry_equiv_pos_site_id
 _symmetry_equiv_pos_as_xyz
  1  'x, y, z'
loop_
 _atom_site_type_symbol
 _atom_site_label
 _atom_site_symmetry_multiplicity
 _atom_site_fract_x
 _atom_site_fract_y
 _atom_site_fract_z
 _atom_site_occupancy
  Na  Na0  1  0.33333300  0.66666700  0.31375600  1
  Na  Na1  1  0.66666700  0.33333300  0.81375600  1
  Na  Na2  1  0.00000000  0.00000000  0.69090100  1
  Na  Na3  1  0.00000000  0.00000000  0.19090100  1
  Pt  Pt4  1  0.83387200  0.16612800  0.00641000  1
  Pt  Pt5  1  0.66774300  0.83387200  0.50641000  1
  Pt  Pt6  1  0.16612800  0.33225700  0.50641000  1
  Pt  Pt7  1  0.83387200  0.66774300  0.00641000  1
  Pt  Pt8  1  0.33225700  0.16612800  0.00641000  1
  Pt  Pt9  1  0.16612800  0.83387200  0.50641000  1
  Pt  Pt10  1  0.66666700  0.33333300  0.49916300  1
  Pt  Pt11  1  0.33333300  0.66666700  0.99916300  1
  Se  Se12  1  0.49839400  0.50160600  0.60995000  1
  Se  Se13  1  0.99678900  0.49839400  0.10995000  1
  Se  Se14  1  0.50160600  0.00321100  0.10995000  1
  Se  Se15  1  0.49839400  0.99678900  0.60995000  1
  Se  Se16  1  0.15981000  0.84019000  0.89763300  1
  Se  Se17  1  0.31962100  0.15981000  0.39763300  1
  Se  Se18  1  0.84019000  0.68037900  0.39763300  1
  Se  Se19  1  0.15981000  0.31962100  0.89763300  1
  Se  Se20  1  0.68037900  0.84019000  0.89763300  1
  Se  Se21  1  0.84019000  0.15981000  0.39763300  1
  Se  Se22  1  0.50160600  0.49839400  0.10995000  1
  Se  Se23  1  0.00321100  0.50160600  0.60995000  1
