# generated using pymatgen
data_UNi5Ge3
_symmetry_space_group_name_H-M   'P 1'
_cell_length_a   3.89347200
_cell_length_b   6.77256000
_cell_length_c   19.01832300
_cell_angle_alpha   90.00000000
_cell_angle_beta   90.00000000
_cell_angle_gamma   90.00000000
_symmetry_Int_Tables_number   1
_chemical_formula_structural   UNi5Ge3
_chemical_formula_sum   'U4 Ni20 Ge12'
_cell_volume   501.48983686
_cell_formula_units_Z   4
loop_
 _symmetry_equiv_pos_site_id
 _symmetry_equiv_pos_as_xyz
  1  'x, y, z'
loop_
 _atom_site_type_symbol
 _atom_site_label
 _atom_site_symmetry_multiplicity
 _atom_site_fract_x
 _atom_site_fract_y
 _atom_site_fract_z
 _atom_site_occupancy
  U  U0  1  0.25000000  0.62182500  0.64550400  1
  U  U1  1  0.75000000  0.37817500  0.35449600  1
  U  U2  1  0.75000000  0.12182500  0.85449600  1
  U  U3  1  0.25000000  0.87817500  0.14550400  1
  Ni  Ni4  1  0.75000000  0.85558100  0.39098800  1
  Ni  Ni5  1  0.25000000  0.41086800  0.78877800  1
  Ni  Ni6  1  0.75000000  0.58913200  0.21122200  1
  Ni  Ni7  1  0.75000000  0.91086800  0.71122200  1
  Ni  Ni8  1  0.25000000  0.69314700  0.29922600  1
  Ni  Ni9  1  0.75000000  0.30685300  0.70077400  1
  Ni  Ni10  1  0.75000000  0.19314700  0.20077400  1
  Ni  Ni11  1  0.25000000  0.80685300  0.79922600  1
  Ni  Ni12  1  0.25000000  0.36897500  0.49622300  1
  Ni  Ni13  1  0.75000000  0.63102500  0.50377700  1
  Ni  Ni14  1  0.75000000  0.86897500  0.00377700  1
  Ni  Ni15  1  0.25000000  0.13102500  0.99622300  1
  Ni  Ni16  1  0.25000000  0.62047600  0.01490400  1
  Ni  Ni17  1  0.75000000  0.37952400  0.98509600  1
  Ni  Ni18  1  0.75000000  0.12047600  0.48509600  1
  Ni  Ni19  1  0.25000000  0.14441900  0.60901200  1
  Ni  Ni20  1  0.25000000  0.35558100  0.10901200  1
  Ni  Ni21  1  0.75000000  0.64441900  0.89098800  1
  Ni  Ni22  1  0.25000000  0.87952400  0.51490400  1
  Ni  Ni23  1  0.25000000  0.08913200  0.28877800  1
  Ge  Ge24  1  0.25000000  0.10543800  0.73203900  1
  Ge  Ge25  1  0.25000000  0.64642600  0.42378400  1
  Ge  Ge26  1  0.75000000  0.35357400  0.57621600  1
  Ge  Ge27  1  0.75000000  0.14642600  0.07621600  1
  Ge  Ge28  1  0.25000000  0.09293200  0.41258800  1
  Ge  Ge29  1  0.75000000  0.90706800  0.58741200  1
  Ge  Ge30  1  0.75000000  0.59293200  0.08741200  1
  Ge  Ge31  1  0.25000000  0.40706800  0.91258800  1
  Ge  Ge32  1  0.25000000  0.85357400  0.92378400  1
  Ge  Ge33  1  0.75000000  0.60543800  0.76796100  1
  Ge  Ge34  1  0.75000000  0.89456200  0.26796100  1
  Ge  Ge35  1  0.25000000  0.39456200  0.23203900  1
