# generated using pymatgen
data_SnP2PbO8
_symmetry_space_group_name_H-M   'P 1'
_cell_length_a   15.07305100
_cell_length_b   4.93070700
_cell_length_c   10.01866177
_cell_angle_alpha   63.21520679
_cell_angle_beta   90.00000000
_cell_angle_gamma   90.00000000
_symmetry_Int_Tables_number   1
_chemical_formula_structural   SnP2PbO8
_chemical_formula_sum   'Sn4 P8 Pb4 O32'
_cell_volume   664.70396225
_cell_formula_units_Z   4
loop_
 _symmetry_equiv_pos_site_id
 _symmetry_equiv_pos_as_xyz
  1  'x, y, z'
loop_
 _atom_site_type_symbol
 _atom_site_label
 _atom_site_symmetry_multiplicity
 _atom_site_fract_x
 _atom_site_fract_y
 _atom_site_fract_z
 _atom_site_occupancy
  Sn  Sn0  1  0.14154000  0.18612500  0.55019800  1
  Sn  Sn1  1  0.64154000  0.81387500  0.94980200  1
  Sn  Sn2  1  0.85846000  0.81387500  0.44980200  1
  Sn  Sn3  1  0.35846000  0.18612500  0.05019800  1
  P  P4  1  0.02349000  0.55272400  0.70348200  1
  P  P5  1  0.52349000  0.44727600  0.79651800  1
  P  P6  1  0.97651000  0.44727600  0.29651800  1
  P  P7  1  0.47651000  0.55272400  0.20348200  1
  P  P8  1  0.73742700  0.17194300  0.60947700  1
  P  P9  1  0.23742700  0.82805700  0.89052300  1
  P  P10  1  0.26257300  0.82805700  0.39052300  1
  P  P11  1  0.76257300  0.17194300  0.10947700  1
  Pb  Pb12  1  0.39939800  0.12501600  0.58917000  1
  Pb  Pb13  1  0.89939800  0.87498400  0.91083000  1
  Pb  Pb14  1  0.60060200  0.87498400  0.41083000  1
  Pb  Pb15  1  0.10060200  0.12501600  0.08917000  1
  O  O16  1  0.10730100  0.43211800  0.66075300  1
  O  O17  1  0.60730100  0.56788200  0.83924700  1
  O  O18  1  0.89269900  0.56788200  0.33924700  1
  O  O19  1  0.39269900  0.43211800  0.16075300  1
  O  O20  1  0.03916900  0.89434000  0.66230200  1
  O  O21  1  0.53916900  0.10566000  0.83769800  1
  O  O22  1  0.96083100  0.10566000  0.33769800  1
  O  O23  1  0.46083100  0.89434000  0.16230200  1
  O  O24  1  0.93793100  0.52255600  0.62417300  1
  O  O25  1  0.43793100  0.47744400  0.87582700  1
  O  O26  1  0.06206900  0.47744400  0.37582700  1
  O  O27  1  0.56206900  0.52255600  0.12417300  1
  O  O28  1  0.50460200  0.62852700  0.62721200  1
  O  O29  1  0.00460200  0.37147300  0.87278800  1
  O  O30  1  0.49539800  0.37147300  0.37278800  1
  O  O31  1  0.99539800  0.62852700  0.12721200  1
  O  O32  1  0.84834300  0.10948200  0.04931500  1
  O  O33  1  0.34834300  0.89051800  0.45068500  1
  O  O34  1  0.15165700  0.89051800  0.95068500  1
  O  O35  1  0.65165700  0.10948200  0.54931500  1
  O  O36  1  0.75045300  0.52669300  0.03546200  1
  O  O37  1  0.25045300  0.47330700  0.46453800  1
  O  O38  1  0.24954700  0.47330700  0.96453800  1
  O  O39  1  0.74954700  0.52669300  0.53546200  1
  O  O40  1  0.67878700  0.01746000  0.08325300  1
  O  O41  1  0.17878700  0.98254000  0.41674700  1
  O  O42  1  0.32121300  0.98254000  0.91674700  1
  O  O43  1  0.82121300  0.01746000  0.58325300  1
  O  O44  1  0.26592500  0.93506000  0.21709400  1
  O  O45  1  0.76592500  0.06494000  0.28290600  1
  O  O46  1  0.73407500  0.06494000  0.78290600  1
  O  O47  1  0.23407500  0.93506000  0.71709400  1
