# generated using pymatgen
data_Ba3GaSb3
_symmetry_space_group_name_H-M   'P 1'
_cell_length_a   7.24180500
_cell_length_b   14.29189400
_cell_length_c   21.45599700
_cell_angle_alpha   90.00000000
_cell_angle_beta   90.00000000
_cell_angle_gamma   90.00000000
_symmetry_Int_Tables_number   1
_chemical_formula_structural   Ba3GaSb3
_chemical_formula_sum   'Ba24 Ga8 Sb24'
_cell_volume   2220.67658140
_cell_formula_units_Z   8
loop_
 _symmetry_equiv_pos_site_id
 _symmetry_equiv_pos_as_xyz
  1  'x, y, z'
loop_
 _atom_site_type_symbol
 _atom_site_label
 _atom_site_symmetry_multiplicity
 _atom_site_fract_x
 _atom_site_fract_y
 _atom_site_fract_z
 _atom_site_occupancy
  Ba  Ba0  1  0.82310200  0.98417900  0.75000000  1
  Ba  Ba1  1  0.32310200  0.51582100  0.25000000  1
  Ba  Ba2  1  0.67689800  0.48417900  0.75000000  1
  Ba  Ba3  1  0.17689800  0.01582100  0.25000000  1
  Ba  Ba4  1  0.19999400  0.26478100  0.75000000  1
  Ba  Ba5  1  0.69999400  0.23521900  0.25000000  1
  Ba  Ba6  1  0.30000600  0.76478100  0.75000000  1
  Ba  Ba7  1  0.80000600  0.73521900  0.25000000  1
  Ba  Ba8  1  0.19580100  0.73804800  0.07636300  1
  Ba  Ba9  1  0.69580100  0.76195200  0.92363700  1
  Ba  Ba10  1  0.30419900  0.23804800  0.42363700  1
  Ba  Ba11  1  0.80419900  0.26195200  0.57636300  1
  Ba  Ba12  1  0.80419900  0.26195200  0.92363700  1
  Ba  Ba13  1  0.30419900  0.23804800  0.07636300  1
  Ba  Ba14  1  0.69580100  0.76195200  0.57636300  1
  Ba  Ba15  1  0.19580100  0.73804800  0.42363700  1
  Ba  Ba16  1  0.76974800  0.00890500  0.07643800  1
  Ba  Ba17  1  0.26974800  0.49109500  0.92356200  1
  Ba  Ba18  1  0.73025200  0.50890500  0.42356200  1
  Ba  Ba19  1  0.23025200  0.99109500  0.57643800  1
  Ba  Ba20  1  0.23025200  0.99109500  0.92356200  1
  Ba  Ba21  1  0.73025200  0.50890500  0.07643800  1
  Ba  Ba22  1  0.26974800  0.49109500  0.57643800  1
  Ba  Ba23  1  0.76974800  0.00890500  0.42356200  1
  Ga  Ga24  1  0.51540600  0.12659400  0.83672000  1
  Ga  Ga25  1  0.01540600  0.37340600  0.16328000  1
  Ga  Ga26  1  0.48459400  0.87340600  0.33672000  1
  Ga  Ga27  1  0.51540600  0.12659400  0.66328000  1
  Ga  Ga28  1  0.01540600  0.37340600  0.33672000  1
  Ga  Ga29  1  0.98459400  0.62659400  0.83672000  1
  Ga  Ga30  1  0.48459400  0.87340600  0.16328000  1
  Ga  Ga31  1  0.98459400  0.62659400  0.66328000  1
  Sb  Sb32  1  0.80053300  0.25807700  0.08964400  1
  Sb  Sb33  1  0.26846600  0.98799000  0.41045700  1
  Sb  Sb34  1  0.73153400  0.01201000  0.91045700  1
  Sb  Sb35  1  0.23153400  0.48799000  0.08954300  1
  Sb  Sb36  1  0.23153400  0.48799000  0.41045700  1
  Sb  Sb37  1  0.73153400  0.01201000  0.58954300  1
  Sb  Sb38  1  0.26846600  0.98799000  0.08954300  1
  Sb  Sb39  1  0.76846600  0.51201000  0.58954300  1
  Sb  Sb40  1  0.31987200  0.01864200  0.75000000  1
  Sb  Sb41  1  0.81987200  0.48135800  0.25000000  1
  Sb  Sb42  1  0.18012800  0.51864200  0.75000000  1
  Sb  Sb43  1  0.68012800  0.98135800  0.25000000  1
  Sb  Sb44  1  0.70909400  0.23264600  0.75000000  1
  Sb  Sb45  1  0.20909400  0.26735400  0.25000000  1
  Sb  Sb46  1  0.79090600  0.73264600  0.75000000  1
  Sb  Sb47  1  0.29090600  0.76735400  0.25000000  1
  Sb  Sb48  1  0.30053300  0.24192300  0.91035600  1
  Sb  Sb49  1  0.69946700  0.75807700  0.41035600  1
  Sb  Sb50  1  0.19946700  0.74192300  0.58964400  1
  Sb  Sb51  1  0.19946700  0.74192300  0.91035600  1
  Sb  Sb52  1  0.80053300  0.25807700  0.41035600  1
  Sb  Sb53  1  0.30053300  0.24192300  0.58964400  1
  Sb  Sb54  1  0.76846600  0.51201000  0.91045700  1
  Sb  Sb55  1  0.69946700  0.75807700  0.08964400  1
