# generated using pymatgen
data_Al2PbO4
_symmetry_space_group_name_H-M   'P 1'
_cell_length_a   5.32817178
_cell_length_b   5.32817178
_cell_length_c   8.56974900
_cell_angle_alpha   90.00000000
_cell_angle_beta   90.00000000
_cell_angle_gamma   122.09948949
_symmetry_Int_Tables_number   1
_chemical_formula_structural   Al2PbO4
_chemical_formula_sum   'Al4 Pb2 O8'
_cell_volume   206.09757691
_cell_formula_units_Z   2
loop_
 _symmetry_equiv_pos_site_id
 _symmetry_equiv_pos_as_xyz
  1  'x, y, z'
loop_
 _atom_site_type_symbol
 _atom_site_label
 _atom_site_symmetry_multiplicity
 _atom_site_fract_x
 _atom_site_fract_y
 _atom_site_fract_z
 _atom_site_occupancy
  Al  Al0  1  0.29587800  0.63972200  0.55432200  1
  Al  Al1  1  0.63972200  0.29587800  0.44567800  1
  Al  Al2  1  0.29587800  0.63972200  0.94567800  1
  Al  Al3  1  0.63972200  0.29587800  0.05432200  1
  Pb  Pb4  1  0.96957300  0.02999900  0.75000000  1
  Pb  Pb5  1  0.02999900  0.96957300  0.25000000  1
  O  O6  1  0.16559100  0.53816100  0.75000000  1
  O  O7  1  0.53816100  0.16559100  0.25000000  1
  O  O8  1  0.35826400  0.35826400  0.50000000  1
  O  O9  1  0.35826400  0.35826400  0.00000000  1
  O  O10  1  0.61848500  0.00098800  0.55430300  1
  O  O11  1  0.00098800  0.61848500  0.44569700  1
  O  O12  1  0.00098800  0.61848500  0.05430300  1
  O  O13  1  0.61848500  0.00098800  0.94569700  1
