# generated using pymatgen
data_AgIO3
_symmetry_space_group_name_H-M   'P 1'
_cell_length_a   5.89721600
_cell_length_b   7.26060500
_cell_length_c   15.51162100
_cell_angle_alpha   90.00000000
_cell_angle_beta   90.00000000
_cell_angle_gamma   90.00000000
_symmetry_Int_Tables_number   1
_chemical_formula_structural   AgIO3
_chemical_formula_sum   'Ag8 I8 O24'
_cell_volume   664.16659812
_cell_formula_units_Z   8
loop_
 _symmetry_equiv_pos_site_id
 _symmetry_equiv_pos_as_xyz
  1  'x, y, z'
loop_
 _atom_site_type_symbol
 _atom_site_label
 _atom_site_symmetry_multiplicity
 _atom_site_fract_x
 _atom_site_fract_y
 _atom_site_fract_z
 _atom_site_occupancy
  Ag  Ag0  1  0.00104300  0.60578100  0.70263100  1
  Ag  Ag1  1  0.50104300  0.39421900  0.29736900  1
  Ag  Ag2  1  0.00104300  0.39421900  0.20263100  1
  Ag  Ag3  1  0.50104300  0.60578100  0.79736900  1
  Ag  Ag4  1  0.99359300  0.13095100  0.70586500  1
  Ag  Ag5  1  0.49359300  0.86904900  0.29413500  1
  Ag  Ag6  1  0.99359300  0.86904900  0.20586500  1
  Ag  Ag7  1  0.49359300  0.13095100  0.79413500  1
  I  I8  1  0.60010400  0.86943400  0.58925300  1
  I  I9  1  0.10010400  0.13056600  0.41074700  1
  I  I10  1  0.60010400  0.13056600  0.08925300  1
  I  I11  1  0.10010400  0.86943400  0.91074700  1
  I  I12  1  0.51471500  0.36411500  0.59024300  1
  I  I13  1  0.01471500  0.63588500  0.40975700  1
  I  I14  1  0.51471500  0.63588500  0.09024300  1
  I  I15  1  0.01471500  0.36411500  0.90975700  1
  O  O16  1  0.16900800  0.37390600  0.80490300  1
  O  O17  1  0.66900800  0.62609400  0.19509700  1
  O  O18  1  0.16900800  0.62609400  0.30490300  1
  O  O19  1  0.66900800  0.37390600  0.69509700  1
  O  O20  1  0.14410300  0.86442800  0.79291900  1
  O  O21  1  0.64410300  0.13557200  0.20708100  1
  O  O22  1  0.14410300  0.13557200  0.29291900  1
  O  O23  1  0.64410300  0.86442800  0.70708100  1
  O  O24  1  0.29466300  0.06308700  0.93320600  1
  O  O25  1  0.79466300  0.93691300  0.06679400  1
  O  O26  1  0.29466300  0.93691300  0.43320600  1
  O  O27  1  0.79466300  0.06308700  0.56679400  1
  O  O28  1  0.82962900  0.16775800  0.88051700  1
  O  O29  1  0.32962900  0.83224200  0.11948300  1
  O  O30  1  0.82962900  0.83224200  0.38051700  1
  O  O31  1  0.32962900  0.16775800  0.61948300  1
  O  O32  1  0.32086200  0.56015700  0.60814000  1
  O  O33  1  0.82086200  0.43984300  0.39186000  1
  O  O34  1  0.32086200  0.43984300  0.10814000  1
  O  O35  1  0.82086200  0.56015700  0.89186000  1
  O  O36  1  0.79588100  0.67569500  0.56456200  1
  O  O37  1  0.29588100  0.32430500  0.43543800  1
  O  O38  1  0.79588100  0.32430500  0.06456200  1
  O  O39  1  0.29588100  0.67569500  0.93543800  1
