# generated using pymatgen
data_Zr(IO3)4
_symmetry_space_group_name_H-M   'P 1'
_cell_length_a   8.52943800
_cell_length_b   8.52943800
_cell_length_c   7.54299000
_cell_angle_alpha   90.00000000
_cell_angle_beta   90.00000000
_cell_angle_gamma   90.00000000
_symmetry_Int_Tables_number   1
_chemical_formula_structural   Zr(IO3)4
_chemical_formula_sum   'Zr2 I8 O24'
_cell_volume   548.76242340
_cell_formula_units_Z   2
loop_
 _symmetry_equiv_pos_site_id
 _symmetry_equiv_pos_as_xyz
  1  'x, y, z'
loop_
 _atom_site_type_symbol
 _atom_site_label
 _atom_site_symmetry_multiplicity
 _atom_site_fract_x
 _atom_site_fract_y
 _atom_site_fract_z
 _atom_site_occupancy
  Zr  Zr0  1  0.00000000  0.50000000  0.05452300  1
  Zr  Zr1  1  0.50000000  0.00000000  0.94547700  1
  I  I2  1  0.75437200  0.72170300  0.72768500  1
  I  I3  1  0.77829700  0.25437200  0.72768500  1
  I  I4  1  0.27829700  0.75437200  0.27231500  1
  I  I5  1  0.25437200  0.22170300  0.27231500  1
  I  I6  1  0.74562800  0.77829700  0.27231500  1
  I  I7  1  0.72170300  0.24562800  0.27231500  1
  I  I8  1  0.24562800  0.27829700  0.72768500  1
  I  I9  1  0.22170300  0.74562800  0.72768500  1
  O  O10  1  0.20437900  0.58904700  0.90132800  1
  O  O11  1  0.08904700  0.29562100  0.90132800  1
  O  O12  1  0.91095300  0.70437900  0.90132800  1
  O  O13  1  0.79562100  0.41095300  0.90132800  1
  O  O14  1  0.29562100  0.91095300  0.09867200  1
  O  O15  1  0.41095300  0.20437900  0.09867200  1
  O  O16  1  0.58904700  0.79562100  0.09867200  1
  O  O17  1  0.70437900  0.08904700  0.09867200  1
  O  O18  1  0.42762200  0.79319800  0.78274400  1
  O  O19  1  0.29319800  0.07237800  0.78274400  1
  O  O20  1  0.74416800  0.40064600  0.55453100  1
  O  O21  1  0.90064600  0.75583200  0.55453100  1
  O  O22  1  0.09935400  0.24416800  0.55453100  1
  O  O23  1  0.25583200  0.59935400  0.55453100  1
  O  O24  1  0.75583200  0.09935400  0.44546900  1
  O  O25  1  0.59935400  0.74416800  0.44546900  1
  O  O26  1  0.40064600  0.25583200  0.44546900  1
  O  O27  1  0.24416800  0.90064600  0.44546900  1
  O  O28  1  0.92762200  0.29319800  0.21725600  1
  O  O29  1  0.79319800  0.57237800  0.21725600  1
  O  O30  1  0.20680200  0.42762200  0.21725600  1
  O  O31  1  0.07237800  0.70680200  0.21725600  1
  O  O32  1  0.57237800  0.20680200  0.78274400  1
  O  O33  1  0.70680200  0.92762200  0.78274400  1
