# generated using pymatgen
data_U(BH4)4
_symmetry_space_group_name_H-M   'P 1'
_cell_length_a   7.45022900
_cell_length_b   7.45022900
_cell_length_c   13.16872700
_cell_angle_alpha   90.00000000
_cell_angle_beta   90.00000000
_cell_angle_gamma   90.00000000
_symmetry_Int_Tables_number   1
_chemical_formula_structural   U(BH4)4
_chemical_formula_sum   'U4 B16 H64'
_cell_volume   730.94220402
_cell_formula_units_Z   4
loop_
 _symmetry_equiv_pos_site_id
 _symmetry_equiv_pos_as_xyz
  1  'x, y, z'
loop_
 _atom_site_type_symbol
 _atom_site_label
 _atom_site_symmetry_multiplicity
 _atom_site_fract_x
 _atom_site_fract_y
 _atom_site_fract_z
 _atom_site_occupancy
  U  U0  1  0.07076300  0.07076300  0.50000000  1
  U  U1  1  0.42923700  0.57076300  0.25000000  1
  U  U2  1  0.57076300  0.42923700  0.75000000  1
  U  U3  1  0.92923700  0.92923700  0.00000000  1
  B  B4  1  0.33900400  0.21106600  0.62683500  1
  B  B5  1  0.66099600  0.78893400  0.12683500  1
  B  B6  1  0.21106600  0.33900400  0.37316500  1
  B  B7  1  0.71106600  0.16099600  0.87683500  1
  B  B8  1  0.28893400  0.83900400  0.37683500  1
  B  B9  1  0.16099600  0.71106600  0.12316500  1
  B  B10  1  0.83900400  0.28893400  0.62316500  1
  B  B11  1  0.78893400  0.66099600  0.87316500  1
  B  B12  1  0.07380300  0.79110100  0.60148900  1
  B  B13  1  0.92619700  0.20889900  0.10148900  1
  B  B14  1  0.79110100  0.07380300  0.39851100  1
  B  B15  1  0.29110100  0.42619700  0.85148900  1
  B  B16  1  0.70889900  0.57380300  0.35148900  1
  B  B17  1  0.42619700  0.29110100  0.14851100  1
  B  B18  1  0.57380300  0.70889900  0.64851100  1
  B  B19  1  0.20889900  0.92619700  0.89851100  1
  H  H20  1  0.84535000  0.57580800  0.39928400  1
  H  H21  1  0.15465000  0.42419200  0.89928400  1
  H  H22  1  0.57580800  0.84535000  0.60071600  1
  H  H23  1  0.07580800  0.65465000  0.64928400  1
  H  H24  1  0.92419200  0.34535000  0.14928400  1
  H  H25  1  0.65465000  0.07580800  0.35071600  1
  H  H26  1  0.34535000  0.92419200  0.85071600  1
  H  H27  1  0.42419200  0.15465000  0.10071600  1
  H  H28  1  0.72282900  0.50033800  0.26636600  1
  H  H29  1  0.27717100  0.49966200  0.76636600  1
  H  H30  1  0.50033800  0.72282900  0.73363400  1
  H  H31  1  0.00033800  0.77717100  0.51636600  1
  H  H32  1  0.99966200  0.22282900  0.01636600  1
  H  H33  1  0.77717100  0.00033800  0.48363400  1
  H  H34  1  0.22282900  0.99966200  0.98363400  1
  H  H35  1  0.49966200  0.27717100  0.23363400  1
  H  H36  1  0.64275600  0.72552700  0.33582000  1
  H  H37  1  0.35724400  0.27447300  0.83582000  1
  H  H38  1  0.72552700  0.64275600  0.66418000  1
  H  H39  1  0.22552700  0.85724400  0.58582000  1
  H  H40  1  0.37610600  0.35402400  0.37869000  1
  H  H41  1  0.14597600  0.87610600  0.12869000  1
  H  H42  1  0.85402400  0.12389400  0.62869000  1
  H  H43  1  0.87610600  0.14597600  0.87131000  1
  H  H44  1  0.12389400  0.85402400  0.37131000  1
  H  H45  1  0.62389400  0.64597600  0.87869000  1
  H  H46  1  0.35402400  0.37610600  0.62131000  1
  H  H47  1  0.64597600  0.62389400  0.12131000  1
  H  H48  1  0.14597100  0.44535300  0.31172500  1
  H  H49  1  0.05464700  0.64597100  0.06172500  1
  H  H50  1  0.94535300  0.35402900  0.56172500  1
  H  H51  1  0.64597100  0.05464700  0.93827500  1
  H  H52  1  0.35402900  0.94535300  0.43827500  1
  H  H53  1  0.85402900  0.55464700  0.81172500  1
  H  H54  1  0.44535300  0.14597100  0.68827500  1
  H  H55  1  0.55464700  0.85402900  0.18827500  1
  H  H56  1  0.14842400  0.37112900  0.45816500  1
  H  H57  1  0.12887100  0.64842400  0.20816500  1
  H  H58  1  0.87112900  0.35157600  0.70816500  1
  H  H59  1  0.64842400  0.12887100  0.79183500  1
  H  H60  1  0.35157600  0.87112900  0.29183500  1
  H  H61  1  0.85157600  0.62887100  0.95816500  1
  H  H62  1  0.37112900  0.14842400  0.54183500  1
  H  H63  1  0.62887100  0.85157600  0.04183500  1
  H  H64  1  0.17449100  0.18456000  0.34501900  1
  H  H65  1  0.31544000  0.67449100  0.09501900  1
  H  H66  1  0.68456000  0.32550900  0.59501900  1
  H  H67  1  0.67449100  0.31544000  0.90498100  1
  H  H68  1  0.32550900  0.68456000  0.40498100  1
  H  H69  1  0.82550900  0.81544000  0.84501900  1
  H  H70  1  0.18456000  0.17449100  0.65498100  1
  H  H71  1  0.81544000  0.82550900  0.15498100  1
  H  H72  1  0.00960700  0.08319600  0.14281600  1
  H  H73  1  0.41680400  0.50960700  0.89281600  1
  H  H74  1  0.58319600  0.49039300  0.39281600  1
  H  H75  1  0.50960700  0.41680400  0.10718400  1
  H  H76  1  0.49039300  0.58319600  0.60718400  1
  H  H77  1  0.99039300  0.91680400  0.64281600  1
  H  H78  1  0.08319600  0.00960700  0.85718400  1
  H  H79  1  0.91680400  0.99039300  0.35718400  1
  H  H80  1  0.27447300  0.35724400  0.16418000  1
  H  H81  1  0.14275600  0.77447300  0.91418000  1
  H  H82  1  0.85724400  0.22552700  0.41418000  1
  H  H83  1  0.77447300  0.14275600  0.08582000  1
