# generated using pymatgen
data_K2VH2OF5
_symmetry_space_group_name_H-M   'P 1'
_cell_length_a   6.38968685
_cell_length_b   6.38991416
_cell_length_c   8.01443608
_cell_angle_alpha   85.15353028
_cell_angle_beta   85.15232061
_cell_angle_gamma   78.86820360
_symmetry_Int_Tables_number   1
_chemical_formula_structural   K2VH2OF5
_chemical_formula_sum   'K4 V2 H4 O2 F10'
_cell_volume   319.14213085
_cell_formula_units_Z   2
loop_
 _symmetry_equiv_pos_site_id
 _symmetry_equiv_pos_as_xyz
  1  'x, y, z'
loop_
 _atom_site_type_symbol
 _atom_site_label
 _atom_site_symmetry_multiplicity
 _atom_site_fract_x
 _atom_site_fract_y
 _atom_site_fract_z
 _atom_site_occupancy
  K  K0  1  0.30256100  0.29908600  0.03455700  1
  K  K1  1  0.70090900  0.69743300  0.46544900  1
  K  K2  1  0.69743700  0.70091500  0.96544100  1
  K  K3  1  0.29909200  0.30256400  0.53455000  1
  V  V4  1  0.79726800  0.20273300  0.24999700  1
  V  V5  1  0.20274200  0.79726400  0.75000400  1
  H  H6  1  0.09856900  0.84900700  0.15512400  1
  H  H7  1  0.15098700  0.90143800  0.34486500  1
  H  H8  1  0.90143000  0.15099800  0.84487700  1
  H  H9  1  0.84901600  0.09856200  0.65513600  1
  O  O10  1  0.05680700  0.94319300  0.25001300  1
  O  O11  1  0.94318800  0.05680300  0.74997900  1
  F  F12  1  0.45028400  0.54971900  0.75000100  1
  F  F13  1  0.54971700  0.45028300  0.24999700  1
  F  F14  1  0.38464900  0.98667800  0.81041500  1
  F  F15  1  0.01331900  0.61534800  0.68958200  1
  F  F16  1  0.61534700  0.01332200  0.18959100  1
  F  F17  1  0.98668100  0.38465300  0.31042100  1
  F  F18  1  0.27787300  0.86762600  0.51123200  1
  F  F19  1  0.13237000  0.72212700  0.98876900  1
  F  F20  1  0.72212700  0.13237700  0.48876900  1
  F  F21  1  0.86763000  0.27787200  0.01123100  1
