# generated using pymatgen
data_Li10BrN3
_symmetry_space_group_name_H-M   'P 1'
_cell_length_a   7.44113840
_cell_length_b   7.44113840
_cell_length_c   3.87810100
_cell_angle_alpha   90.00000000
_cell_angle_beta   90.00000000
_cell_angle_gamma   120.00000353
_symmetry_Int_Tables_number   1
_chemical_formula_structural   Li10BrN3
_chemical_formula_sum   'Li10 Br1 N3'
_cell_volume   185.96383589
_cell_formula_units_Z   1
loop_
 _symmetry_equiv_pos_site_id
 _symmetry_equiv_pos_as_xyz
  1  'x, y, z'
loop_
 _atom_site_type_symbol
 _atom_site_label
 _atom_site_symmetry_multiplicity
 _atom_site_fract_x
 _atom_site_fract_y
 _atom_site_fract_z
 _atom_site_occupancy
  Li  Li0  1  0.77833200  0.55666400  0.00000000  1
  Li  Li1  1  0.44333600  0.22166800  0.00000000  1
  Li  Li2  1  0.77833200  0.22166800  0.00000000  1
  Li  Li3  1  0.16717600  0.33435100  0.00000000  1
  Li  Li4  1  0.49164900  0.50835100  0.50000000  1
  Li  Li5  1  0.01670300  0.50835100  0.50000000  1
  Li  Li6  1  0.49164900  0.98329700  0.50000000  1
  Li  Li7  1  0.33333300  0.66666700  0.00000000  1
  Li  Li8  1  0.16717600  0.83282400  0.00000000  1
  Li  Li9  1  0.66564900  0.83282400  0.00000000  1
  Br  Br10  1  0.00000000  0.00000000  0.50000000  1
  N  N11  1  0.49137500  0.50862500  0.00000000  1
  N  N12  1  0.49137500  0.98274900  0.00000000  1
  N  N13  1  0.01725100  0.50862500  0.00000000  1
