# generated using pymatgen
data_Li3BO3
_symmetry_space_group_name_H-M   'P 1'
_cell_length_a   9.26466900
_cell_length_b   3.31508600
_cell_length_c   8.39555117
_cell_angle_alpha   78.70377812
_cell_angle_beta   90.00000000
_cell_angle_gamma   90.00000000
_symmetry_Int_Tables_number   1
_chemical_formula_structural   Li3BO3
_chemical_formula_sum   'Li12 B4 O12'
_cell_volume   252.85877073
_cell_formula_units_Z   4
loop_
 _symmetry_equiv_pos_site_id
 _symmetry_equiv_pos_as_xyz
  1  'x, y, z'
loop_
 _atom_site_type_symbol
 _atom_site_label
 _atom_site_symmetry_multiplicity
 _atom_site_fract_x
 _atom_site_fract_y
 _atom_site_fract_z
 _atom_site_occupancy
  Li  Li0  1  0.76773500  0.49186500  0.98138700  1
  Li  Li1  1  0.26773500  0.50813500  0.51861300  1
  Li  Li2  1  0.23226500  0.50813500  0.01861300  1
  Li  Li3  1  0.73226500  0.49186500  0.48138700  1
  Li  Li4  1  0.52282700  0.27480100  0.88738700  1
  Li  Li5  1  0.02282700  0.72519900  0.61261300  1
  Li  Li6  1  0.47717300  0.72519900  0.11261300  1
  Li  Li7  1  0.97717300  0.27480100  0.38738700  1
  Li  Li8  1  0.57400400  0.90586300  0.63346300  1
  Li  Li9  1  0.07400400  0.09413700  0.86653700  1
  Li  Li10  1  0.42599600  0.09413700  0.36653700  1
  Li  Li11  1  0.92599600  0.90586300  0.13346300  1
  B  B12  1  0.81428200  0.19822300  0.74581700  1
  B  B13  1  0.31428200  0.80177700  0.75418300  1
  B  B14  1  0.18571800  0.80177700  0.25418300  1
  B  B15  1  0.68571800  0.19822300  0.24581700  1
  O  O16  1  0.86235900  0.02839700  0.90065400  1
  O  O17  1  0.36235900  0.97160300  0.59934600  1
  O  O18  1  0.13764100  0.97160300  0.09934600  1
  O  O19  1  0.63764100  0.02839700  0.40065400  1
  O  O20  1  0.90683300  0.22941000  0.61281600  1
  O  O21  1  0.40683300  0.77059000  0.88718400  1
  O  O22  1  0.09316700  0.77059000  0.38718400  1
  O  O23  1  0.59316700  0.22941000  0.11281600  1
  O  O24  1  0.67440700  0.36019300  0.72129400  1
  O  O25  1  0.17440700  0.63980700  0.77870600  1
  O  O26  1  0.32559300  0.63980700  0.27870600  1
  O  O27  1  0.82559300  0.36019300  0.22129400  1
