# generated using pymatgen
data_Fe4As5O13
_symmetry_space_group_name_H-M   'P 1'
_cell_length_a   9.13094100
_cell_length_b   9.28883454
_cell_length_c   9.32033154
_cell_angle_alpha   94.15072539
_cell_angle_beta   115.98231805
_cell_angle_gamma   112.48111970
_symmetry_Int_Tables_number   1
_chemical_formula_structural   Fe4As5O13
_chemical_formula_sum   'Fe8 As10 O26'
_cell_volume   628.62865022
_cell_formula_units_Z   2
loop_
 _symmetry_equiv_pos_site_id
 _symmetry_equiv_pos_as_xyz
  1  'x, y, z'
loop_
 _atom_site_type_symbol
 _atom_site_label
 _atom_site_symmetry_multiplicity
 _atom_site_fract_x
 _atom_site_fract_y
 _atom_site_fract_z
 _atom_site_occupancy
  Fe  Fe0  1  0.00000000  0.50000000  0.00000000  1
  Fe  Fe1  1  0.00000000  0.50000000  0.50000000  1
  Fe  Fe2  1  0.73817200  0.30307800  0.62060000  1
  Fe  Fe3  1  0.26182800  0.69692200  0.37940000  1
  Fe  Fe4  1  0.35250800  0.88360900  0.80314700  1
  Fe  Fe5  1  0.64749200  0.11639100  0.19685300  1
  Fe  Fe6  1  0.46924500  0.72094800  0.10568800  1
  Fe  Fe7  1  0.53075500  0.27905200  0.89431200  1
  As  As8  1  0.90070700  0.70511200  0.69795400  1
  As  As9  1  0.09929300  0.29488800  0.30204600  1
  As  As10  1  0.15929200  0.33717200  0.83268300  1
  As  As11  1  0.84070800  0.66282800  0.16731700  1
  As  As12  1  0.21209500  0.93090800  0.09534000  1
  As  As13  1  0.78790500  0.06909200  0.90466000  1
  As  As14  1  0.53300300  0.40769500  0.26256600  1
  As  As15  1  0.46699700  0.59230500  0.73743400  1
  As  As16  1  0.69817800  0.94898700  0.45903600  1
  As  As17  1  0.30182200  0.05101300  0.54096400  1
  O  O18  1  0.09561000  0.70639900  0.68563500  1
  O  O19  1  0.90439000  0.29360100  0.31436500  1
  O  O20  1  0.62616800  0.08865400  0.96218500  1
  O  O21  1  0.37383200  0.91134600  0.03781500  1
  O  O22  1  0.00715400  0.64879300  0.35545400  1
  O  O23  1  0.99284600  0.35120700  0.64454600  1
  O  O24  1  0.48364400  0.76429800  0.36304200  1
  O  O25  1  0.51635600  0.23570200  0.63695800  1
  O  O26  1  0.26098000  0.56183600  0.54872600  1
  O  O27  1  0.73902000  0.43816400  0.45127400  1
  O  O28  1  0.86325900  0.26188600  0.85436700  1
  O  O29  1  0.13674100  0.73811400  0.14563300  1
  O  O30  1  0.29000100  0.06238500  0.73156500  1
  O  O31  1  0.70999900  0.93761500  0.26843500  1
  O  O32  1  0.13985400  0.46829800  0.22098500  1
  O  O33  1  0.86014600  0.53170200  0.77901500  1
  O  O34  1  0.78165600  0.47928400  0.02799100  1
  O  O35  1  0.21834400  0.52071600  0.97200900  1
  O  O36  1  0.62189500  0.10652500  0.41794200  1
  O  O37  1  0.37810500  0.89347500  0.58205800  1
  O  O38  1  0.36604400  0.41453600  0.80158100  1
  O  O39  1  0.63395600  0.58546400  0.19841900  1
  O  O40  1  0.98169900  0.12927300  0.11089200  1
  O  O41  1  0.52412700  0.25682400  0.12409200  1
  O  O42  1  0.01830100  0.87072700  0.88910800  1
  O  O43  1  0.47587300  0.74317600  0.87590800  1
