# generated using pymatgen
data_Nb6C5
_symmetry_space_group_name_H-M   'P 1'
_cell_length_a   5.51006217
_cell_length_b   5.51006217
_cell_length_c   5.51213825
_cell_angle_alpha   80.28765697
_cell_angle_beta   80.28765697
_cell_angle_gamma   119.86766447
_symmetry_Int_Tables_number   1
_chemical_formula_structural   Nb6C5
_chemical_formula_sum   'Nb6 C5'
_cell_volume   136.64958725
_cell_formula_units_Z   1
loop_
 _symmetry_equiv_pos_site_id
 _symmetry_equiv_pos_as_xyz
  1  'x, y, z'
loop_
 _atom_site_type_symbol
 _atom_site_label
 _atom_site_symmetry_multiplicity
 _atom_site_fract_x
 _atom_site_fract_y
 _atom_site_fract_z
 _atom_site_occupancy
  Nb  Nb0  1  0.73556500  0.73556500  0.73558100  1
  Nb  Nb1  1  0.26443500  0.26443500  0.26441900  1
  Nb  Nb2  1  0.08309100  0.43628000  0.74632800  1
  Nb  Nb3  1  0.56372000  0.91690900  0.25367200  1
  Nb  Nb4  1  0.91690900  0.56372000  0.25367200  1
  Nb  Nb5  1  0.43628000  0.08309100  0.74632800  1
  C  C6  1  0.50000000  0.50000000  0.50000000  1
  C  C7  1  0.66481100  0.33518900  0.00000000  1
  C  C8  1  0.33518900  0.66481100  0.00000000  1
  C  C9  1  0.83324200  0.16675800  0.50000000  1
  C  C10  1  0.16675800  0.83324200  0.50000000  1
