# generated using pymatgen
data_UTlF5
_symmetry_space_group_name_H-M   'P 1'
_cell_length_a   13.99732400
_cell_length_b   8.31876000
_cell_length_c   8.42867754
_cell_angle_alpha   77.25206657
_cell_angle_beta   90.00000000
_cell_angle_gamma   90.00000000
_symmetry_Int_Tables_number   1
_chemical_formula_structural   UTlF5
_chemical_formula_sum   'U8 Tl8 F40'
_cell_volume   957.24622543
_cell_formula_units_Z   8
loop_
 _symmetry_equiv_pos_site_id
 _symmetry_equiv_pos_as_xyz
  1  'x, y, z'
loop_
 _atom_site_type_symbol
 _atom_site_label
 _atom_site_symmetry_multiplicity
 _atom_site_fract_x
 _atom_site_fract_y
 _atom_site_fract_z
 _atom_site_occupancy
  U  U0  1  0.25556900  0.01540000  0.90278900  1
  U  U1  1  0.75556900  0.98460000  0.59721100  1
  U  U2  1  0.74443100  0.98460000  0.09721100  1
  U  U3  1  0.24443100  0.01540000  0.40278900  1
  U  U4  1  0.24647000  0.44678500  0.53907300  1
  U  U5  1  0.74647000  0.55321500  0.96092700  1
  U  U6  1  0.75353000  0.55321500  0.46092700  1
  U  U7  1  0.25353000  0.44678500  0.03907300  1
  Tl  Tl8  1  0.51982800  0.23003800  0.77940900  1
  Tl  Tl9  1  0.01982800  0.76996200  0.72059100  1
  Tl  Tl10  1  0.48017200  0.76996200  0.22059100  1
  Tl  Tl11  1  0.98017200  0.23003800  0.27940900  1
  Tl  Tl12  1  0.98575100  0.27523300  0.80191700  1
  Tl  Tl13  1  0.48575100  0.72476700  0.69808300  1
  Tl  Tl14  1  0.01424900  0.72476700  0.19808300  1
  Tl  Tl15  1  0.51424900  0.27523300  0.30191700  1
  F  F16  1  0.89899900  0.01721100  0.06611300  1
  F  F17  1  0.39899900  0.98278900  0.43388700  1
  F  F18  1  0.10100100  0.98278900  0.93388700  1
  F  F19  1  0.60100100  0.01721100  0.56611300  1
  F  F20  1  0.89685700  0.47398200  0.42108100  1
  F  F21  1  0.39685700  0.52601800  0.07891900  1
  F  F22  1  0.10314300  0.52601800  0.57891900  1
  F  F23  1  0.60314300  0.47398200  0.92108100  1
  F  F24  1  0.59670900  0.06574100  0.11379700  1
  F  F25  1  0.09670900  0.93425900  0.38620300  1
  F  F26  1  0.40329100  0.93425900  0.88620300  1
  F  F27  1  0.90329100  0.06574100  0.61379700  1
  F  F28  1  0.31179900  0.28452800  0.30872900  1
  F  F29  1  0.81179900  0.71547200  0.19127100  1
  F  F30  1  0.68820100  0.71547200  0.69127100  1
  F  F31  1  0.18820100  0.28452800  0.80872900  1
  F  F32  1  0.80191100  0.46930500  0.73124900  1
  F  F33  1  0.30191100  0.53069500  0.76875100  1
  F  F34  1  0.19808900  0.53069500  0.26875100  1
  F  F35  1  0.69808900  0.46930500  0.23124900  1
  F  F36  1  0.70906600  0.07900400  0.82425600  1
  F  F37  1  0.20906600  0.92099600  0.67574400  1
  F  F38  1  0.29093400  0.92099600  0.17574400  1
  F  F39  1  0.79093400  0.07900400  0.32425600  1
  F  F40  1  0.73873300  0.27009400  0.52956200  1
  F  F41  1  0.23873300  0.72990600  0.97043800  1
  F  F42  1  0.26126700  0.72990600  0.47043800  1
  F  F43  1  0.76126700  0.27009400  0.02956200  1
  F  F44  1  0.34716000  0.22610000  0.98048700  1
  F  F45  1  0.84716000  0.77390000  0.51951300  1
  F  F46  1  0.65284000  0.77390000  0.01951300  1
  F  F47  1  0.15284000  0.22610000  0.48048700  1
  F  F48  1  0.39786400  0.48115100  0.48997900  1
  F  F49  1  0.89786400  0.51884900  0.01002100  1
  F  F50  1  0.60213600  0.51884900  0.51002100  1
  F  F51  1  0.10213600  0.48115100  0.98997900  1
  F  F52  1  0.31727500  0.17629300  0.64496200  1
  F  F53  1  0.81727500  0.82370700  0.85503800  1
  F  F54  1  0.68272500  0.82370700  0.35503800  1
  F  F55  1  0.18272500  0.17629300  0.14496200  1
