# generated using pymatgen
data_Fe(SbO2)2
_symmetry_space_group_name_H-M   'P 1'
_cell_length_a   6.06099501
_cell_length_b   8.77203000
_cell_length_c   8.77193901
_cell_angle_alpha   89.99911168
_cell_angle_beta   89.99470244
_cell_angle_gamma   89.99948055
_symmetry_Int_Tables_number   1
_chemical_formula_structural   Fe(SbO2)2
_chemical_formula_sum   'Fe4 Sb8 O16'
_cell_volume   466.37969706
_cell_formula_units_Z   4
loop_
 _symmetry_equiv_pos_site_id
 _symmetry_equiv_pos_as_xyz
  1  'x, y, z'
loop_
 _atom_site_type_symbol
 _atom_site_label
 _atom_site_symmetry_multiplicity
 _atom_site_fract_x
 _atom_site_fract_y
 _atom_site_fract_z
 _atom_site_occupancy
  Fe  Fe0  1  0.75000300  0.99984700  0.49995300  1
  Fe  Fe1  1  0.25000700  0.50008200  0.99985700  1
  Fe  Fe2  1  0.75000000  0.50007100  0.99987800  1
  Fe  Fe3  1  0.24997700  0.99984400  0.50010200  1
  Sb  Sb4  1  0.50000000  0.33276300  0.32227600  1
  Sb  Sb5  1  0.00000200  0.32227900  0.66724200  1
  Sb  Sb6  1  0.50000300  0.16724700  0.82228900  1
  Sb  Sb7  1  0.99999500  0.82228400  0.83277600  1
  Sb  Sb8  1  0.50000300  0.66723900  0.67772400  1
  Sb  Sb9  1  0.00000300  0.67772900  0.33276700  1
  Sb  Sb10  1  0.50000400  0.83277400  0.17774500  1
  Sb  Sb11  1  0.00000400  0.17773500  0.16724600  1
  O  O12  1  0.74999800  0.32075200  0.82074300  1
  O  O13  1  0.24999300  0.82073900  0.67927400  1
  O  O14  1  0.75000600  0.17926200  0.32075400  1
  O  O15  1  0.24999900  0.32074500  0.82074700  1
  O  O16  1  0.74999800  0.82074100  0.67927400  1
  O  O17  1  0.25000600  0.17925700  0.32075400  1
  O  O18  1  0.24999800  0.67927400  0.17926100  1
  O  O19  1  0.74999800  0.67926400  0.17926700  1
  O  O20  1  0.49998800  0.86061600  0.40016600  1
  O  O21  1  0.00001600  0.40014900  0.13937700  1
  O  O22  1  0.49999100  0.63940300  0.90014500  1
  O  O23  1  0.99998400  0.90014900  0.36063200  1
  O  O24  1  0.50000900  0.13939100  0.59987700  1
  O  O25  1  0.99999300  0.59986500  0.86060800  1
  O  O26  1  0.50001300  0.36063200  0.09986300  1
  O  O27  1  0.00000900  0.09986700  0.63940200  1
