# generated using pymatgen
data_CaAsPd
_symmetry_space_group_name_H-M   'P 1'
_cell_length_a   7.23139200
_cell_length_b   8.75733600
_cell_length_c   16.75695200
_cell_angle_alpha   90.00000000
_cell_angle_beta   90.00000000
_cell_angle_gamma   90.00000000
_symmetry_Int_Tables_number   1
_chemical_formula_structural   CaAsPd
_chemical_formula_sum   'Ca16 As16 Pd16'
_cell_volume   1061.17972336
_cell_formula_units_Z   16
loop_
 _symmetry_equiv_pos_site_id
 _symmetry_equiv_pos_as_xyz
  1  'x, y, z'
loop_
 _atom_site_type_symbol
 _atom_site_label
 _atom_site_symmetry_multiplicity
 _atom_site_fract_x
 _atom_site_fract_y
 _atom_site_fract_z
 _atom_site_occupancy
  Ca  Ca0  1  0.76670600  0.00919200  0.18814400  1
  Ca  Ca1  1  0.26670600  0.49080800  0.31185600  1
  Ca  Ca2  1  0.23329400  0.50919200  0.81185600  1
  Ca  Ca3  1  0.73329400  0.99080800  0.68814400  1
  Ca  Ca4  1  0.23329400  0.99080800  0.81185600  1
  Ca  Ca5  1  0.73329400  0.50919200  0.68814400  1
  Ca  Ca6  1  0.76670600  0.49080800  0.18814400  1
  Ca  Ca7  1  0.26670600  0.00919200  0.31185600  1
  Ca  Ca8  1  0.25065300  0.02206400  0.06101800  1
  Ca  Ca9  1  0.75065300  0.47793600  0.43898200  1
  Ca  Ca10  1  0.74934700  0.52206400  0.93898200  1
  Ca  Ca11  1  0.24934700  0.97793600  0.56101800  1
  Ca  Ca12  1  0.74934700  0.97793600  0.93898200  1
  Ca  Ca13  1  0.24934700  0.52206400  0.56101800  1
  Ca  Ca14  1  0.25065300  0.47793600  0.06101800  1
  Ca  Ca15  1  0.75065300  0.02206400  0.43898200  1
  As  As16  1  0.56960600  0.75000000  0.28875500  1
  As  As17  1  0.93039400  0.25000000  0.78875500  1
  As  As18  1  0.43039400  0.25000000  0.71124500  1
  As  As19  1  0.57761000  0.75000000  0.57060900  1
  As  As20  1  0.07761000  0.75000000  0.92939100  1
  As  As21  1  0.42239000  0.25000000  0.42939100  1
  As  As22  1  0.92239000  0.25000000  0.07060900  1
  As  As23  1  0.64403800  0.75000000  0.06722300  1
  As  As24  1  0.06960600  0.75000000  0.21124500  1
  As  As25  1  0.14403800  0.75000000  0.43277700  1
  As  As26  1  0.35596200  0.25000000  0.93277700  1
  As  As27  1  0.85596200  0.25000000  0.56722300  1
  As  As28  1  0.04959200  0.75000000  0.67702600  1
  As  As29  1  0.54959200  0.75000000  0.82297400  1
  As  As30  1  0.95040800  0.25000000  0.32297400  1
  As  As31  1  0.45040800  0.25000000  0.17702600  1
  Pd  Pd32  1  0.39155200  0.75000000  0.16551300  1
  Pd  Pd33  1  0.89155200  0.75000000  0.33448700  1
  Pd  Pd34  1  0.60844800  0.25000000  0.83448700  1
  Pd  Pd35  1  0.10844800  0.25000000  0.66551300  1
  Pd  Pd36  1  0.98653800  0.75000000  0.07114400  1
  Pd  Pd37  1  0.48653800  0.75000000  0.42885600  1
  Pd  Pd38  1  0.01346200  0.25000000  0.92885600  1
  Pd  Pd39  1  0.39016000  0.75000000  0.69227600  1
  Pd  Pd40  1  0.89016000  0.75000000  0.80772400  1
  Pd  Pd41  1  0.60984000  0.25000000  0.30772400  1
  Pd  Pd42  1  0.10984000  0.25000000  0.19227600  1
  Pd  Pd43  1  0.90656200  0.75000000  0.53774200  1
  Pd  Pd44  1  0.40656200  0.75000000  0.96225800  1
  Pd  Pd45  1  0.09343800  0.25000000  0.46225800  1
  Pd  Pd46  1  0.59343800  0.25000000  0.03774200  1
  Pd  Pd47  1  0.51346200  0.25000000  0.57114400  1
