# generated using pymatgen
data_Ba3(TaS4)2
_symmetry_space_group_name_H-M   'P 1'
_cell_length_a   6.93931200
_cell_length_b   12.15593000
_cell_length_c   12.74885541
_cell_angle_alpha   70.80741099
_cell_angle_beta   90.00000000
_cell_angle_gamma   90.00000000
_symmetry_Int_Tables_number   1
_chemical_formula_structural   Ba3(TaS4)2
_chemical_formula_sum   'Ba9 Ta6 S24'
_cell_volume   1015.64157466
_cell_formula_units_Z   3
loop_
 _symmetry_equiv_pos_site_id
 _symmetry_equiv_pos_as_xyz
  1  'x, y, z'
loop_
 _atom_site_type_symbol
 _atom_site_label
 _atom_site_symmetry_multiplicity
 _atom_site_fract_x
 _atom_site_fract_y
 _atom_site_fract_z
 _atom_site_occupancy
  Ba  Ba0  1  0.00000000  0.50000000  0.00000000  1
  Ba  Ba1  1  0.00000000  0.95302500  0.69110000  1
  Ba  Ba2  1  0.00000000  0.04697500  0.30890000  1
  Ba  Ba3  1  0.50000000  0.72202800  0.34354400  1
  Ba  Ba4  1  0.50000000  0.27797200  0.65645600  1
  Ba  Ba5  1  0.00000000  0.59478400  0.63539400  1
  Ba  Ba6  1  0.50000000  0.18344900  0.03582200  1
  Ba  Ba7  1  0.50000000  0.81655100  0.96417800  1
  Ba  Ba8  1  0.00000000  0.40521600  0.36460600  1
  Ta  Ta9  1  0.00000000  0.00000000  0.00000000  1
  Ta  Ta10  1  0.50000000  0.00000000  0.50000000  1
  Ta  Ta11  1  0.00000000  0.73021100  0.17245600  1
  Ta  Ta12  1  0.00000000  0.26978900  0.82754400  1
  Ta  Ta13  1  0.50000000  0.73407000  0.67568800  1
  Ta  Ta14  1  0.50000000  0.26593000  0.32431200  1
  S  S15  1  0.75174200  0.68725900  0.80093300  1
  S  S16  1  0.75174200  0.31274100  0.19906700  1
  S  S17  1  0.24825800  0.31274100  0.19906700  1
  S  S18  1  0.24825800  0.68725900  0.80093300  1
  S  S19  1  0.74445900  0.61686400  0.15273700  1
  S  S20  1  0.74445900  0.38313600  0.84726300  1
  S  S21  1  0.25554100  0.38313600  0.84726300  1
  S  S22  1  0.25554100  0.61686400  0.15273700  1
  S  S23  1  0.74460400  0.84800200  0.51588200  1
  S  S24  1  0.74460400  0.15199800  0.48411800  1
  S  S25  1  0.25539600  0.15199800  0.48411800  1
  S  S26  1  0.25539600  0.84800200  0.51588200  1
  S  S27  1  0.75939500  0.90773400  0.14522700  1
  S  S28  1  0.75939500  0.09226600  0.85477300  1
  S  S29  1  0.24060500  0.09226600  0.85477300  1
  S  S30  1  0.50000000  0.94281900  0.70057300  1
  S  S31  1  0.50000000  0.05718100  0.29942700  1
  S  S32  1  0.00000000  0.67540100  0.36761600  1
  S  S33  1  0.00000000  0.32459900  0.63238400  1
  S  S34  1  0.50000000  0.57954400  0.60397100  1
  S  S35  1  0.50000000  0.42045600  0.39602900  1
  S  S36  1  0.00000000  0.82242800  0.95390400  1
  S  S37  1  0.00000000  0.17757200  0.04609600  1
  S  S38  1  0.24060500  0.90773400  0.14522700  1
