# generated using pymatgen
data_Eu(FeP)2
_symmetry_space_group_name_H-M   'P 1'
_cell_length_a   6.00602098
_cell_length_b   6.00602098
_cell_length_c   6.00602098
_cell_angle_alpha   143.05406436
_cell_angle_beta   143.05406436
_cell_angle_gamma   53.24417512
_symmetry_Int_Tables_number   1
_chemical_formula_structural   Eu(FeP)2
_chemical_formula_sum   'Eu1 Fe2 P2'
_cell_volume   77.78148866
_cell_formula_units_Z   1
loop_
 _symmetry_equiv_pos_site_id
 _symmetry_equiv_pos_as_xyz
  1  'x, y, z'
loop_
 _atom_site_type_symbol
 _atom_site_label
 _atom_site_symmetry_multiplicity
 _atom_site_fract_x
 _atom_site_fract_y
 _atom_site_fract_z
 _atom_site_occupancy
  Eu  Eu0  1  0.00000000  0.00000000  0.00000000  1
  Fe  Fe1  1  0.75000000  0.25000000  0.50000000  1
  Fe  Fe2  1  0.25000000  0.75000000  0.50000000  1
  P  P3  1  0.64790800  0.64790800  0.00000000  1
  P  P4  1  0.35209200  0.35209200  0.00000000  1
