# generated using pymatgen
data_RbGeCl3
_symmetry_space_group_name_H-M   'P 1'
_cell_length_a   7.19642300
_cell_length_b   5.91437000
_cell_length_c   8.36143008
_cell_angle_alpha   72.40681997
_cell_angle_beta   90.00000000
_cell_angle_gamma   90.00000000
_symmetry_Int_Tables_number   1
_chemical_formula_structural   RbGeCl3
_chemical_formula_sum   'Rb2 Ge2 Cl6'
_cell_volume   339.23598320
_cell_formula_units_Z   2
loop_
 _symmetry_equiv_pos_site_id
 _symmetry_equiv_pos_as_xyz
  1  'x, y, z'
loop_
 _atom_site_type_symbol
 _atom_site_label
 _atom_site_symmetry_multiplicity
 _atom_site_fract_x
 _atom_site_fract_y
 _atom_site_fract_z
 _atom_site_occupancy
  Rb  Rb0  1  0.75000000  0.67281000  0.70070400  1
  Rb  Rb1  1  0.25000000  0.32719000  0.29929600  1
  Ge  Ge2  1  0.75000000  0.92832900  0.12686700  1
  Ge  Ge3  1  0.25000000  0.07167100  0.87313300  1
  Cl  Cl4  1  0.75000000  0.33063300  0.11740200  1
  Cl  Cl5  1  0.25000000  0.66936700  0.88259800  1
  Cl  Cl6  1  0.49247600  0.18315900  0.67650300  1
  Cl  Cl7  1  0.99247600  0.81684100  0.32349700  1
  Cl  Cl8  1  0.00752400  0.18315900  0.67650300  1
  Cl  Cl9  1  0.50752400  0.81684100  0.32349700  1
