# generated using pymatgen
data_DyGeAu
_symmetry_space_group_name_H-M   'P 1'
_cell_length_a   4.48064441
_cell_length_b   4.48064441
_cell_length_c   7.32916400
_cell_angle_alpha   90.00000000
_cell_angle_beta   90.00000000
_cell_angle_gamma   120.00000602
_symmetry_Int_Tables_number   1
_chemical_formula_structural   DyGeAu
_chemical_formula_sum   'Dy2 Ge2 Au2'
_cell_volume   127.42833330
_cell_formula_units_Z   2
loop_
 _symmetry_equiv_pos_site_id
 _symmetry_equiv_pos_as_xyz
  1  'x, y, z'
loop_
 _atom_site_type_symbol
 _atom_site_label
 _atom_site_symmetry_multiplicity
 _atom_site_fract_x
 _atom_site_fract_y
 _atom_site_fract_z
 _atom_site_occupancy
  Dy  Dy0  1  0.00000000  0.00000000  0.84226400  1
  Dy  Dy1  1  0.00000000  0.00000000  0.34226400  1
  Ge  Ge2  1  0.66666700  0.33333300  0.05046100  1
  Ge  Ge3  1  0.33333300  0.66666700  0.55046100  1
  Au  Au4  1  0.66666700  0.33333300  0.63327500  1
  Au  Au5  1  0.33333300  0.66666700  0.13327500  1
