# generated using pymatgen
data_Co9Se8
_symmetry_space_group_name_H-M   'P 1'
_cell_length_a   7.31249811
_cell_length_b   7.31249811
_cell_length_c   7.31249811
_cell_angle_alpha   60.00000000
_cell_angle_beta   60.00000000
_cell_angle_gamma   60.00000000
_symmetry_Int_Tables_number   1
_chemical_formula_structural   Co9Se8
_chemical_formula_sum   'Co9 Se8'
_cell_volume   276.49182968
_cell_formula_units_Z   1
loop_
 _symmetry_equiv_pos_site_id
 _symmetry_equiv_pos_as_xyz
  1  'x, y, z'
loop_
 _atom_site_type_symbol
 _atom_site_label
 _atom_site_symmetry_multiplicity
 _atom_site_fract_x
 _atom_site_fract_y
 _atom_site_fract_z
 _atom_site_occupancy
  Co  Co0  1  0.50000000  0.50000000  0.50000000  1
  Co  Co1  1  0.87660500  0.37018400  0.87660500  1
  Co  Co2  1  0.12339500  0.12339500  0.62981600  1
  Co  Co3  1  0.62981600  0.12339500  0.12339500  1
  Co  Co4  1  0.12339500  0.12339500  0.12339500  1
  Co  Co5  1  0.37018400  0.87660500  0.87660500  1
  Co  Co6  1  0.87660500  0.87660500  0.87660500  1
  Co  Co7  1  0.87660500  0.87660500  0.37018400  1
  Co  Co8  1  0.12339500  0.62981600  0.12339500  1
  Se  Se9  1  0.75000000  0.75000000  0.75000000  1
  Se  Se10  1  0.25000000  0.25000000  0.25000000  1
  Se  Se11  1  0.26370700  0.26370700  0.73629300  1
  Se  Se12  1  0.26370700  0.73629300  0.73629300  1
  Se  Se13  1  0.73629300  0.26370700  0.26370700  1
  Se  Se14  1  0.26370700  0.73629300  0.26370700  1
  Se  Se15  1  0.73629300  0.26370700  0.73629300  1
  Se  Se16  1  0.73629300  0.73629300  0.26370700  1
