# generated using pymatgen
data_KAuCl4
_symmetry_space_group_name_H-M   'P 1'
_cell_length_a   6.58688200
_cell_length_b   9.10042300
_cell_length_c   12.51330975
_cell_angle_alpha   83.43462487
_cell_angle_beta   90.00000000
_cell_angle_gamma   90.00000000
_symmetry_Int_Tables_number   1
_chemical_formula_structural   KAuCl4
_chemical_formula_sum   'K4 Au4 Cl16'
_cell_volume   745.17142615
_cell_formula_units_Z   4
loop_
 _symmetry_equiv_pos_site_id
 _symmetry_equiv_pos_as_xyz
  1  'x, y, z'
loop_
 _atom_site_type_symbol
 _atom_site_label
 _atom_site_symmetry_multiplicity
 _atom_site_fract_x
 _atom_site_fract_y
 _atom_site_fract_z
 _atom_site_occupancy
  K  K0  1  0.69854700  0.22911700  0.31327100  1
  K  K1  1  0.30145300  0.22911700  0.81327100  1
  K  K2  1  0.19993900  0.79918900  0.18079900  1
  K  K3  1  0.80006100  0.79918900  0.68079900  1
  Au  Au4  1  0.24897800  0.51186500  0.49364600  1
  Au  Au5  1  0.75102200  0.51186500  0.99364600  1
  Au  Au6  1  0.24736400  0.01271600  0.49853800  1
  Au  Au7  1  0.75263600  0.01271600  0.99853800  1
  Cl  Cl8  1  0.49959400  0.34837300  0.56339800  1
  Cl  Cl9  1  0.50040600  0.34837300  0.06339800  1
  Cl  Cl10  1  0.99765400  0.67460100  0.42387500  1
  Cl  Cl11  1  0.00234600  0.67460100  0.92387500  1
  Cl  Cl12  1  0.10142700  0.50717100  0.66248200  1
  Cl  Cl13  1  0.89857300  0.50717100  0.16248200  1
  Cl  Cl14  1  0.39708300  0.51722400  0.32478500  1
  Cl  Cl15  1  0.60291700  0.51722400  0.82478500  1
  Cl  Cl16  1  0.46087200  0.89226200  0.95116300  1
  Cl  Cl17  1  0.53912800  0.89226200  0.45116300  1
  Cl  Cl18  1  0.04513100  0.13260300  0.04560200  1
  Cl  Cl19  1  0.95486900  0.13260300  0.54560200  1
  Cl  Cl20  1  0.80284200  0.10386900  0.81919400  1
  Cl  Cl21  1  0.19715800  0.10386900  0.31919400  1
  Cl  Cl22  1  0.70230600  0.92171000  0.17794700  1
  Cl  Cl23  1  0.29769400  0.92171000  0.67794700  1
