# generated using pymatgen
data_TbSnPd
_symmetry_space_group_name_H-M   'P 1'
_cell_length_a   4.66105400
_cell_length_b   7.26300400
_cell_length_c   7.99791900
_cell_angle_alpha   90.00000000
_cell_angle_beta   90.00000000
_cell_angle_gamma   90.00000000
_symmetry_Int_Tables_number   1
_chemical_formula_structural   TbSnPd
_chemical_formula_sum   'Tb4 Sn4 Pd4'
_cell_volume   270.75558215
_cell_formula_units_Z   4
loop_
 _symmetry_equiv_pos_site_id
 _symmetry_equiv_pos_as_xyz
  1  'x, y, z'
loop_
 _atom_site_type_symbol
 _atom_site_label
 _atom_site_symmetry_multiplicity
 _atom_site_fract_x
 _atom_site_fract_y
 _atom_site_fract_z
 _atom_site_occupancy
  Tb  Tb0  1  0.75000000  0.01024900  0.20805500  1
  Tb  Tb1  1  0.25000000  0.98975100  0.79194500  1
  Tb  Tb2  1  0.75000000  0.51024900  0.29194500  1
  Tb  Tb3  1  0.25000000  0.48975100  0.70805500  1
  Sn  Sn4  1  0.75000000  0.19654800  0.58880400  1
  Sn  Sn5  1  0.25000000  0.80345200  0.41119600  1
  Sn  Sn6  1  0.75000000  0.69654800  0.91119600  1
  Sn  Sn7  1  0.25000000  0.30345200  0.08880400  1
  Pd  Pd8  1  0.75000000  0.79686100  0.58254600  1
  Pd  Pd9  1  0.25000000  0.20313900  0.41745400  1
  Pd  Pd10  1  0.75000000  0.29686100  0.91745400  1
  Pd  Pd11  1  0.25000000  0.70313900  0.08254600  1
