# generated using pymatgen
data_TiZn16
_symmetry_space_group_name_H-M   'P 1'
_cell_length_a   6.92975428
_cell_length_b   6.92975428
_cell_length_c   11.67330700
_cell_angle_alpha   90.00000000
_cell_angle_beta   90.00000000
_cell_angle_gamma   112.42701982
_symmetry_Int_Tables_number   1
_chemical_formula_structural   TiZn16
_chemical_formula_sum   'Ti2 Zn32'
_cell_volume   518.17164724
_cell_formula_units_Z   2
loop_
 _symmetry_equiv_pos_site_id
 _symmetry_equiv_pos_as_xyz
  1  'x, y, z'
loop_
 _atom_site_type_symbol
 _atom_site_label
 _atom_site_symmetry_multiplicity
 _atom_site_fract_x
 _atom_site_fract_y
 _atom_site_fract_z
 _atom_site_occupancy
  Ti  Ti0  1  0.04710400  0.95289600  0.25000000  1
  Ti  Ti1  1  0.95289600  0.04710400  0.75000000  1
  Zn  Zn2  1  0.35337700  0.98291200  0.43075200  1
  Zn  Zn3  1  0.64662300  0.01708900  0.93075200  1
  Zn  Zn4  1  0.98291100  0.35337700  0.56924800  1
  Zn  Zn5  1  0.01708800  0.64662300  0.06924800  1
  Zn  Zn6  1  0.64662300  0.01708900  0.56924800  1
  Zn  Zn7  1  0.35337700  0.98291200  0.06924800  1
  Zn  Zn8  1  0.01708800  0.64662300  0.43075200  1
  Zn  Zn9  1  0.98291100  0.35337700  0.93075200  1
  Zn  Zn10  1  0.65272700  0.75865400  0.36496800  1
  Zn  Zn11  1  0.34727300  0.24134600  0.86496800  1
  Zn  Zn12  1  0.75865400  0.65272700  0.63503200  1
  Zn  Zn13  1  0.24134600  0.34727300  0.13503200  1
  Zn  Zn14  1  0.34727300  0.24134600  0.63503200  1
  Zn  Zn15  1  0.65272700  0.75865400  0.13503200  1
  Zn  Zn16  1  0.24134600  0.34727300  0.36496800  1
  Zn  Zn17  1  0.75865400  0.65272700  0.86496800  1
  Zn  Zn18  1  0.47721200  0.19206700  0.25000000  1
  Zn  Zn19  1  0.52278800  0.80793300  0.75000000  1
  Zn  Zn20  1  0.19206700  0.47721200  0.75000000  1
  Zn  Zn21  1  0.80793300  0.52278800  0.25000000  1
  Zn  Zn22  1  0.17597400  0.82402600  0.85913100  1
  Zn  Zn23  1  0.82402600  0.17597400  0.35913100  1
  Zn  Zn24  1  0.82402600  0.17597400  0.14086900  1
  Zn  Zn25  1  0.17597400  0.82402600  0.64086900  1
  Zn  Zn26  1  0.62067400  0.37932600  0.46923800  1
  Zn  Zn27  1  0.37932600  0.62067400  0.96923800  1
  Zn  Zn28  1  0.37932600  0.62067400  0.53076200  1
  Zn  Zn29  1  0.62067400  0.37932600  0.03076200  1
  Zn  Zn30  1  0.28875900  0.71124100  0.25000000  1
  Zn  Zn31  1  0.71124100  0.28875900  0.75000000  1
  Zn  Zn32  1  0.00000000  0.00000000  0.50000000  1
  Zn  Zn33  1  0.00000000  0.00000000  0.00000000  1
