# generated using pymatgen
data_LaIn2Pd
_symmetry_space_group_name_H-M   'P 1'
_cell_length_a   5.92346796
_cell_length_b   5.92346796
_cell_length_c   7.61864200
_cell_angle_alpha   90.00000000
_cell_angle_beta   90.00000000
_cell_angle_gamma   133.19405159
_symmetry_Int_Tables_number   1
_chemical_formula_structural   LaIn2Pd
_chemical_formula_sum   'La2 In4 Pd2'
_cell_volume   194.88608388
_cell_formula_units_Z   2
loop_
 _symmetry_equiv_pos_site_id
 _symmetry_equiv_pos_as_xyz
  1  'x, y, z'
loop_
 _atom_site_type_symbol
 _atom_site_label
 _atom_site_symmetry_multiplicity
 _atom_site_fract_x
 _atom_site_fract_y
 _atom_site_fract_z
 _atom_site_occupancy
  La  La0  1  0.42447900  0.57552100  0.25000000  1
  La  La1  1  0.57552100  0.42447900  0.75000000  1
  In  In2  1  0.86089900  0.13910100  0.55086600  1
  In  In3  1  0.13910100  0.86089900  0.44913400  1
  In  In4  1  0.86089900  0.13910100  0.94913400  1
  In  In5  1  0.13910100  0.86089900  0.05086600  1
  Pd  Pd6  1  0.29266800  0.70733200  0.75000000  1
  Pd  Pd7  1  0.70733200  0.29266800  0.25000000  1
