# generated using pymatgen
data_ICl3
_symmetry_space_group_name_H-M   'P 1'
_cell_length_a   6.01729100
_cell_length_b   6.23876685
_cell_length_c   8.83965516
_cell_angle_alpha   71.26674224
_cell_angle_beta   84.61223999
_cell_angle_gamma   85.56688699
_symmetry_Int_Tables_number   1
_chemical_formula_structural   ICl3
_chemical_formula_sum   'I2 Cl6'
_cell_volume   312.48534403
_cell_formula_units_Z   2
loop_
 _symmetry_equiv_pos_site_id
 _symmetry_equiv_pos_as_xyz
  1  'x, y, z'
loop_
 _atom_site_type_symbol
 _atom_site_label
 _atom_site_symmetry_multiplicity
 _atom_site_fract_x
 _atom_site_fract_y
 _atom_site_fract_z
 _atom_site_occupancy
  I  I0  1  0.82041600  0.00057200  0.81643600  1
  I  I1  1  0.17958400  0.99942800  0.18356400  1
  Cl  Cl2  1  0.44253500  0.25796500  0.20431200  1
  Cl  Cl3  1  0.55746500  0.74203500  0.79568800  1
  Cl  Cl4  1  0.87865300  0.73616000  0.12497900  1
  Cl  Cl5  1  0.12134700  0.26384000  0.87502100  1
  Cl  Cl6  1  0.20898400  0.74345300  0.44965000  1
  Cl  Cl7  1  0.79101600  0.25654700  0.55035000  1
