# generated using pymatgen
data_Ba4P3
_symmetry_space_group_name_H-M   'P 1'
_cell_length_a   11.37622600
_cell_length_b   12.70053800
_cell_length_c   13.49774600
_cell_angle_alpha   90.00000000
_cell_angle_beta   90.00000000
_cell_angle_gamma   90.00000000
_symmetry_Int_Tables_number   1
_chemical_formula_structural   Ba4P3
_chemical_formula_sum   'Ba32 P24'
_cell_volume   1950.21090586
_cell_formula_units_Z   8
loop_
 _symmetry_equiv_pos_site_id
 _symmetry_equiv_pos_as_xyz
  1  'x, y, z'
loop_
 _atom_site_type_symbol
 _atom_site_label
 _atom_site_symmetry_multiplicity
 _atom_site_fract_x
 _atom_site_fract_y
 _atom_site_fract_z
 _atom_site_occupancy
  Ba  Ba0  1  0.50000000  0.12014000  0.87515700  1
  Ba  Ba1  1  0.50000000  0.87986000  0.12484300  1
  Ba  Ba2  1  0.50000000  0.62014000  0.62484300  1
  Ba  Ba3  1  0.50000000  0.37986000  0.37515700  1
  Ba  Ba4  1  0.82002500  0.00000000  0.00000000  1
  Ba  Ba5  1  0.17997500  0.50000000  0.50000000  1
  Ba  Ba6  1  0.17997500  0.00000000  0.00000000  1
  Ba  Ba7  1  0.82002500  0.50000000  0.50000000  1
  Ba  Ba8  1  0.68081400  0.16913100  0.56800600  1
  Ba  Ba9  1  0.68081400  0.83086900  0.43199400  1
  Ba  Ba10  1  0.31918600  0.66913100  0.93199400  1
  Ba  Ba11  1  0.31918600  0.33086900  0.06800600  1
  Ba  Ba12  1  0.31918600  0.83086900  0.43199400  1
  Ba  Ba13  1  0.31918600  0.16913100  0.56800600  1
  Ba  Ba14  1  0.68081400  0.33086900  0.06800600  1
  Ba  Ba15  1  0.68081400  0.66913100  0.93199400  1
  Ba  Ba16  1  0.00000000  0.72541300  0.08017500  1
  Ba  Ba17  1  0.00000000  0.27458700  0.91982500  1
  Ba  Ba18  1  0.00000000  0.22541300  0.41982500  1
  Ba  Ba19  1  0.00000000  0.77458700  0.58017500  1
  Ba  Ba20  1  0.71590600  0.90057000  0.73666000  1
  Ba  Ba21  1  0.71590600  0.09943000  0.26334000  1
  Ba  Ba22  1  0.28409400  0.40057000  0.76334000  1
  Ba  Ba23  1  0.28409400  0.59943000  0.23666000  1
  Ba  Ba24  1  0.28409400  0.09943000  0.26334000  1
  Ba  Ba25  1  0.28409400  0.90057000  0.73666000  1
  Ba  Ba26  1  0.71590600  0.59943000  0.23666000  1
  Ba  Ba27  1  0.71590600  0.40057000  0.76334000  1
  Ba  Ba28  1  0.00000000  0.89254200  0.29479700  1
  Ba  Ba29  1  0.00000000  0.10745800  0.70520300  1
  Ba  Ba30  1  0.00000000  0.39254200  0.20520300  1
  Ba  Ba31  1  0.00000000  0.60745800  0.79479700  1
  P  P32  1  0.00000000  0.64001900  0.36467200  1
  P  P33  1  0.00000000  0.35998100  0.63532800  1
  P  P34  1  0.00000000  0.14001900  0.13532800  1
  P  P35  1  0.00000000  0.85998100  0.86467200  1
  P  P36  1  0.50000000  0.03412700  0.42243000  1
  P  P37  1  0.50000000  0.96587300  0.57757000  1
  P  P38  1  0.50000000  0.53412700  0.07757000  1
  P  P39  1  0.50000000  0.46587300  0.92243000  1
  P  P40  1  0.23613800  0.33766900  0.32099400  1
  P  P41  1  0.23613800  0.66233100  0.67900600  1
  P  P42  1  0.76386200  0.83766900  0.17900600  1
  P  P43  1  0.76386200  0.16233100  0.82099400  1
  P  P44  1  0.76386200  0.66233100  0.67900600  1
  P  P45  1  0.76386200  0.33766900  0.32099400  1
  P  P46  1  0.23613800  0.16233100  0.82099400  1
  P  P47  1  0.23613800  0.83766900  0.17900600  1
  P  P48  1  0.50000000  0.63868700  0.38699400  1
  P  P49  1  0.50000000  0.36131300  0.61300600  1
  P  P50  1  0.50000000  0.13868700  0.11300600  1
  P  P51  1  0.50000000  0.86131300  0.88699400  1
  P  P52  1  0.89915900  0.00000000  0.50000000  1
  P  P53  1  0.10084100  0.50000000  0.00000000  1
  P  P54  1  0.10084100  0.00000000  0.50000000  1
  P  P55  1  0.89915900  0.50000000  0.00000000  1
