# generated using pymatgen
data_Ba4Al5
_symmetry_space_group_name_H-M   'P 1'
_cell_length_a   6.12039427
_cell_length_b   6.12039427
_cell_length_c   17.95428600
_cell_angle_alpha   90.00000000
_cell_angle_beta   90.00000000
_cell_angle_gamma   120.00000295
_symmetry_Int_Tables_number   1
_chemical_formula_structural   Ba4Al5
_chemical_formula_sum   'Ba8 Al10'
_cell_volume   582.44853584
_cell_formula_units_Z   2
loop_
 _symmetry_equiv_pos_site_id
 _symmetry_equiv_pos_as_xyz
  1  'x, y, z'
loop_
 _atom_site_type_symbol
 _atom_site_label
 _atom_site_symmetry_multiplicity
 _atom_site_fract_x
 _atom_site_fract_y
 _atom_site_fract_z
 _atom_site_occupancy
  Ba  Ba0  1  0.00000000  0.00000000  0.35627000  1
  Ba  Ba1  1  0.00000000  0.00000000  0.85627000  1
  Ba  Ba2  1  0.00000000  0.00000000  0.64373000  1
  Ba  Ba3  1  0.00000000  0.00000000  0.14373000  1
  Ba  Ba4  1  0.33333300  0.66666700  0.92965400  1
  Ba  Ba5  1  0.66666700  0.33333300  0.42965400  1
  Ba  Ba6  1  0.66666700  0.33333300  0.07034600  1
  Ba  Ba7  1  0.33333300  0.66666700  0.57034600  1
  Al  Al8  1  0.49036600  0.98073200  0.75000000  1
  Al  Al9  1  0.50963400  0.49036600  0.25000000  1
  Al  Al10  1  0.98073200  0.49036600  0.25000000  1
  Al  Al11  1  0.01926800  0.50963400  0.75000000  1
  Al  Al12  1  0.49036600  0.50963400  0.75000000  1
  Al  Al13  1  0.50963400  0.01926800  0.25000000  1
  Al  Al14  1  0.33333300  0.66666700  0.36251500  1
  Al  Al15  1  0.66666700  0.33333300  0.86251500  1
  Al  Al16  1  0.33333300  0.66666700  0.13748500  1
  Al  Al17  1  0.66666700  0.33333300  0.63748500  1
