# generated using pymatgen
data_NaMoPO6
_symmetry_space_group_name_H-M   'P 1'
_cell_length_a   12.22119000
_cell_length_b   6.45592100
_cell_length_c   13.74643191
_cell_angle_alpha   63.21758639
_cell_angle_beta   90.00000000
_cell_angle_gamma   90.00000000
_symmetry_Int_Tables_number   1
_chemical_formula_structural   NaMoPO6
_chemical_formula_sum   'Na8 Mo8 P8 O48'
_cell_volume   968.23099512
_cell_formula_units_Z   8
loop_
 _symmetry_equiv_pos_site_id
 _symmetry_equiv_pos_as_xyz
  1  'x, y, z'
loop_
 _atom_site_type_symbol
 _atom_site_label
 _atom_site_symmetry_multiplicity
 _atom_site_fract_x
 _atom_site_fract_y
 _atom_site_fract_z
 _atom_site_occupancy
  Na  Na0  1  0.82541800  0.10574400  0.84654900  1
  Na  Na1  1  0.32541800  0.89425600  0.65345100  1
  Na  Na2  1  0.17458200  0.89425600  0.15345100  1
  Na  Na3  1  0.67458200  0.10574400  0.34654900  1
  Na  Na4  1  0.70200700  0.56640100  0.88972000  1
  Na  Na5  1  0.20200700  0.43359900  0.61028000  1
  Na  Na6  1  0.29799300  0.43359900  0.11028000  1
  Na  Na7  1  0.79799300  0.56640100  0.38972000  1
  Mo  Mo8  1  0.89606900  0.64370300  0.61275700  1
  Mo  Mo9  1  0.39606900  0.35629700  0.88724300  1
  Mo  Mo10  1  0.10393100  0.35629700  0.38724300  1
  Mo  Mo11  1  0.60393100  0.64370300  0.11275700  1
  Mo  Mo12  1  0.60425500  0.11525400  0.63048800  1
  Mo  Mo13  1  0.10425500  0.88474600  0.86951200  1
  Mo  Mo14  1  0.39574500  0.88474600  0.36951200  1
  Mo  Mo15  1  0.89574500  0.11525400  0.13048800  1
  P  P16  1  0.95895000  0.13584100  0.62279500  1
  P  P17  1  0.45895000  0.86415900  0.87720500  1
  P  P18  1  0.04105000  0.86415900  0.37720500  1
  P  P19  1  0.54105000  0.13584100  0.12279500  1
  P  P20  1  0.61427400  0.68352500  0.56282500  1
  P  P21  1  0.11427400  0.31647500  0.93717500  1
  P  P22  1  0.38572600  0.31647500  0.43717500  1
  P  P23  1  0.88572600  0.68352500  0.06282500  1
  O  O24  1  0.83147700  0.51744800  0.74068400  1
  O  O25  1  0.33147700  0.48255200  0.75931600  1
  O  O26  1  0.16852300  0.48255200  0.25931600  1
  O  O27  1  0.66852300  0.51744800  0.24068400  1
  O  O28  1  0.53415900  0.40583000  0.85718400  1
  O  O29  1  0.03415900  0.59417000  0.64281600  1
  O  O30  1  0.46584100  0.59417000  0.14281600  1
  O  O31  1  0.96584100  0.40583000  0.35718400  1
  O  O32  1  0.70423500  0.02377800  0.73220200  1
  O  O33  1  0.20423500  0.97622200  0.76779800  1
  O  O34  1  0.29576500  0.97622200  0.26779800  1
  O  O35  1  0.79576500  0.02377800  0.23220200  1
  O  O36  1  0.67674200  0.22253000  0.50782700  1
  O  O37  1  0.17674200  0.77747000  0.99217300  1
  O  O38  1  0.32325800  0.77747000  0.49217300  1
  O  O39  1  0.82325800  0.22253000  0.00782700  1
  O  O40  1  0.56906300  0.79612500  0.93750000  1
  O  O41  1  0.73645600  0.71146900  0.52949400  1
  O  O42  1  0.06906300  0.20387500  0.56250000  1
  O  O43  1  0.93093700  0.79612500  0.43750000  1
  O  O44  1  0.97502000  0.01952900  0.74678100  1
  O  O45  1  0.47502000  0.98047100  0.75321900  1
  O  O46  1  0.02498000  0.98047100  0.25321900  1
  O  O47  1  0.52498000  0.01952900  0.24678100  1
  O  O48  1  0.58221000  0.42429500  0.62873400  1
  O  O49  1  0.08221000  0.57570500  0.87126600  1
  O  O50  1  0.41779000  0.57570500  0.37126600  1
  O  O51  1  0.91779000  0.42429500  0.12873400  1
  O  O52  1  0.58750500  0.79516700  0.63952500  1
  O  O53  1  0.08750500  0.20483300  0.86047500  1
  O  O54  1  0.41249500  0.20483300  0.36047500  1
  O  O55  1  0.91249500  0.79516700  0.13952500  1
  O  O56  1  0.60620600  0.96982200  0.08880400  1
  O  O57  1  0.10620600  0.03017800  0.41119600  1
  O  O58  1  0.39379400  0.03017800  0.91119600  1
  O  O59  1  0.89379400  0.96982200  0.58880400  1
  O  O60  1  0.61723100  0.35222100  0.08848800  1
  O  O61  1  0.11723100  0.64777900  0.41151200  1
  O  O62  1  0.38276900  0.64777900  0.91151200  1
  O  O63  1  0.88276900  0.35222100  0.58848800  1
  O  O64  1  0.54973700  0.80611000  0.45636900  1
  O  O65  1  0.04973700  0.19389000  0.04363100  1
  O  O66  1  0.45026300  0.19389000  0.54363100  1
  O  O67  1  0.95026300  0.80611000  0.95636900  1
  O  O68  1  0.76354400  0.71146900  0.02949400  1
  O  O69  1  0.26354400  0.28853100  0.47050600  1
  O  O70  1  0.23645600  0.28853100  0.97050600  1
  O  O71  1  0.43093700  0.20387500  0.06250000  1
