# generated using pymatgen
data_Nd3(BN2)2
_symmetry_space_group_name_H-M   'P 1'
_cell_length_a   6.52385140
_cell_length_b   6.52385140
_cell_length_c   6.52385140
_cell_angle_alpha   148.36023692
_cell_angle_beta   122.17288125
_cell_angle_gamma   67.42833030
_symmetry_Int_Tables_number   1
_chemical_formula_structural   Nd3(BN2)2
_chemical_formula_sum   'Nd3 B2 N4'
_cell_volume   121.76861397
_cell_formula_units_Z   1
loop_
 _symmetry_equiv_pos_site_id
 _symmetry_equiv_pos_as_xyz
  1  'x, y, z'
loop_
 _atom_site_type_symbol
 _atom_site_label
 _atom_site_symmetry_multiplicity
 _atom_site_fract_x
 _atom_site_fract_y
 _atom_site_fract_z
 _atom_site_occupancy
  Nd  Nd0  1  0.70182800  0.20182800  0.50000000  1
  Nd  Nd1  1  0.29817200  0.79817200  0.50000000  1
  Nd  Nd2  1  0.00000000  0.00000000  0.00000000  1
  B  B3  1  0.35696300  0.50000000  0.85696300  1
  B  B4  1  0.64303700  0.50000000  0.14303700  1
  N  N5  1  0.36274300  0.61895600  0.74378700  1
  N  N6  1  0.87516900  0.61895600  0.25621300  1
  N  N7  1  0.12483100  0.38104400  0.74378700  1
  N  N8  1  0.63725700  0.38104400  0.25621300  1
