# generated using pymatgen
data_YSnPt
_symmetry_space_group_name_H-M   'P 1'
_cell_length_a   4.57567600
_cell_length_b   7.22566800
_cell_length_c   8.06468800
_cell_angle_alpha   90.00000000
_cell_angle_beta   90.00000000
_cell_angle_gamma   90.00000000
_symmetry_Int_Tables_number   1
_chemical_formula_structural   YSnPt
_chemical_formula_sum   'Y4 Sn4 Pt4'
_cell_volume   266.63726029
_cell_formula_units_Z   4
loop_
 _symmetry_equiv_pos_site_id
 _symmetry_equiv_pos_as_xyz
  1  'x, y, z'
loop_
 _atom_site_type_symbol
 _atom_site_label
 _atom_site_symmetry_multiplicity
 _atom_site_fract_x
 _atom_site_fract_y
 _atom_site_fract_z
 _atom_site_occupancy
  Y  Y0  1  0.75000000  0.99042700  0.69813100  1
  Y  Y1  1  0.25000000  0.00957300  0.30186900  1
  Y  Y2  1  0.75000000  0.49042700  0.80186900  1
  Y  Y3  1  0.25000000  0.50957300  0.19813100  1
  Sn  Sn4  1  0.75000000  0.31849400  0.41515000  1
  Sn  Sn5  1  0.25000000  0.18150600  0.91515000  1
  Sn  Sn6  1  0.25000000  0.68150600  0.58485000  1
  Sn  Sn7  1  0.75000000  0.81849400  0.08485000  1
  Pt  Pt8  1  0.25000000  0.78503100  0.91016200  1
  Pt  Pt9  1  0.25000000  0.28503100  0.58983800  1
  Pt  Pt10  1  0.75000000  0.71496900  0.41016200  1
  Pt  Pt11  1  0.75000000  0.21496900  0.08983800  1
