# generated using pymatgen
data_As2S2O9
_symmetry_space_group_name_H-M   'P 1'
_cell_length_a   6.76258800
_cell_length_b   6.85129200
_cell_length_c   17.58962458
_cell_angle_alpha   83.75350771
_cell_angle_beta   90.00000000
_cell_angle_gamma   90.00000000
_symmetry_Int_Tables_number   1
_chemical_formula_structural   As2S2O9
_chemical_formula_sum   'As8 S8 O36'
_cell_volume   810.13218647
_cell_formula_units_Z   4
loop_
 _symmetry_equiv_pos_site_id
 _symmetry_equiv_pos_as_xyz
  1  'x, y, z'
loop_
 _atom_site_type_symbol
 _atom_site_label
 _atom_site_symmetry_multiplicity
 _atom_site_fract_x
 _atom_site_fract_y
 _atom_site_fract_z
 _atom_site_occupancy
  As  As0  1  0.76203400  0.79735900  0.46020600  1
  As  As1  1  0.73796600  0.79735900  0.96020600  1
  As  As2  1  0.61540800  0.68483100  0.29619100  1
  As  As3  1  0.88459200  0.68483100  0.79619100  1
  As  As4  1  0.11540800  0.31516900  0.20380900  1
  As  As5  1  0.38459200  0.31516900  0.70380900  1
  As  As6  1  0.26203400  0.20264100  0.03979400  1
  As  As7  1  0.23796600  0.20264100  0.53979400  1
  S  S8  1  0.07203400  0.77946300  0.32351000  1
  S  S9  1  0.42796600  0.77946300  0.82351000  1
  S  S10  1  0.72026000  0.35069700  0.43104600  1
  S  S11  1  0.77974000  0.35069700  0.93104600  1
  S  S12  1  0.57203400  0.22053700  0.17649000  1
  S  S13  1  0.92796600  0.22053700  0.67649000  1
  S  S14  1  0.22026000  0.64930300  0.06895400  1
  S  S15  1  0.27974000  0.64930300  0.56895400  1
  O  O16  1  0.09876500  0.97868500  0.28931900  1
  O  O17  1  0.40123500  0.97868500  0.78931900  1
  O  O18  1  0.23945500  0.64790900  0.32122900  1
  O  O19  1  0.26054500  0.64790900  0.82122900  1
  O  O20  1  0.01269400  0.78100300  0.40891900  1
  O  O21  1  0.48730600  0.78100300  0.90891900  1
  O  O22  1  0.89906500  0.67952600  0.28440600  1
  O  O23  1  0.60093500  0.67952600  0.78440600  1
  O  O24  1  0.91716400  0.28692800  0.41435900  1
  O  O25  1  0.58283600  0.28692800  0.91435900  1
  O  O26  1  0.59122400  0.20287200  0.47003800  1
  O  O27  1  0.90877600  0.20287200  0.97003800  1
  O  O28  1  0.72996400  0.52319600  0.48251400  1
  O  O29  1  0.77003600  0.52319600  0.98251400  1
  O  O30  1  0.61225200  0.43411100  0.35681800  1
  O  O31  1  0.88774800  0.43411100  0.85681800  1
  O  O32  1  0.38718400  0.17012100  0.62467500  1
  O  O33  1  0.11281600  0.17012100  0.12467500  1
  O  O34  1  0.88718400  0.82987900  0.87532500  1
  O  O35  1  0.61281600  0.82987900  0.37532500  1
  O  O36  1  0.27003600  0.47680400  0.51748600  1
  O  O37  1  0.22996400  0.47680400  0.01748600  1
  O  O38  1  0.38774800  0.56588900  0.64318200  1
  O  O39  1  0.11225200  0.56588900  0.14318200  1
  O  O40  1  0.40877600  0.79712800  0.52996200  1
  O  O41  1  0.09122400  0.79712800  0.02996200  1
  O  O42  1  0.08283600  0.71307200  0.58564100  1
  O  O43  1  0.41716400  0.71307200  0.08564100  1
  O  O44  1  0.98730600  0.21899700  0.59108100  1
  O  O45  1  0.51269400  0.21899700  0.09108100  1
  O  O46  1  0.10093500  0.32047400  0.71559400  1
  O  O47  1  0.39906500  0.32047400  0.21559400  1
  O  O48  1  0.76054500  0.35209100  0.67877100  1
  O  O49  1  0.73945500  0.35209100  0.17877100  1
  O  O50  1  0.90123500  0.02131500  0.71068100  1
  O  O51  1  0.59876500  0.02131500  0.21068100  1
