# generated using pymatgen
data_Tl2Te2O5
_symmetry_space_group_name_H-M   'P 1'
_cell_length_a   12.26095000
_cell_length_b   7.49402500
_cell_length_c   8.79193612
_cell_angle_alpha   65.95693148
_cell_angle_beta   90.00000000
_cell_angle_gamma   90.00000000
_symmetry_Int_Tables_number   1
_chemical_formula_structural   Tl2Te2O5
_chemical_formula_sum   'Tl8 Te8 O20'
_cell_volume   737.74869809
_cell_formula_units_Z   4
loop_
 _symmetry_equiv_pos_site_id
 _symmetry_equiv_pos_as_xyz
  1  'x, y, z'
loop_
 _atom_site_type_symbol
 _atom_site_label
 _atom_site_symmetry_multiplicity
 _atom_site_fract_x
 _atom_site_fract_y
 _atom_site_fract_z
 _atom_site_occupancy
  Tl  Tl0  1  0.55932700  0.20760200  0.02195700  1
  Tl  Tl1  1  0.05932700  0.79239800  0.47804300  1
  Tl  Tl2  1  0.44067300  0.79239800  0.97804300  1
  Tl  Tl3  1  0.94067300  0.20760200  0.52195700  1
  Tl  Tl4  1  0.71380100  0.52478900  0.21314000  1
  Tl  Tl5  1  0.21380100  0.47521100  0.28686000  1
  Tl  Tl6  1  0.28619900  0.47521100  0.78686000  1
  Tl  Tl7  1  0.78619900  0.52478900  0.71314000  1
  Te  Te8  1  0.70172800  0.92705300  0.79587700  1
  Te  Te9  1  0.20172800  0.07294700  0.70412300  1
  Te  Te10  1  0.29827200  0.07294700  0.20412300  1
  Te  Te11  1  0.79827200  0.92705300  0.29587700  1
  Te  Te12  1  0.47083400  0.19969200  0.51816500  1
  Te  Te13  1  0.97083400  0.80030800  0.98183500  1
  Te  Te14  1  0.52916600  0.80030800  0.48183500  1
  Te  Te15  1  0.02916600  0.19969200  0.01816500  1
  O  O16  1  0.64897600  0.87193000  0.01374200  1
  O  O17  1  0.14897600  0.12807000  0.48625800  1
  O  O18  1  0.35102400  0.12807000  0.98625800  1
  O  O19  1  0.85102400  0.87193000  0.51374200  1
  O  O20  1  0.62737000  0.72451300  0.76026300  1
  O  O21  1  0.12737000  0.27548700  0.73973700  1
  O  O22  1  0.37263000  0.27548700  0.23973700  1
  O  O23  1  0.87263000  0.72451300  0.26026300  1
  O  O24  1  0.40434000  0.94824100  0.56710100  1
  O  O25  1  0.90434000  0.05175900  0.93289900  1
  O  O26  1  0.59566000  0.05175900  0.43289900  1
  O  O27  1  0.09566000  0.94824100  0.06710100  1
  O  O28  1  0.32791000  0.27249000  0.60109600  1
  O  O29  1  0.82791000  0.72751000  0.89890400  1
  O  O30  1  0.67209000  0.72751000  0.39890400  1
  O  O31  1  0.17209000  0.27249000  0.10109600  1
  O  O32  1  0.95569500  0.11169700  0.23254000  1
  O  O33  1  0.45569500  0.88830300  0.26746000  1
  O  O34  1  0.04430500  0.88830300  0.76746000  1
  O  O35  1  0.54430500  0.11169700  0.73254000  1
