# generated using pymatgen
data_ZrH3NF4
_symmetry_space_group_name_H-M   'P 1'
_cell_length_a   6.14674900
_cell_length_b   8.19149329
_cell_length_c   8.70000203
_cell_angle_alpha   106.97404980
_cell_angle_beta   103.99847975
_cell_angle_gamma   106.73398347
_symmetry_Int_Tables_number   1
_chemical_formula_structural   ZrH3NF4
_chemical_formula_sum   'Zr4 H12 N4 F16'
_cell_volume   374.96240524
_cell_formula_units_Z   4
loop_
 _symmetry_equiv_pos_site_id
 _symmetry_equiv_pos_as_xyz
  1  'x, y, z'
loop_
 _atom_site_type_symbol
 _atom_site_label
 _atom_site_symmetry_multiplicity
 _atom_site_fract_x
 _atom_site_fract_y
 _atom_site_fract_z
 _atom_site_occupancy
  Zr  Zr0  1  0.75691900  0.71244700  0.16026500  1
  Zr  Zr1  1  0.24308100  0.28755300  0.83973500  1
  Zr  Zr2  1  0.77656400  0.20792200  0.12905200  1
  Zr  Zr3  1  0.22343600  0.79207800  0.87094800  1
  H  H4  1  0.28103600  0.85656800  0.29900100  1
  H  H5  1  0.71896400  0.14343200  0.70099900  1
  H  H6  1  0.18889600  0.78627600  0.44106000  1
  H  H7  1  0.81110400  0.21372400  0.55894000  1
  H  H8  1  0.26927900  0.26444000  0.32027000  1
  H  H9  1  0.73072100  0.73556000  0.67973000  1
  H  H10  1  0.19575400  0.41776300  0.44531800  1
  H  H11  1  0.79818900  0.00981100  0.55898400  1
  H  H12  1  0.28215600  0.45192100  0.28660100  1
  H  H13  1  0.71784400  0.54807900  0.71339900  1
  H  H14  1  0.20181100  0.99018900  0.44101600  1
  H  H15  1  0.80424600  0.58223700  0.55468200  1
  N  N16  1  0.18353100  0.35459700  0.32149900  1
  N  N17  1  0.16072800  0.85609800  0.36247200  1
  N  N18  1  0.83927200  0.14390200  0.63752800  1
  N  N19  1  0.81646900  0.64540300  0.67850100  1
  F  F20  1  0.39617500  0.06677000  0.08891100  1
  F  F21  1  0.74252700  0.31675800  0.35652300  1
  F  F22  1  0.28524500  0.23468600  0.61209900  1
  F  F23  1  0.71475500  0.76531400  0.38790100  1
  F  F24  1  0.42965500  0.76588800  0.09655600  1
  F  F25  1  0.25747300  0.68324200  0.64347700  1
  F  F26  1  0.44423300  0.45907700  0.11150300  1
  F  F27  1  0.60382500  0.93323000  0.91108900  1
  F  F28  1  0.89271000  0.50309600  0.16793700  1
  F  F29  1  0.10729000  0.49690400  0.83206300  1
  F  F30  1  0.00905400  0.21743100  0.98034900  1
  F  F31  1  0.99094600  0.78256900  0.01965100  1
  F  F32  1  0.85703100  0.01010000  0.22317900  1
  F  F33  1  0.14296900  0.98990000  0.77682100  1
  F  F34  1  0.55576700  0.54092300  0.88849700  1
  F  F35  1  0.57034500  0.23411200  0.90344400  1
