# generated using pymatgen
data_RhBr3
_symmetry_space_group_name_H-M   'P 1'
_cell_length_a   6.43865216
_cell_length_b   6.43865216
_cell_length_c   6.99509133
_cell_angle_alpha   81.22902372
_cell_angle_beta   81.22902372
_cell_angle_gamma   120.00415282
_symmetry_Int_Tables_number   1
_chemical_formula_structural   RhBr3
_chemical_formula_sum   'Rh2 Br6'
_cell_volume   239.16352798
_cell_formula_units_Z   2
loop_
 _symmetry_equiv_pos_site_id
 _symmetry_equiv_pos_as_xyz
  1  'x, y, z'
loop_
 _atom_site_type_symbol
 _atom_site_label
 _atom_site_symmetry_multiplicity
 _atom_site_fract_x
 _atom_site_fract_y
 _atom_site_fract_z
 _atom_site_occupancy
  Rh  Rh0  1  0.16666300  0.83333700  0.00000000  1
  Rh  Rh1  1  0.83333700  0.16666300  0.00000000  1
  Br  Br2  1  0.43019400  0.07565300  0.21098600  1
  Br  Br3  1  0.92434700  0.56980600  0.78901400  1
  Br  Br4  1  0.21565000  0.21565000  0.78858200  1
  Br  Br5  1  0.78435000  0.78435000  0.21141800  1
  Br  Br6  1  0.07565300  0.43019400  0.21098600  1
  Br  Br7  1  0.56980600  0.92434700  0.78901400  1
