# generated using pymatgen
data_Tl2GeTe5
_symmetry_space_group_name_H-M   'P 1'
_cell_length_a   8.49613800
_cell_length_b   8.49613800
_cell_length_c   15.10032400
_cell_angle_alpha   90.00000000
_cell_angle_beta   90.00000000
_cell_angle_gamma   90.00000000
_symmetry_Int_Tables_number   1
_chemical_formula_structural   Tl2GeTe5
_chemical_formula_sum   'Tl8 Ge4 Te20'
_cell_volume   1090.00723755
_cell_formula_units_Z   4
loop_
 _symmetry_equiv_pos_site_id
 _symmetry_equiv_pos_as_xyz
  1  'x, y, z'
loop_
 _atom_site_type_symbol
 _atom_site_label
 _atom_site_symmetry_multiplicity
 _atom_site_fract_x
 _atom_site_fract_y
 _atom_site_fract_z
 _atom_site_occupancy
  Tl  Tl0  1  0.00000000  0.00000000  0.62087200  1
  Tl  Tl1  1  0.50000000  0.50000000  0.37912800  1
  Tl  Tl2  1  0.00000000  0.00000000  0.37912800  1
  Tl  Tl3  1  0.50000000  0.50000000  0.62087200  1
  Tl  Tl4  1  0.00000000  0.00000000  0.87763200  1
  Tl  Tl5  1  0.50000000  0.50000000  0.12236800  1
  Tl  Tl6  1  0.00000000  0.00000000  0.12236800  1
  Tl  Tl7  1  0.50000000  0.50000000  0.87763200  1
  Ge  Ge8  1  0.50000000  0.00000000  0.38162100  1
  Ge  Ge9  1  0.50000000  0.00000000  0.61837900  1
  Ge  Ge10  1  0.00000000  0.50000000  0.38162100  1
  Ge  Ge11  1  0.00000000  0.50000000  0.61837900  1
  Te  Te12  1  0.68658700  0.18658700  0.00000000  1
  Te  Te13  1  0.31341300  0.81341300  0.00000000  1
  Te  Te14  1  0.83289300  0.33289300  0.50000000  1
  Te  Te15  1  0.16710700  0.66710700  0.50000000  1
  Te  Te16  1  0.18658700  0.31341300  0.00000000  1
  Te  Te17  1  0.81341300  0.68658700  0.00000000  1
  Te  Te18  1  0.50000000  0.00000000  0.12801900  1
  Te  Te19  1  0.50000000  0.00000000  0.87198100  1
  Te  Te20  1  0.00000000  0.50000000  0.12801900  1
  Te  Te21  1  0.00000000  0.50000000  0.87198100  1
  Te  Te22  1  0.17809100  0.32190900  0.71991200  1
  Te  Te23  1  0.82190900  0.67809100  0.71991200  1
  Te  Te24  1  0.82190900  0.67809100  0.28008800  1
  Te  Te25  1  0.17809100  0.32190900  0.28008800  1
  Te  Te26  1  0.32190900  0.82190900  0.71991200  1
  Te  Te27  1  0.67809100  0.17809100  0.71991200  1
  Te  Te28  1  0.32190900  0.82190900  0.28008800  1
  Te  Te29  1  0.67809100  0.17809100  0.28008800  1
  Te  Te30  1  0.33289300  0.16710700  0.50000000  1
  Te  Te31  1  0.66710700  0.83289300  0.50000000  1
