# generated using pymatgen
data_Ti5Sb3
_symmetry_space_group_name_H-M   'P 1'
_cell_length_a   7.20851300
_cell_length_b   8.36681400
_cell_length_c   10.19097300
_cell_angle_alpha   90.00000000
_cell_angle_beta   90.00000000
_cell_angle_gamma   90.00000000
_symmetry_Int_Tables_number   1
_chemical_formula_structural   Ti5Sb3
_chemical_formula_sum   'Ti20 Sb12'
_cell_volume   614.64089335
_cell_formula_units_Z   4
loop_
 _symmetry_equiv_pos_site_id
 _symmetry_equiv_pos_as_xyz
  1  'x, y, z'
loop_
 _atom_site_type_symbol
 _atom_site_label
 _atom_site_symmetry_multiplicity
 _atom_site_fract_x
 _atom_site_fract_y
 _atom_site_fract_z
 _atom_site_occupancy
  Ti  Ti0  1  0.79516000  0.93755800  0.94784100  1
  Ti  Ti1  1  0.29516000  0.06244200  0.55215900  1
  Ti  Ti2  1  0.20484000  0.43755800  0.05215900  1
  Ti  Ti3  1  0.70484000  0.56244200  0.44784100  1
  Ti  Ti4  1  0.20484000  0.06244200  0.05215900  1
  Ti  Ti5  1  0.70484000  0.93755800  0.44784100  1
  Ti  Ti6  1  0.79516000  0.56244200  0.94784100  1
  Ti  Ti7  1  0.29516000  0.43755800  0.55215900  1
  Ti  Ti8  1  0.18314800  0.75000000  0.76545800  1
  Ti  Ti9  1  0.68314800  0.25000000  0.73454200  1
  Ti  Ti10  1  0.81685200  0.25000000  0.23454200  1
  Ti  Ti11  1  0.31685200  0.75000000  0.26545800  1
  Ti  Ti12  1  0.47787400  0.75000000  0.99554000  1
  Ti  Ti13  1  0.97787400  0.25000000  0.50446000  1
  Ti  Ti14  1  0.52212600  0.25000000  0.00446000  1
  Ti  Ti15  1  0.02212600  0.75000000  0.49554000  1
  Ti  Ti16  1  0.67611100  0.75000000  0.71725900  1
  Ti  Ti17  1  0.17611100  0.25000000  0.78274100  1
  Ti  Ti18  1  0.32388900  0.25000000  0.28274100  1
  Ti  Ti19  1  0.82388900  0.75000000  0.21725900  1
  Sb  Sb20  1  0.93647100  0.50837300  0.67907600  1
  Sb  Sb21  1  0.43647100  0.49162700  0.82092400  1
  Sb  Sb22  1  0.06352900  0.00837300  0.32092400  1
  Sb  Sb23  1  0.56352900  0.99162700  0.17907600  1
  Sb  Sb24  1  0.06352900  0.49162700  0.32092400  1
  Sb  Sb25  1  0.56352900  0.50837300  0.17907600  1
  Sb  Sb26  1  0.93647100  0.99162700  0.67907600  1
  Sb  Sb27  1  0.43647100  0.00837300  0.82092400  1
  Sb  Sb28  1  0.40912000  0.75000000  0.52718200  1
  Sb  Sb29  1  0.90912000  0.25000000  0.97281800  1
  Sb  Sb30  1  0.59088000  0.25000000  0.47281800  1
  Sb  Sb31  1  0.09088000  0.75000000  0.02718200  1
