# generated using pymatgen
data_IrS2
_symmetry_space_group_name_H-M   'P 1'
_cell_length_a   3.61255700
_cell_length_b   5.68606400
_cell_length_c   20.04169600
_cell_angle_alpha   90.00000000
_cell_angle_beta   90.00000000
_cell_angle_gamma   90.00000000
_symmetry_Int_Tables_number   1
_chemical_formula_structural   IrS2
_chemical_formula_sum   'Ir8 S16'
_cell_volume   411.68109325
_cell_formula_units_Z   8
loop_
 _symmetry_equiv_pos_site_id
 _symmetry_equiv_pos_as_xyz
  1  'x, y, z'
loop_
 _atom_site_type_symbol
 _atom_site_label
 _atom_site_symmetry_multiplicity
 _atom_site_fract_x
 _atom_site_fract_y
 _atom_site_fract_z
 _atom_site_occupancy
  Ir  Ir0  1  0.25000000  0.94102100  0.80402300  1
  Ir  Ir1  1  0.75000000  0.05897900  0.19597700  1
  Ir  Ir2  1  0.75000000  0.44102100  0.69597700  1
  Ir  Ir3  1  0.25000000  0.55897900  0.30402300  1
  Ir  Ir4  1  0.25000000  0.92727900  0.57743400  1
  Ir  Ir5  1  0.75000000  0.07272100  0.42256600  1
  Ir  Ir6  1  0.75000000  0.42727900  0.92256600  1
  Ir  Ir7  1  0.25000000  0.57272100  0.07743400  1
  S  S8  1  0.25000000  0.22155500  0.49101600  1
  S  S9  1  0.75000000  0.77844500  0.50898400  1
  S  S10  1  0.75000000  0.72155500  0.00898400  1
  S  S11  1  0.25000000  0.27844500  0.99101600  1
  S  S12  1  0.25000000  0.17928900  0.26292200  1
  S  S13  1  0.75000000  0.82071100  0.73707800  1
  S  S14  1  0.75000000  0.67928900  0.23707800  1
  S  S15  1  0.25000000  0.32071100  0.76292200  1
  S  S16  1  0.25000000  0.93584800  0.35937700  1
  S  S17  1  0.75000000  0.06415200  0.64062300  1
  S  S18  1  0.75000000  0.43584800  0.14062300  1
  S  S19  1  0.25000000  0.56415200  0.85937700  1
  S  S20  1  0.25000000  0.54641400  0.62346600  1
  S  S21  1  0.75000000  0.45358600  0.37653400  1
  S  S22  1  0.75000000  0.04641400  0.87653400  1
  S  S23  1  0.25000000  0.95358600  0.12346600  1
