# generated using pymatgen
data_In2(TeO3)3
_symmetry_space_group_name_H-M   'P 1'
_cell_length_a   5.54665000
_cell_length_b   8.22281000
_cell_length_c   18.57989900
_cell_angle_alpha   90.00000000
_cell_angle_beta   90.00000000
_cell_angle_gamma   90.00000000
_symmetry_Int_Tables_number   1
_chemical_formula_structural   In2(TeO3)3
_chemical_formula_sum   'In8 Te12 O36'
_cell_volume   847.41152551
_cell_formula_units_Z   4
loop_
 _symmetry_equiv_pos_site_id
 _symmetry_equiv_pos_as_xyz
  1  'x, y, z'
loop_
 _atom_site_type_symbol
 _atom_site_label
 _atom_site_symmetry_multiplicity
 _atom_site_fract_x
 _atom_site_fract_y
 _atom_site_fract_z
 _atom_site_occupancy
  In  In0  1  0.70716600  0.68547400  0.06339100  1
  In  In1  1  0.79283400  0.18547400  0.43660900  1
  In  In2  1  0.20716600  0.81452600  0.93660900  1
  In  In3  1  0.29283400  0.31452600  0.93660900  1
  In  In4  1  0.70716600  0.68547400  0.43660900  1
  In  In5  1  0.29283400  0.31452600  0.56339100  1
  In  In6  1  0.20716600  0.81452600  0.56339100  1
  In  In7  1  0.79283400  0.18547400  0.06339100  1
  Te  Te8  1  0.73055600  0.15761400  0.25000000  1
  Te  Te9  1  0.81374100  0.13796400  0.86920900  1
  Te  Te10  1  0.18625900  0.86203600  0.13079100  1
  Te  Te11  1  0.23055600  0.34238600  0.75000000  1
  Te  Te12  1  0.68625900  0.63796400  0.86920900  1
  Te  Te13  1  0.68625900  0.63796400  0.63079100  1
  Te  Te14  1  0.31374100  0.36203600  0.36920900  1
  Te  Te15  1  0.18625900  0.86203600  0.36920900  1
  Te  Te16  1  0.31374100  0.36203600  0.13079100  1
  Te  Te17  1  0.81374100  0.13796400  0.63079100  1
  Te  Te18  1  0.26944400  0.84238600  0.75000000  1
  Te  Te19  1  0.76944400  0.65761400  0.25000000  1
  O  O20  1  0.45983200  0.14959100  0.12614300  1
  O  O21  1  0.37472500  0.82020000  0.04151300  1
  O  O22  1  0.04016800  0.64959100  0.37385700  1
  O  O23  1  0.04016800  0.64959100  0.12614300  1
  O  O24  1  0.37472500  0.82020000  0.45848700  1
  O  O25  1  0.04793900  0.78709800  0.67324300  1
  O  O26  1  0.94751500  0.85958700  0.25000000  1
  O  O27  1  0.45983200  0.14959100  0.37385700  1
  O  O28  1  0.54016800  0.85040900  0.62614300  1
  O  O29  1  0.95983200  0.35040900  0.62614300  1
  O  O30  1  0.59092500  0.43273600  0.42754600  1
  O  O31  1  0.40907500  0.56726400  0.57245400  1
  O  O32  1  0.45206100  0.28709800  0.67324300  1
  O  O33  1  0.59092500  0.43273600  0.07245400  1
  O  O34  1  0.05248500  0.14041300  0.75000000  1
  O  O35  1  0.54016800  0.85040900  0.87385700  1
  O  O36  1  0.09092500  0.06726400  0.57245400  1
  O  O37  1  0.62527500  0.17980000  0.95848700  1
  O  O38  1  0.44751500  0.64041300  0.75000000  1
  O  O39  1  0.62527500  0.17980000  0.54151300  1
  O  O40  1  0.12527500  0.32020000  0.04151300  1
  O  O41  1  0.09092500  0.06726400  0.92754600  1
  O  O42  1  0.87472500  0.67980000  0.95848700  1
  O  O43  1  0.45206100  0.28709800  0.82675700  1
  O  O44  1  0.40907500  0.56726400  0.92754600  1
  O  O45  1  0.54793900  0.71290200  0.32675700  1
  O  O46  1  0.95983200  0.35040900  0.87385700  1
  O  O47  1  0.04793900  0.78709800  0.82675700  1
  O  O48  1  0.95206100  0.21290200  0.32675700  1
  O  O49  1  0.55248500  0.35958700  0.25000000  1
  O  O50  1  0.12527500  0.32020000  0.45848700  1
  O  O51  1  0.95206100  0.21290200  0.17324300  1
  O  O52  1  0.90907500  0.93273600  0.07245400  1
  O  O53  1  0.87472500  0.67980000  0.54151300  1
  O  O54  1  0.90907500  0.93273600  0.42754600  1
  O  O55  1  0.54793900  0.71290200  0.17324300  1
