# generated using pymatgen
data_Ba(InTe2)2
_symmetry_space_group_name_H-M   'P 1'
_cell_length_a   7.15422148
_cell_length_b   7.15422148
_cell_length_c   12.42511800
_cell_angle_alpha   90.00000000
_cell_angle_beta   90.00000000
_cell_angle_gamma   119.11921314
_symmetry_Int_Tables_number   1
_chemical_formula_structural   Ba(InTe2)2
_chemical_formula_sum   'Ba2 In4 Te8'
_cell_volume   555.57465905
_cell_formula_units_Z   2
loop_
 _symmetry_equiv_pos_site_id
 _symmetry_equiv_pos_as_xyz
  1  'x, y, z'
loop_
 _atom_site_type_symbol
 _atom_site_label
 _atom_site_symmetry_multiplicity
 _atom_site_fract_x
 _atom_site_fract_y
 _atom_site_fract_z
 _atom_site_occupancy
  Ba  Ba0  1  0.50000000  0.50000000  0.75000000  1
  Ba  Ba1  1  0.50000000  0.50000000  0.25000000  1
  In  In2  1  0.24035000  0.76219700  0.00000000  1
  In  In3  1  0.75965000  0.23780300  0.00000000  1
  In  In4  1  0.23780300  0.75965000  0.50000000  1
  In  In5  1  0.76219700  0.24035000  0.50000000  1
  Te  Te6  1  0.50000000  0.00000000  0.82251800  1
  Te  Te7  1  0.00000000  0.50000000  0.67748200  1
  Te  Te8  1  0.65883800  0.80442500  0.50000000  1
  Te  Te9  1  0.34116200  0.19557500  0.50000000  1
  Te  Te10  1  0.80442500  0.65883800  0.00000000  1
  Te  Te11  1  0.19557500  0.34116200  0.00000000  1
  Te  Te12  1  0.50000000  0.00000000  0.17748200  1
  Te  Te13  1  0.00000000  0.50000000  0.32251800  1
