# generated using pymatgen
data_Ce(CoGe)2
_symmetry_space_group_name_H-M   'P 1'
_cell_length_a   5.73982646
_cell_length_b   5.73982646
_cell_length_c   5.73982646
_cell_angle_alpha   138.29895433
_cell_angle_beta   138.29895433
_cell_angle_gamma   60.44544339
_symmetry_Int_Tables_number   1
_chemical_formula_structural   Ce(CoGe)2
_chemical_formula_sum   'Ce1 Co2 Ge2'
_cell_volume   82.80180919
_cell_formula_units_Z   1
loop_
 _symmetry_equiv_pos_site_id
 _symmetry_equiv_pos_as_xyz
  1  'x, y, z'
loop_
 _atom_site_type_symbol
 _atom_site_label
 _atom_site_symmetry_multiplicity
 _atom_site_fract_x
 _atom_site_fract_y
 _atom_site_fract_z
 _atom_site_occupancy
  Ce  Ce0  1  0.00000000  0.00000000  0.00000000  1
  Co  Co1  1  0.75000000  0.25000000  0.50000000  1
  Co  Co2  1  0.25000000  0.75000000  0.50000000  1
  Ge  Ge3  1  0.63238000  0.63238000  0.00000000  1
  Ge  Ge4  1  0.36762000  0.36762000  0.00000000  1
