# generated using pymatgen
data_UF6
_symmetry_space_group_name_H-M   'P 1'
_cell_length_a   5.34339500
_cell_length_b   9.25241900
_cell_length_c   10.19689500
_cell_angle_alpha   90.00000000
_cell_angle_beta   90.00000000
_cell_angle_gamma   90.00000000
_symmetry_Int_Tables_number   1
_chemical_formula_structural   UF6
_chemical_formula_sum   'U4 F24'
_cell_volume   504.12765099
_cell_formula_units_Z   4
loop_
 _symmetry_equiv_pos_site_id
 _symmetry_equiv_pos_as_xyz
  1  'x, y, z'
loop_
 _atom_site_type_symbol
 _atom_site_label
 _atom_site_symmetry_multiplicity
 _atom_site_fract_x
 _atom_site_fract_y
 _atom_site_fract_z
 _atom_site_occupancy
  U  U0  1  0.91922800  0.75000000  0.12997200  1
  U  U1  1  0.58077200  0.75000000  0.62997200  1
  U  U2  1  0.08077200  0.25000000  0.87002800  1
  U  U3  1  0.41922800  0.25000000  0.37002800  1
  F  F4  1  0.22376200  0.75000000  0.01280800  1
  F  F5  1  0.27623800  0.75000000  0.51280800  1
  F  F6  1  0.77623800  0.25000000  0.98719200  1
  F  F7  1  0.72376200  0.25000000  0.48719200  1
  F  F8  1  0.61024800  0.75000000  0.24642500  1
  F  F9  1  0.88975200  0.75000000  0.74642500  1
  F  F10  1  0.38975200  0.25000000  0.75357500  1
  F  F11  1  0.11024800  0.25000000  0.25357500  1
  F  F12  1  0.76577200  0.59316400  0.01733500  1
  F  F13  1  0.73422800  0.90683600  0.51733500  1
  F  F14  1  0.23422800  0.09316400  0.98266500  1
  F  F15  1  0.26577200  0.40683600  0.48266500  1
  F  F16  1  0.23422800  0.40683600  0.98266500  1
  F  F17  1  0.26577200  0.09316400  0.48266500  1
  F  F18  1  0.76577200  0.90683600  0.01733500  1
  F  F19  1  0.73422800  0.59316400  0.51733500  1
  F  F20  1  0.08348200  0.59851600  0.24372000  1
  F  F21  1  0.41651800  0.90148400  0.74372000  1
  F  F22  1  0.91651800  0.09851600  0.75628000  1
  F  F23  1  0.58348200  0.40148400  0.25628000  1
  F  F24  1  0.91651800  0.40148400  0.75628000  1
  F  F25  1  0.58348200  0.09851600  0.25628000  1
  F  F26  1  0.08348200  0.90148400  0.24372000  1
  F  F27  1  0.41651800  0.59851600  0.74372000  1
