# generated using pymatgen
data_Ba2PdF6
_symmetry_space_group_name_H-M   'P 1'
_cell_length_a   9.22084299
_cell_length_b   9.22084299
_cell_length_c   6.29644200
_cell_angle_alpha   90.00000000
_cell_angle_beta   90.00000000
_cell_angle_gamma   140.03991112
_symmetry_Int_Tables_number   1
_chemical_formula_structural   Ba2PdF6
_chemical_formula_sum   'Ba4 Pd2 F12'
_cell_volume   343.82952918
_cell_formula_units_Z   2
loop_
 _symmetry_equiv_pos_site_id
 _symmetry_equiv_pos_as_xyz
  1  'x, y, z'
loop_
 _atom_site_type_symbol
 _atom_site_label
 _atom_site_symmetry_multiplicity
 _atom_site_fract_x
 _atom_site_fract_y
 _atom_site_fract_z
 _atom_site_occupancy
  Ba  Ba0  1  0.33946100  0.66053900  0.50000000  1
  Ba  Ba1  1  0.16053900  0.83946100  0.00000000  1
  Ba  Ba2  1  0.66053900  0.33946100  0.50000000  1
  Ba  Ba3  1  0.83946100  0.16053900  0.00000000  1
  Pd  Pd4  1  0.00000000  0.00000000  0.50000000  1
  Pd  Pd5  1  0.50000000  0.50000000  0.00000000  1
  F  F6  1  0.42569700  0.25998100  0.84225000  1
  F  F7  1  0.07430300  0.24001900  0.34225000  1
  F  F8  1  0.75998100  0.92569700  0.65775000  1
  F  F9  1  0.74001900  0.57430300  0.15775000  1
  F  F10  1  0.57430300  0.74001900  0.15775000  1
  F  F11  1  0.92569700  0.75998100  0.65775000  1
  F  F12  1  0.49310600  0.99310600  0.75000000  1
  F  F13  1  0.00689400  0.50689400  0.25000000  1
  F  F14  1  0.50689400  0.00689400  0.25000000  1
  F  F15  1  0.99310600  0.49310600  0.75000000  1
  F  F16  1  0.25998100  0.42569700  0.84225000  1
  F  F17  1  0.24001900  0.07430300  0.34225000  1
