# generated using pymatgen
data_ThGa4Co
_symmetry_space_group_name_H-M   'P 1'
_cell_length_a   8.12238462
_cell_length_b   8.12238462
_cell_length_c   6.59873800
_cell_angle_alpha   90.00000000
_cell_angle_beta   90.00000000
_cell_angle_gamma   150.07296189
_symmetry_Int_Tables_number   1
_chemical_formula_structural   ThGa4Co
_chemical_formula_sum   'Th2 Ga8 Co2'
_cell_volume   217.18942955
_cell_formula_units_Z   2
loop_
 _symmetry_equiv_pos_site_id
 _symmetry_equiv_pos_as_xyz
  1  'x, y, z'
loop_
 _atom_site_type_symbol
 _atom_site_label
 _atom_site_symmetry_multiplicity
 _atom_site_fract_x
 _atom_site_fract_y
 _atom_site_fract_z
 _atom_site_occupancy
  Th  Th0  1  0.38401600  0.61598400  0.75000000  1
  Th  Th1  1  0.61598400  0.38401600  0.25000000  1
  Ga  Ga2  1  0.00000000  0.00000000  0.00000000  1
  Ga  Ga3  1  0.00000000  0.00000000  0.50000000  1
  Ga  Ga4  1  0.81011500  0.18988500  0.05504600  1
  Ga  Ga5  1  0.18988500  0.81011500  0.94495400  1
  Ga  Ga6  1  0.18988500  0.81011500  0.55504600  1
  Ga  Ga7  1  0.81011500  0.18988500  0.44495400  1
  Ga  Ga8  1  0.42303400  0.57696600  0.25000000  1
  Ga  Ga9  1  0.57696600  0.42303400  0.75000000  1
  Co  Co10  1  0.72604200  0.27395800  0.75000000  1
  Co  Co11  1  0.27395800  0.72604200  0.25000000  1
