# generated using pymatgen
data_AuBr3
_symmetry_space_group_name_H-M   'P 1'
_cell_length_a   20.81271300
_cell_length_b   7.04957100
_cell_length_c   9.13774281
_cell_angle_alpha   63.23366490
_cell_angle_beta   90.00000000
_cell_angle_gamma   90.00000000
_symmetry_Int_Tables_number   1
_chemical_formula_structural   AuBr3
_chemical_formula_sum   'Au8 Br24'
_cell_volume   1197.04120878
_cell_formula_units_Z   8
loop_
 _symmetry_equiv_pos_site_id
 _symmetry_equiv_pos_as_xyz
  1  'x, y, z'
loop_
 _atom_site_type_symbol
 _atom_site_label
 _atom_site_symmetry_multiplicity
 _atom_site_fract_x
 _atom_site_fract_y
 _atom_site_fract_z
 _atom_site_occupancy
  Au  Au0  1  0.71069600  0.63110600  0.21486500  1
  Au  Au1  1  0.21069600  0.36889400  0.28513500  1
  Au  Au2  1  0.28930400  0.36889400  0.78513500  1
  Au  Au3  1  0.78930400  0.63110600  0.71486500  1
  Au  Au4  1  0.53802700  0.73524800  0.23998500  1
  Au  Au5  1  0.03802700  0.26475200  0.26001500  1
  Au  Au6  1  0.46197300  0.26475200  0.76001500  1
  Au  Au7  1  0.96197300  0.73524800  0.73998500  1
  Br  Br8  1  0.76710900  0.32972200  0.21165100  1
  Br  Br9  1  0.26710900  0.67027800  0.28834900  1
  Br  Br10  1  0.23289100  0.67027800  0.78834900  1
  Br  Br11  1  0.73289100  0.32972200  0.71165100  1
  Br  Br12  1  0.81140600  0.81598100  0.20704000  1
  Br  Br13  1  0.31140600  0.18401900  0.29296000  1
  Br  Br14  1  0.18859400  0.18401900  0.79296000  1
  Br  Br15  1  0.68859400  0.81598100  0.70704000  1
  Br  Br16  1  0.89422500  0.44395200  0.73266600  1
  Br  Br17  1  0.39422500  0.55604800  0.76733400  1
  Br  Br18  1  0.10577500  0.55604800  0.26733400  1
  Br  Br19  1  0.60577500  0.44395200  0.23266600  1
  Br  Br20  1  0.06025500  0.53059600  0.77009400  1
  Br  Br21  1  0.56025500  0.46940400  0.72990600  1
  Br  Br22  1  0.93974500  0.46940400  0.22990600  1
  Br  Br23  1  0.43974500  0.53059600  0.27009400  1
  Br  Br24  1  0.02137400  0.03094300  0.74597800  1
  Br  Br25  1  0.52137400  0.96905700  0.75402200  1
  Br  Br26  1  0.97862600  0.96905700  0.25402200  1
  Br  Br27  1  0.47862600  0.03094300  0.24597800  1
  Br  Br28  1  0.85665700  0.93182200  0.70818100  1
  Br  Br29  1  0.35665700  0.06817800  0.79181900  1
  Br  Br30  1  0.14334300  0.06817800  0.29181900  1
  Br  Br31  1  0.64334300  0.93182200  0.20818100  1
