# generated using pymatgen
data_Ba2WO5
_symmetry_space_group_name_H-M   'P 1'
_cell_length_a   5.80748100
_cell_length_b   7.56898000
_cell_length_c   11.72903600
_cell_angle_alpha   90.00000000
_cell_angle_beta   90.00000000
_cell_angle_gamma   90.00000000
_symmetry_Int_Tables_number   1
_chemical_formula_structural   Ba2WO5
_chemical_formula_sum   'Ba8 W4 O20'
_cell_volume   515.56980517
_cell_formula_units_Z   4
loop_
 _symmetry_equiv_pos_site_id
 _symmetry_equiv_pos_as_xyz
  1  'x, y, z'
loop_
 _atom_site_type_symbol
 _atom_site_label
 _atom_site_symmetry_multiplicity
 _atom_site_fract_x
 _atom_site_fract_y
 _atom_site_fract_z
 _atom_site_occupancy
  Ba  Ba0  1  0.75000000  0.17277000  0.58379900  1
  Ba  Ba1  1  0.25000000  0.82723000  0.41620100  1
  Ba  Ba2  1  0.75000000  0.67277000  0.91620100  1
  Ba  Ba3  1  0.25000000  0.32723000  0.08379900  1
  Ba  Ba4  1  0.25000000  0.02080100  0.78341800  1
  Ba  Ba5  1  0.75000000  0.97919900  0.21658200  1
  Ba  Ba6  1  0.25000000  0.52080100  0.71658200  1
  Ba  Ba7  1  0.75000000  0.47919900  0.28341800  1
  W  W8  1  0.25000000  0.32500900  0.43617000  1
  W  W9  1  0.75000000  0.67499100  0.56383000  1
  W  W10  1  0.25000000  0.82500900  0.06383000  1
  W  W11  1  0.75000000  0.17499100  0.93617000  1
  O  O12  1  0.49073400  0.67712300  0.11259600  1
  O  O13  1  0.99073400  0.32287700  0.88740400  1
  O  O14  1  0.00926600  0.17712300  0.38740400  1
  O  O15  1  0.50926600  0.82287700  0.61259600  1
  O  O16  1  0.50926600  0.32287700  0.88740400  1
  O  O17  1  0.00926600  0.67712300  0.11259600  1
  O  O18  1  0.99073400  0.82287700  0.61259600  1
  O  O19  1  0.49073400  0.17712300  0.38740400  1
  O  O20  1  0.75000000  0.27402700  0.09270200  1
  O  O21  1  0.25000000  0.72597300  0.90729800  1
  O  O22  1  0.75000000  0.77402700  0.40729800  1
  O  O23  1  0.25000000  0.22597300  0.59270200  1
  O  O24  1  0.00000000  0.50000000  0.50000000  1
  O  O25  1  0.50000000  0.50000000  0.50000000  1
  O  O26  1  0.50000000  0.00000000  0.00000000  1
  O  O27  1  0.00000000  0.00000000  0.00000000  1
  O  O28  1  0.25000000  0.47096200  0.30390400  1
  O  O29  1  0.75000000  0.52903800  0.69609600  1
  O  O30  1  0.25000000  0.97096200  0.19609600  1
  O  O31  1  0.75000000  0.02903800  0.80390400  1
