# generated using pymatgen
data_In3Cu7
_symmetry_space_group_name_H-M   'P 1'
_cell_length_a   6.74398200
_cell_length_b   9.17268564
_cell_length_c   10.09147502
_cell_angle_alpha   106.34496608
_cell_angle_beta   96.81450250
_cell_angle_gamma   89.96577626
_symmetry_Int_Tables_number   1
_chemical_formula_structural   In3Cu7
_chemical_formula_sum   'In12 Cu28'
_cell_volume   594.44890272
_cell_formula_units_Z   4
loop_
 _symmetry_equiv_pos_site_id
 _symmetry_equiv_pos_as_xyz
  1  'x, y, z'
loop_
 _atom_site_type_symbol
 _atom_site_label
 _atom_site_symmetry_multiplicity
 _atom_site_fract_x
 _atom_site_fract_y
 _atom_site_fract_z
 _atom_site_occupancy
  In  In0  1  0.20721400  0.47157600  0.94353000  1
  In  In1  1  0.79278600  0.52842400  0.05647000  1
  In  In2  1  0.38163300  0.00573800  0.63393900  1
  In  In3  1  0.61836700  0.99426200  0.36606100  1
  In  In4  1  0.07908000  0.71902700  0.51771300  1
  In  In5  1  0.92092000  0.28097300  0.48228700  1
  In  In6  1  0.85809000  0.73487100  0.81810900  1
  In  In7  1  0.14191000  0.26512900  0.18189100  1
  In  In8  1  0.67518100  0.16348100  0.10429900  1
  In  In9  1  0.32481900  0.83651900  0.89570100  1
  In  In10  1  0.48052900  0.36289300  0.62122300  1
  In  In11  1  0.51947100  0.63710700  0.37877700  1
  Cu  Cu12  1  0.00000000  0.00000000  0.00000000  1
  Cu  Cu13  1  0.00000000  0.00000000  0.50000000  1
  Cu  Cu14  1  0.69750000  0.85599800  0.06319600  1
  Cu  Cu15  1  0.30250000  0.14400200  0.93680400  1
  Cu  Cu16  1  0.15650000  0.54127300  0.69664600  1
  Cu  Cu17  1  0.84350000  0.45872700  0.30335400  1
  Cu  Cu18  1  0.84708900  0.42655600  0.77197200  1
  Cu  Cu19  1  0.15291100  0.57344400  0.22802800  1
  Cu  Cu20  1  0.55939600  0.29329700  0.86644600  1
  Cu  Cu21  1  0.44060400  0.70670300  0.13355400  1
  Cu  Cu22  1  0.72784000  0.85015400  0.58389400  1
  Cu  Cu23  1  0.27216000  0.14984600  0.41610600  1
  Cu  Cu24  1  0.66267000  0.00014400  0.83930800  1
  Cu  Cu25  1  0.33733000  0.99985600  0.16069200  1
  Cu  Cu26  1  0.75761400  0.14233900  0.66471500  1
  Cu  Cu27  1  0.24238600  0.85766100  0.33528500  1
  Cu  Cu28  1  0.46040600  0.69289700  0.65302600  1
  Cu  Cu29  1  0.53959400  0.30710300  0.34697400  1
  Cu  Cu30  1  0.14361200  0.24015000  0.71327600  1
  Cu  Cu31  1  0.85638800  0.75985000  0.28672400  1
  Cu  Cu32  1  0.96888400  0.01749800  0.24980800  1
  Cu  Cu33  1  0.03111600  0.98250200  0.75019200  1
  Cu  Cu34  1  0.22633300  0.44941600  0.43551900  1
  Cu  Cu35  1  0.77366700  0.55058400  0.56448100  1
  Cu  Cu36  1  0.52851900  0.58673000  0.86497000  1
  Cu  Cu37  1  0.47148100  0.41327000  0.13503000  1
  Cu  Cu38  1  0.93079900  0.23376400  0.91382100  1
  Cu  Cu39  1  0.06920100  0.76623600  0.08617900  1
