# generated using pymatgen
data_RuCl2O
_symmetry_space_group_name_H-M   'P 1'
_cell_length_a   6.84841946
_cell_length_b   6.84841946
_cell_length_c   6.84841946
_cell_angle_alpha   149.66275390
_cell_angle_beta   148.70846675
_cell_angle_gamma   44.14306877
_symmetry_Int_Tables_number   1
_chemical_formula_structural   RuCl2O
_chemical_formula_sum   'Ru1 Cl2 O1'
_cell_volume   84.01933943
_cell_formula_units_Z   1
loop_
 _symmetry_equiv_pos_site_id
 _symmetry_equiv_pos_as_xyz
  1  'x, y, z'
loop_
 _atom_site_type_symbol
 _atom_site_label
 _atom_site_symmetry_multiplicity
 _atom_site_fract_x
 _atom_site_fract_y
 _atom_site_fract_z
 _atom_site_occupancy
  Ru  Ru0  1  0.00000000  0.00000000  0.00000000  1
  Cl  Cl1  1  0.87268000  0.37268000  0.50000000  1
  Cl  Cl2  1  0.12732000  0.62732000  0.50000000  1
  O  O3  1  0.50000000  0.00000000  0.50000000  1
