# generated using pymatgen
data_ZrBi2
_symmetry_space_group_name_H-M   'P 1'
_cell_length_a   4.06119600
_cell_length_b   10.41295100
_cell_length_c   15.69211900
_cell_angle_alpha   90.00000000
_cell_angle_beta   90.00000000
_cell_angle_gamma   90.00000000
_symmetry_Int_Tables_number   1
_chemical_formula_structural   ZrBi2
_chemical_formula_sum   'Zr8 Bi16'
_cell_volume   663.60456882
_cell_formula_units_Z   8
loop_
 _symmetry_equiv_pos_site_id
 _symmetry_equiv_pos_as_xyz
  1  'x, y, z'
loop_
 _atom_site_type_symbol
 _atom_site_label
 _atom_site_symmetry_multiplicity
 _atom_site_fract_x
 _atom_site_fract_y
 _atom_site_fract_z
 _atom_site_occupancy
  Zr  Zr0  1  0.50000000  0.66301900  0.99381000  1
  Zr  Zr1  1  0.50000000  0.33698100  0.00619000  1
  Zr  Zr2  1  0.00000000  0.16301900  0.50619000  1
  Zr  Zr3  1  0.00000000  0.83698100  0.49381000  1
  Zr  Zr4  1  0.00000000  0.97712700  0.75138300  1
  Zr  Zr5  1  0.00000000  0.02287300  0.24861700  1
  Zr  Zr6  1  0.50000000  0.47712700  0.74861700  1
  Zr  Zr7  1  0.50000000  0.52287300  0.25138300  1
  Bi  Bi8  1  0.00000000  0.87687400  0.94294700  1
  Bi  Bi9  1  0.00000000  0.12312600  0.05705300  1
  Bi  Bi10  1  0.50000000  0.37687400  0.55705300  1
  Bi  Bi11  1  0.50000000  0.62312600  0.44294700  1
  Bi  Bi12  1  0.00000000  0.65369700  0.65019300  1
  Bi  Bi13  1  0.00000000  0.34630300  0.34980700  1
  Bi  Bi14  1  0.50000000  0.15369700  0.84980700  1
  Bi  Bi15  1  0.50000000  0.84630300  0.15019300  1
  Bi  Bi16  1  0.50000000  0.76498200  0.79991900  1
  Bi  Bi17  1  0.50000000  0.23501800  0.20008100  1
  Bi  Bi18  1  0.00000000  0.26498200  0.70008100  1
  Bi  Bi19  1  0.00000000  0.73501800  0.29991900  1
  Bi  Bi20  1  0.50000000  0.98707700  0.60592100  1
  Bi  Bi21  1  0.50000000  0.01292300  0.39407900  1
  Bi  Bi22  1  0.00000000  0.48707700  0.89407900  1
  Bi  Bi23  1  0.00000000  0.51292300  0.10592100  1
