# generated using pymatgen
data_Na3PS4
_symmetry_space_group_name_H-M   'P 1'
_cell_length_a   7.01933500
_cell_length_b   7.01933500
_cell_length_c   7.15256600
_cell_angle_alpha   90.00000000
_cell_angle_beta   90.00000000
_cell_angle_gamma   90.00000000
_symmetry_Int_Tables_number   1
_chemical_formula_structural   Na3PS4
_chemical_formula_sum   'Na6 P2 S8'
_cell_volume   352.41453602
_cell_formula_units_Z   2
loop_
 _symmetry_equiv_pos_site_id
 _symmetry_equiv_pos_as_xyz
  1  'x, y, z'
loop_
 _atom_site_type_symbol
 _atom_site_label
 _atom_site_symmetry_multiplicity
 _atom_site_fract_x
 _atom_site_fract_y
 _atom_site_fract_z
 _atom_site_occupancy
  Na  Na0  1  0.00000000  0.50000000  0.42070500  1
  Na  Na1  1  0.50000000  0.00000000  0.57929500  1
  Na  Na2  1  0.50000000  0.00000000  0.07929500  1
  Na  Na3  1  0.00000000  0.50000000  0.92070500  1
  Na  Na4  1  0.00000000  0.00000000  0.00000000  1
  Na  Na5  1  0.50000000  0.50000000  0.50000000  1
  P  P6  1  0.00000000  0.00000000  0.50000000  1
  P  P7  1  0.50000000  0.50000000  0.00000000  1
  S  S8  1  0.31169300  0.34857100  0.16536700  1
  S  S9  1  0.34857100  0.68830700  0.83463300  1
  S  S10  1  0.65142900  0.31169300  0.83463300  1
  S  S11  1  0.81169300  0.15142900  0.33463300  1
  S  S12  1  0.18830700  0.84857100  0.33463300  1
  S  S13  1  0.68830700  0.65142900  0.16536700  1
  S  S14  1  0.15142900  0.18830700  0.66536700  1
  S  S15  1  0.84857100  0.81169300  0.66536700  1
