# generated using pymatgen
data_Tl5Se2Cl
_symmetry_space_group_name_H-M   'P 1'
_cell_length_a   8.77104400
_cell_length_b   8.77104400
_cell_length_c   13.33014300
_cell_angle_alpha   90.00000000
_cell_angle_beta   90.00000000
_cell_angle_gamma   90.00000000
_symmetry_Int_Tables_number   1
_chemical_formula_structural   Tl5Se2Cl
_chemical_formula_sum   'Tl20 Se8 Cl4'
_cell_volume   1025.50406845
_cell_formula_units_Z   4
loop_
 _symmetry_equiv_pos_site_id
 _symmetry_equiv_pos_as_xyz
  1  'x, y, z'
loop_
 _atom_site_type_symbol
 _atom_site_label
 _atom_site_symmetry_multiplicity
 _atom_site_fract_x
 _atom_site_fract_y
 _atom_site_fract_z
 _atom_site_occupancy
  Tl  Tl0  1  0.37312100  0.66562000  0.60717500  1
  Tl  Tl1  1  0.83438000  0.87312100  0.60717500  1
  Tl  Tl2  1  0.16562000  0.12687900  0.60717500  1
  Tl  Tl3  1  0.87312100  0.83438000  0.89282500  1
  Tl  Tl4  1  0.12687900  0.16562000  0.89282500  1
  Tl  Tl5  1  0.62687900  0.33438000  0.60717500  1
  Tl  Tl6  1  0.66562000  0.37312100  0.89282500  1
  Tl  Tl7  1  0.33438000  0.62687900  0.89282500  1
  Tl  Tl8  1  0.16562000  0.87312100  0.10717500  1
  Tl  Tl9  1  0.83438000  0.12687900  0.10717500  1
  Tl  Tl10  1  0.87312100  0.16562000  0.39282500  1
  Tl  Tl11  1  0.37312100  0.33438000  0.10717500  1
  Tl  Tl12  1  0.62687900  0.66562000  0.10717500  1
  Tl  Tl13  1  0.33438000  0.37312100  0.39282500  1
  Tl  Tl14  1  0.66562000  0.62687900  0.39282500  1
  Tl  Tl15  1  0.12687900  0.83438000  0.39282500  1
  Tl  Tl16  1  0.50000000  0.00000000  0.79210200  1
  Tl  Tl17  1  0.00000000  0.50000000  0.70789800  1
  Tl  Tl18  1  0.00000000  0.50000000  0.20789800  1
  Tl  Tl19  1  0.50000000  0.00000000  0.29210200  1
  Se  Se20  1  0.66067900  0.33932100  0.25000000  1
  Se  Se21  1  0.16067900  0.16067900  0.25000000  1
  Se  Se22  1  0.83932100  0.83932100  0.25000000  1
  Se  Se23  1  0.33932100  0.66067900  0.25000000  1
  Se  Se24  1  0.16067900  0.83932100  0.75000000  1
  Se  Se25  1  0.66067900  0.66067900  0.75000000  1
  Se  Se26  1  0.33932100  0.33932100  0.75000000  1
  Se  Se27  1  0.83932100  0.16067900  0.75000000  1
  Cl  Cl28  1  0.50000000  0.00000000  0.54222500  1
  Cl  Cl29  1  0.00000000  0.50000000  0.95777500  1
  Cl  Cl30  1  0.00000000  0.50000000  0.45777500  1
  Cl  Cl31  1  0.50000000  0.00000000  0.04222500  1
