# generated using pymatgen
data_Te4P2O13
_symmetry_space_group_name_H-M   'P 1'
_cell_length_a   4.74466700
_cell_length_b   11.46771100
_cell_length_c   22.81172153
_cell_angle_alpha   63.54785094
_cell_angle_beta   90.00000000
_cell_angle_gamma   90.00000000
_symmetry_Int_Tables_number   1
_chemical_formula_structural   Te4P2O13
_chemical_formula_sum   'Te16 P8 O52'
_cell_volume   1111.25152563
_cell_formula_units_Z   4
loop_
 _symmetry_equiv_pos_site_id
 _symmetry_equiv_pos_as_xyz
  1  'x, y, z'
loop_
 _atom_site_type_symbol
 _atom_site_label
 _atom_site_symmetry_multiplicity
 _atom_site_fract_x
 _atom_site_fract_y
 _atom_site_fract_z
 _atom_site_occupancy
  Te  Te0  1  0.73076800  0.18599200  0.93809500  1
  Te  Te1  1  0.23076800  0.81400800  0.56190500  1
  Te  Te2  1  0.26923200  0.81400800  0.06190500  1
  Te  Te3  1  0.76923200  0.18599200  0.43809500  1
  Te  Te4  1  0.18671800  0.47918500  0.65014400  1
  Te  Te5  1  0.68671800  0.52081500  0.84985600  1
  Te  Te6  1  0.81328200  0.52081500  0.34985600  1
  Te  Te7  1  0.31328200  0.47918500  0.15014400  1
  Te  Te8  1  0.31194100  0.65571600  0.42354500  1
  Te  Te9  1  0.81194100  0.34428400  0.07645500  1
  Te  Te10  1  0.68805900  0.34428400  0.57645500  1
  Te  Te11  1  0.18805900  0.65571600  0.92354500  1
  Te  Te12  1  0.82032800  0.01197800  0.18847300  1
  Te  Te13  1  0.32032800  0.98802200  0.31152700  1
  Te  Te14  1  0.17967200  0.98802200  0.81152700  1
  Te  Te15  1  0.67967200  0.01197800  0.68847300  1
  P  P16  1  0.27596900  0.30313300  0.82230400  1
  P  P17  1  0.77596900  0.69686700  0.67769600  1
  P  P18  1  0.72403100  0.69686700  0.17769600  1
  P  P19  1  0.22403100  0.30313300  0.32230400  1
  P  P20  1  0.25224000  0.13579400  0.05799200  1
  P  P21  1  0.75224000  0.86420600  0.44200800  1
  P  P22  1  0.74776000  0.86420600  0.94200800  1
  P  P23  1  0.24776000  0.13579400  0.55799200  1
  O  O24  1  0.33577700  0.59149900  0.85761500  1
  O  O25  1  0.83577700  0.40850100  0.64238500  1
  O  O26  1  0.66422300  0.40850100  0.14238500  1
  O  O27  1  0.16422300  0.59149900  0.35761500  1
  O  O28  1  0.09632600  0.64863200  0.57113000  1
  O  O29  1  0.59632600  0.35136800  0.92887000  1
  O  O30  1  0.90367400  0.35136800  0.42887000  1
  O  O31  1  0.40367400  0.64863200  0.07113000  1
  O  O32  1  0.44145200  0.80555000  0.34500700  1
  O  O33  1  0.94145200  0.19445000  0.15499300  1
  O  O34  1  0.55854800  0.19445000  0.65499300  1
  O  O35  1  0.05854800  0.80555000  0.84500700  1
  O  O36  1  0.17337900  0.96245300  0.23423000  1
  O  O37  1  0.67337900  0.03754700  0.26577000  1
  O  O38  1  0.82662100  0.03754700  0.76577000  1
  O  O39  1  0.32662100  0.96245300  0.73423000  1
  O  O40  1  0.16090700  0.43216600  0.07681600  1
  O  O41  1  0.66090700  0.56783400  0.42318400  1
  O  O42  1  0.43901800  0.43242400  0.79880400  1
  O  O43  1  0.83909300  0.56783400  0.92318400  1
  O  O44  1  0.47573100  0.18453400  0.87041400  1
  O  O45  1  0.97573100  0.81546600  0.62958600  1
  O  O46  1  0.52426900  0.81546600  0.12958600  1
  O  O47  1  0.02426900  0.18453400  0.37041400  1
  O  O48  1  0.42086000  0.01266900  0.60198300  1
  O  O49  1  0.92086000  0.98733100  0.89801700  1
  O  O50  1  0.57914000  0.98733100  0.39801700  1
  O  O51  1  0.07914000  0.01266900  0.10198300  1
  O  O52  1  0.45261500  0.25414800  0.52302800  1
  O  O53  1  0.95261500  0.74585200  0.97697200  1
  O  O54  1  0.54738500  0.74585200  0.47697200  1
  O  O55  1  0.04738500  0.25414800  0.02302800  1
  O  O56  1  0.01305600  0.16459900  0.59600500  1
  O  O57  1  0.51305600  0.83540100  0.90399500  1
  O  O58  1  0.98694400  0.83540100  0.40399500  1
  O  O59  1  0.48694400  0.16459900  0.09600500  1
  O  O60  1  0.12370300  0.10708400  0.50184500  1
  O  O61  1  0.62370300  0.89291600  0.99815500  1
  O  O62  1  0.87629700  0.89291600  0.49815500  1
  O  O63  1  0.37629700  0.10708400  0.00184500  1
  O  O64  1  0.48086500  0.30799800  0.36500800  1
  O  O65  1  0.98086500  0.69200200  0.13499200  1
  O  O66  1  0.51913500  0.69200200  0.63499200  1
  O  O67  1  0.01913500  0.30799800  0.86500800  1
  O  O68  1  0.30886000  0.27122100  0.26732100  1
  O  O69  1  0.80886000  0.72877900  0.23267900  1
  O  O70  1  0.69114000  0.72877900  0.73267900  1
  O  O71  1  0.19114000  0.27122100  0.76732100  1
  O  O72  1  0.06098200  0.43242400  0.29880400  1
  O  O73  1  0.56098200  0.56757600  0.20119600  1
  O  O74  1  0.93901800  0.56757600  0.70119600  1
  O  O75  1  0.33909300  0.43216600  0.57681600  1
