# generated using pymatgen
data_PuSi2
_symmetry_space_group_name_H-M   'P 1'
_cell_length_a   7.57556974
_cell_length_b   7.57556974
_cell_length_c   7.57556974
_cell_angle_alpha   149.38254041
_cell_angle_beta   149.38254041
_cell_angle_gamma   43.84852849
_symmetry_Int_Tables_number   1
_chemical_formula_structural   PuSi2
_chemical_formula_sum   'Pu2 Si4'
_cell_volume   112.45452548
_cell_formula_units_Z   2
loop_
 _symmetry_equiv_pos_site_id
 _symmetry_equiv_pos_as_xyz
  1  'x, y, z'
loop_
 _atom_site_type_symbol
 _atom_site_label
 _atom_site_symmetry_multiplicity
 _atom_site_fract_x
 _atom_site_fract_y
 _atom_site_fract_z
 _atom_site_occupancy
  Pu  Pu0  1  0.50000000  0.50000000  0.00000000  1
  Pu  Pu1  1  0.25000000  0.75000000  0.50000000  1
  Si  Si2  1  0.83273700  0.33273700  0.50000000  1
  Si  Si3  1  0.08273700  0.08273700  0.00000000  1
  Si  Si4  1  0.66726300  0.16726300  0.50000000  1
  Si  Si5  1  0.91726300  0.91726300  0.00000000  1
