# generated using pymatgen
data_Te2AuI
_symmetry_space_group_name_H-M   'P 1'
_cell_length_a   4.14020000
_cell_length_b   4.82563800
_cell_length_c   12.97854900
_cell_angle_alpha   90.00000000
_cell_angle_beta   90.00000000
_cell_angle_gamma   90.00000000
_symmetry_Int_Tables_number   1
_chemical_formula_structural   Te2AuI
_chemical_formula_sum   'Te4 Au2 I2'
_cell_volume   259.29981201
_cell_formula_units_Z   2
loop_
 _symmetry_equiv_pos_site_id
 _symmetry_equiv_pos_as_xyz
  1  'x, y, z'
loop_
 _atom_site_type_symbol
 _atom_site_label
 _atom_site_symmetry_multiplicity
 _atom_site_fract_x
 _atom_site_fract_y
 _atom_site_fract_z
 _atom_site_occupancy
  Te  Te0  1  0.50000000  0.19667500  0.58016000  1
  Te  Te1  1  0.50000000  0.80332500  0.41984000  1
  Te  Te2  1  0.50000000  0.19667500  0.91984000  1
  Te  Te3  1  0.50000000  0.80332500  0.08016000  1
  Au  Au4  1  0.00000000  0.50000000  0.50000000  1
  Au  Au5  1  0.00000000  0.50000000  0.00000000  1
  I  I6  1  0.00000000  0.26497600  0.25000000  1
  I  I7  1  0.00000000  0.73502400  0.75000000  1
