# generated using pymatgen
data_KNaS
_symmetry_space_group_name_H-M   'P 1'
_cell_length_a   4.66324700
_cell_length_b   7.84497300
_cell_length_c   8.43378500
_cell_angle_alpha   90.00000000
_cell_angle_beta   90.00000000
_cell_angle_gamma   90.00000000
_symmetry_Int_Tables_number   1
_chemical_formula_structural   KNaS
_chemical_formula_sum   'K4 Na4 S4'
_cell_volume   308.53355142
_cell_formula_units_Z   4
loop_
 _symmetry_equiv_pos_site_id
 _symmetry_equiv_pos_as_xyz
  1  'x, y, z'
loop_
 _atom_site_type_symbol
 _atom_site_label
 _atom_site_symmetry_multiplicity
 _atom_site_fract_x
 _atom_site_fract_y
 _atom_site_fract_z
 _atom_site_occupancy
  K  K0  1  0.25000000  0.51439900  0.68392300  1
  K  K1  1  0.75000000  0.48560100  0.31607700  1
  K  K2  1  0.25000000  0.01439900  0.81607700  1
  K  K3  1  0.75000000  0.98560100  0.18392300  1
  Na  Na4  1  0.75000000  0.35381600  0.92487100  1
  Na  Na5  1  0.25000000  0.14618400  0.42487100  1
  Na  Na6  1  0.75000000  0.85381600  0.57512900  1
  Na  Na7  1  0.25000000  0.64618400  0.07512900  1
  S  S8  1  0.25000000  0.28067900  0.10498700  1
  S  S9  1  0.75000000  0.21932100  0.60498700  1
  S  S10  1  0.25000000  0.78067900  0.39501300  1
  S  S11  1  0.75000000  0.71932100  0.89501300  1
