# generated using pymatgen
data_NbNi2BO6
_symmetry_space_group_name_H-M   'P 1'
_cell_length_a   4.53939100
_cell_length_b   8.73215100
_cell_length_c   10.21697800
_cell_angle_alpha   90.00000000
_cell_angle_beta   90.00000000
_cell_angle_gamma   90.00000000
_symmetry_Int_Tables_number   1
_chemical_formula_structural   NbNi2BO6
_chemical_formula_sum   'Nb4 Ni8 B4 O24'
_cell_volume   404.98719109
_cell_formula_units_Z   4
loop_
 _symmetry_equiv_pos_site_id
 _symmetry_equiv_pos_as_xyz
  1  'x, y, z'
loop_
 _atom_site_type_symbol
 _atom_site_label
 _atom_site_symmetry_multiplicity
 _atom_site_fract_x
 _atom_site_fract_y
 _atom_site_fract_z
 _atom_site_occupancy
  Nb  Nb0  1  0.52493700  0.75000000  0.41981300  1
  Nb  Nb1  1  0.02493700  0.25000000  0.08018700  1
  Nb  Nb2  1  0.47506300  0.25000000  0.58018700  1
  Nb  Nb3  1  0.97506300  0.75000000  0.91981300  1
  Ni  Ni4  1  0.51975100  0.92993200  0.13595900  1
  Ni  Ni5  1  0.01975100  0.07006800  0.36404100  1
  Ni  Ni6  1  0.48024900  0.42993200  0.86404100  1
  Ni  Ni7  1  0.98024900  0.57006800  0.63595900  1
  Ni  Ni8  1  0.01975100  0.42993200  0.36404100  1
  Ni  Ni9  1  0.51975100  0.57006800  0.13595900  1
  Ni  Ni10  1  0.98024900  0.92993200  0.63595900  1
  Ni  Ni11  1  0.48024900  0.07006800  0.86404100  1
  B  B12  1  0.40998800  0.75000000  0.72628600  1
  B  B13  1  0.90998800  0.25000000  0.77371400  1
  B  B14  1  0.59001200  0.25000000  0.27371400  1
  B  B15  1  0.09001200  0.75000000  0.22628600  1
  O  O16  1  0.24002000  0.08321200  0.53847800  1
  O  O17  1  0.74002000  0.91678800  0.96152200  1
  O  O18  1  0.75998000  0.58321200  0.46152200  1
  O  O19  1  0.25998000  0.41678800  0.03847800  1
  O  O20  1  0.75998000  0.91678800  0.46152200  1
  O  O21  1  0.25998000  0.08321200  0.03847800  1
  O  O22  1  0.24002000  0.41678800  0.53847800  1
  O  O23  1  0.74002000  0.58321200  0.96152200  1
  O  O24  1  0.77138900  0.75000000  0.22705400  1
  O  O25  1  0.27138900  0.25000000  0.27294600  1
  O  O26  1  0.22861100  0.25000000  0.77294600  1
  O  O27  1  0.72861100  0.75000000  0.72705400  1
  O  O28  1  0.21607100  0.75000000  0.08547600  1
  O  O29  1  0.71607100  0.25000000  0.41452400  1
  O  O30  1  0.78392900  0.25000000  0.91452400  1
  O  O31  1  0.28392900  0.75000000  0.58547600  1
  O  O32  1  0.23878700  0.61600400  0.29156400  1
  O  O33  1  0.73878700  0.38399600  0.20843600  1
  O  O34  1  0.76121300  0.11600400  0.70843600  1
  O  O35  1  0.26121300  0.88399600  0.79156400  1
  O  O36  1  0.76121300  0.38399600  0.70843600  1
  O  O37  1  0.26121300  0.61600400  0.79156400  1
  O  O38  1  0.23878700  0.88399600  0.29156400  1
  O  O39  1  0.73878700  0.11600400  0.20843600  1
