# generated using pymatgen
data_K4Al3Si3ClO12
_symmetry_space_group_name_H-M   'P 1'
_cell_length_a   9.36999200
_cell_length_b   9.36999200
_cell_length_c   9.36999200
_cell_angle_alpha   90.00000000
_cell_angle_beta   90.00000000
_cell_angle_gamma   90.00000000
_symmetry_Int_Tables_number   1
_chemical_formula_structural   K4Al3Si3ClO12
_chemical_formula_sum   'K8 Al6 Si6 Cl2 O24'
_cell_volume   822.65484588
_cell_formula_units_Z   2
loop_
 _symmetry_equiv_pos_site_id
 _symmetry_equiv_pos_as_xyz
  1  'x, y, z'
loop_
 _atom_site_type_symbol
 _atom_site_label
 _atom_site_symmetry_multiplicity
 _atom_site_fract_x
 _atom_site_fract_y
 _atom_site_fract_z
 _atom_site_occupancy
  K  K0  1  0.31364700  0.31364700  0.68635300  1
  K  K1  1  0.81364700  0.81364700  0.18635300  1
  K  K2  1  0.68635300  0.31364700  0.31364700  1
  K  K3  1  0.81364700  0.18635300  0.81364700  1
  K  K4  1  0.31364700  0.68635300  0.31364700  1
  K  K5  1  0.18635300  0.18635300  0.18635300  1
  K  K6  1  0.68635300  0.68635300  0.68635300  1
  K  K7  1  0.18635300  0.81364700  0.81364700  1
  Al  Al8  1  0.25000000  0.50000000  0.00000000  1
  Al  Al9  1  0.50000000  0.00000000  0.75000000  1
  Al  Al10  1  0.50000000  0.00000000  0.25000000  1
  Al  Al11  1  0.00000000  0.25000000  0.50000000  1
  Al  Al12  1  0.00000000  0.75000000  0.50000000  1
  Al  Al13  1  0.75000000  0.50000000  0.00000000  1
  Si  Si14  1  0.75000000  0.00000000  0.50000000  1
  Si  Si15  1  0.00000000  0.50000000  0.75000000  1
  Si  Si16  1  0.00000000  0.50000000  0.25000000  1
  Si  Si17  1  0.50000000  0.25000000  0.00000000  1
  Si  Si18  1  0.25000000  0.00000000  0.50000000  1
  Si  Si19  1  0.50000000  0.75000000  0.00000000  1
  Cl  Cl20  1  0.50000000  0.50000000  0.50000000  1
  Cl  Cl21  1  0.00000000  0.00000000  0.00000000  1
  O  O22  1  0.65357200  0.97883200  0.64426200  1
  O  O23  1  0.65357200  0.02116800  0.35573800  1
  O  O24  1  0.97883200  0.64426200  0.65357200  1
  O  O25  1  0.02116800  0.64426200  0.34642800  1
  O  O26  1  0.64426200  0.65357200  0.97883200  1
  O  O27  1  0.35573800  0.34642800  0.97883200  1
  O  O28  1  0.84642800  0.85573800  0.47883200  1
  O  O29  1  0.84642800  0.14426200  0.52116800  1
  O  O30  1  0.15357200  0.85573800  0.52116800  1
  O  O31  1  0.14426200  0.52116800  0.84642800  1
  O  O32  1  0.52116800  0.15357200  0.85573800  1
  O  O33  1  0.52116800  0.84642800  0.14426200  1
  O  O34  1  0.85573800  0.47883200  0.84642800  1
  O  O35  1  0.47883200  0.84642800  0.85573800  1
  O  O36  1  0.85573800  0.52116800  0.15357200  1
  O  O37  1  0.14426200  0.47883200  0.15357200  1
  O  O38  1  0.47883200  0.15357200  0.14426200  1
  O  O39  1  0.35573800  0.65357200  0.02116800  1
  O  O40  1  0.64426200  0.34642800  0.02116800  1
  O  O41  1  0.97883200  0.35573800  0.34642800  1
  O  O42  1  0.02116800  0.35573800  0.65357200  1
  O  O43  1  0.34642800  0.02116800  0.64426200  1
  O  O44  1  0.15357200  0.14426200  0.47883200  1
  O  O45  1  0.34642800  0.97883200  0.35573800  1
