# generated using pymatgen
data_P4Se3I2
_symmetry_space_group_name_H-M   'P 1'
_cell_length_a   12.38891161
_cell_length_b   12.38891161
_cell_length_c   12.38891161
_cell_angle_alpha   117.68390353
_cell_angle_beta   117.68390353
_cell_angle_gamma   94.06070892
_symmetry_Int_Tables_number   1
_chemical_formula_structural   P4Se3I2
_chemical_formula_sum   'P16 Se12 I8'
_cell_volume   1387.87302712
_cell_formula_units_Z   4
loop_
 _symmetry_equiv_pos_site_id
 _symmetry_equiv_pos_as_xyz
  1  'x, y, z'
loop_
 _atom_site_type_symbol
 _atom_site_label
 _atom_site_symmetry_multiplicity
 _atom_site_fract_x
 _atom_site_fract_y
 _atom_site_fract_z
 _atom_site_occupancy
  P  P0  1  0.77392400  0.90853700  0.12911600  1
  P  P1  1  0.98569700  0.95703400  0.22314300  1
  P  P2  1  0.73389200  0.76255500  0.77685700  1
  P  P3  1  0.51255500  0.98389200  0.27685700  1
  P  P4  1  0.23744500  0.01430300  0.97133700  1
  P  P5  1  0.04296600  0.26610800  0.02866300  1
  P  P6  1  0.01610800  0.29296600  0.52866300  1
  P  P7  1  0.76430300  0.48744500  0.47133700  1
  P  P8  1  0.70703400  0.23569700  0.72314300  1
  P  P9  1  0.77942100  0.64480800  0.87088400  1
  P  P10  1  0.65853700  0.02392400  0.62911600  1
  P  P11  1  0.09146300  0.22057900  0.86538800  1
  P  P12  1  0.39480800  0.02942100  0.37088400  1
  P  P13  1  0.35519200  0.22607600  0.13461200  1
  P  P14  1  0.97607600  0.60519200  0.63461200  1
  P  P15  1  0.97057900  0.34146300  0.36538800  1
  Se  Se16  1  0.43783300  0.93783300  0.50000000  1
  Se  Se17  1  0.74157200  0.94956400  0.95628400  1
  Se  Se18  1  0.31216700  0.31216700  0.00000000  1
  Se  Se19  1  0.69956400  0.99157200  0.45628400  1
  Se  Se20  1  0.05043600  0.00672000  0.79200700  1
  Se  Se21  1  0.21471200  0.25842800  0.20799300  1
  Se  Se22  1  0.00842800  0.46471200  0.70799300  1
  Se  Se23  1  0.75672000  0.30043600  0.29200700  1
  Se  Se24  1  0.53528800  0.24328000  0.54371600  1
  Se  Se25  1  0.68783300  0.68783300  0.00000000  1
  Se  Se26  1  0.06216700  0.56216700  0.50000000  1
  Se  Se27  1  0.99328000  0.78528800  0.04371600  1
  I  I28  1  0.65732100  0.29646400  0.91310800  1
  I  I29  1  0.70353600  0.61664400  0.36085700  1
  I  I30  1  0.25578800  0.34267900  0.63914300  1
  I  I31  1  0.09267900  0.50578800  0.13914300  1
  I  I32  1  0.36664400  0.95353600  0.86085700  1
  I  I33  1  0.38335600  0.74421200  0.08689200  1
  I  I34  1  0.49421200  0.63335600  0.58689200  1
  I  I35  1  0.04646400  0.90732100  0.41310800  1
