# generated using pymatgen
data_AuCl3
_symmetry_space_group_name_H-M   'P 1'
_cell_length_a   11.90990300
_cell_length_b   6.92981300
_cell_length_c   7.11072055
_cell_angle_alpha   64.90139298
_cell_angle_beta   90.00000000
_cell_angle_gamma   90.00000000
_symmetry_Int_Tables_number   1
_chemical_formula_structural   AuCl3
_chemical_formula_sum   'Au4 Cl12'
_cell_volume   531.45897740
_cell_formula_units_Z   4
loop_
 _symmetry_equiv_pos_site_id
 _symmetry_equiv_pos_as_xyz
  1  'x, y, z'
loop_
 _atom_site_type_symbol
 _atom_site_label
 _atom_site_symmetry_multiplicity
 _atom_site_fract_x
 _atom_site_fract_y
 _atom_site_fract_z
 _atom_site_occupancy
  Au  Au0  1  0.58390100  0.27800000  0.03982300  1
  Au  Au1  1  0.08390100  0.22200000  0.96017700  1
  Au  Au2  1  0.41609900  0.72200000  0.96017700  1
  Au  Au3  1  0.91609900  0.77800000  0.03982300  1
  Cl  Cl4  1  0.65423800  0.13578800  0.82759500  1
  Cl  Cl5  1  0.15423800  0.36421200  0.17240500  1
  Cl  Cl6  1  0.34576200  0.86421200  0.17240500  1
  Cl  Cl7  1  0.84576200  0.63578800  0.82759500  1
  Cl  Cl8  1  0.99530000  0.93955400  0.24506100  1
  Cl  Cl9  1  0.49530000  0.56044600  0.75493900  1
  Cl  Cl10  1  0.00470000  0.06044600  0.75493900  1
  Cl  Cl11  1  0.50470000  0.43955400  0.24506100  1
  Cl  Cl12  1  0.83507100  0.51524000  0.32262400  1
  Cl  Cl13  1  0.33507100  0.98476000  0.67737600  1
  Cl  Cl14  1  0.16492900  0.48476000  0.67737600  1
  Cl  Cl15  1  0.66492900  0.01524000  0.32262400  1
