# generated using pymatgen
data_H8NF5
_symmetry_space_group_name_H-M   'P 1'
_cell_length_a   8.22093592
_cell_length_b   8.22093592
_cell_length_c   8.22093592
_cell_angle_alpha   134.37643833
_cell_angle_beta   134.37643833
_cell_angle_gamma   66.50063288
_symmetry_Int_Tables_number   1
_chemical_formula_structural   H8NF5
_chemical_formula_sum   'H16 N2 F10'
_cell_volume   279.37027924
_cell_formula_units_Z   2
loop_
 _symmetry_equiv_pos_site_id
 _symmetry_equiv_pos_as_xyz
  1  'x, y, z'
loop_
 _atom_site_type_symbol
 _atom_site_label
 _atom_site_symmetry_multiplicity
 _atom_site_fract_x
 _atom_site_fract_y
 _atom_site_fract_z
 _atom_site_occupancy
  H  H0  1  0.13883600  0.13516100  0.18831200  1
  H  H1  1  0.70052400  0.38883600  0.50367500  1
  H  H2  1  0.88516100  0.19684900  0.49632500  1
  H  H3  1  0.94684900  0.95052400  0.81168800  1
  H  H4  1  0.61116400  0.11483900  0.31168800  1
  H  H5  1  0.04947600  0.86116400  0.99632500  1
  H  H6  1  0.86483900  0.05315100  0.00367500  1
  H  H7  1  0.80315100  0.29947600  0.68831200  1
  H  H8  1  0.68454200  0.70513600  0.26801600  1
  H  H9  1  0.16652500  0.93454200  0.47940600  1
  H  H10  1  0.45513600  0.68711900  0.52059400  1
  H  H11  1  0.43712000  0.41652500  0.73198400  1
  H  H12  1  0.31288100  0.83347500  0.76801600  1
  H  H13  1  0.29486400  0.56288100  0.97940600  1
  H  H14  1  0.58347500  0.31545800  0.02059400  1
  H  H15  1  0.06545800  0.54486400  0.23198400  1
  N  N16  1  0.00000000  0.00000000  0.00000000  1
  N  N17  1  0.75000000  0.25000000  0.50000000  1
  F  F18  1  0.80692800  0.84381700  0.44871000  1
  F  F19  1  0.10821800  0.05692800  0.46311100  1
  F  F20  1  0.59381700  0.64510700  0.53688900  1
  F  F21  1  0.39510700  0.35821800  0.55129000  1
  F  F22  1  0.94307200  0.40618300  0.05129000  1
  F  F23  1  0.64178200  0.19307200  0.03688900  1
  F  F24  1  0.15618300  0.60489300  0.96311100  1
  F  F25  1  0.35489300  0.89178200  0.94871000  1
  F  F26  1  0.50000000  0.50000000  0.00000000  1
  F  F27  1  0.25000000  0.75000000  0.50000000  1
