# generated using pymatgen
data_UPdSe3
_symmetry_space_group_name_H-M   'P 1'
_cell_length_a   6.43454900
_cell_length_b   7.77923300
_cell_length_c   8.82090700
_cell_angle_alpha   90.00000000
_cell_angle_beta   90.00000000
_cell_angle_gamma   90.00000000
_symmetry_Int_Tables_number   1
_chemical_formula_structural   UPdSe3
_chemical_formula_sum   'U4 Pd4 Se12'
_cell_volume   441.53804988
_cell_formula_units_Z   4
loop_
 _symmetry_equiv_pos_site_id
 _symmetry_equiv_pos_as_xyz
  1  'x, y, z'
loop_
 _atom_site_type_symbol
 _atom_site_label
 _atom_site_symmetry_multiplicity
 _atom_site_fract_x
 _atom_site_fract_y
 _atom_site_fract_z
 _atom_site_occupancy
  U  U0  1  0.93538800  0.36107300  0.25000000  1
  U  U1  1  0.43538800  0.13892700  0.75000000  1
  U  U2  1  0.56461200  0.86107300  0.25000000  1
  U  U3  1  0.06461200  0.63892700  0.75000000  1
  Pd  Pd4  1  0.00000000  0.00000000  0.00000000  1
  Pd  Pd5  1  0.00000000  0.00000000  0.50000000  1
  Pd  Pd6  1  0.50000000  0.50000000  0.50000000  1
  Pd  Pd7  1  0.50000000  0.50000000  0.00000000  1
  Se  Se8  1  0.33745100  0.83948500  0.94236400  1
  Se  Se9  1  0.16254900  0.33948500  0.94236400  1
  Se  Se10  1  0.66254900  0.16051500  0.05763600  1
  Se  Se11  1  0.33745100  0.83948500  0.55763600  1
  Se  Se12  1  0.18159700  0.06500200  0.25000000  1
  Se  Se13  1  0.68159700  0.43499800  0.75000000  1
  Se  Se14  1  0.31840300  0.56500200  0.25000000  1
  Se  Se15  1  0.81840300  0.93499800  0.75000000  1
  Se  Se16  1  0.16254900  0.33948500  0.55763600  1
  Se  Se17  1  0.66254900  0.16051500  0.44236400  1
  Se  Se18  1  0.83745100  0.66051500  0.05763600  1
  Se  Se19  1  0.83745100  0.66051500  0.44236400  1
