# generated using pymatgen
data_SiTePt
_symmetry_space_group_name_H-M   'P 1'
_cell_length_a   6.22308000
_cell_length_b   6.32116800
_cell_length_c   12.63211600
_cell_angle_alpha   90.00000000
_cell_angle_beta   90.00000000
_cell_angle_gamma   90.00000000
_symmetry_Int_Tables_number   1
_chemical_formula_structural   SiTePt
_chemical_formula_sum   'Si8 Te8 Pt8'
_cell_volume   496.91124178
_cell_formula_units_Z   8
loop_
 _symmetry_equiv_pos_site_id
 _symmetry_equiv_pos_as_xyz
  1  'x, y, z'
loop_
 _atom_site_type_symbol
 _atom_site_label
 _atom_site_symmetry_multiplicity
 _atom_site_fract_x
 _atom_site_fract_y
 _atom_site_fract_z
 _atom_site_occupancy
  Si  Si0  1  0.87105400  0.33339900  0.43906600  1
  Si  Si1  1  0.37105400  0.16660100  0.56093400  1
  Si  Si2  1  0.62894600  0.66660100  0.93906600  1
  Si  Si3  1  0.37105400  0.33339900  0.06093400  1
  Si  Si4  1  0.87105400  0.16660100  0.93906600  1
  Si  Si5  1  0.62894600  0.83339900  0.43906600  1
  Si  Si6  1  0.12894600  0.66660100  0.56093400  1
  Si  Si7  1  0.12894600  0.83339900  0.06093400  1
  Te  Te8  1  0.61697700  0.08367500  0.17465500  1
  Te  Te9  1  0.88302300  0.91632500  0.67465500  1
  Te  Te10  1  0.38302300  0.58367500  0.32534500  1
  Te  Te11  1  0.88302300  0.58367500  0.17465500  1
  Te  Te12  1  0.61697700  0.41632500  0.67465500  1
  Te  Te13  1  0.11697700  0.08367500  0.32534500  1
  Te  Te14  1  0.11697700  0.41632500  0.82534500  1
  Te  Te15  1  0.38302300  0.91632500  0.82534500  1
  Pt  Pt16  1  0.52547200  0.31290600  0.88636300  1
  Pt  Pt17  1  0.02547200  0.18709400  0.11363700  1
  Pt  Pt18  1  0.47452800  0.81290600  0.61363700  1
  Pt  Pt19  1  0.97452800  0.68709400  0.38636300  1
  Pt  Pt20  1  0.47452800  0.68709400  0.11363700  1
  Pt  Pt21  1  0.97452800  0.81290600  0.88636300  1
  Pt  Pt22  1  0.52547200  0.18709400  0.38636300  1
  Pt  Pt23  1  0.02547200  0.31290600  0.61363700  1
