# generated using pymatgen
data_V8Ga41
_symmetry_space_group_name_H-M   'P 1'
_cell_length_a   9.49190466
_cell_length_b   9.49190466
_cell_length_c   9.49190404
_cell_angle_alpha   94.98275396
_cell_angle_beta   94.98275396
_cell_angle_gamma   94.98275383
_symmetry_Int_Tables_number   1
_chemical_formula_structural   V8Ga41
_chemical_formula_sum   'V8 Ga41'
_cell_volume   844.88542542
_cell_formula_units_Z   1
loop_
 _symmetry_equiv_pos_site_id
 _symmetry_equiv_pos_as_xyz
  1  'x, y, z'
loop_
 _atom_site_type_symbol
 _atom_site_label
 _atom_site_symmetry_multiplicity
 _atom_site_fract_x
 _atom_site_fract_y
 _atom_site_fract_z
 _atom_site_occupancy
  V  V0  1  0.61311800  0.28896900  0.89450700  1
  V  V1  1  0.89450700  0.61311800  0.28896900  1
  V  V2  1  0.28896900  0.89450700  0.61311800  1
  V  V3  1  0.38688200  0.71103100  0.10549300  1
  V  V4  1  0.10549300  0.38688200  0.71103100  1
  V  V5  1  0.71103100  0.10549300  0.38688200  1
  V  V6  1  0.81419500  0.81419500  0.81419500  1
  V  V7  1  0.18580500  0.18580500  0.18580500  1
  Ga  Ga8  1  0.67492600  0.17674400  0.13016100  1
  Ga  Ga9  1  0.13016100  0.67492600  0.17674400  1
  Ga  Ga10  1  0.17674400  0.13016100  0.67492600  1
  Ga  Ga11  1  0.32507400  0.82325600  0.86983900  1
  Ga  Ga12  1  0.86983900  0.32507400  0.82325600  1
  Ga  Ga13  1  0.82325600  0.86983900  0.32507400  1
  Ga  Ga14  1  0.77619200  0.44761900  0.07796300  1
  Ga  Ga15  1  0.07796300  0.77619200  0.44761900  1
  Ga  Ga16  1  0.44761900  0.07796300  0.77619200  1
  Ga  Ga17  1  0.22380800  0.55238100  0.92203700  1
  Ga  Ga18  1  0.92203700  0.22380800  0.55238100  1
  Ga  Ga19  1  0.55238100  0.92203700  0.22380800  1
  Ga  Ga20  1  0.39837900  0.21502400  0.03324500  1
  Ga  Ga21  1  0.03324500  0.39837900  0.21502400  1
  Ga  Ga22  1  0.21502400  0.03324500  0.39837900  1
  Ga  Ga23  1  0.60162100  0.78497600  0.96675500  1
  Ga  Ga24  1  0.96675500  0.60162100  0.78497600  1
  Ga  Ga25  1  0.78497600  0.96675500  0.60162100  1
  Ga  Ga26  1  0.50000000  0.50000000  0.00000000  1
  Ga  Ga27  1  0.00000000  0.50000000  0.50000000  1
  Ga  Ga28  1  0.50000000  0.00000000  0.50000000  1
  Ga  Ga29  1  0.72929100  0.05586700  0.87308400  1
  Ga  Ga30  1  0.87308400  0.72929100  0.05586700  1
  Ga  Ga31  1  0.05586700  0.87308400  0.72929100  1
  Ga  Ga32  1  0.27070900  0.94413300  0.12691600  1
  Ga  Ga33  1  0.12691600  0.27070900  0.94413300  1
  Ga  Ga34  1  0.94413300  0.12691600  0.27070900  1
  Ga  Ga35  1  0.73955600  0.38493300  0.36509200  1
  Ga  Ga36  1  0.36509200  0.73955600  0.38493300  1
  Ga  Ga37  1  0.38493300  0.36509200  0.73955600  1
  Ga  Ga38  1  0.26044400  0.61506700  0.63490800  1
  Ga  Ga39  1  0.63490800  0.26044400  0.61506700  1
  Ga  Ga40  1  0.61506700  0.63490800  0.26044400  1
  Ga  Ga41  1  0.45850800  0.21953900  0.32722000  1
  Ga  Ga42  1  0.32722000  0.45850800  0.21953900  1
  Ga  Ga43  1  0.21953900  0.32722000  0.45850800  1
  Ga  Ga44  1  0.54149200  0.78046100  0.67278000  1
  Ga  Ga45  1  0.67278000  0.54149200  0.78046100  1
  Ga  Ga46  1  0.78046100  0.67278000  0.54149200  1
  Ga  Ga47  1  0.00000000  0.00000000  0.00000000  1
  Ga  Ga48  1  0.50000000  0.50000000  0.50000000  1
