# generated using pymatgen
data_Cu2HgI4
_symmetry_space_group_name_H-M   'P 1'
_cell_length_a   7.67149480
_cell_length_b   7.67149480
_cell_length_c   7.67149480
_cell_angle_alpha   132.28374580
_cell_angle_beta   132.28374580
_cell_angle_gamma   69.78124876
_symmetry_Int_Tables_number   1
_chemical_formula_structural   Cu2HgI4
_chemical_formula_sum   'Cu2 Hg1 I4'
_cell_volume   242.33915790
_cell_formula_units_Z   1
loop_
 _symmetry_equiv_pos_site_id
 _symmetry_equiv_pos_as_xyz
  1  'x, y, z'
loop_
 _atom_site_type_symbol
 _atom_site_label
 _atom_site_symmetry_multiplicity
 _atom_site_fract_x
 _atom_site_fract_y
 _atom_site_fract_z
 _atom_site_occupancy
  Cu  Cu0  1  0.25000000  0.75000000  0.50000000  1
  Cu  Cu1  1  0.75000000  0.25000000  0.50000000  1
  Hg  Hg2  1  0.50000000  0.50000000  0.00000000  1
  I  I3  1  0.63317600  0.63317600  0.53460500  1
  I  I4  1  0.90142900  0.36682400  0.00000000  1
  I  I5  1  0.09857100  0.09857100  0.46539500  1
  I  I6  1  0.36682400  0.90142900  0.00000000  1
