# generated using pymatgen
data_Tl3CoCl5
_symmetry_space_group_name_H-M   'P 1'
_cell_length_a   9.48574743
_cell_length_b   9.48574743
_cell_length_c   9.48574743
_cell_angle_alpha   126.15703282
_cell_angle_beta   126.15703282
_cell_angle_gamma   79.63019977
_symmetry_Int_Tables_number   1
_chemical_formula_structural   Tl3CoCl5
_chemical_formula_sum   'Tl6 Co2 Cl10'
_cell_volume   537.59384720
_cell_formula_units_Z   2
loop_
 _symmetry_equiv_pos_site_id
 _symmetry_equiv_pos_as_xyz
  1  'x, y, z'
loop_
 _atom_site_type_symbol
 _atom_site_label
 _atom_site_symmetry_multiplicity
 _atom_site_fract_x
 _atom_site_fract_y
 _atom_site_fract_z
 _atom_site_occupancy
  Tl  Tl0  1  0.25000000  0.25000000  0.00000000  1
  Tl  Tl1  1  0.75000000  0.75000000  0.00000000  1
  Tl  Tl2  1  0.33551100  0.83551100  0.17102300  1
  Tl  Tl3  1  0.83551100  0.66448900  0.50000000  1
  Tl  Tl4  1  0.16448900  0.33551100  0.50000000  1
  Tl  Tl5  1  0.66448900  0.16448900  0.82897700  1
  Co  Co6  1  0.75000000  0.25000000  0.50000000  1
  Co  Co7  1  0.25000000  0.75000000  0.50000000  1
  Cl  Cl8  1  0.00000000  0.00000000  0.00000000  1
  Cl  Cl9  1  0.50000000  0.50000000  0.00000000  1
  Cl  Cl10  1  0.00874200  0.50874200  0.20564900  1
  Cl  Cl11  1  0.69690600  0.19690600  0.20564900  1
  Cl  Cl12  1  0.99125800  0.49125800  0.79435100  1
  Cl  Cl13  1  0.49125800  0.69690600  0.50000000  1
  Cl  Cl14  1  0.19690600  0.99125800  0.50000000  1
  Cl  Cl15  1  0.50874200  0.30309400  0.50000000  1
  Cl  Cl16  1  0.30309400  0.80309400  0.79435100  1
  Cl  Cl17  1  0.80309400  0.00874200  0.50000000  1
