# generated using pymatgen
data_HoGeRu
_symmetry_space_group_name_H-M   'P 1'
_cell_length_a   4.41526200
_cell_length_b   7.02389200
_cell_length_c   7.25200300
_cell_angle_alpha   90.00000000
_cell_angle_beta   90.00000000
_cell_angle_gamma   90.00000000
_symmetry_Int_Tables_number   1
_chemical_formula_structural   HoGeRu
_chemical_formula_sum   'Ho4 Ge4 Ru4'
_cell_volume   224.90146262
_cell_formula_units_Z   4
loop_
 _symmetry_equiv_pos_site_id
 _symmetry_equiv_pos_as_xyz
  1  'x, y, z'
loop_
 _atom_site_type_symbol
 _atom_site_label
 _atom_site_symmetry_multiplicity
 _atom_site_fract_x
 _atom_site_fract_y
 _atom_site_fract_z
 _atom_site_occupancy
  Ho  Ho0  1  0.25000000  0.48711300  0.19182300  1
  Ho  Ho1  1  0.75000000  0.51288700  0.80817700  1
  Ho  Ho2  1  0.25000000  0.98711300  0.30817700  1
  Ho  Ho3  1  0.75000000  0.01288700  0.69182300  1
  Ge  Ge4  1  0.25000000  0.79637100  0.89292500  1
  Ge  Ge5  1  0.75000000  0.20362900  0.10707500  1
  Ge  Ge6  1  0.25000000  0.29637100  0.60707500  1
  Ge  Ge7  1  0.75000000  0.70362900  0.39292500  1
  Ru  Ru8  1  0.75000000  0.84482000  0.06317000  1
  Ru  Ru9  1  0.25000000  0.15518000  0.93683000  1
  Ru  Ru10  1  0.75000000  0.34482000  0.43683000  1
  Ru  Ru11  1  0.25000000  0.65518000  0.56317000  1
