# generated using pymatgen
data_Ce15B8N25
_symmetry_space_group_name_H-M   'P 1'
_cell_length_a   10.72537714
_cell_length_b   10.72537714
_cell_length_c   10.72537662
_cell_angle_alpha   82.43032536
_cell_angle_beta   82.43032536
_cell_angle_gamma   82.43032190
_symmetry_Int_Tables_number   1
_chemical_formula_structural   Ce15B8N25
_chemical_formula_sum   'Ce30 B16 N50'
_cell_volume   1204.12885542
_cell_formula_units_Z   2
loop_
 _symmetry_equiv_pos_site_id
 _symmetry_equiv_pos_as_xyz
  1  'x, y, z'
loop_
 _atom_site_type_symbol
 _atom_site_label
 _atom_site_symmetry_multiplicity
 _atom_site_fract_x
 _atom_site_fract_y
 _atom_site_fract_z
 _atom_site_occupancy
  Ce  Ce0  1  0.41036100  0.58968900  0.28719400  1
  Ce  Ce1  1  0.58968900  0.28719400  0.41036100  1
  Ce  Ce2  1  0.28719400  0.41036100  0.58968900  1
  Ce  Ce3  1  0.91031100  0.08963900  0.21280600  1
  Ce  Ce4  1  0.08963900  0.21280600  0.91031100  1
  Ce  Ce5  1  0.21280600  0.91031100  0.08963900  1
  Ce  Ce6  1  0.58963900  0.41031100  0.71280600  1
  Ce  Ce7  1  0.41031100  0.71280600  0.58963900  1
  Ce  Ce8  1  0.71280600  0.58963900  0.41031100  1
  Ce  Ce9  1  0.08968900  0.91036100  0.78719400  1
  Ce  Ce10  1  0.91036100  0.78719400  0.08968900  1
  Ce  Ce11  1  0.78719400  0.08968900  0.91036100  1
  Ce  Ce12  1  0.90199100  0.42434800  0.15939800  1
  Ce  Ce13  1  0.42434800  0.15939800  0.90199100  1
  Ce  Ce14  1  0.15939800  0.90199100  0.42434800  1
  Ce  Ce15  1  0.07565200  0.59800900  0.34060200  1
  Ce  Ce16  1  0.59800900  0.34060200  0.07565200  1
  Ce  Ce17  1  0.34060200  0.07565200  0.59800900  1
  Ce  Ce18  1  0.09800900  0.57565200  0.84060200  1
  Ce  Ce19  1  0.57565200  0.84060200  0.09800900  1
  Ce  Ce20  1  0.84060200  0.09800900  0.57565200  1
  Ce  Ce21  1  0.92434800  0.40199100  0.65939800  1
  Ce  Ce22  1  0.40199100  0.65939800  0.92434800  1
  Ce  Ce23  1  0.65939800  0.92434800  0.40199100  1
  Ce  Ce24  1  0.25000000  0.39867200  0.10132800  1
  Ce  Ce25  1  0.39867200  0.10132800  0.25000000  1
  Ce  Ce26  1  0.10132800  0.25000000  0.39867200  1
  Ce  Ce27  1  0.75000000  0.60132800  0.89867200  1
  Ce  Ce28  1  0.60132800  0.89867200  0.75000000  1
  Ce  Ce29  1  0.89867200  0.75000000  0.60132800  1
  B  B30  1  0.16462200  0.16462200  0.16462200  1
  B  B31  1  0.33537800  0.33537800  0.33537800  1
  B  B32  1  0.83537800  0.83537800  0.83537800  1
  B  B33  1  0.66462200  0.66462200  0.66462200  1
  B  B34  1  0.65244600  0.06527500  0.16229600  1
  B  B35  1  0.06527500  0.16229600  0.65244600  1
  B  B36  1  0.16229600  0.65244600  0.06527500  1
  B  B37  1  0.43472500  0.84755400  0.33770400  1
  B  B38  1  0.84755400  0.33770400  0.43472500  1
  B  B39  1  0.33770400  0.43472500  0.84755400  1
  B  B40  1  0.34755400  0.93472500  0.83770400  1
  B  B41  1  0.93472500  0.83770400  0.34755400  1
  B  B42  1  0.83770400  0.34755400  0.93472500  1
  B  B43  1  0.56527500  0.15244600  0.66229600  1
  B  B44  1  0.15244600  0.66229600  0.56527500  1
  B  B45  1  0.66229600  0.56527500  0.15244600  1
  N  N46  1  0.00000000  0.00000000  0.00000000  1
  N  N47  1  0.50000000  0.50000000  0.50000000  1
  N  N48  1  0.16233200  0.75089700  0.95516400  1
  N  N49  1  0.75089700  0.95516400  0.16233200  1
  N  N50  1  0.95516400  0.16233200  0.75089700  1
  N  N51  1  0.74910300  0.33766800  0.54483600  1
  N  N52  1  0.33766800  0.54483600  0.74910300  1
  N  N53  1  0.54483600  0.74910300  0.33766800  1
  N  N54  1  0.83766800  0.24910300  0.04483600  1
  N  N55  1  0.24910300  0.04483600  0.83766800  1
  N  N56  1  0.04483600  0.83766800  0.24910300  1
  N  N57  1  0.25089700  0.66233200  0.45516400  1
  N  N58  1  0.66233200  0.45516400  0.25089700  1
  N  N59  1  0.45516400  0.25089700  0.66233200  1
  N  N60  1  0.55851400  0.60388300  0.07111600  1
  N  N61  1  0.60388300  0.07111600  0.55851400  1
  N  N62  1  0.07111600  0.55851400  0.60388300  1
  N  N63  1  0.89611700  0.94148600  0.42888400  1
  N  N64  1  0.94148600  0.42888400  0.89611700  1
  N  N65  1  0.42888400  0.89611700  0.94148600  1
  N  N66  1  0.44148600  0.39611700  0.92888400  1
  N  N67  1  0.39611700  0.92888400  0.44148600  1
  N  N68  1  0.92888400  0.44148600  0.39611700  1
  N  N69  1  0.10388300  0.05851400  0.57111600  1
  N  N70  1  0.05851400  0.57111600  0.10388300  1
  N  N71  1  0.57111600  0.10388300  0.05851400  1
  N  N72  1  0.27651300  0.14486000  0.07356400  1
  N  N73  1  0.14486000  0.07356400  0.27651300  1
  N  N74  1  0.07356400  0.27651300  0.14486000  1
  N  N75  1  0.35514000  0.22348700  0.42643600  1
  N  N76  1  0.22348700  0.42643600  0.35514000  1
  N  N77  1  0.42643600  0.35514000  0.22348700  1
  N  N78  1  0.72348700  0.85514000  0.92643600  1
  N  N79  1  0.85514000  0.92643600  0.72348700  1
  N  N80  1  0.92643600  0.72348700  0.85514000  1
  N  N81  1  0.64486000  0.77651300  0.57356400  1
  N  N82  1  0.77651300  0.57356400  0.64486000  1
  N  N83  1  0.57356400  0.64486000  0.77651300  1
  N  N84  1  0.13853000  0.27029200  0.63046400  1
  N  N85  1  0.27029200  0.63046400  0.13853000  1
  N  N86  1  0.63046400  0.13853000  0.27029200  1
  N  N87  1  0.22970800  0.36147000  0.86953600  1
  N  N88  1  0.36147000  0.86953600  0.22970800  1
  N  N89  1  0.86953600  0.22970800  0.36147000  1
  N  N90  1  0.86147000  0.72970800  0.36953600  1
  N  N91  1  0.72970800  0.36953600  0.86147000  1
  N  N92  1  0.36953600  0.86147000  0.72970800  1
  N  N93  1  0.77029200  0.63853000  0.13046400  1
  N  N94  1  0.63853000  0.13046400  0.77029200  1
  N  N95  1  0.13046400  0.77029200  0.63853000  1
