# generated using pymatgen
data_Si3PH9
_symmetry_space_group_name_H-M   'P 1'
_cell_length_a   13.15729200
_cell_length_b   6.36030500
_cell_length_c   10.15415504
_cell_angle_alpha   84.87704760
_cell_angle_beta   90.00000000
_cell_angle_gamma   90.00000000
_symmetry_Int_Tables_number   1
_chemical_formula_structural   Si3PH9
_chemical_formula_sum   'Si12 P4 H36'
_cell_volume   846.34986186
_cell_formula_units_Z   4
loop_
 _symmetry_equiv_pos_site_id
 _symmetry_equiv_pos_as_xyz
  1  'x, y, z'
loop_
 _atom_site_type_symbol
 _atom_site_label
 _atom_site_symmetry_multiplicity
 _atom_site_fract_x
 _atom_site_fract_y
 _atom_site_fract_z
 _atom_site_occupancy
  Si  Si0  1  0.88724000  0.90027100  0.33229500  1
  Si  Si1  1  0.38724000  0.09972900  0.16770500  1
  Si  Si2  1  0.11276000  0.09972900  0.66770500  1
  Si  Si3  1  0.61276000  0.90027100  0.83229500  1
  Si  Si4  1  0.78543500  0.28509300  0.12407400  1
  Si  Si5  1  0.28543500  0.71490700  0.37592600  1
  Si  Si6  1  0.21456500  0.71490700  0.87592600  1
  Si  Si7  1  0.71456500  0.28509300  0.62407400  1
  Si  Si8  1  0.03762800  0.29291600  0.20020200  1
  Si  Si9  1  0.53762800  0.70708400  0.29979800  1
  Si  Si10  1  0.96237200  0.70708400  0.79979800  1
  Si  Si11  1  0.46237200  0.29291600  0.70020200  1
  P  P12  1  0.88643200  0.25736600  0.30541700  1
  P  P13  1  0.38643200  0.74263400  0.19458300  1
  P  P14  1  0.11356800  0.74263400  0.69458300  1
  P  P15  1  0.61356800  0.25736600  0.80541700  1
  H  H16  1  0.97543900  0.82963500  0.41773600  1
  H  H17  1  0.47543900  0.17036500  0.08226400  1
  H  H18  1  0.02456100  0.17036500  0.58226400  1
  H  H19  1  0.52456100  0.82963500  0.91773600  1
  H  H20  1  0.79084500  0.82912500  0.39982500  1
  H  H21  1  0.29084500  0.17087500  0.10017500  1
  H  H22  1  0.20915500  0.17087500  0.60017500  1
  H  H23  1  0.70915500  0.82912500  0.89982500  1
  H  H24  1  0.89513900  0.80317500  0.20392900  1
  H  H25  1  0.39513900  0.19682500  0.29607100  1
  H  H26  1  0.10486100  0.19682500  0.79607100  1
  H  H27  1  0.60486100  0.80317500  0.70392900  1
  H  H28  1  0.68269500  0.20462400  0.16575700  1
  H  H29  1  0.18269500  0.79537600  0.33424300  1
  H  H30  1  0.31730500  0.79537600  0.83424300  1
  H  H31  1  0.81730500  0.20462400  0.66575700  1
  H  H32  1  0.45093200  0.15094600  0.59143500  1
  H  H33  1  0.95093200  0.84905400  0.90856500  1
  H  H34  1  0.54906800  0.84905400  0.40856500  1
  H  H35  1  0.04906800  0.15094600  0.09143500  1
  H  H36  1  0.38035600  0.24434700  0.79996200  1
  H  H37  1  0.88035600  0.75565300  0.70003800  1
  H  H38  1  0.61964400  0.75565300  0.20003800  1
  H  H39  1  0.11964400  0.24434700  0.29996200  1
  H  H40  1  0.45132600  0.51683800  0.64391200  1
  H  H41  1  0.95132600  0.48316200  0.85608800  1
  H  H42  1  0.54867400  0.48316200  0.35608800  1
  H  H43  1  0.04867400  0.51683800  0.14391200  1
  H  H44  1  0.67552000  0.16179500  0.51614300  1
  H  H45  1  0.17552000  0.83820500  0.98385700  1
  H  H46  1  0.32448000  0.83820500  0.48385700  1
  H  H47  1  0.82448000  0.16179500  0.01614300  1
  H  H48  1  0.72238300  0.51262200  0.57470900  1
  H  H49  1  0.22238300  0.48737800  0.92529100  1
  H  H50  1  0.27761700  0.48737800  0.42529100  1
  H  H51  1  0.77761700  0.51262200  0.07470900  1
