# generated using pymatgen
data_Ho(BC)2
_symmetry_space_group_name_H-M   'P 1'
_cell_length_a   5.34733100
_cell_length_b   5.34733100
_cell_length_c   3.53732000
_cell_angle_alpha   90.00000000
_cell_angle_beta   90.00000000
_cell_angle_gamma   90.00000000
_symmetry_Int_Tables_number   1
_chemical_formula_structural   Ho(BC)2
_chemical_formula_sum   'Ho2 B4 C4'
_cell_volume   101.14594705
_cell_formula_units_Z   2
loop_
 _symmetry_equiv_pos_site_id
 _symmetry_equiv_pos_as_xyz
  1  'x, y, z'
loop_
 _atom_site_type_symbol
 _atom_site_label
 _atom_site_symmetry_multiplicity
 _atom_site_fract_x
 _atom_site_fract_y
 _atom_site_fract_z
 _atom_site_occupancy
  Ho  Ho0  1  0.50000000  0.50000000  0.00000000  1
  Ho  Ho1  1  0.00000000  0.00000000  0.00000000  1
  B  B2  1  0.13668300  0.63668300  0.50000000  1
  B  B3  1  0.63668300  0.86331700  0.50000000  1
  B  B4  1  0.86331700  0.36331700  0.50000000  1
  B  B5  1  0.36331700  0.13668300  0.50000000  1
  C  C6  1  0.83815000  0.66185000  0.50000000  1
  C  C7  1  0.33815000  0.83815000  0.50000000  1
  C  C8  1  0.66185000  0.16185000  0.50000000  1
  C  C9  1  0.16185000  0.33815000  0.50000000  1
