# generated using pymatgen
data_RbClO4
_symmetry_space_group_name_H-M   'P 1'
_cell_length_a   5.94071700
_cell_length_b   7.67259300
_cell_length_c   9.47295600
_cell_angle_alpha   90.00000000
_cell_angle_beta   90.00000000
_cell_angle_gamma   90.00000000
_symmetry_Int_Tables_number   1
_chemical_formula_structural   RbClO4
_chemical_formula_sum   'Rb4 Cl4 O16'
_cell_volume   431.78400031
_cell_formula_units_Z   4
loop_
 _symmetry_equiv_pos_site_id
 _symmetry_equiv_pos_as_xyz
  1  'x, y, z'
loop_
 _atom_site_type_symbol
 _atom_site_label
 _atom_site_symmetry_multiplicity
 _atom_site_fract_x
 _atom_site_fract_y
 _atom_site_fract_z
 _atom_site_occupancy
  Rb  Rb0  1  0.25000000  0.33737000  0.68292500  1
  Rb  Rb1  1  0.75000000  0.66263000  0.31707500  1
  Rb  Rb2  1  0.75000000  0.83737000  0.81707500  1
  Rb  Rb3  1  0.25000000  0.16263000  0.18292500  1
  Cl  Cl4  1  0.25000000  0.80815600  0.56591300  1
  Cl  Cl5  1  0.75000000  0.19184400  0.43408700  1
  Cl  Cl6  1  0.75000000  0.30815600  0.93408700  1
  Cl  Cl7  1  0.25000000  0.69184400  0.06591300  1
  O  O8  1  0.54908000  0.30264600  0.42142400  1
  O  O9  1  0.04908000  0.69735400  0.57857600  1
  O  O10  1  0.45092000  0.80264600  0.07857600  1
  O  O11  1  0.95092000  0.19735400  0.92142400  1
  O  O12  1  0.45092000  0.69735400  0.57857600  1
  O  O13  1  0.95092000  0.30264600  0.42142400  1
  O  O14  1  0.54908000  0.19735400  0.92142400  1
  O  O15  1  0.04908000  0.80264600  0.07857600  1
  O  O16  1  0.25000000  0.60553800  0.92926500  1
  O  O17  1  0.75000000  0.39446200  0.07073500  1
  O  O18  1  0.75000000  0.10553800  0.57073500  1
  O  O19  1  0.25000000  0.89446200  0.42926500  1
  O  O20  1  0.25000000  0.56377200  0.18018000  1
  O  O21  1  0.75000000  0.43622800  0.81982000  1
  O  O22  1  0.75000000  0.06377200  0.31982000  1
  O  O23  1  0.25000000  0.93622800  0.68018000  1
