# generated using pymatgen
data_Sr(Ag3O2)2
_symmetry_space_group_name_H-M   'P 1'
_cell_length_a   6.61201800
_cell_length_b   9.09086200
_cell_length_c   12.61627700
_cell_angle_alpha   90.00000000
_cell_angle_beta   90.00000000
_cell_angle_gamma   90.00000000
_symmetry_Int_Tables_number   1
_chemical_formula_structural   Sr(Ag3O2)2
_chemical_formula_sum   'Sr4 Ag24 O16'
_cell_volume   758.35107733
_cell_formula_units_Z   4
loop_
 _symmetry_equiv_pos_site_id
 _symmetry_equiv_pos_as_xyz
  1  'x, y, z'
loop_
 _atom_site_type_symbol
 _atom_site_label
 _atom_site_symmetry_multiplicity
 _atom_site_fract_x
 _atom_site_fract_y
 _atom_site_fract_z
 _atom_site_occupancy
  Sr  Sr0  1  0.25000000  0.88053400  0.50000000  1
  Sr  Sr1  1  0.25000000  0.61946600  0.00000000  1
  Sr  Sr2  1  0.75000000  0.11946600  0.50000000  1
  Sr  Sr3  1  0.75000000  0.38053400  0.00000000  1
  Ag  Ag4  1  0.42258300  0.53949400  0.73918500  1
  Ag  Ag5  1  0.92258300  0.46050600  0.73918500  1
  Ag  Ag6  1  0.92258300  0.03949400  0.76081500  1
  Ag  Ag7  1  0.57741700  0.46050600  0.26081500  1
  Ag  Ag8  1  0.40965300  0.75000000  0.25000000  1
  Ag  Ag9  1  0.09034700  0.75000000  0.75000000  1
  Ag  Ag10  1  0.59034700  0.25000000  0.75000000  1
  Ag  Ag11  1  0.90965300  0.25000000  0.25000000  1
  Ag  Ag12  1  0.42258300  0.96050600  0.76081500  1
  Ag  Ag13  1  0.07741700  0.53949400  0.26081500  1
  Ag  Ag14  1  0.07741700  0.96050600  0.23918500  1
  Ag  Ag15  1  0.29141000  0.23594000  0.37797200  1
  Ag  Ag16  1  0.29141000  0.26406000  0.12202800  1
  Ag  Ag17  1  0.20859000  0.23594000  0.62202800  1
  Ag  Ag18  1  0.20859000  0.26406000  0.87797200  1
  Ag  Ag19  1  0.70859000  0.76406000  0.62202800  1
  Ag  Ag20  1  0.70859000  0.73594000  0.87797200  1
  Ag  Ag21  1  0.79141000  0.76406000  0.37797200  1
  Ag  Ag22  1  0.79141000  0.73594000  0.12202800  1
  Ag  Ag23  1  0.50000000  0.50000000  0.50000000  1
  Ag  Ag24  1  0.50000000  0.00000000  0.00000000  1
  Ag  Ag25  1  0.00000000  0.50000000  0.50000000  1
  Ag  Ag26  1  0.00000000  0.00000000  0.00000000  1
  Ag  Ag27  1  0.57741700  0.03949400  0.23918500  1
  O  O28  1  0.59043800  0.32663300  0.39702900  1
  O  O29  1  0.54571300  0.58310200  0.11909700  1
  O  O30  1  0.54571300  0.91689800  0.38090300  1
  O  O31  1  0.95428700  0.58310200  0.88090300  1
  O  O32  1  0.59043800  0.17336700  0.10297100  1
  O  O33  1  0.90956200  0.32663300  0.60297100  1
  O  O34  1  0.90956200  0.17336700  0.89702900  1
  O  O35  1  0.40956200  0.67336700  0.60297100  1
  O  O36  1  0.40956200  0.82663300  0.89702900  1
  O  O37  1  0.95428700  0.91689800  0.61909700  1
  O  O38  1  0.09043800  0.67336700  0.39702900  1
  O  O39  1  0.04571300  0.08310200  0.38090300  1
  O  O40  1  0.04571300  0.41689800  0.11909700  1
  O  O41  1  0.45428700  0.08310200  0.61909700  1
  O  O42  1  0.45428700  0.41689800  0.88090300  1
  O  O43  1  0.09043800  0.82663300  0.10297100  1
