# generated using pymatgen
data_Ga2PbO4
_symmetry_space_group_name_H-M   'P 1'
_cell_length_a   5.45292257
_cell_length_b   5.45292257
_cell_length_c   8.70627300
_cell_angle_alpha   90.00000000
_cell_angle_beta   90.00000000
_cell_angle_gamma   121.49375680
_symmetry_Int_Tables_number   1
_chemical_formula_structural   Ga2PbO4
_chemical_formula_sum   'Ga4 Pb2 O8'
_cell_volume   220.74238239
_cell_formula_units_Z   2
loop_
 _symmetry_equiv_pos_site_id
 _symmetry_equiv_pos_as_xyz
  1  'x, y, z'
loop_
 _atom_site_type_symbol
 _atom_site_label
 _atom_site_symmetry_multiplicity
 _atom_site_fract_x
 _atom_site_fract_y
 _atom_site_fract_z
 _atom_site_occupancy
  Ga  Ga0  1  0.36495100  0.70995300  0.55247800  1
  Ga  Ga1  1  0.70995300  0.36495100  0.44752200  1
  Ga  Ga2  1  0.36495100  0.70995300  0.94752200  1
  Ga  Ga3  1  0.70995300  0.36495100  0.05247800  1
  Pb  Pb4  1  0.97020100  0.02752900  0.75000000  1
  Pb  Pb5  1  0.02752900  0.97020100  0.25000000  1
  O  O6  1  0.48610000  0.86861500  0.75000000  1
  O  O7  1  0.86861500  0.48610000  0.25000000  1
  O  O8  1  0.67659200  0.67659200  0.50000000  1
  O  O9  1  0.67659200  0.67659200  0.00000000  1
  O  O10  1  0.00720600  0.37337600  0.55904000  1
  O  O11  1  0.37337600  0.00720600  0.44096000  1
  O  O12  1  0.37337600  0.00720600  0.05904000  1
  O  O13  1  0.00720600  0.37337600  0.94096000  1
