# generated using pymatgen
data_Sr2InPd2
_symmetry_space_group_name_H-M   'P 1'
_cell_length_a   6.11129563
_cell_length_b   6.11129563
_cell_length_c   8.41900281
_cell_angle_alpha   78.12449223
_cell_angle_beta   78.12449223
_cell_angle_gamma   59.85005877
_symmetry_Int_Tables_number   1
_chemical_formula_structural   Sr2InPd2
_chemical_formula_sum   'Sr4 In2 Pd4'
_cell_volume   264.11835678
_cell_formula_units_Z   2
loop_
 _symmetry_equiv_pos_site_id
 _symmetry_equiv_pos_as_xyz
  1  'x, y, z'
loop_
 _atom_site_type_symbol
 _atom_site_label
 _atom_site_symmetry_multiplicity
 _atom_site_fract_x
 _atom_site_fract_y
 _atom_site_fract_z
 _atom_site_occupancy
  Sr  Sr0  1  0.50898600  0.78817100  0.35212900  1
  Sr  Sr1  1  0.21182900  0.49101400  0.14787100  1
  Sr  Sr2  1  0.49101400  0.21182900  0.64787100  1
  Sr  Sr3  1  0.78817100  0.50898600  0.85212900  1
  In  In4  1  0.86492000  0.13508000  0.25000000  1
  In  In5  1  0.13508000  0.86492000  0.75000000  1
  Pd  Pd6  1  0.73013300  0.00239500  0.00302900  1
  Pd  Pd7  1  0.99760500  0.26986700  0.49697100  1
  Pd  Pd8  1  0.26986700  0.99760500  0.99697100  1
  Pd  Pd9  1  0.00239500  0.73013300  0.50302900  1
