# generated using pymatgen
data_P2O5
_symmetry_space_group_name_H-M   'P 1'
_cell_length_a   9.24453843
_cell_length_b   8.74566280
_cell_length_c   4.93704053
_cell_angle_alpha   79.72767271
_cell_angle_beta   68.57113826
_cell_angle_gamma   31.70118903
_symmetry_Int_Tables_number   1
_chemical_formula_structural   P2O5
_chemical_formula_sum   'P4 O10'
_cell_volume   187.95289293
_cell_formula_units_Z   2
loop_
 _symmetry_equiv_pos_site_id
 _symmetry_equiv_pos_as_xyz
  1  'x, y, z'
loop_
 _atom_site_type_symbol
 _atom_site_label
 _atom_site_symmetry_multiplicity
 _atom_site_fract_x
 _atom_site_fract_y
 _atom_site_fract_z
 _atom_site_occupancy
  P  P0  1  0.60148400  0.55065200  0.24482100  1
  P  P1  1  0.60304400  0.24482100  0.55065200  1
  P  P2  1  0.00517900  0.64695600  0.64851600  1
  P  P3  1  0.69934800  0.64851600  0.64695600  1
  O  O4  1  0.27314600  0.84360000  0.39369100  1
  O  O5  1  0.48956300  0.39369100  0.84360000  1
  O  O6  1  0.85630900  0.76043700  0.97685400  1
  O  O7  1  0.40640000  0.97685400  0.76043700  1
  O  O8  1  0.99074500  0.50925500  0.50925500  1
  O  O9  1  0.74074500  0.25925500  0.25925500  1
  O  O10  1  0.78773000  0.48129500  0.37068700  1
  O  O11  1  0.36028800  0.37068700  0.48129500  1
  O  O12  1  0.87931300  0.88971200  0.46227000  1
  O  O13  1  0.76870500  0.46227000  0.88971200  1
