# generated using pymatgen
data_YH12(ClO2)3
_symmetry_space_group_name_H-M   'P 1'
_cell_length_a   6.53958100
_cell_length_b   7.87638300
_cell_length_c   12.06721727
_cell_angle_alpha   52.94662685
_cell_angle_beta   90.00000000
_cell_angle_gamma   90.00000000
_symmetry_Int_Tables_number   1
_chemical_formula_structural   YH12(ClO2)3
_chemical_formula_sum   'Y2 H24 Cl6 O12'
_cell_volume   496.05215859
_cell_formula_units_Z   2
loop_
 _symmetry_equiv_pos_site_id
 _symmetry_equiv_pos_as_xyz
  1  'x, y, z'
loop_
 _atom_site_type_symbol
 _atom_site_label
 _atom_site_symmetry_multiplicity
 _atom_site_fract_x
 _atom_site_fract_y
 _atom_site_fract_z
 _atom_site_occupancy
  Y  Y0  1  0.84485400  0.00000000  0.75000000  1
  Y  Y1  1  0.15514600  0.00000000  0.25000000  1
  H  H2  1  0.90839000  0.76017300  0.63120700  1
  H  H3  1  0.90839000  0.23982700  0.86879300  1
  H  H4  1  0.09161000  0.23982700  0.36879300  1
  H  H5  1  0.09161000  0.76017300  0.13120700  1
  H  H6  1  0.08710200  0.67716600  0.73928200  1
  H  H7  1  0.08710200  0.32283400  0.76071800  1
  H  H8  1  0.91289800  0.32283400  0.26071800  1
  H  H9  1  0.91289800  0.67716600  0.23928200  1
  H  H10  1  0.52799900  0.79876200  0.68262500  1
  H  H11  1  0.52799900  0.20123800  0.81737500  1
  H  H12  1  0.47200100  0.20123800  0.31737500  1
  H  H13  1  0.47200100  0.79876200  0.18262500  1
  H  H14  1  0.44767600  0.03058900  0.61502900  1
  H  H15  1  0.44767600  0.96941100  0.88497100  1
  H  H16  1  0.55232400  0.96941100  0.38497100  1
  H  H17  1  0.55232400  0.03058900  0.11502900  1
  H  H18  1  0.75368500  0.53316600  0.95923500  1
  H  H19  1  0.75368500  0.46683400  0.54076500  1
  H  H20  1  0.24631500  0.46683400  0.04076500  1
  H  H21  1  0.24631500  0.53316600  0.45923500  1
  H  H22  1  0.33171300  0.63070700  0.53094100  1
  H  H23  1  0.33171300  0.36929300  0.96905900  1
  H  H24  1  0.66828700  0.36929300  0.46905900  1
  H  H25  1  0.66828700  0.63070700  0.03094100  1
  Cl  Cl26  1  0.36686600  0.50000000  0.75000000  1
  Cl  Cl27  1  0.63313400  0.50000000  0.25000000  1
  Cl  Cl28  1  0.16613100  0.20069300  0.55698800  1
  Cl  Cl29  1  0.16613100  0.79930700  0.94301200  1
  Cl  Cl30  1  0.83386900  0.79930700  0.44301200  1
  Cl  Cl31  1  0.83386900  0.20069300  0.05698800  1
  O  O32  1  0.95006300  0.74257800  0.71674100  1
  O  O33  1  0.95006300  0.25742200  0.78325900  1
  O  O34  1  0.04993700  0.25742200  0.28325900  1
  O  O35  1  0.04993700  0.74257800  0.21674100  1
  O  O36  1  0.57426300  0.94343600  0.64553300  1
  O  O37  1  0.57426300  0.05656400  0.85446700  1
  O  O38  1  0.42573700  0.05656400  0.35446700  1
  O  O39  1  0.42573700  0.94343600  0.14553300  1
  O  O40  1  0.70426000  0.66777700  0.93920100  1
  O  O41  1  0.70426000  0.33222300  0.56079900  1
  O  O42  1  0.29574000  0.33222300  0.06079900  1
  O  O43  1  0.29574000  0.66777700  0.43920100  1
