# generated using pymatgen
data_Tl2PSe3
_symmetry_space_group_name_H-M   'P 1'
_cell_length_a   9.21624900
_cell_length_b   12.60495600
_cell_length_c   12.84388139
_cell_angle_alpha   79.39890774
_cell_angle_beta   90.00000000
_cell_angle_gamma   90.00000000
_symmetry_Int_Tables_number   1
_chemical_formula_structural   Tl2PSe3
_chemical_formula_sum   'Tl16 P8 Se24'
_cell_volume   1466.61196783
_cell_formula_units_Z   8
loop_
 _symmetry_equiv_pos_site_id
 _symmetry_equiv_pos_as_xyz
  1  'x, y, z'
loop_
 _atom_site_type_symbol
 _atom_site_label
 _atom_site_symmetry_multiplicity
 _atom_site_fract_x
 _atom_site_fract_y
 _atom_site_fract_z
 _atom_site_occupancy
  Tl  Tl0  1  0.84780400  0.52287200  0.68951600  1
  Tl  Tl1  1  0.34780400  0.47712800  0.81048400  1
  Tl  Tl2  1  0.15219600  0.47712800  0.31048400  1
  Tl  Tl3  1  0.65219600  0.52287200  0.18951600  1
  Tl  Tl4  1  0.67990800  0.80296900  0.25228700  1
  Tl  Tl5  1  0.17990800  0.19703100  0.24771300  1
  Tl  Tl6  1  0.32009200  0.19703100  0.74771300  1
  Tl  Tl7  1  0.82009200  0.80296900  0.75228700  1
  Tl  Tl8  1  0.61002200  0.09971300  0.56866800  1
  Tl  Tl9  1  0.11002200  0.90028700  0.93133200  1
  Tl  Tl10  1  0.38997800  0.90028700  0.43133200  1
  Tl  Tl11  1  0.88997800  0.09971300  0.06866800  1
  Tl  Tl12  1  0.53908400  0.29326900  0.04929700  1
  Tl  Tl13  1  0.03908400  0.70673100  0.45070300  1
  Tl  Tl14  1  0.46091600  0.70673100  0.95070300  1
  Tl  Tl15  1  0.96091600  0.29326900  0.54929700  1
  P  P16  1  0.42645800  0.00385100  0.07149400  1
  P  P17  1  0.92645800  0.99614900  0.42850600  1
  P  P18  1  0.57354200  0.99614900  0.92850600  1
  P  P19  1  0.07354200  0.00385100  0.57149400  1
  P  P20  1  0.57890500  0.43425200  0.48383500  1
  P  P21  1  0.07890500  0.56574800  0.01616500  1
  P  P22  1  0.42109500  0.56574800  0.51616500  1
  P  P23  1  0.92109500  0.43425200  0.98383500  1
  Se  Se24  1  0.56587700  0.05232400  0.19580000  1
  Se  Se25  1  0.06587700  0.94767600  0.30420000  1
  Se  Se26  1  0.43412300  0.94767600  0.80420000  1
  Se  Se27  1  0.93412300  0.05232400  0.69580000  1
  Se  Se28  1  0.47655400  0.34284400  0.37357400  1
  Se  Se29  1  0.97655400  0.65715600  0.12642600  1
  Se  Se30  1  0.52344600  0.65715600  0.62642600  1
  Se  Se31  1  0.02344600  0.34284400  0.87357400  1
  Se  Se32  1  0.83458800  0.15934800  0.37761100  1
  Se  Se33  1  0.33458800  0.84065200  0.12238900  1
  Se  Se34  1  0.16541200  0.84065200  0.62238900  1
  Se  Se35  1  0.66541200  0.15934800  0.87761100  1
  Se  Se36  1  0.12264100  0.66464000  0.85655600  1
  Se  Se37  1  0.62264100  0.33536000  0.64344400  1
  Se  Se38  1  0.87735900  0.33536000  0.14344400  1
  Se  Se39  1  0.37735900  0.66464000  0.35655600  1
  Se  Se40  1  0.76261500  0.87116700  0.48897400  1
  Se  Se41  1  0.26261500  0.12883300  0.01102600  1
  Se  Se42  1  0.23738500  0.12883300  0.51102600  1
  Se  Se43  1  0.73738500  0.87116700  0.98897400  1
  Se  Se44  1  0.72242000  0.52021600  0.91666400  1
  Se  Se45  1  0.22242000  0.47978400  0.58333600  1
  Se  Se46  1  0.27758000  0.47978400  0.08333600  1
  Se  Se47  1  0.77758000  0.52021600  0.41666400  1
