# generated using pymatgen
data_Te2AuCl
_symmetry_space_group_name_H-M   'P 1'
_cell_length_a   6.52200743
_cell_length_b   6.52200743
_cell_length_c   8.80597000
_cell_angle_alpha   90.00000000
_cell_angle_beta   90.00000000
_cell_angle_gamma   143.06445683
_symmetry_Int_Tables_number   1
_chemical_formula_structural   Te2AuCl
_chemical_formula_sum   'Te4 Au2 Cl2'
_cell_volume   225.08869582
_cell_formula_units_Z   2
loop_
 _symmetry_equiv_pos_site_id
 _symmetry_equiv_pos_as_xyz
  1  'x, y, z'
loop_
 _atom_site_type_symbol
 _atom_site_label
 _atom_site_symmetry_multiplicity
 _atom_site_fract_x
 _atom_site_fract_y
 _atom_site_fract_z
 _atom_site_occupancy
  Te  Te0  1  0.39233700  0.60766300  0.55039400  1
  Te  Te1  1  0.60766300  0.39233700  0.05039400  1
  Te  Te2  1  0.39233700  0.60766300  0.94960600  1
  Te  Te3  1  0.60766300  0.39233700  0.44960600  1
  Au  Au4  1  0.91417000  0.08583000  0.75000000  1
  Au  Au5  1  0.08583000  0.91417000  0.25000000  1
  Cl  Cl6  1  0.16845000  0.83155000  0.75000000  1
  Cl  Cl7  1  0.83155000  0.16845000  0.25000000  1
