# generated using pymatgen
data_Cs4Sn23
_symmetry_space_group_name_H-M   'P 1'
_cell_length_a   12.73221300
_cell_length_b   12.73221300
_cell_length_c   12.73221300
_cell_angle_alpha   90.00000000
_cell_angle_beta   90.00000000
_cell_angle_gamma   90.00000000
_symmetry_Int_Tables_number   1
_chemical_formula_structural   Cs4Sn23
_chemical_formula_sum   'Cs8 Sn46'
_cell_volume   2064.00947324
_cell_formula_units_Z   2
loop_
 _symmetry_equiv_pos_site_id
 _symmetry_equiv_pos_as_xyz
  1  'x, y, z'
loop_
 _atom_site_type_symbol
 _atom_site_label
 _atom_site_symmetry_multiplicity
 _atom_site_fract_x
 _atom_site_fract_y
 _atom_site_fract_z
 _atom_site_occupancy
  Cs  Cs0  1  0.00000000  0.25000000  0.50000000  1
  Cs  Cs1  1  0.00000000  0.75000000  0.50000000  1
  Cs  Cs2  1  0.50000000  0.00000000  0.75000000  1
  Cs  Cs3  1  0.50000000  0.00000000  0.25000000  1
  Cs  Cs4  1  0.75000000  0.50000000  0.00000000  1
  Cs  Cs5  1  0.25000000  0.50000000  0.00000000  1
  Cs  Cs6  1  0.50000000  0.50000000  0.50000000  1
  Cs  Cs7  1  0.00000000  0.00000000  0.00000000  1
  Sn  Sn8  1  0.50000000  0.38172500  0.19283100  1
  Sn  Sn9  1  0.50000000  0.61827500  0.80716900  1
  Sn  Sn10  1  0.38172500  0.19283100  0.50000000  1
  Sn  Sn11  1  0.61827500  0.19283100  0.50000000  1
  Sn  Sn12  1  0.19283100  0.50000000  0.38172500  1
  Sn  Sn13  1  0.80716900  0.50000000  0.38172500  1
  Sn  Sn14  1  0.00000000  0.69283100  0.11827500  1
  Sn  Sn15  1  0.00000000  0.30716900  0.88172500  1
  Sn  Sn16  1  0.25000000  0.00000000  0.50000000  1
  Sn  Sn17  1  0.75000000  0.00000000  0.50000000  1
  Sn  Sn18  1  0.00000000  0.50000000  0.25000000  1
  Sn  Sn19  1  0.00000000  0.50000000  0.75000000  1
  Sn  Sn20  1  0.50000000  0.75000000  0.00000000  1
  Sn  Sn21  1  0.50000000  0.25000000  0.00000000  1
  Sn  Sn22  1  0.18418800  0.18418800  0.18418800  1
  Sn  Sn23  1  0.68418800  0.31581200  0.68418800  1
  Sn  Sn24  1  0.68418800  0.68418800  0.31581200  1
  Sn  Sn25  1  0.31581200  0.68418800  0.68418800  1
  Sn  Sn26  1  0.81581200  0.81581200  0.18418800  1
  Sn  Sn27  1  0.18418800  0.81581200  0.81581200  1
  Sn  Sn28  1  0.81581200  0.18418800  0.81581200  1
  Sn  Sn29  1  0.31581200  0.31581200  0.31581200  1
  Sn  Sn30  1  0.81581200  0.81581200  0.81581200  1
  Sn  Sn31  1  0.31581200  0.68418800  0.31581200  1
  Sn  Sn32  1  0.31581200  0.31581200  0.68418800  1
  Sn  Sn33  1  0.68418800  0.31581200  0.31581200  1
  Sn  Sn34  1  0.18418800  0.18418800  0.81581200  1
  Sn  Sn35  1  0.81581200  0.18418800  0.18418800  1
  Sn  Sn36  1  0.18418800  0.81581200  0.18418800  1
  Sn  Sn37  1  0.68418800  0.68418800  0.68418800  1
  Sn  Sn38  1  0.00000000  0.30716900  0.11827500  1
  Sn  Sn39  1  0.50000000  0.38172500  0.80716900  1
  Sn  Sn40  1  0.50000000  0.61827500  0.19283100  1
  Sn  Sn41  1  0.61827500  0.80716900  0.50000000  1
  Sn  Sn42  1  0.38172500  0.80716900  0.50000000  1
  Sn  Sn43  1  0.19283100  0.50000000  0.61827500  1
  Sn  Sn44  1  0.80716900  0.50000000  0.61827500  1
  Sn  Sn45  1  0.11827500  0.00000000  0.30716900  1
  Sn  Sn46  1  0.30716900  0.11827500  0.00000000  1
  Sn  Sn47  1  0.69283100  0.88172500  0.00000000  1
  Sn  Sn48  1  0.11827500  0.00000000  0.69283100  1
  Sn  Sn49  1  0.69283100  0.11827500  0.00000000  1
  Sn  Sn50  1  0.88172500  0.00000000  0.30716900  1
  Sn  Sn51  1  0.88172500  0.00000000  0.69283100  1
  Sn  Sn52  1  0.30716900  0.88172500  0.00000000  1
  Sn  Sn53  1  0.00000000  0.69283100  0.88172500  1
