# generated using pymatgen
data_AlCl3
_symmetry_space_group_name_H-M   'P 1'
_cell_length_a   6.02417025
_cell_length_b   6.02417025
_cell_length_c   6.65323612
_cell_angle_alpha   81.53498951
_cell_angle_beta   81.53498951
_cell_angle_gamma   119.97023837
_symmetry_Int_Tables_number   1
_chemical_formula_structural   AlCl3
_chemical_formula_sum   'Al2 Cl6'
_cell_volume   199.90274508
_cell_formula_units_Z   2
loop_
 _symmetry_equiv_pos_site_id
 _symmetry_equiv_pos_as_xyz
  1  'x, y, z'
loop_
 _atom_site_type_symbol
 _atom_site_label
 _atom_site_symmetry_multiplicity
 _atom_site_fract_x
 _atom_site_fract_y
 _atom_site_fract_z
 _atom_site_occupancy
  Al  Al0  1  0.83338300  0.16661700  0.00000000  1
  Al  Al1  1  0.16661700  0.83338300  0.00000000  1
  Cl  Cl2  1  0.20452700  0.20452700  0.78873300  1
  Cl  Cl3  1  0.79547300  0.79547300  0.21126700  1
  Cl  Cl4  1  0.06849700  0.43168000  0.21036800  1
  Cl  Cl5  1  0.56832000  0.93150300  0.78963200  1
  Cl  Cl6  1  0.93150300  0.56832000  0.78963200  1
  Cl  Cl7  1  0.43168000  0.06849700  0.21036800  1
