# generated using pymatgen
data_Th(FeGe)2
_symmetry_space_group_name_H-M   'P 1'
_cell_length_a   5.72846104
_cell_length_b   5.72846104
_cell_length_c   5.72846104
_cell_angle_alpha   137.74022995
_cell_angle_beta   137.74022995
_cell_angle_gamma   61.30108219
_symmetry_Int_Tables_number   1
_chemical_formula_structural   Th(FeGe)2
_chemical_formula_sum   'Th1 Fe2 Ge2'
_cell_volume   84.06023411
_cell_formula_units_Z   1
loop_
 _symmetry_equiv_pos_site_id
 _symmetry_equiv_pos_as_xyz
  1  'x, y, z'
loop_
 _atom_site_type_symbol
 _atom_site_label
 _atom_site_symmetry_multiplicity
 _atom_site_fract_x
 _atom_site_fract_y
 _atom_site_fract_z
 _atom_site_occupancy
  Th  Th0  1  0.00000000  0.00000000  0.00000000  1
  Fe  Fe1  1  0.75000000  0.25000000  0.50000000  1
  Fe  Fe2  1  0.25000000  0.75000000  0.50000000  1
  Ge  Ge3  1  0.63614500  0.63614500  0.00000000  1
  Ge  Ge4  1  0.36385500  0.36385500  0.00000000  1
