# generated using pymatgen
data_SrHI
_symmetry_space_group_name_H-M   'P 1'
_cell_length_a   4.28133700
_cell_length_b   4.28133700
_cell_length_c   9.39378900
_cell_angle_alpha   90.00000000
_cell_angle_beta   90.00000000
_cell_angle_gamma   90.00000000
_symmetry_Int_Tables_number   1
_chemical_formula_structural   SrHI
_chemical_formula_sum   'Sr2 H2 I2'
_cell_volume   172.18671049
_cell_formula_units_Z   2
loop_
 _symmetry_equiv_pos_site_id
 _symmetry_equiv_pos_as_xyz
  1  'x, y, z'
loop_
 _atom_site_type_symbol
 _atom_site_label
 _atom_site_symmetry_multiplicity
 _atom_site_fract_x
 _atom_site_fract_y
 _atom_site_fract_z
 _atom_site_occupancy
  Sr  Sr0  1  0.00000000  0.50000000  0.14225400  1
  Sr  Sr1  1  0.50000000  0.00000000  0.85774600  1
  H  H2  1  0.50000000  0.50000000  0.00000000  1
  H  H3  1  0.00000000  0.00000000  0.00000000  1
  I  I4  1  0.00000000  0.50000000  0.68893500  1
  I  I5  1  0.50000000  0.00000000  0.31106500  1
