# generated using pymatgen
data_LiTi2(PO4)3
_symmetry_space_group_name_H-M   'P 1'
_cell_length_a   8.70179300
_cell_length_b   8.60881000
_cell_length_c   14.73069005
_cell_angle_alpha   54.90698888
_cell_angle_beta   90.00000000
_cell_angle_gamma   90.00000000
_symmetry_Int_Tables_number   1
_chemical_formula_structural   LiTi2(PO4)3
_chemical_formula_sum   'Li4 Ti8 P12 O48'
_cell_volume   902.91106154
_cell_formula_units_Z   4
loop_
 _symmetry_equiv_pos_site_id
 _symmetry_equiv_pos_as_xyz
  1  'x, y, z'
loop_
 _atom_site_type_symbol
 _atom_site_label
 _atom_site_symmetry_multiplicity
 _atom_site_fract_x
 _atom_site_fract_y
 _atom_site_fract_z
 _atom_site_occupancy
  Li  Li0  1  0.21974600  0.02608700  0.17921900  1
  Li  Li1  1  0.71974600  0.97391300  0.32078100  1
  Li  Li2  1  0.28025400  0.02608700  0.67921900  1
  Li  Li3  1  0.78025400  0.97391300  0.82078100  1
  Ti  Ti4  1  0.47156500  0.62969600  0.62015500  1
  Ti  Ti5  1  0.97156500  0.37030400  0.87984500  1
  Ti  Ti6  1  0.04010600  0.85586200  0.39003600  1
  Ti  Ti7  1  0.54010600  0.14413800  0.10996400  1
  Ti  Ti8  1  0.45989400  0.85586200  0.89003600  1
  Ti  Ti9  1  0.95989400  0.14413800  0.60996400  1
  Ti  Ti10  1  0.02843500  0.62969600  0.12015500  1
  Ti  Ti11  1  0.52843500  0.37030400  0.37984500  1
  P  P12  1  0.74923600  0.53889000  0.49300800  1
  P  P13  1  0.61811900  0.25060900  0.85251700  1
  P  P14  1  0.89351000  0.96472600  0.14382700  1
  P  P15  1  0.11811900  0.74939100  0.64748300  1
  P  P16  1  0.39351000  0.03527400  0.35617300  1
  P  P17  1  0.24923600  0.46111000  0.00699200  1
  P  P18  1  0.75076400  0.53889000  0.99300800  1
  P  P19  1  0.60649000  0.96472600  0.64382700  1
  P  P20  1  0.88188100  0.25060900  0.35251700  1
  P  P21  1  0.10649000  0.03527400  0.85617300  1
  P  P22  1  0.38188100  0.74939100  0.14748300  1
  P  P23  1  0.25076400  0.46111000  0.50699200  1
  O  O24  1  0.13608200  0.62509100  0.43364200  1
  O  O25  1  0.10804200  0.20861200  0.86112100  1
  O  O26  1  0.32747400  0.48474200  0.59185200  1
  O  O27  1  0.40954900  0.91522500  0.15888700  1
  O  O28  1  0.63403400  0.54300800  0.57033400  1
  O  O29  1  0.79075400  0.29751100  0.83166000  1
  O  O30  1  0.57621500  0.18371200  0.97261800  1
  O  O31  1  0.01075900  0.93120200  0.23331800  1
  O  O32  1  0.83566900  0.73235600  0.42776800  1
  O  O33  1  0.73133100  0.99215100  0.17793400  1
  O  O34  1  0.94215000  0.14629400  0.03338500  1
  O  O35  1  0.51402600  0.41899200  0.77191200  1
  O  O36  1  0.01402600  0.58100800  0.72808800  1
  O  O37  1  0.44215000  0.85370600  0.46661500  1
  O  O38  1  0.23133100  0.00784900  0.32206600  1
  O  O39  1  0.33566900  0.26764400  0.07223200  1
  O  O40  1  0.51075900  0.06879800  0.26668200  1
  O  O41  1  0.07621500  0.81628800  0.52738200  1
  O  O42  1  0.29075400  0.70248900  0.66834000  1
  O  O43  1  0.13403400  0.45699200  0.92966600  1
  O  O44  1  0.82747400  0.51525800  0.90814800  1
  O  O45  1  0.60804200  0.79138800  0.63887900  1
  O  O46  1  0.90954900  0.08477500  0.34111300  1
  O  O47  1  0.63608200  0.37490900  0.06635800  1
  O  O48  1  0.36391800  0.62509100  0.93364200  1
  O  O49  1  0.09045100  0.91522500  0.65888700  1
  O  O50  1  0.39195800  0.20861200  0.36112100  1
  O  O51  1  0.17252600  0.48474200  0.09185200  1
  O  O52  1  0.86596600  0.54300800  0.07033400  1
  O  O53  1  0.70924600  0.29751100  0.33166000  1
  O  O54  1  0.92378500  0.18371200  0.47261800  1
  O  O55  1  0.48924100  0.93120200  0.73331800  1
  O  O56  1  0.66433100  0.73235600  0.92776800  1
  O  O57  1  0.76866900  0.99215100  0.67793400  1
  O  O58  1  0.55785000  0.14629400  0.53338500  1
  O  O59  1  0.98597400  0.41899200  0.27191200  1
  O  O60  1  0.48597400  0.58100800  0.22808800  1
  O  O61  1  0.05785000  0.85370600  0.96661500  1
  O  O62  1  0.26866900  0.00784900  0.82206600  1
  O  O63  1  0.16433100  0.26764400  0.57223200  1
  O  O64  1  0.98924100  0.06879800  0.76668200  1
  O  O65  1  0.42378500  0.81628800  0.02738200  1
  O  O66  1  0.20924600  0.70248900  0.16834000  1
  O  O67  1  0.36596600  0.45699200  0.42966600  1
  O  O68  1  0.59045100  0.08477500  0.84111300  1
  O  O69  1  0.67252600  0.51525800  0.40814800  1
  O  O70  1  0.89195800  0.79138800  0.13887900  1
  O  O71  1  0.86391800  0.37490900  0.56635800  1
