# generated using pymatgen
data_LaTiGe3
_symmetry_space_group_name_H-M   'P 1'
_cell_length_a   6.34409711
_cell_length_b   6.34409711
_cell_length_c   5.92497000
_cell_angle_alpha   90.00000000
_cell_angle_beta   90.00000000
_cell_angle_gamma   119.99999068
_symmetry_Int_Tables_number   1
_chemical_formula_structural   LaTiGe3
_chemical_formula_sum   'La2 Ti2 Ge6'
_cell_volume   206.51731596
_cell_formula_units_Z   2
loop_
 _symmetry_equiv_pos_site_id
 _symmetry_equiv_pos_as_xyz
  1  'x, y, z'
loop_
 _atom_site_type_symbol
 _atom_site_label
 _atom_site_symmetry_multiplicity
 _atom_site_fract_x
 _atom_site_fract_y
 _atom_site_fract_z
 _atom_site_occupancy
  La  La0  1  0.66666700  0.33333300  0.25000000  1
  La  La1  1  0.33333300  0.66666700  0.75000000  1
  Ti  Ti2  1  0.00000000  0.00000000  0.50000000  1
  Ti  Ti3  1  0.00000000  0.00000000  0.00000000  1
  Ge  Ge4  1  0.19693100  0.80306900  0.25000000  1
  Ge  Ge5  1  0.80306900  0.60613800  0.75000000  1
  Ge  Ge6  1  0.19693100  0.39386200  0.25000000  1
  Ge  Ge7  1  0.80306900  0.19693100  0.75000000  1
  Ge  Ge8  1  0.39386200  0.19693100  0.75000000  1
  Ge  Ge9  1  0.60613800  0.80306900  0.25000000  1
