# generated using pymatgen
data_NiPbF6
_symmetry_space_group_name_H-M   'P 1'
_cell_length_a   5.65911585
_cell_length_b   5.65911585
_cell_length_c   5.65911513
_cell_angle_alpha   55.30387115
_cell_angle_beta   55.30387115
_cell_angle_gamma   55.30387556
_symmetry_Int_Tables_number   1
_chemical_formula_structural   NiPbF6
_chemical_formula_sum   'Ni1 Pb1 F6'
_cell_volume   114.16857576
_cell_formula_units_Z   1
loop_
 _symmetry_equiv_pos_site_id
 _symmetry_equiv_pos_as_xyz
  1  'x, y, z'
loop_
 _atom_site_type_symbol
 _atom_site_label
 _atom_site_symmetry_multiplicity
 _atom_site_fract_x
 _atom_site_fract_y
 _atom_site_fract_z
 _atom_site_occupancy
  Ni  Ni0  1  0.00000000  0.00000000  0.00000000  1
  Pb  Pb1  1  0.50000000  0.50000000  0.50000000  1
  F  F2  1  0.61590800  0.89685600  0.24180900  1
  F  F3  1  0.89685600  0.24180900  0.61590800  1
  F  F4  1  0.75819100  0.38409200  0.10314400  1
  F  F5  1  0.10314400  0.75819100  0.38409200  1
  F  F6  1  0.38409200  0.10314400  0.75819100  1
  F  F7  1  0.24180900  0.61590800  0.89685600  1
