# generated using pymatgen
data_U4Si6Tc7
_symmetry_space_group_name_H-M   'P 1'
_cell_length_a   7.11861970
_cell_length_b   7.11861970
_cell_length_c   7.11861970
_cell_angle_alpha   109.47122063
_cell_angle_beta   109.47122063
_cell_angle_gamma   109.47122063
_symmetry_Int_Tables_number   1
_chemical_formula_structural   U4Si6Tc7
_chemical_formula_sum   'U4 Si6 Tc7'
_cell_volume   277.69335377
_cell_formula_units_Z   1
loop_
 _symmetry_equiv_pos_site_id
 _symmetry_equiv_pos_as_xyz
  1  'x, y, z'
loop_
 _atom_site_type_symbol
 _atom_site_label
 _atom_site_symmetry_multiplicity
 _atom_site_fract_x
 _atom_site_fract_y
 _atom_site_fract_z
 _atom_site_occupancy
  U  U0  1  0.50000000  0.50000000  0.50000000  1
  U  U1  1  0.00000000  0.50000000  0.00000000  1
  U  U2  1  0.50000000  0.00000000  0.00000000  1
  U  U3  1  0.00000000  0.00000000  0.50000000  1
  Si  Si4  1  0.69011800  0.00000000  0.69011800  1
  Si  Si5  1  0.69011800  0.69011800  0.00000000  1
  Si  Si6  1  0.30988200  0.30988200  0.00000000  1
  Si  Si7  1  0.00000000  0.69011800  0.69011800  1
  Si  Si8  1  0.00000000  0.30988200  0.30988200  1
  Si  Si9  1  0.30988200  0.00000000  0.30988200  1
  Tc  Tc10  1  0.50000000  0.75000000  0.25000000  1
  Tc  Tc11  1  0.75000000  0.25000000  0.50000000  1
  Tc  Tc12  1  0.25000000  0.75000000  0.50000000  1
  Tc  Tc13  1  0.25000000  0.50000000  0.75000000  1
  Tc  Tc14  1  0.00000000  0.00000000  0.00000000  1
  Tc  Tc15  1  0.50000000  0.25000000  0.75000000  1
  Tc  Tc16  1  0.75000000  0.50000000  0.25000000  1
