# generated using pymatgen
data_GdIn2Rh
_symmetry_space_group_name_H-M   'P 1'
_cell_length_a   5.53306009
_cell_length_b   5.53306009
_cell_length_c   8.03055600
_cell_angle_alpha   90.00000000
_cell_angle_beta   90.00000000
_cell_angle_gamma   133.26394849
_symmetry_Int_Tables_number   1
_chemical_formula_structural   GdIn2Rh
_chemical_formula_sum   'Gd2 In4 Rh2'
_cell_volume   179.03153453
_cell_formula_units_Z   2
loop_
 _symmetry_equiv_pos_site_id
 _symmetry_equiv_pos_as_xyz
  1  'x, y, z'
loop_
 _atom_site_type_symbol
 _atom_site_label
 _atom_site_symmetry_multiplicity
 _atom_site_fract_x
 _atom_site_fract_y
 _atom_site_fract_z
 _atom_site_occupancy
  Gd  Gd0  1  0.06730200  0.93269800  0.25000000  1
  Gd  Gd1  1  0.93269800  0.06730200  0.75000000  1
  In  In2  1  0.64476900  0.35523100  0.55064700  1
  In  In3  1  0.35523100  0.64476900  0.44935300  1
  In  In4  1  0.64476900  0.35523100  0.94935300  1
  In  In5  1  0.35523100  0.64476900  0.05064700  1
  Rh  Rh6  1  0.21637000  0.78363000  0.75000000  1
  Rh  Rh7  1  0.78363000  0.21637000  0.25000000  1
