# generated using pymatgen
data_Sb(IF3)2
_symmetry_space_group_name_H-M   'P 1'
_cell_length_a   6.20499900
_cell_length_b   8.26401577
_cell_length_c   8.34727244
_cell_angle_alpha   77.93623026
_cell_angle_beta   81.16379306
_cell_angle_gamma   82.54993766
_symmetry_Int_Tables_number   1
_chemical_formula_structural   Sb(IF3)2
_chemical_formula_sum   'Sb2 I4 F12'
_cell_volume   411.49909939
_cell_formula_units_Z   2
loop_
 _symmetry_equiv_pos_site_id
 _symmetry_equiv_pos_as_xyz
  1  'x, y, z'
loop_
 _atom_site_type_symbol
 _atom_site_label
 _atom_site_symmetry_multiplicity
 _atom_site_fract_x
 _atom_site_fract_y
 _atom_site_fract_z
 _atom_site_occupancy
  Sb  Sb0  1  0.56284100  0.69940000  0.68598300  1
  Sb  Sb1  1  0.43715900  0.30060000  0.31401700  1
  I  I2  1  0.10624600  0.91549700  0.23249600  1
  I  I3  1  0.89375400  0.08450300  0.76750400  1
  I  I4  1  0.89943100  0.75899900  0.06877600  1
  I  I5  1  0.10056900  0.24100100  0.93122400  1
  F  F6  1  0.73207000  0.53233100  0.58096800  1
  F  F7  1  0.26793000  0.46766900  0.41903200  1
  F  F8  1  0.43066400  0.79843300  0.49162500  1
  F  F9  1  0.56933600  0.20156700  0.50837500  1
  F  F10  1  0.41146700  0.86680500  0.80312900  1
  F  F11  1  0.58853300  0.13319500  0.19687100  1
  F  F12  1  0.20184800  0.15723100  0.38758900  1
  F  F13  1  0.79815200  0.84276900  0.61241100  1
  F  F14  1  0.66933400  0.43886300  0.22978100  1
  F  F15  1  0.33066600  0.56113700  0.77021900  1
  F  F16  1  0.29127500  0.39090900  0.11839500  1
  F  F17  1  0.70872500  0.60909100  0.88160500  1
