# generated using pymatgen
data_Rb4PbBr6
_symmetry_space_group_name_H-M   'P 1'
_cell_length_a   9.65659497
_cell_length_b   9.65659497
_cell_length_c   9.65659521
_cell_angle_alpha   89.72761977
_cell_angle_beta   89.72761977
_cell_angle_gamma   89.72761956
_symmetry_Int_Tables_number   1
_chemical_formula_structural   Rb4PbBr6
_chemical_formula_sum   'Rb8 Pb2 Br12'
_cell_volume   900.44539806
_cell_formula_units_Z   2
loop_
 _symmetry_equiv_pos_site_id
 _symmetry_equiv_pos_as_xyz
  1  'x, y, z'
loop_
 _atom_site_type_symbol
 _atom_site_label
 _atom_site_symmetry_multiplicity
 _atom_site_fract_x
 _atom_site_fract_y
 _atom_site_fract_z
 _atom_site_occupancy
  Rb  Rb0  1  0.25000000  0.25000000  0.25000000  1
  Rb  Rb1  1  0.75000000  0.75000000  0.75000000  1
  Rb  Rb2  1  0.75000000  0.12927900  0.37072100  1
  Rb  Rb3  1  0.37072100  0.75000000  0.12927900  1
  Rb  Rb4  1  0.12927900  0.37072100  0.75000000  1
  Rb  Rb5  1  0.25000000  0.87072100  0.62927900  1
  Rb  Rb6  1  0.62927900  0.25000000  0.87072100  1
  Rb  Rb7  1  0.87072100  0.62927900  0.25000000  1
  Pb  Pb8  1  0.00000000  0.00000000  0.00000000  1
  Pb  Pb9  1  0.50000000  0.50000000  0.50000000  1
  Br  Br10  1  0.44163200  0.57313000  0.80189100  1
  Br  Br11  1  0.80189100  0.44163200  0.57313000  1
  Br  Br12  1  0.57313000  0.80189100  0.44163200  1
  Br  Br13  1  0.05836800  0.69810900  0.92687000  1
  Br  Br14  1  0.92687000  0.05836800  0.69810900  1
  Br  Br15  1  0.69810900  0.92687000  0.05836800  1
  Br  Br16  1  0.55836800  0.42687000  0.19810900  1
  Br  Br17  1  0.19810900  0.55836800  0.42687000  1
  Br  Br18  1  0.42687000  0.19810900  0.55836800  1
  Br  Br19  1  0.94163200  0.30189100  0.07313000  1
  Br  Br20  1  0.30189100  0.07313000  0.94163200  1
  Br  Br21  1  0.07313000  0.94163200  0.30189100  1
