# generated using pymatgen
data_SrN
_symmetry_space_group_name_H-M   'P 1'
_cell_length_a   7.10432526
_cell_length_b   7.10432526
_cell_length_c   6.76051263
_cell_angle_alpha   85.33752173
_cell_angle_beta   85.33752173
_cell_angle_gamma   31.00260545
_symmetry_Int_Tables_number   1
_chemical_formula_structural   SrN
_chemical_formula_sum   'Sr4 N4'
_cell_volume   175.12447187
_cell_formula_units_Z   4
loop_
 _symmetry_equiv_pos_site_id
 _symmetry_equiv_pos_as_xyz
  1  'x, y, z'
loop_
 _atom_site_type_symbol
 _atom_site_label
 _atom_site_symmetry_multiplicity
 _atom_site_fract_x
 _atom_site_fract_y
 _atom_site_fract_z
 _atom_site_occupancy
  Sr  Sr0  1  0.64639700  0.64639700  0.09356500  1
  Sr  Sr1  1  0.35360300  0.35360300  0.90643500  1
  Sr  Sr2  1  0.84706000  0.84706000  0.38936800  1
  Sr  Sr3  1  0.15294000  0.15294000  0.61063200  1
  N  N4  1  0.97744100  0.97744100  0.08242200  1
  N  N5  1  0.02255900  0.02255900  0.91757800  1
  N  N6  1  0.75351200  0.75351200  0.74912000  1
  N  N7  1  0.24648800  0.24648800  0.25088000  1
