# generated using pymatgen
data_ThZr2F12
_symmetry_space_group_name_H-M   'P 1'
_cell_length_a   8.30160037
_cell_length_b   8.30160037
_cell_length_c   7.97751916
_cell_angle_alpha   61.79424637
_cell_angle_beta   61.79424637
_cell_angle_gamma   79.66289943
_symmetry_Int_Tables_number   1
_chemical_formula_structural   ThZr2F12
_chemical_formula_sum   'Th2 Zr4 F24'
_cell_volume   426.28411778
_cell_formula_units_Z   2
loop_
 _symmetry_equiv_pos_site_id
 _symmetry_equiv_pos_as_xyz
  1  'x, y, z'
loop_
 _atom_site_type_symbol
 _atom_site_label
 _atom_site_symmetry_multiplicity
 _atom_site_fract_x
 _atom_site_fract_y
 _atom_site_fract_z
 _atom_site_occupancy
  Th  Th0  1  0.77874800  0.22125200  0.00000000  1
  Th  Th1  1  0.22125200  0.77874800  0.00000000  1
  Zr  Zr2  1  0.35099800  0.35099800  0.77430200  1
  Zr  Zr3  1  0.64900200  0.64900200  0.22569800  1
  Zr  Zr4  1  0.18911800  0.18911800  0.43024200  1
  Zr  Zr5  1  0.81088200  0.81088200  0.56975800  1
  F  F6  1  0.43927100  0.69589100  0.13331600  1
  F  F7  1  0.30410900  0.56072900  0.86668400  1
  F  F8  1  0.56072900  0.30410900  0.86668400  1
  F  F9  1  0.69589100  0.43927100  0.13331600  1
  F  F10  1  0.22218100  0.22218100  0.14077300  1
  F  F11  1  0.77781900  0.77781900  0.85922700  1
  F  F12  1  0.00000000  0.00000000  0.00000000  1
  F  F13  1  0.00000000  0.00000000  0.50000000  1
  F  F14  1  0.38807300  0.61192700  0.50000000  1
  F  F15  1  0.61192700  0.38807300  0.50000000  1
  F  F16  1  0.83025700  0.53362000  0.72109400  1
  F  F17  1  0.46638000  0.16974300  0.27890600  1
  F  F18  1  0.16974300  0.46638000  0.27890600  1
  F  F19  1  0.53362000  0.83025700  0.72109400  1
  F  F20  1  0.71167600  0.71167600  0.42814900  1
  F  F21  1  0.28832400  0.28832400  0.57185100  1
  F  F22  1  0.93384600  0.64624300  0.11058600  1
  F  F23  1  0.35375700  0.06615400  0.88941400  1
  F  F24  1  0.06615400  0.35375700  0.88941400  1
  F  F25  1  0.64624300  0.93384600  0.11058600  1
  F  F26  1  0.78010800  0.05947400  0.33486800  1
  F  F27  1  0.94052600  0.21989200  0.66513200  1
  F  F28  1  0.21989200  0.94052600  0.66513200  1
  F  F29  1  0.05947400  0.78010800  0.33486800  1
