# generated using pymatgen
data_PrCoO3
_symmetry_space_group_name_H-M   'P 1'
_cell_length_a   5.48505600
_cell_length_b   5.52260500
_cell_length_c   7.72137200
_cell_angle_alpha   90.00000000
_cell_angle_beta   90.00000000
_cell_angle_gamma   90.00000000
_symmetry_Int_Tables_number   1
_chemical_formula_structural   PrCoO3
_chemical_formula_sum   'Pr4 Co4 O12'
_cell_volume   233.89423852
_cell_formula_units_Z   4
loop_
 _symmetry_equiv_pos_site_id
 _symmetry_equiv_pos_as_xyz
  1  'x, y, z'
loop_
 _atom_site_type_symbol
 _atom_site_label
 _atom_site_symmetry_multiplicity
 _atom_site_fract_x
 _atom_site_fract_y
 _atom_site_fract_z
 _atom_site_occupancy
  Pr  Pr0  1  0.01023700  0.95750200  0.75000000  1
  Pr  Pr1  1  0.48976300  0.45750200  0.75000000  1
  Pr  Pr2  1  0.51023700  0.54249800  0.25000000  1
  Pr  Pr3  1  0.98976300  0.04249800  0.25000000  1
  Co  Co4  1  0.50000000  0.00000000  0.50000000  1
  Co  Co5  1  0.00000000  0.50000000  0.00000000  1
  Co  Co6  1  0.00000000  0.50000000  0.50000000  1
  Co  Co7  1  0.50000000  0.00000000  0.00000000  1
  O  O8  1  0.71816700  0.28256400  0.45943400  1
  O  O9  1  0.78183300  0.78256400  0.04056600  1
  O  O10  1  0.21816700  0.21743600  0.54056600  1
  O  O11  1  0.28183300  0.71743600  0.95943400  1
  O  O12  1  0.28183300  0.71743600  0.54056600  1
  O  O13  1  0.21816700  0.21743600  0.95943400  1
  O  O14  1  0.78183300  0.78256400  0.45943400  1
  O  O15  1  0.71816700  0.28256400  0.04056600  1
  O  O16  1  0.07582900  0.48851200  0.25000000  1
  O  O17  1  0.42417100  0.98851200  0.25000000  1
  O  O18  1  0.57582900  0.01148800  0.75000000  1
  O  O19  1  0.92417100  0.51148800  0.75000000  1
