# generated using pymatgen
data_Rb2Cd3Te4
_symmetry_space_group_name_H-M   'P 1'
_cell_length_a   10.79493031
_cell_length_b   10.79493031
_cell_length_c   13.22769839
_cell_angle_alpha   72.47418142
_cell_angle_beta   72.47418142
_cell_angle_gamma   93.16695908
_symmetry_Int_Tables_number   1
_chemical_formula_structural   Rb2Cd3Te4
_chemical_formula_sum   'Rb8 Cd12 Te16'
_cell_volume   1383.48270833
_cell_formula_units_Z   4
loop_
 _symmetry_equiv_pos_site_id
 _symmetry_equiv_pos_as_xyz
  1  'x, y, z'
loop_
 _atom_site_type_symbol
 _atom_site_label
 _atom_site_symmetry_multiplicity
 _atom_site_fract_x
 _atom_site_fract_y
 _atom_site_fract_z
 _atom_site_occupancy
  Rb  Rb0  1  0.00000000  0.00000000  0.00000000  1
  Rb  Rb1  1  0.75169500  0.75534500  0.36294800  1
  Rb  Rb2  1  0.75534500  0.75169500  0.86294800  1
  Rb  Rb3  1  0.24830500  0.24465500  0.63705200  1
  Rb  Rb4  1  0.49783700  0.50216300  0.25000000  1
  Rb  Rb5  1  0.50216300  0.49783700  0.75000000  1
  Rb  Rb6  1  0.00000000  0.00000000  0.50000000  1
  Rb  Rb7  1  0.24465500  0.24830500  0.13705200  1
  Cd  Cd8  1  0.40789900  0.88838600  0.80126300  1
  Cd  Cd9  1  0.12462800  0.64859200  0.41044600  1
  Cd  Cd10  1  0.87537200  0.35140800  0.58955400  1
  Cd  Cd11  1  0.64859200  0.12462800  0.91044600  1
  Cd  Cd12  1  0.11161400  0.59210100  0.69873700  1
  Cd  Cd13  1  0.59210100  0.11161400  0.19873700  1
  Cd  Cd14  1  0.88838600  0.40789900  0.30126300  1
  Cd  Cd15  1  0.37858500  0.85895300  0.54350800  1
  Cd  Cd16  1  0.14104700  0.62141500  0.95649200  1
  Cd  Cd17  1  0.62141500  0.14104700  0.45649200  1
  Cd  Cd18  1  0.85895300  0.37858500  0.04350800  1
  Cd  Cd19  1  0.35140800  0.87537200  0.08955400  1
  Te  Te20  1  0.34211100  0.61993400  0.50214600  1
  Te  Te21  1  0.38006600  0.65788900  0.99785400  1
  Te  Te22  1  0.65788900  0.38006600  0.49785400  1
  Te  Te23  1  0.61993400  0.34211100  0.00214600  1
  Te  Te24  1  0.84283800  0.15716200  0.25000000  1
  Te  Te25  1  0.15716200  0.84283800  0.75000000  1
  Te  Te26  1  0.11704600  0.88295400  0.25000000  1
  Te  Te27  1  0.88295400  0.11704600  0.75000000  1
  Te  Te28  1  0.39347900  0.10587200  0.87927700  1
  Te  Te29  1  0.60652100  0.89412800  0.12072300  1
  Te  Te30  1  0.10587200  0.39347900  0.37927700  1
  Te  Te31  1  0.61469900  0.88478600  0.60750000  1
  Te  Te32  1  0.11521400  0.38530100  0.89250000  1
  Te  Te33  1  0.38530100  0.11521400  0.39250000  1
  Te  Te34  1  0.88478600  0.61469900  0.10750000  1
  Te  Te35  1  0.89412800  0.60652100  0.62072300  1
