# generated using pymatgen
data_Ba3(Si2P3)2
_symmetry_space_group_name_H-M   'P 1'
_cell_length_a   7.37054200
_cell_length_b   7.59289600
_cell_length_c   11.64204346
_cell_angle_alpha   80.61924462
_cell_angle_beta   90.00000000
_cell_angle_gamma   90.00000000
_symmetry_Int_Tables_number   1
_chemical_formula_structural   Ba3(Si2P3)2
_chemical_formula_sum   'Ba6 Si8 P12'
_cell_volume   642.81954555
_cell_formula_units_Z   2
loop_
 _symmetry_equiv_pos_site_id
 _symmetry_equiv_pos_as_xyz
  1  'x, y, z'
loop_
 _atom_site_type_symbol
 _atom_site_label
 _atom_site_symmetry_multiplicity
 _atom_site_fract_x
 _atom_site_fract_y
 _atom_site_fract_z
 _atom_site_occupancy
  Ba  Ba0  1  0.75000000  0.50180200  0.49252400  1
  Ba  Ba1  1  0.25000000  0.49819800  0.50747600  1
  Ba  Ba2  1  0.75000000  0.91227800  0.85192900  1
  Ba  Ba3  1  0.25000000  0.08772200  0.14807100  1
  Ba  Ba4  1  0.75000000  0.40792300  0.86416200  1
  Ba  Ba5  1  0.25000000  0.59207700  0.13583800  1
  Si  Si6  1  0.42145600  0.97717000  0.59065200  1
  Si  Si7  1  0.92145600  0.02283000  0.40934800  1
  Si  Si8  1  0.57854400  0.02283000  0.40934800  1
  Si  Si9  1  0.07854400  0.97717000  0.59065200  1
  Si  Si10  1  0.75000000  0.32556100  0.20328800  1
  Si  Si11  1  0.25000000  0.17727400  0.79659800  1
  Si  Si12  1  0.25000000  0.67443900  0.79671200  1
  Si  Si13  1  0.75000000  0.82272600  0.20340200  1
  P  P14  1  0.00129900  0.20673200  0.68211500  1
  P  P15  1  0.50129900  0.79326800  0.31788500  1
  P  P16  1  0.25000000  0.39646500  0.91258700  1
  P  P17  1  0.75000000  0.60353500  0.08741300  1
  P  P18  1  0.25000000  0.89730000  0.91270700  1
  P  P19  1  0.75000000  0.10270000  0.08729300  1
  P  P20  1  0.49881600  0.70213200  0.68219600  1
  P  P21  1  0.99881600  0.29786800  0.31780400  1
  P  P22  1  0.50118400  0.29786800  0.31780400  1
  P  P23  1  0.00118400  0.70213200  0.68219600  1
  P  P24  1  0.49870100  0.20673200  0.68211500  1
  P  P25  1  0.99870100  0.79326800  0.31788500  1
