# generated using pymatgen
data_Li9Ge4
_symmetry_space_group_name_H-M   'P 1'
_cell_length_a   4.47394093
_cell_length_b   4.47394093
_cell_length_c   23.74006800
_cell_angle_alpha   90.00000000
_cell_angle_beta   90.00000000
_cell_angle_gamma   120.45649034
_symmetry_Int_Tables_number   1
_chemical_formula_structural   Li9Ge4
_chemical_formula_sum   'Li18 Ge8'
_cell_volume   409.61602288
_cell_formula_units_Z   2
loop_
 _symmetry_equiv_pos_site_id
 _symmetry_equiv_pos_as_xyz
  1  'x, y, z'
loop_
 _atom_site_type_symbol
 _atom_site_label
 _atom_site_symmetry_multiplicity
 _atom_site_fract_x
 _atom_site_fract_y
 _atom_site_fract_z
 _atom_site_occupancy
  Li  Li0  1  0.84660500  0.15339500  0.25000000  1
  Li  Li1  1  0.15339500  0.84660500  0.75000000  1
  Li  Li2  1  0.16319800  0.83680200  0.51710800  1
  Li  Li3  1  0.83680200  0.16319800  0.48289200  1
  Li  Li4  1  0.83680200  0.16319800  0.01710800  1
  Li  Li5  1  0.16319800  0.83680200  0.98289200  1
  Li  Li6  1  0.15241800  0.84758200  0.63186200  1
  Li  Li7  1  0.84758200  0.15241800  0.36813800  1
  Li  Li8  1  0.82276400  0.17723600  0.59298400  1
  Li  Li9  1  0.17723600  0.82276400  0.40701600  1
  Li  Li10  1  0.17723600  0.82276400  0.09298400  1
  Li  Li11  1  0.82276400  0.17723600  0.90701600  1
  Li  Li12  1  0.48742200  0.51257800  0.82340200  1
  Li  Li13  1  0.51257800  0.48742200  0.17659800  1
  Li  Li14  1  0.51257800  0.48742200  0.32340200  1
  Li  Li15  1  0.48742200  0.51257800  0.67659800  1
  Li  Li16  1  0.15241800  0.84758200  0.86813800  1
  Li  Li17  1  0.84758200  0.15241800  0.13186200  1
  Ge  Ge18  1  0.49392100  0.50607900  0.55447200  1
  Ge  Ge19  1  0.50607900  0.49392100  0.44552800  1
  Ge  Ge20  1  0.50607900  0.49392100  0.05447200  1
  Ge  Ge21  1  0.49392100  0.50607900  0.94552800  1
  Ge  Ge22  1  0.82053400  0.17946600  0.69919500  1
  Ge  Ge23  1  0.17946600  0.82053400  0.30080500  1
  Ge  Ge24  1  0.17946600  0.82053400  0.19919500  1
  Ge  Ge25  1  0.82053400  0.17946600  0.80080500  1
