# generated using pymatgen
data_Er(ClO4)3
_symmetry_space_group_name_H-M   'P 1'
_cell_length_a   9.45847420
_cell_length_b   9.45847420
_cell_length_c   5.57080000
_cell_angle_alpha   90.00000000
_cell_angle_beta   90.00000000
_cell_angle_gamma   120.00000142
_symmetry_Int_Tables_number   1
_chemical_formula_structural   Er(ClO4)3
_chemical_formula_sum   'Er2 Cl6 O24'
_cell_volume   431.60886853
_cell_formula_units_Z   2
loop_
 _symmetry_equiv_pos_site_id
 _symmetry_equiv_pos_as_xyz
  1  'x, y, z'
loop_
 _atom_site_type_symbol
 _atom_site_label
 _atom_site_symmetry_multiplicity
 _atom_site_fract_x
 _atom_site_fract_y
 _atom_site_fract_z
 _atom_site_occupancy
  Er  Er0  1  0.33333300  0.66666700  0.75000000  1
  Er  Er1  1  0.66666700  0.33333300  0.25000000  1
  Cl  Cl2  1  0.70467000  0.60891900  0.75000000  1
  Cl  Cl3  1  0.09575100  0.70467000  0.25000000  1
  Cl  Cl4  1  0.60891900  0.90424900  0.25000000  1
  Cl  Cl5  1  0.39108100  0.09575100  0.75000000  1
  Cl  Cl6  1  0.90424900  0.29533000  0.75000000  1
  Cl  Cl7  1  0.29533000  0.39108100  0.25000000  1
  O  O8  1  0.80766500  0.78070100  0.75000000  1
  O  O9  1  0.02696400  0.80766500  0.25000000  1
  O  O10  1  0.78070100  0.97303600  0.25000000  1
  O  O11  1  0.21929900  0.02696400  0.75000000  1
  O  O12  1  0.97303600  0.19233500  0.75000000  1
  O  O13  1  0.19233500  0.21929900  0.25000000  1
  O  O14  1  0.79821900  0.26031700  0.53768100  1
  O  O15  1  0.53790200  0.79821900  0.03768100  1
  O  O16  1  0.46872400  0.44276000  0.25000000  1
  O  O17  1  0.02596400  0.46872400  0.75000000  1
  O  O18  1  0.44276000  0.97403600  0.75000000  1
  O  O19  1  0.55724000  0.02596400  0.25000000  1
  O  O20  1  0.97403600  0.53127600  0.25000000  1
  O  O21  1  0.53127600  0.55724000  0.75000000  1
  O  O22  1  0.79821900  0.26031700  0.96231900  1
  O  O23  1  0.53790200  0.79821900  0.46231900  1
  O  O24  1  0.26031700  0.46209800  0.46231900  1
  O  O25  1  0.73968300  0.53790200  0.96231900  1
  O  O26  1  0.46209800  0.20178100  0.96231900  1
  O  O27  1  0.20178100  0.73968300  0.46231900  1
  O  O28  1  0.20178100  0.73968300  0.03768100  1
  O  O29  1  0.46209800  0.20178100  0.53768100  1
  O  O30  1  0.73968300  0.53790200  0.53768100  1
  O  O31  1  0.26031700  0.46209800  0.03768100  1
