# generated using pymatgen
data_Rb2Zn3O4
_symmetry_space_group_name_H-M   'P 1'
_cell_length_a   8.41706780
_cell_length_b   8.41706780
_cell_length_c   5.87011771
_cell_angle_alpha   78.96159012
_cell_angle_beta   78.96159012
_cell_angle_gamma   46.22958701
_symmetry_Int_Tables_number   1
_chemical_formula_structural   Rb2Zn3O4
_chemical_formula_sum   'Rb4 Zn6 O8'
_cell_volume   293.73483105
_cell_formula_units_Z   2
loop_
 _symmetry_equiv_pos_site_id
 _symmetry_equiv_pos_as_xyz
  1  'x, y, z'
loop_
 _atom_site_type_symbol
 _atom_site_label
 _atom_site_symmetry_multiplicity
 _atom_site_fract_x
 _atom_site_fract_y
 _atom_site_fract_z
 _atom_site_occupancy
  Rb  Rb0  1  0.01723000  0.74849100  0.99566000  1
  Rb  Rb1  1  0.25150900  0.98277000  0.50434000  1
  Rb  Rb2  1  0.98277000  0.25150900  0.00434000  1
  Rb  Rb3  1  0.74849100  0.01723000  0.49566000  1
  Zn  Zn4  1  0.42087300  0.19067200  0.08762700  1
  Zn  Zn5  1  0.80932800  0.57912700  0.41237300  1
  Zn  Zn6  1  0.48180300  0.51819700  0.25000000  1
  Zn  Zn7  1  0.51819700  0.48180300  0.75000000  1
  Zn  Zn8  1  0.57912700  0.80932800  0.91237300  1
  Zn  Zn9  1  0.19067200  0.42087300  0.58762700  1
  O  O10  1  0.62139900  0.85855700  0.20755300  1
  O  O11  1  0.14144300  0.37860100  0.29244700  1
  O  O12  1  0.37860100  0.14144300  0.79244700  1
  O  O13  1  0.85855700  0.62139900  0.70755300  1
  O  O14  1  0.72138200  0.40620300  0.45710400  1
  O  O15  1  0.59379700  0.27861800  0.04289600  1
  O  O16  1  0.40620300  0.72138200  0.95710400  1
  O  O17  1  0.27861800  0.59379700  0.54289600  1
