# generated using pymatgen
data_TmGeRu
_symmetry_space_group_name_H-M   'P 1'
_cell_length_a   4.37992500
_cell_length_b   6.96032500
_cell_length_c   7.25011400
_cell_angle_alpha   90.00000000
_cell_angle_beta   90.00000000
_cell_angle_gamma   90.00000000
_symmetry_Int_Tables_number   1
_chemical_formula_structural   TmGeRu
_chemical_formula_sum   'Tm4 Ge4 Ru4'
_cell_volume   221.02481107
_cell_formula_units_Z   4
loop_
 _symmetry_equiv_pos_site_id
 _symmetry_equiv_pos_as_xyz
  1  'x, y, z'
loop_
 _atom_site_type_symbol
 _atom_site_label
 _atom_site_symmetry_multiplicity
 _atom_site_fract_x
 _atom_site_fract_y
 _atom_site_fract_z
 _atom_site_occupancy
  Tm  Tm0  1  0.25000000  0.98951500  0.80756200  1
  Tm  Tm1  1  0.75000000  0.01048500  0.19243800  1
  Tm  Tm2  1  0.25000000  0.48951500  0.69243800  1
  Tm  Tm3  1  0.75000000  0.51048500  0.30756200  1
  Ge  Ge4  1  0.25000000  0.29447000  0.10749700  1
  Ge  Ge5  1  0.75000000  0.70553000  0.89250300  1
  Ge  Ge6  1  0.25000000  0.79447000  0.39250300  1
  Ge  Ge7  1  0.75000000  0.20553000  0.60749700  1
  Ru  Ru8  1  0.75000000  0.84344500  0.56220900  1
  Ru  Ru9  1  0.25000000  0.15655500  0.43779100  1
  Ru  Ru10  1  0.75000000  0.34344500  0.93779100  1
  Ru  Ru11  1  0.25000000  0.65655500  0.06220900  1
