# generated using pymatgen
data_ErMn12
_symmetry_space_group_name_H-M   'P 1'
_cell_length_a   6.31122398
_cell_length_b   6.31122398
_cell_length_c   6.31122398
_cell_angle_alpha   97.70890086
_cell_angle_beta   97.70890086
_cell_angle_gamma   137.03075992
_symmetry_Int_Tables_number   1
_chemical_formula_structural   ErMn12
_chemical_formula_sum   'Er1 Mn12'
_cell_volume   159.44017068
_cell_formula_units_Z   1
loop_
 _symmetry_equiv_pos_site_id
 _symmetry_equiv_pos_as_xyz
  1  'x, y, z'
loop_
 _atom_site_type_symbol
 _atom_site_label
 _atom_site_symmetry_multiplicity
 _atom_site_fract_x
 _atom_site_fract_y
 _atom_site_fract_z
 _atom_site_occupancy
  Er  Er0  1  0.00000000  0.00000000  0.00000000  1
  Mn  Mn1  1  0.72672800  0.50000000  0.22672800  1
  Mn  Mn2  1  0.00000000  0.50000000  0.00000000  1
  Mn  Mn3  1  0.50000000  0.50000000  0.50000000  1
  Mn  Mn4  1  0.00000000  0.00000000  0.50000000  1
  Mn  Mn5  1  0.50000000  0.00000000  0.00000000  1
  Mn  Mn6  1  0.36201100  0.00000000  0.36201100  1
  Mn  Mn7  1  0.00000000  0.63798900  0.63798900  1
  Mn  Mn8  1  0.00000000  0.36201100  0.36201100  1
  Mn  Mn9  1  0.63798900  0.00000000  0.63798900  1
  Mn  Mn10  1  0.27327200  0.50000000  0.77327200  1
  Mn  Mn11  1  0.50000000  0.72672800  0.22672800  1
  Mn  Mn12  1  0.50000000  0.27327200  0.77327200  1
