# generated using pymatgen
data_TaFeP
_symmetry_space_group_name_H-M   'P 1'
_cell_length_a   3.59226800
_cell_length_b   6.12261400
_cell_length_c   6.94709000
_cell_angle_alpha   90.00000000
_cell_angle_beta   90.00000000
_cell_angle_gamma   90.00000000
_symmetry_Int_Tables_number   1
_chemical_formula_structural   TaFeP
_chemical_formula_sum   'Ta4 Fe4 P4'
_cell_volume   152.79478618
_cell_formula_units_Z   4
loop_
 _symmetry_equiv_pos_site_id
 _symmetry_equiv_pos_as_xyz
  1  'x, y, z'
loop_
 _atom_site_type_symbol
 _atom_site_label
 _atom_site_symmetry_multiplicity
 _atom_site_fract_x
 _atom_site_fract_y
 _atom_site_fract_z
 _atom_site_occupancy
  Ta  Ta0  1  0.25000000  0.52216200  0.67624400  1
  Ta  Ta1  1  0.25000000  0.02216200  0.82375600  1
  Ta  Ta2  1  0.75000000  0.97783800  0.17624400  1
  Ta  Ta3  1  0.75000000  0.47783800  0.32375600  1
  Fe  Fe4  1  0.75000000  0.35821100  0.93688400  1
  Fe  Fe5  1  0.25000000  0.14178900  0.43688400  1
  Fe  Fe6  1  0.75000000  0.85821100  0.56311600  1
  Fe  Fe7  1  0.25000000  0.64178900  0.06311600  1
  P  P8  1  0.25000000  0.77709500  0.38053800  1
  P  P9  1  0.25000000  0.27709500  0.11946200  1
  P  P10  1  0.75000000  0.22290500  0.61946200  1
  P  P11  1  0.75000000  0.72290500  0.88053800  1
