# generated using pymatgen
data_LiVPO4F
_symmetry_space_group_name_H-M   'P 1'
_cell_length_a   5.39140384
_cell_length_b   10.26418682
_cell_length_c   7.42715305
_cell_angle_alpha   75.93414548
_cell_angle_beta   73.10761622
_cell_angle_gamma   100.15932654
_symmetry_Int_Tables_number   1
_chemical_formula_structural   LiVPO4F
_chemical_formula_sum   'Li4 V4 P4 O16 F4'
_cell_volume   367.72441391
_cell_formula_units_Z   4
loop_
 _symmetry_equiv_pos_site_id
 _symmetry_equiv_pos_as_xyz
  1  'x, y, z'
loop_
 _atom_site_type_symbol
 _atom_site_label
 _atom_site_symmetry_multiplicity
 _atom_site_fract_x
 _atom_site_fract_y
 _atom_site_fract_z
 _atom_site_occupancy
  Li  Li0  1  0.01919900  0.63494700  0.55263400  1
  Li  Li1  1  0.51920800  0.13499300  0.05261400  1
  Li  Li2  1  0.98079300  0.36505000  0.44736000  1
  Li  Li3  1  0.48079700  0.86500800  0.94737500  1
  V  V4  1  0.49997900  0.50004600  0.50000400  1
  V  V5  1  0.00000300  0.00000100  0.50000600  1
  V  V6  1  0.00006500  0.99997400  0.00007600  1
  V  V7  1  0.49999500  0.49999200  0.00000100  1
  P  P8  1  0.52047000  0.16126000  0.60157800  1
  P  P9  1  0.02043200  0.66120500  0.10163100  1
  P  P10  1  0.47952600  0.83875100  0.39841400  1
  P  P11  1  0.97956200  0.33878200  0.89836300  1
  O  O12  1  0.81190600  0.15337100  0.50302900  1
  O  O13  1  0.31200600  0.65343300  0.00302500  1
  O  O14  1  0.18809200  0.84662200  0.49696300  1
  O  O15  1  0.68798700  0.34656900  0.99696800  1
  O  O16  1  0.43498700  0.68387200  0.40264400  1
  O  O17  1  0.93513200  0.18393900  0.90265900  1
  O  O18  1  0.56500500  0.31613500  0.59734400  1
  O  O19  1  0.06487300  0.81605200  0.09734400  1
  O  O20  1  0.66050000  0.87457400  0.51444600  1
  O  O21  1  0.16047600  0.37448800  0.01443300  1
  O  O22  1  0.33949200  0.12542100  0.48554500  1
  O  O23  1  0.83952300  0.62551400  0.98556000  1
  O  O24  1  0.39951000  0.06516000  0.82334300  1
  O  O25  1  0.89928600  0.56514800  0.32344800  1
  O  O26  1  0.60048900  0.93483500  0.17665800  1
  O  O27  1  0.10070800  0.43485800  0.67654300  1
  F  F28  1  0.13864300  0.06514700  0.19735100  1
  F  F29  1  0.63865300  0.56511400  0.69755200  1
  F  F30  1  0.86136000  0.93485400  0.80265300  1
  F  F31  1  0.36134500  0.43489000  0.30244000  1
