# generated using pymatgen
data_CsReF8
_symmetry_space_group_name_H-M   'P 1'
_cell_length_a   8.01049100
_cell_length_b   8.01049100
_cell_length_c   5.31948700
_cell_angle_alpha   90.00000000
_cell_angle_beta   90.00000000
_cell_angle_gamma   90.00000000
_symmetry_Int_Tables_number   1
_chemical_formula_structural   CsReF8
_chemical_formula_sum   'Cs2 Re2 F16'
_cell_volume   341.34066128
_cell_formula_units_Z   2
loop_
 _symmetry_equiv_pos_site_id
 _symmetry_equiv_pos_as_xyz
  1  'x, y, z'
loop_
 _atom_site_type_symbol
 _atom_site_label
 _atom_site_symmetry_multiplicity
 _atom_site_fract_x
 _atom_site_fract_y
 _atom_site_fract_z
 _atom_site_occupancy
  Cs  Cs0  1  0.00000000  0.00000000  0.50000000  1
  Cs  Cs1  1  0.50000000  0.50000000  0.50000000  1
  Re  Re2  1  0.00000000  0.50000000  0.10750800  1
  Re  Re3  1  0.50000000  0.00000000  0.89249200  1
  F  F4  1  0.70299900  0.00000000  0.08578900  1
  F  F5  1  0.29700100  0.00000000  0.08578900  1
  F  F6  1  0.50000000  0.20299900  0.08578900  1
  F  F7  1  0.50000000  0.79700100  0.08578900  1
  F  F8  1  0.85691100  0.35691100  0.30729300  1
  F  F9  1  0.85691100  0.64308900  0.30729300  1
  F  F10  1  0.14308900  0.35691100  0.30729300  1
  F  F11  1  0.14308900  0.64308900  0.30729300  1
  F  F12  1  0.64308900  0.85691100  0.69270700  1
  F  F13  1  0.35691100  0.14308900  0.69270700  1
  F  F14  1  0.35691100  0.85691100  0.69270700  1
  F  F15  1  0.64308900  0.14308900  0.69270700  1
  F  F16  1  0.00000000  0.29700100  0.91421100  1
  F  F17  1  0.79700100  0.50000000  0.91421100  1
  F  F18  1  0.20299900  0.50000000  0.91421100  1
  F  F19  1  0.00000000  0.70299900  0.91421100  1
