# generated using pymatgen
data_Ca2InPd2
_symmetry_space_group_name_H-M   'P 1'
_cell_length_a   5.88471652
_cell_length_b   5.88471652
_cell_length_c   8.23659802
_cell_angle_alpha   77.17790279
_cell_angle_beta   77.17790279
_cell_angle_gamma   58.73857835
_symmetry_Int_Tables_number   1
_chemical_formula_structural   Ca2InPd2
_chemical_formula_sum   'Ca4 In2 Pd4'
_cell_volume   235.78098782
_cell_formula_units_Z   2
loop_
 _symmetry_equiv_pos_site_id
 _symmetry_equiv_pos_as_xyz
  1  'x, y, z'
loop_
 _atom_site_type_symbol
 _atom_site_label
 _atom_site_symmetry_multiplicity
 _atom_site_fract_x
 _atom_site_fract_y
 _atom_site_fract_z
 _atom_site_occupancy
  Ca  Ca0  1  0.50448200  0.79424000  0.35040200  1
  Ca  Ca1  1  0.20576000  0.49551800  0.14959800  1
  Ca  Ca2  1  0.49551800  0.20576000  0.64959800  1
  Ca  Ca3  1  0.79424000  0.50448200  0.85040200  1
  In  In4  1  0.84767800  0.15232200  0.25000000  1
  In  In5  1  0.15232200  0.84767800  0.75000000  1
  Pd  Pd6  1  0.72826200  0.00386800  0.00279100  1
  Pd  Pd7  1  0.99613200  0.27173800  0.49720900  1
  Pd  Pd8  1  0.27173800  0.99613200  0.99720900  1
  Pd  Pd9  1  0.00386800  0.72826200  0.50279100  1
