# generated using pymatgen
data_Nb2Te6I
_symmetry_space_group_name_H-M   'P 1'
_cell_length_a   14.28549900
_cell_length_b   9.38306800
_cell_length_c   9.82378361
_cell_angle_alpha   67.12033152
_cell_angle_beta   90.00000000
_cell_angle_gamma   90.00000000
_symmetry_Int_Tables_number   1
_chemical_formula_structural   Nb2Te6I
_chemical_formula_sum   'Nb8 Te24 I4'
_cell_volume   1213.19659208
_cell_formula_units_Z   4
loop_
 _symmetry_equiv_pos_site_id
 _symmetry_equiv_pos_as_xyz
  1  'x, y, z'
loop_
 _atom_site_type_symbol
 _atom_site_label
 _atom_site_symmetry_multiplicity
 _atom_site_fract_x
 _atom_site_fract_y
 _atom_site_fract_z
 _atom_site_occupancy
  Nb  Nb0  1  0.99203300  0.82455900  0.62966700  1
  Nb  Nb1  1  0.49203300  0.17544100  0.87033300  1
  Nb  Nb2  1  0.00796700  0.17544100  0.37033300  1
  Nb  Nb3  1  0.50796700  0.82455900  0.12966700  1
  Nb  Nb4  1  0.97545900  0.47578100  0.86921300  1
  Nb  Nb5  1  0.47545900  0.52421900  0.63078700  1
  Nb  Nb6  1  0.02454100  0.52421900  0.13078700  1
  Nb  Nb7  1  0.52454100  0.47578100  0.36921300  1
  Te  Te8  1  0.90339300  0.75702500  0.91057100  1
  Te  Te9  1  0.40339300  0.24297500  0.58942900  1
  Te  Te10  1  0.09660700  0.24297500  0.08942900  1
  Te  Te11  1  0.59660700  0.75702500  0.41057100  1
  Te  Te12  1  0.81638300  0.62620000  0.72919500  1
  Te  Te13  1  0.31638300  0.37380000  0.77080500  1
  Te  Te14  1  0.18361700  0.37380000  0.27080500  1
  Te  Te15  1  0.68361700  0.62620000  0.22919500  1
  Te  Te16  1  0.84138400  0.04464600  0.52777600  1
  Te  Te17  1  0.34138400  0.95535400  0.97222400  1
  Te  Te18  1  0.15861600  0.95535400  0.47222400  1
  Te  Te19  1  0.65861600  0.04464600  0.02777600  1
  Te  Te20  1  0.91655500  0.91661700  0.33891300  1
  Te  Te21  1  0.41655500  0.08338300  0.16108700  1
  Te  Te22  1  0.08344500  0.08338300  0.66108700  1
  Te  Te23  1  0.58344500  0.91661700  0.83891300  1
  Te  Te24  1  0.06325000  0.54612000  0.59067900  1
  Te  Te25  1  0.56325000  0.45388000  0.90932100  1
  Te  Te26  1  0.93675000  0.45388000  0.40932100  1
  Te  Te27  1  0.43675000  0.54612000  0.09067900  1
  Te  Te28  1  0.13465800  0.65028100  0.85628100  1
  Te  Te29  1  0.63465800  0.34971900  0.64371900  1
  Te  Te30  1  0.86534200  0.34971900  0.14371900  1
  Te  Te31  1  0.36534200  0.65028100  0.35628100  1
  I  I32  1  0.92049500  0.18830400  0.84852000  1
  I  I33  1  0.42049500  0.81169600  0.65148000  1
  I  I34  1  0.07950500  0.81169600  0.15148000  1
  I  I35  1  0.57950500  0.18830400  0.34852000  1
