# generated using pymatgen
data_Zr3Rh5
_symmetry_space_group_name_H-M   'P 1'
_cell_length_a   5.64312489
_cell_length_b   5.64312489
_cell_length_c   8.72245300
_cell_angle_alpha   90.00000000
_cell_angle_beta   90.00000000
_cell_angle_gamma   102.55459912
_symmetry_Int_Tables_number   1
_chemical_formula_structural   Zr3Rh5
_chemical_formula_sum   'Zr6 Rh10'
_cell_volume   271.12372269
_cell_formula_units_Z   2
loop_
 _symmetry_equiv_pos_site_id
 _symmetry_equiv_pos_as_xyz
  1  'x, y, z'
loop_
 _atom_site_type_symbol
 _atom_site_label
 _atom_site_symmetry_multiplicity
 _atom_site_fract_x
 _atom_site_fract_y
 _atom_site_fract_z
 _atom_site_occupancy
  Zr  Zr0  1  0.56551500  0.56551500  0.75000000  1
  Zr  Zr1  1  0.43448500  0.43448500  0.25000000  1
  Zr  Zr2  1  0.79166300  0.20833700  0.50000000  1
  Zr  Zr3  1  0.20833700  0.79166300  0.00000000  1
  Zr  Zr4  1  0.20833700  0.79166300  0.50000000  1
  Zr  Zr5  1  0.79166300  0.20833700  0.00000000  1
  Rh  Rh6  1  0.71169200  0.71169200  0.02688800  1
  Rh  Rh7  1  0.71169200  0.71169200  0.47311200  1
  Rh  Rh8  1  0.28830800  0.28830800  0.97311200  1
  Rh  Rh9  1  0.28830800  0.28830800  0.52688800  1
  Rh  Rh10  1  0.49377300  0.02496700  0.75000000  1
  Rh  Rh11  1  0.50622700  0.97503300  0.25000000  1
  Rh  Rh12  1  0.01310700  0.01310700  0.25000000  1
  Rh  Rh13  1  0.98689300  0.98689300  0.75000000  1
  Rh  Rh14  1  0.02496700  0.49377300  0.75000000  1
  Rh  Rh15  1  0.97503300  0.50622700  0.25000000  1
