# generated using pymatgen
data_Mg2Cu
_symmetry_space_group_name_H-M   'P 1'
_cell_length_a   10.21423967
_cell_length_b   9.52573465
_cell_length_c   5.22844470
_cell_angle_alpha   82.06819142
_cell_angle_beta   67.46887258
_cell_angle_gamma   30.46293600
_symmetry_Int_Tables_number   1
_chemical_formula_structural   Mg2Cu
_chemical_formula_sum   'Mg8 Cu4'
_cell_volume   217.21264121
_cell_formula_units_Z   4
loop_
 _symmetry_equiv_pos_site_id
 _symmetry_equiv_pos_as_xyz
  1  'x, y, z'
loop_
 _atom_site_type_symbol
 _atom_site_label
 _atom_site_symmetry_multiplicity
 _atom_site_fract_x
 _atom_site_fract_y
 _atom_site_fract_z
 _atom_site_occupancy
  Mg  Mg0  1  0.08329900  0.08329900  0.91670100  1
  Mg  Mg1  1  0.91670100  0.91670100  0.08329900  1
  Mg  Mg2  1  0.16670100  0.16670100  0.33329900  1
  Mg  Mg3  1  0.33329900  0.33329900  0.16670100  1
  Mg  Mg4  1  0.58424200  0.91575800  0.58424200  1
  Mg  Mg5  1  0.91575800  0.58424200  0.91575800  1
  Mg  Mg6  1  0.66575800  0.33424200  0.66575800  1
  Mg  Mg7  1  0.33424200  0.66575800  0.33424200  1
  Cu  Cu8  1  0.62668200  0.62668200  0.37331800  1
  Cu  Cu9  1  0.37331800  0.37331800  0.62668200  1
  Cu  Cu10  1  0.62331800  0.62331800  0.87668200  1
  Cu  Cu11  1  0.87668200  0.87668200  0.62331800  1
