# generated using pymatgen
data_Ca9Zn4Sb9
_symmetry_space_group_name_H-M   'P 1'
_cell_length_a   4.56106300
_cell_length_b   12.50655000
_cell_length_c   21.91858600
_cell_angle_alpha   90.00000000
_cell_angle_beta   90.00000000
_cell_angle_gamma   90.00000000
_symmetry_Int_Tables_number   1
_chemical_formula_structural   Ca9Zn4Sb9
_chemical_formula_sum   'Ca18 Zn8 Sb18'
_cell_volume   1250.30546215
_cell_formula_units_Z   2
loop_
 _symmetry_equiv_pos_site_id
 _symmetry_equiv_pos_as_xyz
  1  'x, y, z'
loop_
 _atom_site_type_symbol
 _atom_site_label
 _atom_site_symmetry_multiplicity
 _atom_site_fract_x
 _atom_site_fract_y
 _atom_site_fract_z
 _atom_site_occupancy
  Ca  Ca0  1  0.50000000  0.00000000  0.00000000  1
  Ca  Ca1  1  0.50000000  0.50000000  0.50000000  1
  Ca  Ca2  1  0.00000000  0.86594500  0.86278900  1
  Ca  Ca3  1  0.00000000  0.13405500  0.13721100  1
  Ca  Ca4  1  0.00000000  0.36594500  0.63721100  1
  Ca  Ca5  1  0.00000000  0.63405500  0.36278900  1
  Ca  Ca6  1  0.00000000  0.56391600  0.90930100  1
  Ca  Ca7  1  0.00000000  0.43608400  0.09069900  1
  Ca  Ca8  1  0.00000000  0.06391600  0.59069900  1
  Ca  Ca9  1  0.00000000  0.93608400  0.40930100  1
  Ca  Ca10  1  0.00000000  0.62162500  0.73668200  1
  Ca  Ca11  1  0.00000000  0.37837500  0.26331800  1
  Ca  Ca12  1  0.00000000  0.12162500  0.76331800  1
  Ca  Ca13  1  0.00000000  0.87837500  0.23668200  1
  Ca  Ca14  1  0.50000000  0.78730600  0.60214900  1
  Ca  Ca15  1  0.50000000  0.21269400  0.39785100  1
  Ca  Ca16  1  0.50000000  0.28730600  0.89785100  1
  Ca  Ca17  1  0.50000000  0.71269400  0.10214900  1
  Zn  Zn18  1  0.50000000  0.72331400  0.95400400  1
  Zn  Zn19  1  0.50000000  0.27668600  0.04599600  1
  Zn  Zn20  1  0.50000000  0.22331400  0.54599600  1
  Zn  Zn21  1  0.50000000  0.77668600  0.45400400  1
  Zn  Zn22  1  0.50000000  0.88318300  0.76251100  1
  Zn  Zn23  1  0.50000000  0.11681700  0.23748900  1
  Zn  Zn24  1  0.50000000  0.38318300  0.73748900  1
  Zn  Zn25  1  0.50000000  0.61681700  0.26251100  1
  Sb  Sb26  1  0.50000000  0.50000000  0.00000000  1
  Sb  Sb27  1  0.50000000  0.00000000  0.50000000  1
  Sb  Sb28  1  0.00000000  0.69372400  0.50603300  1
  Sb  Sb29  1  0.00000000  0.30627600  0.49396700  1
  Sb  Sb30  1  0.00000000  0.19372400  0.99396700  1
  Sb  Sb31  1  0.00000000  0.80627600  0.00603300  1
  Sb  Sb32  1  0.00000000  0.87962100  0.69474300  1
  Sb  Sb33  1  0.00000000  0.12037900  0.30525700  1
  Sb  Sb34  1  0.00000000  0.37962100  0.80525700  1
  Sb  Sb35  1  0.00000000  0.62037900  0.19474300  1
  Sb  Sb36  1  0.50000000  0.54058000  0.64680000  1
  Sb  Sb37  1  0.50000000  0.45942000  0.35320000  1
  Sb  Sb38  1  0.50000000  0.04058000  0.85320000  1
  Sb  Sb39  1  0.50000000  0.95942000  0.14680000  1
  Sb  Sb40  1  0.50000000  0.69030700  0.83190700  1
  Sb  Sb41  1  0.50000000  0.30969300  0.16809300  1
  Sb  Sb42  1  0.50000000  0.19030700  0.66809300  1
  Sb  Sb43  1  0.50000000  0.80969300  0.33190700  1
