# generated using pymatgen
data_Na2SbF5
_symmetry_space_group_name_H-M   'P 1'
_cell_length_a   5.55617200
_cell_length_b   8.24007700
_cell_length_c   11.41802500
_cell_angle_alpha   90.00000000
_cell_angle_beta   90.00000000
_cell_angle_gamma   90.00000000
_symmetry_Int_Tables_number   1
_chemical_formula_structural   Na2SbF5
_chemical_formula_sum   'Na8 Sb4 F20'
_cell_volume   522.75469391
_cell_formula_units_Z   4
loop_
 _symmetry_equiv_pos_site_id
 _symmetry_equiv_pos_as_xyz
  1  'x, y, z'
loop_
 _atom_site_type_symbol
 _atom_site_label
 _atom_site_symmetry_multiplicity
 _atom_site_fract_x
 _atom_site_fract_y
 _atom_site_fract_z
 _atom_site_occupancy
  Na  Na0  1  0.42981200  0.85627800  0.43513100  1
  Na  Na1  1  0.92981200  0.64372200  0.56486900  1
  Na  Na2  1  0.57018800  0.35627800  0.06486900  1
  Na  Na3  1  0.07018800  0.14372200  0.93513100  1
  Na  Na4  1  0.01085900  0.60245400  0.23934500  1
  Na  Na5  1  0.51085900  0.89754600  0.76065500  1
  Na  Na6  1  0.98914100  0.10245400  0.26065500  1
  Na  Na7  1  0.48914100  0.39754600  0.73934500  1
  Sb  Sb8  1  0.49774600  0.42462100  0.38424200  1
  Sb  Sb9  1  0.99774600  0.07537900  0.61575800  1
  Sb  Sb10  1  0.50225400  0.92462100  0.11575800  1
  Sb  Sb11  1  0.00225400  0.57537900  0.88424200  1
  F  F12  1  0.27215700  0.39856300  0.92761200  1
  F  F13  1  0.77215700  0.10143700  0.07238800  1
  F  F14  1  0.72784300  0.89856300  0.57238800  1
  F  F15  1  0.22784300  0.60143700  0.42761200  1
  F  F16  1  0.11010200  0.50857600  0.71501000  1
  F  F17  1  0.61010200  0.99142400  0.28499000  1
  F  F18  1  0.88989800  0.00857600  0.78499000  1
  F  F19  1  0.38989800  0.49142400  0.21501000  1
  F  F20  1  0.85509500  0.55490400  0.05615700  1
  F  F21  1  0.35509500  0.94509600  0.94384300  1
  F  F22  1  0.14490500  0.05490400  0.44384300  1
  F  F23  1  0.64490500  0.44509600  0.55615700  1
  F  F24  1  0.82268100  0.35418500  0.30151500  1
  F  F25  1  0.32268100  0.14581500  0.69848500  1
  F  F26  1  0.17731900  0.85418500  0.19848500  1
  F  F27  1  0.67731900  0.64581500  0.80151500  1
  F  F28  1  0.68199100  0.63597200  0.37421000  1
  F  F29  1  0.18199100  0.86402800  0.62579000  1
  F  F30  1  0.31800900  0.13597200  0.12579000  1
  F  F31  1  0.81800900  0.36402800  0.87421000  1
