# generated using pymatgen
data_BIrPd
_symmetry_space_group_name_H-M   'P 1'
_cell_length_a   6.77245467
_cell_length_b   6.12248753
_cell_length_c   5.55093119
_cell_angle_alpha   70.73022993
_cell_angle_beta   58.58120688
_cell_angle_gamma   50.68856319
_symmetry_Int_Tables_number   1
_chemical_formula_structural   BIrPd
_chemical_formula_sum   'B4 Ir4 Pd4'
_cell_volume   151.97163786
_cell_formula_units_Z   4
loop_
 _symmetry_equiv_pos_site_id
 _symmetry_equiv_pos_as_xyz
  1  'x, y, z'
loop_
 _atom_site_type_symbol
 _atom_site_label
 _atom_site_symmetry_multiplicity
 _atom_site_fract_x
 _atom_site_fract_y
 _atom_site_fract_z
 _atom_site_occupancy
  B  B0  1  0.05394500  0.97658200  0.56469400  1
  B  B1  1  0.68530600  0.84522100  0.19605500  1
  B  B2  1  0.40477900  0.56469400  0.97658200  1
  B  B3  1  0.27341800  0.19605500  0.84522100  1
  Ir  Ir4  1  0.10289100  0.63237200  0.86955600  1
  Ir  Ir5  1  0.38044400  0.85481900  0.14710900  1
  Ir  Ir6  1  0.61762800  0.14710900  0.85481900  1
  Ir  Ir7  1  0.39518100  0.86955600  0.63237200  1
  Pd  Pd8  1  0.93934300  0.79161800  0.38757700  1
  Pd  Pd9  1  0.45838200  0.31065700  0.36853900  1
  Pd  Pd10  1  0.86242300  0.36853900  0.31065700  1
  Pd  Pd11  1  0.88146100  0.38757700  0.79161800  1
