# generated using pymatgen
data_CsS
_symmetry_space_group_name_H-M   'P 1'
_cell_length_a   6.42028657
_cell_length_b   6.42028657
_cell_length_c   6.42028657
_cell_angle_alpha   131.38061383
_cell_angle_beta   110.11141384
_cell_angle_gamma   89.71897514
_symmetry_Int_Tables_number   1
_chemical_formula_structural   CsS
_chemical_formula_sum   'Cs2 S2'
_cell_volume   176.93184649
_cell_formula_units_Z   2
loop_
 _symmetry_equiv_pos_site_id
 _symmetry_equiv_pos_as_xyz
  1  'x, y, z'
loop_
 _atom_site_type_symbol
 _atom_site_label
 _atom_site_symmetry_multiplicity
 _atom_site_fract_x
 _atom_site_fract_y
 _atom_site_fract_z
 _atom_site_occupancy
  Cs  Cs0  1  0.77275100  0.27275100  0.50000000  1
  Cs  Cs1  1  0.22724900  0.72724900  0.50000000  1
  S  S2  1  0.14436300  0.00000000  0.14436300  1
  S  S3  1  0.85563700  0.00000000  0.85563700  1
