# generated using pymatgen
data_SrNiN
_symmetry_space_group_name_H-M   'P 1'
_cell_length_a   5.22343400
_cell_length_b   9.13071800
_cell_length_c   13.28623000
_cell_angle_alpha   90.00000000
_cell_angle_beta   90.00000000
_cell_angle_gamma   90.00000000
_symmetry_Int_Tables_number   1
_chemical_formula_structural   SrNiN
_chemical_formula_sum   'Sr12 Ni12 N12'
_cell_volume   633.66950556
_cell_formula_units_Z   12
loop_
 _symmetry_equiv_pos_site_id
 _symmetry_equiv_pos_as_xyz
  1  'x, y, z'
loop_
 _atom_site_type_symbol
 _atom_site_label
 _atom_site_symmetry_multiplicity
 _atom_site_fract_x
 _atom_site_fract_y
 _atom_site_fract_z
 _atom_site_occupancy
  Sr  Sr0  1  0.49313200  0.49068600  0.75000000  1
  Sr  Sr1  1  0.99313200  0.00931400  0.25000000  1
  Sr  Sr2  1  0.00686800  0.99068600  0.75000000  1
  Sr  Sr3  1  0.50686800  0.50931400  0.25000000  1
  Sr  Sr4  1  0.97775600  0.33274900  0.41283100  1
  Sr  Sr5  1  0.47775600  0.16725100  0.58716900  1
  Sr  Sr6  1  0.52224400  0.83274900  0.08716900  1
  Sr  Sr7  1  0.02224400  0.66725100  0.91283100  1
  Sr  Sr8  1  0.02224400  0.66725100  0.58716900  1
  Sr  Sr9  1  0.52224400  0.83274900  0.41283100  1
  Sr  Sr10  1  0.47775600  0.16725100  0.91283100  1
  Sr  Sr11  1  0.97775600  0.33274900  0.08716900  1
  Ni  Ni12  1  0.46328300  0.16089200  0.16076600  1
  Ni  Ni13  1  0.96328300  0.33910800  0.83923400  1
  Ni  Ni14  1  0.03671700  0.66089200  0.33923400  1
  Ni  Ni15  1  0.53671700  0.83910800  0.66076600  1
  Ni  Ni16  1  0.53671700  0.83910800  0.83923400  1
  Ni  Ni17  1  0.03671700  0.66089200  0.16076600  1
  Ni  Ni18  1  0.96328300  0.33910800  0.66076600  1
  Ni  Ni19  1  0.46328300  0.16089200  0.33923400  1
  Ni  Ni20  1  0.00000000  0.00000000  0.00000000  1
  Ni  Ni21  1  0.50000000  0.50000000  0.00000000  1
  Ni  Ni22  1  0.50000000  0.50000000  0.50000000  1
  Ni  Ni23  1  0.00000000  0.00000000  0.50000000  1
  N  N24  1  0.30809400  0.75722300  0.75000000  1
  N  N25  1  0.80809400  0.74277700  0.25000000  1
  N  N26  1  0.19190600  0.25722300  0.75000000  1
  N  N27  1  0.69190600  0.24277700  0.25000000  1
  N  N28  1  0.23526100  0.08046700  0.42263900  1
  N  N29  1  0.73526100  0.41953300  0.57736100  1
  N  N30  1  0.26473900  0.58046700  0.07736100  1
  N  N31  1  0.76473900  0.91953300  0.92263900  1
  N  N32  1  0.76473900  0.91953300  0.57736100  1
  N  N33  1  0.26473900  0.58046700  0.42263900  1
  N  N34  1  0.73526100  0.41953300  0.92263900  1
  N  N35  1  0.23526100  0.08046700  0.07736100  1
