# generated using pymatgen
data_Na4SnS4
_symmetry_space_group_name_H-M   'P 1'
_cell_length_a   7.92937100
_cell_length_b   7.92937100
_cell_length_c   7.00601600
_cell_angle_alpha   90.00000000
_cell_angle_beta   90.00000000
_cell_angle_gamma   90.00000000
_symmetry_Int_Tables_number   1
_chemical_formula_structural   Na4SnS4
_chemical_formula_sum   'Na8 Sn2 S8'
_cell_volume   440.50272674
_cell_formula_units_Z   2
loop_
 _symmetry_equiv_pos_site_id
 _symmetry_equiv_pos_as_xyz
  1  'x, y, z'
loop_
 _atom_site_type_symbol
 _atom_site_label
 _atom_site_symmetry_multiplicity
 _atom_site_fract_x
 _atom_site_fract_y
 _atom_site_fract_z
 _atom_site_occupancy
  Na  Na0  1  0.19820100  0.40638900  0.03088300  1
  Na  Na1  1  0.59361100  0.19820100  0.96911700  1
  Na  Na2  1  0.40638900  0.80179900  0.96911700  1
  Na  Na3  1  0.80179900  0.59361100  0.03088300  1
  Na  Na4  1  0.69820100  0.09361100  0.46911700  1
  Na  Na5  1  0.30179900  0.90638900  0.46911700  1
  Na  Na6  1  0.90638900  0.69820100  0.53088300  1
  Na  Na7  1  0.09361100  0.30179900  0.53088300  1
  Sn  Sn8  1  0.00000000  0.00000000  0.00000000  1
  Sn  Sn9  1  0.50000000  0.50000000  0.50000000  1
  S  S10  1  0.26077600  0.59248100  0.68945900  1
  S  S11  1  0.73922400  0.40751900  0.68945900  1
  S  S12  1  0.09248100  0.76077600  0.18945900  1
  S  S13  1  0.23922400  0.09248100  0.81054100  1
  S  S14  1  0.76077600  0.90751900  0.81054100  1
  S  S15  1  0.90751900  0.23922400  0.18945900  1
  S  S16  1  0.59248100  0.73922400  0.31054100  1
  S  S17  1  0.40751900  0.26077600  0.31054100  1
