# generated using pymatgen
data_Nb3FeS6
_symmetry_space_group_name_H-M   'P 1'
_cell_length_a   5.77894733
_cell_length_b   5.77894733
_cell_length_c   11.64937000
_cell_angle_alpha   90.00000000
_cell_angle_beta   90.00000000
_cell_angle_gamma   119.99999231
_symmetry_Int_Tables_number   1
_chemical_formula_structural   Nb3FeS6
_chemical_formula_sum   'Nb6 Fe2 S12'
_cell_volume   336.92293632
_cell_formula_units_Z   2
loop_
 _symmetry_equiv_pos_site_id
 _symmetry_equiv_pos_as_xyz
  1  'x, y, z'
loop_
 _atom_site_type_symbol
 _atom_site_label
 _atom_site_symmetry_multiplicity
 _atom_site_fract_x
 _atom_site_fract_y
 _atom_site_fract_z
 _atom_site_occupancy
  Nb  Nb0  1  0.00000000  0.00000000  0.50000000  1
  Nb  Nb1  1  0.00000000  0.00000000  0.00000000  1
  Nb  Nb2  1  0.33333300  0.66666700  0.99485800  1
  Nb  Nb3  1  0.66666700  0.33333300  0.00514200  1
  Nb  Nb4  1  0.66666700  0.33333300  0.49485800  1
  Nb  Nb5  1  0.33333300  0.66666700  0.50514200  1
  Fe  Fe6  1  0.33333300  0.66666700  0.25000000  1
  Fe  Fe7  1  0.66666700  0.33333300  0.75000000  1
  S  S8  1  0.33107000  0.33903600  0.36408400  1
  S  S9  1  0.66096400  0.99203400  0.36408400  1
  S  S10  1  0.00796600  0.66893000  0.36408400  1
  S  S11  1  0.33903600  0.33107000  0.63591600  1
  S  S12  1  0.99203400  0.66096400  0.63591600  1
  S  S13  1  0.66893000  0.00796600  0.63591600  1
  S  S14  1  0.66893000  0.66096400  0.86408400  1
  S  S15  1  0.33903600  0.00796600  0.86408400  1
  S  S16  1  0.99203400  0.33107000  0.86408400  1
  S  S17  1  0.66096400  0.66893000  0.13591600  1
  S  S18  1  0.00796600  0.33903600  0.13591600  1
  S  S19  1  0.33107000  0.99203400  0.13591600  1
