# generated using pymatgen
data_KCuS
_symmetry_space_group_name_H-M   'P 1'
_cell_length_a   5.31486300
_cell_length_b   6.29872400
_cell_length_c   10.71625300
_cell_angle_alpha   90.00000000
_cell_angle_beta   90.00000000
_cell_angle_gamma   90.00000000
_symmetry_Int_Tables_number   1
_chemical_formula_structural   KCuS
_chemical_formula_sum   'K4 Cu4 S4'
_cell_volume   358.74644927
_cell_formula_units_Z   4
loop_
 _symmetry_equiv_pos_site_id
 _symmetry_equiv_pos_as_xyz
  1  'x, y, z'
loop_
 _atom_site_type_symbol
 _atom_site_label
 _atom_site_symmetry_multiplicity
 _atom_site_fract_x
 _atom_site_fract_y
 _atom_site_fract_z
 _atom_site_occupancy
  K  K0  1  0.75000000  0.52328300  0.84600500  1
  K  K1  1  0.25000000  0.02328300  0.65399500  1
  K  K2  1  0.75000000  0.97671700  0.34600500  1
  K  K3  1  0.25000000  0.47671700  0.15399500  1
  Cu  Cu4  1  0.50000000  0.00000000  0.00000000  1
  Cu  Cu5  1  0.50000000  0.50000000  0.50000000  1
  Cu  Cu6  1  0.00000000  0.50000000  0.50000000  1
  Cu  Cu7  1  0.00000000  0.00000000  0.00000000  1
  S  S8  1  0.75000000  0.22375400  0.08893500  1
  S  S9  1  0.75000000  0.27624600  0.58893500  1
  S  S10  1  0.25000000  0.77624600  0.91106500  1
  S  S11  1  0.25000000  0.72375400  0.41106500  1
