# generated using pymatgen
data_Zr3N4
_symmetry_space_group_name_H-M   'P 1'
_cell_length_a   3.30168700
_cell_length_b   9.90464900
_cell_length_c   10.90065400
_cell_angle_alpha   90.00000000
_cell_angle_beta   90.00000000
_cell_angle_gamma   90.00000000
_symmetry_Int_Tables_number   1
_chemical_formula_structural   Zr3N4
_chemical_formula_sum   'Zr12 N16'
_cell_volume   356.47374133
_cell_formula_units_Z   4
loop_
 _symmetry_equiv_pos_site_id
 _symmetry_equiv_pos_as_xyz
  1  'x, y, z'
loop_
 _atom_site_type_symbol
 _atom_site_label
 _atom_site_symmetry_multiplicity
 _atom_site_fract_x
 _atom_site_fract_y
 _atom_site_fract_z
 _atom_site_occupancy
  Zr  Zr0  1  0.25000000  0.72946200  0.64685700  1
  Zr  Zr1  1  0.75000000  0.27053800  0.35314300  1
  Zr  Zr2  1  0.25000000  0.22946200  0.85314300  1
  Zr  Zr3  1  0.75000000  0.77053800  0.14685700  1
  Zr  Zr4  1  0.25000000  0.60714300  0.90657000  1
  Zr  Zr5  1  0.75000000  0.39285700  0.09343000  1
  Zr  Zr6  1  0.25000000  0.10714300  0.59343000  1
  Zr  Zr7  1  0.75000000  0.89285700  0.40657000  1
  Zr  Zr8  1  0.25000000  0.56967600  0.37539200  1
  Zr  Zr9  1  0.75000000  0.43032400  0.62460800  1
  Zr  Zr10  1  0.25000000  0.06967600  0.12460800  1
  Zr  Zr11  1  0.75000000  0.93032400  0.87539200  1
  N  N12  1  0.25000000  0.39715300  0.97129700  1
  N  N13  1  0.75000000  0.60284700  0.02870300  1
  N  N14  1  0.25000000  0.89715300  0.52870300  1
  N  N15  1  0.75000000  0.10284700  0.47129700  1
  N  N16  1  0.25000000  0.00627000  0.77453800  1
  N  N17  1  0.75000000  0.99373000  0.22546200  1
  N  N18  1  0.25000000  0.50627000  0.72546200  1
  N  N19  1  0.75000000  0.49373000  0.27453800  1
  N  N20  1  0.25000000  0.85685300  0.01799900  1
  N  N21  1  0.75000000  0.14314700  0.98200100  1
  N  N22  1  0.25000000  0.35685300  0.48200100  1
  N  N23  1  0.75000000  0.64314700  0.51799900  1
  N  N24  1  0.75000000  0.73694000  0.78535900  1
  N  N25  1  0.25000000  0.26306000  0.21464100  1
  N  N26  1  0.75000000  0.23694000  0.71464100  1
  N  N27  1  0.25000000  0.76306000  0.28535900  1
