# generated using pymatgen
data_NdGeRu
_symmetry_space_group_name_H-M   'P 1'
_cell_length_a   4.31684000
_cell_length_b   4.31684000
_cell_length_c   6.90099200
_cell_angle_alpha   90.00000000
_cell_angle_beta   90.00000000
_cell_angle_gamma   90.00000000
_symmetry_Int_Tables_number   1
_chemical_formula_structural   NdGeRu
_chemical_formula_sum   'Nd2 Ge2 Ru2'
_cell_volume   128.60072837
_cell_formula_units_Z   2
loop_
 _symmetry_equiv_pos_site_id
 _symmetry_equiv_pos_as_xyz
  1  'x, y, z'
loop_
 _atom_site_type_symbol
 _atom_site_label
 _atom_site_symmetry_multiplicity
 _atom_site_fract_x
 _atom_site_fract_y
 _atom_site_fract_z
 _atom_site_occupancy
  Nd  Nd0  1  0.00000000  0.50000000  0.31379400  1
  Nd  Nd1  1  0.50000000  0.00000000  0.68620600  1
  Ge  Ge2  1  0.00000000  0.50000000  0.80774000  1
  Ge  Ge3  1  0.50000000  0.00000000  0.19226000  1
  Ru  Ru4  1  0.00000000  0.00000000  0.00000000  1
  Ru  Ru5  1  0.50000000  0.50000000  0.00000000  1
