# generated using pymatgen
data_Cs3Cu2I5
_symmetry_space_group_name_H-M   'P 1'
_cell_length_a   10.41957900
_cell_length_b   11.83941400
_cell_length_c   14.59253500
_cell_angle_alpha   90.00000000
_cell_angle_beta   90.00000000
_cell_angle_gamma   90.00000000
_symmetry_Int_Tables_number   1
_chemical_formula_structural   Cs3Cu2I5
_chemical_formula_sum   'Cs12 Cu8 I20'
_cell_volume   1800.16006334
_cell_formula_units_Z   4
loop_
 _symmetry_equiv_pos_site_id
 _symmetry_equiv_pos_as_xyz
  1  'x, y, z'
loop_
 _atom_site_type_symbol
 _atom_site_label
 _atom_site_symmetry_multiplicity
 _atom_site_fract_x
 _atom_site_fract_y
 _atom_site_fract_z
 _atom_site_occupancy
  Cs  Cs0  1  0.55263800  0.98731400  0.82387800  1
  Cs  Cs1  1  0.05263800  0.51268600  0.67612200  1
  Cs  Cs2  1  0.44736200  0.48731400  0.17612200  1
  Cs  Cs3  1  0.94736200  0.01268600  0.32387800  1
  Cs  Cs4  1  0.44736200  0.01268600  0.17612200  1
  Cs  Cs5  1  0.94736200  0.48731400  0.32387800  1
  Cs  Cs6  1  0.55263800  0.51268600  0.82387800  1
  Cs  Cs7  1  0.05263800  0.98731400  0.67612200  1
  Cs  Cs8  1  0.90662500  0.75000000  0.04841700  1
  Cs  Cs9  1  0.40662500  0.75000000  0.45158300  1
  Cs  Cs10  1  0.09337500  0.25000000  0.95158300  1
  Cs  Cs11  1  0.59337500  0.25000000  0.54841700  1
  Cu  Cu12  1  0.74071600  0.25000000  0.12669500  1
  Cu  Cu13  1  0.28681100  0.75000000  0.04418500  1
  Cu  Cu14  1  0.78681100  0.75000000  0.45581500  1
  Cu  Cu15  1  0.71318900  0.25000000  0.95581500  1
  Cu  Cu16  1  0.21318900  0.25000000  0.54418500  1
  Cu  Cu17  1  0.25928400  0.75000000  0.87330500  1
  Cu  Cu18  1  0.75928400  0.75000000  0.62669500  1
  Cu  Cu19  1  0.24071600  0.25000000  0.37330500  1
  I  I20  1  0.33894100  0.75000000  0.70953600  1
  I  I21  1  0.83894100  0.75000000  0.79046400  1
  I  I22  1  0.66105900  0.25000000  0.29046400  1
  I  I23  1  0.16105900  0.25000000  0.20953600  1
  I  I24  1  0.96719900  0.25000000  0.51303800  1
  I  I25  1  0.20335300  0.75000000  0.21069000  1
  I  I26  1  0.46719900  0.25000000  0.98696200  1
  I  I27  1  0.03280100  0.75000000  0.48696200  1
  I  I28  1  0.53280100  0.75000000  0.01303800  1
  I  I29  1  0.29664700  0.25000000  0.71069000  1
  I  I30  1  0.79664700  0.25000000  0.78931000  1
  I  I31  1  0.70335300  0.75000000  0.28931000  1
  I  I32  1  0.69189900  0.56258300  0.55066400  1
  I  I33  1  0.19189900  0.93741700  0.94933600  1
  I  I34  1  0.30810100  0.06258300  0.44933600  1
  I  I35  1  0.80810100  0.43741700  0.05066400  1
  I  I36  1  0.30810100  0.43741700  0.44933600  1
  I  I37  1  0.80810100  0.06258300  0.05066400  1
  I  I38  1  0.69189900  0.93741700  0.55066400  1
  I  I39  1  0.19189900  0.56258300  0.94933600  1
