# generated using pymatgen
data_Rb4YbI6
_symmetry_space_group_name_H-M   'P 1'
_cell_length_a   10.20627003
_cell_length_b   10.20627003
_cell_length_c   10.20627032
_cell_angle_alpha   89.78042939
_cell_angle_beta   89.78042939
_cell_angle_gamma   89.78042853
_symmetry_Int_Tables_number   1
_chemical_formula_structural   Rb4YbI6
_chemical_formula_sum   'Rb8 Yb2 I12'
_cell_volume   1063.14287400
_cell_formula_units_Z   2
loop_
 _symmetry_equiv_pos_site_id
 _symmetry_equiv_pos_as_xyz
  1  'x, y, z'
loop_
 _atom_site_type_symbol
 _atom_site_label
 _atom_site_symmetry_multiplicity
 _atom_site_fract_x
 _atom_site_fract_y
 _atom_site_fract_z
 _atom_site_occupancy
  Rb  Rb0  1  0.25000000  0.25000000  0.25000000  1
  Rb  Rb1  1  0.75000000  0.75000000  0.75000000  1
  Rb  Rb2  1  0.86976600  0.63023400  0.25000000  1
  Rb  Rb3  1  0.63023400  0.25000000  0.86976600  1
  Rb  Rb4  1  0.25000000  0.86976600  0.63023400  1
  Rb  Rb5  1  0.13023400  0.36976600  0.75000000  1
  Rb  Rb6  1  0.36976600  0.75000000  0.13023400  1
  Rb  Rb7  1  0.75000000  0.13023400  0.36976600  1
  Yb  Yb8  1  0.00000000  0.00000000  0.00000000  1
  Yb  Yb9  1  0.50000000  0.50000000  0.50000000  1
  I  I10  1  0.20500600  0.55720200  0.43051200  1
  I  I11  1  0.05720200  0.70500600  0.93051200  1
  I  I12  1  0.93051200  0.05720200  0.70500600  1
  I  I13  1  0.79499400  0.44279800  0.56948800  1
  I  I14  1  0.70500600  0.93051200  0.05720200  1
  I  I15  1  0.44279800  0.56948800  0.79499400  1
  I  I16  1  0.56948800  0.79499400  0.44279800  1
  I  I17  1  0.55720200  0.43051200  0.20500600  1
  I  I18  1  0.06948800  0.94279800  0.29499400  1
  I  I19  1  0.94279800  0.29499400  0.06948800  1
  I  I20  1  0.29499400  0.06948800  0.94279800  1
  I  I21  1  0.43051200  0.20500600  0.55720200  1
