# generated using pymatgen
data_BaAsHO4
_symmetry_space_group_name_H-M   'P 1'
_cell_length_a   8.71469600
_cell_length_b   10.09586500
_cell_length_c   19.79915800
_cell_angle_alpha   90.00000000
_cell_angle_beta   90.00000000
_cell_angle_gamma   90.00000000
_symmetry_Int_Tables_number   1
_chemical_formula_structural   BaAsHO4
_chemical_formula_sum   'Ba16 As16 H16 O64'
_cell_volume   1741.97732660
_cell_formula_units_Z   16
loop_
 _symmetry_equiv_pos_site_id
 _symmetry_equiv_pos_as_xyz
  1  'x, y, z'
loop_
 _atom_site_type_symbol
 _atom_site_label
 _atom_site_symmetry_multiplicity
 _atom_site_fract_x
 _atom_site_fract_y
 _atom_site_fract_z
 _atom_site_occupancy
  Ba  Ba0  1  0.36715300  0.68264600  0.38185200  1
  Ba  Ba1  1  0.86715300  0.81735400  0.61814800  1
  Ba  Ba2  1  0.63284700  0.18264600  0.11814800  1
  Ba  Ba3  1  0.13284700  0.31735400  0.88185200  1
  Ba  Ba4  1  0.63284700  0.31735400  0.61814800  1
  Ba  Ba5  1  0.13284700  0.18264600  0.38185200  1
  Ba  Ba6  1  0.36715300  0.81735400  0.88185200  1
  Ba  Ba7  1  0.86715300  0.68264600  0.11814800  1
  Ba  Ba8  1  0.62390700  0.32206500  0.37441600  1
  Ba  Ba9  1  0.12390700  0.17793500  0.62558400  1
  Ba  Ba10  1  0.37609300  0.82206500  0.12558400  1
  Ba  Ba11  1  0.87609300  0.67793500  0.87441600  1
  Ba  Ba12  1  0.37609300  0.67793500  0.62558400  1
  Ba  Ba13  1  0.87609300  0.82206500  0.37441600  1
  Ba  Ba14  1  0.62390700  0.17793500  0.87441600  1
  Ba  Ba15  1  0.12390700  0.32206500  0.12558400  1
  As  As16  1  0.02044600  0.47872800  0.29330800  1
  As  As17  1  0.52044600  0.02127200  0.70669200  1
  As  As18  1  0.97955400  0.97872800  0.20669200  1
  As  As19  1  0.47955400  0.52127200  0.79330800  1
  As  As20  1  0.97955400  0.52127200  0.70669200  1
  As  As21  1  0.47955400  0.97872800  0.29330800  1
  As  As22  1  0.02044600  0.02127200  0.79330800  1
  As  As23  1  0.52044600  0.47872800  0.20669200  1
  As  As24  1  0.74510800  0.07605100  0.49561900  1
  As  As25  1  0.24510800  0.42394900  0.50438100  1
  As  As26  1  0.25489200  0.57605100  0.00438100  1
  As  As27  1  0.75489200  0.92394900  0.99561900  1
  As  As28  1  0.25489200  0.92394900  0.50438100  1
  As  As29  1  0.75489200  0.57605100  0.49561900  1
  As  As30  1  0.74510800  0.42394900  0.99561900  1
  As  As31  1  0.24510800  0.07605100  0.00438100  1
  H  H32  1  0.28656600  0.42450000  0.28001900  1
  H  H33  1  0.78656600  0.07550000  0.71998100  1
  H  H34  1  0.71343400  0.92450000  0.21998100  1
  H  H35  1  0.21343400  0.57550000  0.78001900  1
  H  H36  1  0.71343400  0.57550000  0.71998100  1
  H  H37  1  0.21343400  0.92450000  0.28001900  1
  H  H38  1  0.28656600  0.07550000  0.78001900  1
  H  H39  1  0.78656600  0.42450000  0.21998100  1
  H  H40  1  0.58305400  0.88418900  0.49981300  1
  H  H41  1  0.08305400  0.61581100  0.50018700  1
  H  H42  1  0.41694600  0.38418900  0.00018700  1
  H  H43  1  0.91694600  0.11581100  0.99981300  1
  H  H44  1  0.41694600  0.11581100  0.50018700  1
  H  H45  1  0.91694600  0.38418900  0.49981300  1
  H  H46  1  0.58305400  0.61581100  0.99981300  1
  H  H47  1  0.08305400  0.88418900  0.00018700  1
  O  O48  1  0.91809100  0.37877200  0.34550000  1
  O  O49  1  0.41809100  0.12122800  0.65450000  1
  O  O50  1  0.08190900  0.87877200  0.15450000  1
  O  O51  1  0.58190900  0.62122800  0.84550000  1
  O  O52  1  0.08190900  0.62122800  0.65450000  1
  O  O53  1  0.58190900  0.87877200  0.34550000  1
  O  O54  1  0.91809100  0.12122800  0.84550000  1
  O  O55  1  0.41809100  0.37877200  0.15450000  1
  O  O56  1  0.93762300  0.49408500  0.21436300  1
  O  O57  1  0.43762300  0.00591500  0.78563700  1
  O  O58  1  0.06237700  0.99408500  0.28563700  1
  O  O59  1  0.56237700  0.50591500  0.71436300  1
  O  O60  1  0.06237700  0.50591500  0.78563700  1
  O  O61  1  0.56237700  0.99408500  0.21436300  1
  O  O62  1  0.93762300  0.00591500  0.71436300  1
  O  O63  1  0.43762300  0.49408500  0.28563700  1
  O  O64  1  0.18215700  0.37454100  0.27506100  1
  O  O65  1  0.68215700  0.12545900  0.72493900  1
  O  O66  1  0.81784300  0.87454100  0.22493900  1
  O  O67  1  0.31784300  0.62545900  0.77506100  1
  O  O68  1  0.81784300  0.62545900  0.72493900  1
  O  O69  1  0.31784300  0.87454100  0.27506100  1
  O  O70  1  0.18215700  0.12545900  0.77506100  1
  O  O71  1  0.68215700  0.37454100  0.22493900  1
  O  O72  1  0.07595600  0.62640200  0.32624900  1
  O  O73  1  0.57595600  0.87359800  0.67375100  1
  O  O74  1  0.92404400  0.12640200  0.17375100  1
  O  O75  1  0.42404400  0.37359800  0.82624900  1
  O  O76  1  0.92404400  0.37359800  0.67375100  1
  O  O77  1  0.42404400  0.12640200  0.32624900  1
  O  O78  1  0.07595600  0.87359800  0.82624900  1
  O  O79  1  0.57595600  0.62640200  0.17375100  1
  O  O80  1  0.70040100  0.90300600  0.49871000  1
  O  O81  1  0.20040100  0.59699400  0.50129000  1
  O  O82  1  0.29959900  0.40300600  0.00129000  1
  O  O83  1  0.79959900  0.09699400  0.99871000  1
  O  O84  1  0.29959900  0.09699400  0.50129000  1
  O  O85  1  0.79959900  0.40300600  0.49871000  1
  O  O86  1  0.70040100  0.59699400  0.99871000  1
  O  O87  1  0.20040100  0.90300600  0.00129000  1
  O  O88  1  0.84290100  0.10217100  0.56910800  1
  O  O89  1  0.34290100  0.39782900  0.43089200  1
  O  O90  1  0.15709900  0.60217100  0.93089200  1
  O  O91  1  0.65709900  0.89782900  0.06910800  1
  O  O92  1  0.15709900  0.89782900  0.43089200  1
  O  O93  1  0.65709900  0.60217100  0.56910800  1
  O  O94  1  0.84290100  0.39782900  0.06910800  1
  O  O95  1  0.34290100  0.10217100  0.93089200  1
  O  O96  1  0.84378600  0.09526200  0.42180500  1
  O  O97  1  0.34378600  0.40473800  0.57819500  1
  O  O98  1  0.15621400  0.59526200  0.07819500  1
  O  O99  1  0.65621400  0.90473800  0.92180500  1
  O  O100  1  0.15621400  0.90473800  0.57819500  1
  O  O101  1  0.65621400  0.59526200  0.42180500  1
  O  O102  1  0.84378600  0.40473800  0.92180500  1
  O  O103  1  0.34378600  0.09526200  0.07819500  1
  O  O104  1  0.58004200  0.16863800  0.49443800  1
  O  O105  1  0.08004200  0.33136200  0.50556200  1
  O  O106  1  0.41995800  0.66863800  0.00556200  1
  O  O107  1  0.91995800  0.83136200  0.99443800  1
  O  O108  1  0.41995800  0.83136200  0.50556200  1
  O  O109  1  0.91995800  0.66863800  0.49443800  1
  O  O110  1  0.58004200  0.33136200  0.99443800  1
  O  O111  1  0.08004200  0.16863800  0.00556200  1
