# generated using pymatgen
data_Th11(Ru2C3)6
_symmetry_space_group_name_H-M   'P 1'
_cell_length_a   9.38004066
_cell_length_b   9.38004066
_cell_length_c   9.38004066
_cell_angle_alpha   109.47122063
_cell_angle_beta   109.47122063
_cell_angle_gamma   109.47122063
_symmetry_Int_Tables_number   1
_chemical_formula_structural   Th11(Ru2C3)6
_chemical_formula_sum   'Th11 Ru12 C18'
_cell_volume   635.31962669
_cell_formula_units_Z   1
loop_
 _symmetry_equiv_pos_site_id
 _symmetry_equiv_pos_as_xyz
  1  'x, y, z'
loop_
 _atom_site_type_symbol
 _atom_site_label
 _atom_site_symmetry_multiplicity
 _atom_site_fract_x
 _atom_site_fract_y
 _atom_site_fract_z
 _atom_site_occupancy
  Th  Th0  1  0.59412900  0.59412900  0.59412900  1
  Th  Th1  1  0.00000000  0.40587100  0.00000000  1
  Th  Th2  1  0.40587100  0.00000000  0.00000000  1
  Th  Th3  1  0.00000000  0.00000000  0.40587100  1
  Th  Th4  1  0.75000000  0.50000000  0.25000000  1
  Th  Th5  1  0.25000000  0.75000000  0.50000000  1
  Th  Th6  1  0.75000000  0.25000000  0.50000000  1
  Th  Th7  1  0.50000000  0.25000000  0.75000000  1
  Th  Th8  1  0.50000000  0.75000000  0.25000000  1
  Th  Th9  1  0.25000000  0.50000000  0.75000000  1
  Th  Th10  1  0.00000000  0.00000000  0.00000000  1
  Ru  Ru11  1  0.82973100  0.19765600  0.19765600  1
  Ru  Ru12  1  0.19765600  0.82973100  0.19765600  1
  Ru  Ru13  1  0.80234400  0.00000000  0.63207500  1
  Ru  Ru14  1  0.00000000  0.80234400  0.63207500  1
  Ru  Ru15  1  0.36792500  0.36792500  0.17026900  1
  Ru  Ru16  1  0.00000000  0.63207500  0.80234400  1
  Ru  Ru17  1  0.63207500  0.00000000  0.80234400  1
  Ru  Ru18  1  0.80234400  0.63207500  0.00000000  1
  Ru  Ru19  1  0.63207500  0.80234400  0.00000000  1
  Ru  Ru20  1  0.19765600  0.19765600  0.82973100  1
  Ru  Ru21  1  0.36792500  0.17026900  0.36792500  1
  Ru  Ru22  1  0.17026900  0.36792500  0.36792500  1
  C  C23  1  0.00000000  0.43472000  0.43472000  1
  C  C24  1  0.00000000  0.56528000  0.56528000  1
  C  C25  1  0.56528000  0.00000000  0.56528000  1
  C  C26  1  0.43472000  0.00000000  0.43472000  1
  C  C27  1  0.56528000  0.56528000  0.00000000  1
  C  C28  1  0.43472000  0.43472000  0.00000000  1
  C  C29  1  0.31165100  0.31165100  0.52547200  1
  C  C30  1  0.00000000  0.21382100  0.68834900  1
  C  C31  1  0.21382100  0.00000000  0.68834900  1
  C  C32  1  0.78617900  0.47452800  0.78617900  1
  C  C33  1  0.47452800  0.78617900  0.78617900  1
  C  C34  1  0.68834900  0.00000000  0.21382100  1
  C  C35  1  0.31165100  0.52547200  0.31165100  1
  C  C36  1  0.21382100  0.68834900  0.00000000  1
  C  C37  1  0.00000000  0.68834900  0.21382100  1
  C  C38  1  0.68834900  0.21382100  0.00000000  1
  C  C39  1  0.78617900  0.78617900  0.47452800  1
  C  C40  1  0.52547200  0.31165100  0.31165100  1
