# generated using pymatgen
data_La3MoO7
_symmetry_space_group_name_H-M   'P 1'
_cell_length_a   7.72515900
_cell_length_b   7.80908200
_cell_length_c   11.12450100
_cell_angle_alpha   90.00000000
_cell_angle_beta   90.00000000
_cell_angle_gamma   90.00000000
_symmetry_Int_Tables_number   1
_chemical_formula_structural   La3MoO7
_chemical_formula_sum   'La12 Mo4 O28'
_cell_volume   671.10109817
_cell_formula_units_Z   4
loop_
 _symmetry_equiv_pos_site_id
 _symmetry_equiv_pos_as_xyz
  1  'x, y, z'
loop_
 _atom_site_type_symbol
 _atom_site_label
 _atom_site_symmetry_multiplicity
 _atom_site_fract_x
 _atom_site_fract_y
 _atom_site_fract_z
 _atom_site_occupancy
  La  La0  1  0.52838400  0.99182000  0.75376600  1
  La  La1  1  0.29359300  0.25318300  0.46725500  1
  La  La2  1  0.20640700  0.74681700  0.96725500  1
  La  La3  1  0.70640700  0.75318300  0.03274500  1
  La  La4  1  0.79359300  0.24681700  0.53274500  1
  La  La5  1  0.02838400  0.50818000  0.24623400  1
  La  La6  1  0.47161600  0.49182000  0.74623400  1
  La  La7  1  0.97161600  0.00818000  0.25376600  1
  La  La8  1  0.69723600  0.74683600  0.48129600  1
  La  La9  1  0.19723600  0.75316400  0.51870400  1
  La  La10  1  0.30276400  0.24683600  0.01870400  1
  La  La11  1  0.80276400  0.25316400  0.98129600  1
  Mo  Mo12  1  0.49886800  0.99989400  0.24939700  1
  Mo  Mo13  1  0.99886800  0.50010600  0.75060300  1
  Mo  Mo14  1  0.50113200  0.49989400  0.25060300  1
  Mo  Mo15  1  0.00113200  0.00010600  0.74939700  1
  O  O16  1  0.50903100  0.23986700  0.61897500  1
  O  O17  1  0.00903100  0.26013300  0.38102500  1
  O  O18  1  0.49096900  0.73986700  0.88102500  1
  O  O19  1  0.99096900  0.76013300  0.11897500  1
  O  O20  1  0.53572500  0.25251000  0.88275800  1
  O  O21  1  0.03572500  0.24749000  0.11724200  1
  O  O22  1  0.46427500  0.75251000  0.61724200  1
  O  O23  1  0.96427500  0.74749000  0.38275800  1
  O  O24  1  0.30649300  0.96936700  0.36988100  1
  O  O25  1  0.80649300  0.53063300  0.63011900  1
  O  O26  1  0.69350700  0.46936700  0.13011900  1
  O  O27  1  0.19350700  0.03063300  0.86988100  1
  O  O28  1  0.67634700  0.03465100  0.37411300  1
  O  O29  1  0.17634700  0.46534900  0.62588700  1
  O  O30  1  0.32365300  0.53465100  0.12588700  1
  O  O31  1  0.82365300  0.96534900  0.87411300  1
  O  O32  1  0.57835600  0.74612100  0.25697800  1
  O  O33  1  0.07835600  0.75387900  0.74302200  1
  O  O34  1  0.42164400  0.24612100  0.24302200  1
  O  O35  1  0.92164400  0.25387900  0.75697800  1
  O  O36  1  0.78791000  0.96588100  0.62980300  1
  O  O37  1  0.28791000  0.53411900  0.37019700  1
  O  O38  1  0.36684600  0.95183100  0.10924300  1
  O  O39  1  0.71209000  0.03411900  0.12980300  1
  O  O40  1  0.13315400  0.04816900  0.60924300  1
  O  O41  1  0.63315400  0.45183100  0.39075700  1
  O  O42  1  0.86684600  0.54816900  0.89075700  1
  O  O43  1  0.21209000  0.46588100  0.87019700  1
