# generated using pymatgen
data_Mn8Cl3O10
_symmetry_space_group_name_H-M   'P 1'
_cell_length_a   9.40678338
_cell_length_b   9.40678338
_cell_length_c   9.40678338
_cell_angle_alpha   119.12706626
_cell_angle_beta   119.12706626
_cell_angle_gamma   91.51873462
_symmetry_Int_Tables_number   1
_chemical_formula_structural   Mn8Cl3O10
_chemical_formula_sum   'Mn16 Cl6 O20'
_cell_volume   596.12334117
_cell_formula_units_Z   2
loop_
 _symmetry_equiv_pos_site_id
 _symmetry_equiv_pos_as_xyz
  1  'x, y, z'
loop_
 _atom_site_type_symbol
 _atom_site_label
 _atom_site_symmetry_multiplicity
 _atom_site_fract_x
 _atom_site_fract_y
 _atom_site_fract_z
 _atom_site_occupancy
  Mn  Mn0  1  0.50000000  0.50000000  0.00000000  1
  Mn  Mn1  1  0.00000000  0.00000000  0.00000000  1
  Mn  Mn2  1  0.75000000  0.25000000  0.50000000  1
  Mn  Mn3  1  0.25000000  0.75000000  0.50000000  1
  Mn  Mn4  1  0.00000000  0.64962200  0.64962200  1
  Mn  Mn5  1  0.64962200  0.00000000  0.64962200  1
  Mn  Mn6  1  0.35037800  0.00000000  0.35037800  1
  Mn  Mn7  1  0.00000000  0.35037800  0.35037800  1
  Mn  Mn8  1  0.99881900  0.99881900  0.35055800  1
  Mn  Mn9  1  0.64826100  0.64826100  0.64944200  1
  Mn  Mn10  1  0.00118100  0.00118100  0.64944200  1
  Mn  Mn11  1  0.64826100  0.99881900  0.00000000  1
  Mn  Mn12  1  0.99881900  0.64826100  0.00000000  1
  Mn  Mn13  1  0.00118100  0.35173900  0.00000000  1
  Mn  Mn14  1  0.35173900  0.00118100  0.00000000  1
  Mn  Mn15  1  0.35173900  0.35173900  0.35055800  1
  Cl  Cl16  1  0.30358500  0.30358500  0.00000000  1
  Cl  Cl17  1  0.69677800  0.69677800  0.39355600  1
  Cl  Cl18  1  0.69677800  0.30322200  0.00000000  1
  Cl  Cl19  1  0.30322200  0.69677800  0.00000000  1
  Cl  Cl20  1  0.30322200  0.30322200  0.60644400  1
  Cl  Cl21  1  0.69641500  0.69641500  0.00000000  1
  O  O22  1  0.10001000  0.90024300  0.19976700  1
  O  O23  1  0.70047600  0.90024300  0.80023300  1
  O  O24  1  0.09975700  0.89999000  0.80023300  1
  O  O25  1  0.90024300  0.10001000  0.19976700  1
  O  O26  1  0.90024300  0.70047600  0.80023300  1
  O  O27  1  0.89999000  0.09975700  0.80023300  1
  O  O28  1  0.29952400  0.09975700  0.19976700  1
  O  O29  1  0.09975700  0.29952400  0.19976700  1
  O  O30  1  0.40189800  0.90189800  0.50000000  1
  O  O31  1  0.90189800  0.40189800  0.50000000  1
  O  O32  1  0.59810200  0.09810200  0.50000000  1
  O  O33  1  0.09810200  0.59810200  0.50000000  1
  O  O34  1  0.59475200  0.09475200  0.18950300  1
  O  O35  1  0.90524800  0.09475200  0.50000000  1
  O  O36  1  0.59475200  0.40524800  0.50000000  1
  O  O37  1  0.09475200  0.59475200  0.18950300  1
  O  O38  1  0.09475200  0.90524800  0.50000000  1
  O  O39  1  0.40524800  0.59475200  0.50000000  1
  O  O40  1  0.90524800  0.40524800  0.81049700  1
  O  O41  1  0.40524800  0.90524800  0.81049700  1
