# generated using pymatgen
data_ZrMnSi
_symmetry_space_group_name_H-M   'P 1'
_cell_length_a   3.70211100
_cell_length_b   6.59407100
_cell_length_c   7.64770800
_cell_angle_alpha   90.00000000
_cell_angle_beta   90.00000000
_cell_angle_gamma   90.00000000
_symmetry_Int_Tables_number   1
_chemical_formula_structural   ZrMnSi
_chemical_formula_sum   'Zr4 Mn4 Si4'
_cell_volume   186.69571603
_cell_formula_units_Z   4
loop_
 _symmetry_equiv_pos_site_id
 _symmetry_equiv_pos_as_xyz
  1  'x, y, z'
loop_
 _atom_site_type_symbol
 _atom_site_label
 _atom_site_symmetry_multiplicity
 _atom_site_fract_x
 _atom_site_fract_y
 _atom_site_fract_z
 _atom_site_occupancy
  Zr  Zr0  1  0.25000000  0.52620300  0.68011400  1
  Zr  Zr1  1  0.25000000  0.02620300  0.81988600  1
  Zr  Zr2  1  0.75000000  0.97379700  0.18011400  1
  Zr  Zr3  1  0.75000000  0.47379700  0.31988600  1
  Mn  Mn4  1  0.75000000  0.36108900  0.93517800  1
  Mn  Mn5  1  0.25000000  0.13891100  0.43517800  1
  Mn  Mn6  1  0.75000000  0.86108900  0.56482200  1
  Mn  Mn7  1  0.25000000  0.63891100  0.06482200  1
  Si  Si8  1  0.25000000  0.27371000  0.12133800  1
  Si  Si9  1  0.25000000  0.77371000  0.37866200  1
  Si  Si10  1  0.75000000  0.72629000  0.87866200  1
  Si  Si11  1  0.75000000  0.22629000  0.62133800  1
