# generated using pymatgen
data_Rb4CdCl6
_symmetry_space_group_name_H-M   'P 1'
_cell_length_a   9.03787473
_cell_length_b   9.03787473
_cell_length_c   9.03787387
_cell_angle_alpha   89.42478923
_cell_angle_beta   89.42478923
_cell_angle_gamma   89.42479328
_symmetry_Int_Tables_number   1
_chemical_formula_structural   Rb4CdCl6
_chemical_formula_sum   'Rb8 Cd2 Cl12'
_cell_volume   738.13140958
_cell_formula_units_Z   2
loop_
 _symmetry_equiv_pos_site_id
 _symmetry_equiv_pos_as_xyz
  1  'x, y, z'
loop_
 _atom_site_type_symbol
 _atom_site_label
 _atom_site_symmetry_multiplicity
 _atom_site_fract_x
 _atom_site_fract_y
 _atom_site_fract_z
 _atom_site_occupancy
  Rb  Rb0  1  0.75000000  0.75000000  0.75000000  1
  Rb  Rb1  1  0.25000000  0.25000000  0.25000000  1
  Rb  Rb2  1  0.87359600  0.25000000  0.62640400  1
  Rb  Rb3  1  0.62640400  0.87359600  0.25000000  1
  Rb  Rb4  1  0.25000000  0.62640400  0.87359600  1
  Rb  Rb5  1  0.12640400  0.75000000  0.37359600  1
  Rb  Rb6  1  0.37359600  0.12640400  0.75000000  1
  Rb  Rb7  1  0.75000000  0.37359600  0.12640400  1
  Cd  Cd8  1  0.50000000  0.50000000  0.50000000  1
  Cd  Cd9  1  0.00000000  0.00000000  0.00000000  1
  Cl  Cl10  1  0.28505300  0.94230800  0.06859400  1
  Cl  Cl11  1  0.06859400  0.28505300  0.94230800  1
  Cl  Cl12  1  0.94230800  0.06859400  0.28505300  1
  Cl  Cl13  1  0.21494700  0.43140600  0.55769200  1
  Cl  Cl14  1  0.55769200  0.21494700  0.43140600  1
  Cl  Cl15  1  0.43140600  0.55769200  0.21494700  1
  Cl  Cl16  1  0.71494700  0.05769200  0.93140600  1
  Cl  Cl17  1  0.93140600  0.71494700  0.05769200  1
  Cl  Cl18  1  0.05769200  0.93140600  0.71494700  1
  Cl  Cl19  1  0.78505300  0.56859400  0.44230800  1
  Cl  Cl20  1  0.56859400  0.44230800  0.78505300  1
  Cl  Cl21  1  0.44230800  0.78505300  0.56859400  1
