# generated using pymatgen
data_Si2Hg6O7
_symmetry_space_group_name_H-M   'P 1'
_cell_length_a   7.17260912
_cell_length_b   7.17260912
_cell_length_c   6.24849348
_cell_angle_alpha   71.71002292
_cell_angle_beta   71.71002292
_cell_angle_gamma   66.90215945
_symmetry_Int_Tables_number   1
_chemical_formula_structural   Si2Hg6O7
_chemical_formula_sum   'Si2 Hg6 O7'
_cell_volume   273.97884175
_cell_formula_units_Z   1
loop_
 _symmetry_equiv_pos_site_id
 _symmetry_equiv_pos_as_xyz
  1  'x, y, z'
loop_
 _atom_site_type_symbol
 _atom_site_label
 _atom_site_symmetry_multiplicity
 _atom_site_fract_x
 _atom_site_fract_y
 _atom_site_fract_z
 _atom_site_occupancy
  Si  Si0  1  0.64733000  0.64733000  0.89453200  1
  Si  Si1  1  0.35267000  0.35267000  0.10546800  1
  Hg  Hg2  1  0.12366700  0.64222300  0.58194900  1
  Hg  Hg3  1  0.35777700  0.87633300  0.41805100  1
  Hg  Hg4  1  0.87633300  0.35777700  0.41805100  1
  Hg  Hg5  1  0.64222300  0.12366700  0.58194900  1
  Hg  Hg6  1  0.11490400  0.11490400  0.95813200  1
  Hg  Hg7  1  0.88509600  0.88509600  0.04186800  1
  O  O8  1  0.50000000  0.50000000  0.00000000  1
  O  O9  1  0.86544700  0.51907400  0.73740400  1
  O  O10  1  0.48092600  0.13455300  0.26259600  1
  O  O11  1  0.13455300  0.48092600  0.26259600  1
  O  O12  1  0.51907400  0.86544700  0.73740400  1
  O  O13  1  0.30629500  0.30629500  0.88530200  1
  O  O14  1  0.69370500  0.69370500  0.11469800  1
