# generated using pymatgen
data_Na6Fe2C4SO16
_symmetry_space_group_name_H-M   'P 1'
_cell_length_a   9.98268181
_cell_length_b   9.98268181
_cell_length_c   9.98268181
_cell_angle_alpha   60.00000000
_cell_angle_beta   60.00000000
_cell_angle_gamma   60.00000000
_symmetry_Int_Tables_number   1
_chemical_formula_structural   Na6Fe2C4SO16
_chemical_formula_sum   'Na12 Fe4 C8 S2 O32'
_cell_volume   703.43939621
_cell_formula_units_Z   2
loop_
 _symmetry_equiv_pos_site_id
 _symmetry_equiv_pos_as_xyz
  1  'x, y, z'
loop_
 _atom_site_type_symbol
 _atom_site_label
 _atom_site_symmetry_multiplicity
 _atom_site_fract_x
 _atom_site_fract_y
 _atom_site_fract_z
 _atom_site_occupancy
  Na  Na0  1  0.03365300  0.03365300  0.46634700  1
  Na  Na1  1  0.46634700  0.03365300  0.46634700  1
  Na  Na2  1  0.46634700  0.03365300  0.03365300  1
  Na  Na3  1  0.03365300  0.46634700  0.46634700  1
  Na  Na4  1  0.03365300  0.46634700  0.03365300  1
  Na  Na5  1  0.46634700  0.46634700  0.03365300  1
  Na  Na6  1  0.78365300  0.78365300  0.21634700  1
  Na  Na7  1  0.78365300  0.21634700  0.78365300  1
  Na  Na8  1  0.78365300  0.21634700  0.21634700  1
  Na  Na9  1  0.21634700  0.21634700  0.78365300  1
  Na  Na10  1  0.21634700  0.78365300  0.21634700  1
  Na  Na11  1  0.21634700  0.78365300  0.78365300  1
  Fe  Fe12  1  0.62500000  0.62500000  0.62500000  1
  Fe  Fe13  1  0.62500000  0.62500000  0.12500000  1
  Fe  Fe14  1  0.12500000  0.62500000  0.62500000  1
  Fe  Fe15  1  0.62500000  0.12500000  0.62500000  1
  C  C16  1  0.84444700  0.84444700  0.46666000  1
  C  C17  1  0.40555300  0.40555300  0.78334000  1
  C  C18  1  0.40555300  0.40555300  0.40555300  1
  C  C19  1  0.78334000  0.40555300  0.40555300  1
  C  C20  1  0.40555300  0.78334000  0.40555300  1
  C  C21  1  0.84444700  0.84444700  0.84444700  1
  C  C22  1  0.46666000  0.84444700  0.84444700  1
  C  C23  1  0.84444700  0.46666000  0.84444700  1
  S  S24  1  0.00000000  0.00000000  0.00000000  1
  S  S25  1  0.25000000  0.25000000  0.25000000  1
  O  O26  1  0.78570800  0.42930600  0.26401200  1
  O  O27  1  0.42930600  0.78570800  0.52097400  1
  O  O28  1  0.26401200  0.78570800  0.42930600  1
  O  O29  1  0.52097400  0.78570800  0.26401200  1
  O  O30  1  0.82069400  0.98598800  0.46429200  1
  O  O31  1  0.46429200  0.72902600  0.82069400  1
  O  O32  1  0.98598800  0.82069400  0.72902600  1
  O  O33  1  0.72902600  0.98598800  0.82069400  1
  O  O34  1  0.42930600  0.52097400  0.26401200  1
  O  O35  1  0.78570800  0.26401200  0.52097400  1
  O  O36  1  0.26401200  0.52097400  0.78570800  1
  O  O37  1  0.81622600  0.06125800  0.06125800  1
  O  O38  1  0.52097400  0.42930600  0.78570800  1
  O  O39  1  0.78570800  0.52097400  0.42930600  1
  O  O40  1  0.42930600  0.26401200  0.78570800  1
  O  O41  1  0.52097400  0.26401200  0.42930600  1
  O  O42  1  0.18874200  0.43377400  0.18874200  1
  O  O43  1  0.43377400  0.18874200  0.18874200  1
  O  O44  1  0.72902600  0.82069400  0.46429200  1
  O  O45  1  0.18874200  0.18874200  0.43377400  1
  O  O46  1  0.06125800  0.81622600  0.06125800  1
  O  O47  1  0.18874200  0.18874200  0.18874200  1
  O  O48  1  0.06125800  0.06125800  0.06125800  1
  O  O49  1  0.06125800  0.06125800  0.81622600  1
  O  O50  1  0.72902600  0.46429200  0.98598800  1
  O  O51  1  0.98598800  0.46429200  0.82069400  1
  O  O52  1  0.82069400  0.46429200  0.72902600  1
  O  O53  1  0.46429200  0.82069400  0.98598800  1
  O  O54  1  0.82069400  0.72902600  0.98598800  1
  O  O55  1  0.46429200  0.98598800  0.72902600  1
  O  O56  1  0.98598800  0.72902600  0.46429200  1
  O  O57  1  0.26401200  0.42930600  0.52097400  1
