# generated using pymatgen
data_K4I2O9
_symmetry_space_group_name_H-M   'P 1'
_cell_length_a   6.29357490
_cell_length_b   6.29357490
_cell_length_c   15.71482200
_cell_angle_alpha   90.00000000
_cell_angle_beta   90.00000000
_cell_angle_gamma   120.00000943
_symmetry_Int_Tables_number   1
_chemical_formula_structural   K4I2O9
_chemical_formula_sum   'K8 I4 O18'
_cell_volume   539.05721894
_cell_formula_units_Z   2
loop_
 _symmetry_equiv_pos_site_id
 _symmetry_equiv_pos_as_xyz
  1  'x, y, z'
loop_
 _atom_site_type_symbol
 _atom_site_label
 _atom_site_symmetry_multiplicity
 _atom_site_fract_x
 _atom_site_fract_y
 _atom_site_fract_z
 _atom_site_occupancy
  K  K0  1  0.00000000  0.00000000  0.00000000  1
  K  K1  1  0.00000000  0.00000000  0.50000000  1
  K  K2  1  0.00000000  0.00000000  0.25000000  1
  K  K3  1  0.00000000  0.00000000  0.75000000  1
  K  K4  1  0.33333300  0.66666700  0.40886200  1
  K  K5  1  0.66666700  0.33333300  0.90886200  1
  K  K6  1  0.66666700  0.33333300  0.59113800  1
  K  K7  1  0.33333300  0.66666700  0.09113800  1
  I  I8  1  0.33333300  0.66666700  0.65749600  1
  I  I9  1  0.66666700  0.33333300  0.15749600  1
  I  I10  1  0.66666700  0.33333300  0.34250400  1
  I  I11  1  0.33333300  0.66666700  0.84250400  1
  O  O12  1  0.18633000  0.81367000  0.89827300  1
  O  O13  1  0.18633000  0.37266000  0.89827300  1
  O  O14  1  0.62734000  0.81367000  0.89827300  1
  O  O15  1  0.37266000  0.18633000  0.39827300  1
  O  O16  1  0.81367000  0.62734000  0.10172700  1
  O  O17  1  0.81367000  0.18633000  0.39827300  1
  O  O18  1  0.81367000  0.62734000  0.39827300  1
  O  O19  1  0.18633000  0.81367000  0.60172700  1
  O  O20  1  0.62734000  0.81367000  0.60172700  1
  O  O21  1  0.37266000  0.18633000  0.10172700  1
  O  O22  1  0.81367000  0.18633000  0.10172700  1
  O  O23  1  0.18633000  0.37266000  0.60172700  1
  O  O24  1  0.53366600  0.06733100  0.25000000  1
  O  O25  1  0.46633400  0.53366600  0.75000000  1
  O  O26  1  0.06733100  0.53366600  0.75000000  1
  O  O27  1  0.93266900  0.46633400  0.25000000  1
  O  O28  1  0.53366600  0.46633400  0.25000000  1
  O  O29  1  0.46633400  0.93266900  0.75000000  1
