# generated using pymatgen
data_OsBr4
_symmetry_space_group_name_H-M   'P 1'
_cell_length_a   6.43324700
_cell_length_b   13.14401200
_cell_length_c   15.46428900
_cell_angle_alpha   90.00000000
_cell_angle_beta   90.00000000
_cell_angle_gamma   90.00000000
_symmetry_Int_Tables_number   1
_chemical_formula_structural   OsBr4
_chemical_formula_sum   'Os8 Br32'
_cell_volume   1307.63979952
_cell_formula_units_Z   8
loop_
 _symmetry_equiv_pos_site_id
 _symmetry_equiv_pos_as_xyz
  1  'x, y, z'
loop_
 _atom_site_type_symbol
 _atom_site_label
 _atom_site_symmetry_multiplicity
 _atom_site_fract_x
 _atom_site_fract_y
 _atom_site_fract_z
 _atom_site_occupancy
  Os  Os0  1  0.59661900  0.87081400  0.81550600  1
  Os  Os1  1  0.90338100  0.37081400  0.81550600  1
  Os  Os2  1  0.90338100  0.12918600  0.31550600  1
  Os  Os3  1  0.40338100  0.37081400  0.68449400  1
  Os  Os4  1  0.40338100  0.12918600  0.18449400  1
  Os  Os5  1  0.59661900  0.62918600  0.31550600  1
  Os  Os6  1  0.09661900  0.62918600  0.18449400  1
  Os  Os7  1  0.09661900  0.87081400  0.68449400  1
  Br  Br8  1  0.23122800  0.47561700  0.80629300  1
  Br  Br9  1  0.75881900  0.01327200  0.42210100  1
  Br  Br10  1  0.24118100  0.98672800  0.57789900  1
  Br  Br11  1  0.95103100  0.75544500  0.57792600  1
  Br  Br12  1  0.92542300  0.73316600  0.30633200  1
  Br  Br13  1  0.92542300  0.76683400  0.80633200  1
  Br  Br14  1  0.25881900  0.48672800  0.57789900  1
  Br  Br15  1  0.54896900  0.25544500  0.57792600  1
  Br  Br16  1  0.04896900  0.24455500  0.42207400  1
  Br  Br17  1  0.75881900  0.48672800  0.92210100  1
  Br  Br18  1  0.24118100  0.51327200  0.07789900  1
  Br  Br19  1  0.73122800  0.02438300  0.19370700  1
  Br  Br20  1  0.42542300  0.73316600  0.19366800  1
  Br  Br21  1  0.76877200  0.97561700  0.69370700  1
  Br  Br22  1  0.45103100  0.74455500  0.42207400  1
  Br  Br23  1  0.95103100  0.74455500  0.07792600  1
  Br  Br24  1  0.57457700  0.23316600  0.30633200  1
  Br  Br25  1  0.26877200  0.97561700  0.80629300  1
  Br  Br26  1  0.76877200  0.52438300  0.19370700  1
  Br  Br27  1  0.57457700  0.26683400  0.80633200  1
  Br  Br28  1  0.23122800  0.02438300  0.30629300  1
  Br  Br29  1  0.26877200  0.52438300  0.30629300  1
  Br  Br30  1  0.54896900  0.24455500  0.07792600  1
  Br  Br31  1  0.74118100  0.98672800  0.92210100  1
  Br  Br32  1  0.04896900  0.25544500  0.92207400  1
  Br  Br33  1  0.73122800  0.47561700  0.69370700  1
  Br  Br34  1  0.74118100  0.51327200  0.42210100  1
  Br  Br35  1  0.25881900  0.01327200  0.07789900  1
  Br  Br36  1  0.42542300  0.76683400  0.69366800  1
  Br  Br37  1  0.07457700  0.23316600  0.19366800  1
  Br  Br38  1  0.45103100  0.75544500  0.92207400  1
  Br  Br39  1  0.07457700  0.26683400  0.69366800  1
