# generated using pymatgen
data_S8O
_symmetry_space_group_name_H-M   'P 1'
_cell_length_a   8.53297500
_cell_length_b   8.72448100
_cell_length_c   14.21235300
_cell_angle_alpha   90.00000000
_cell_angle_beta   90.00000000
_cell_angle_gamma   90.00000000
_symmetry_Int_Tables_number   1
_chemical_formula_structural   S8O
_chemical_formula_sum   'S32 O4'
_cell_volume   1058.04968000
_cell_formula_units_Z   4
loop_
 _symmetry_equiv_pos_site_id
 _symmetry_equiv_pos_as_xyz
  1  'x, y, z'
loop_
 _atom_site_type_symbol
 _atom_site_label
 _atom_site_symmetry_multiplicity
 _atom_site_fract_x
 _atom_site_fract_y
 _atom_site_fract_z
 _atom_site_occupancy
  S  S0  1  0.53258500  0.49205000  0.36193000  1
  S  S1  1  0.46741500  0.99205000  0.63807000  1
  S  S2  1  0.46741500  0.49205000  0.86193000  1
  S  S3  1  0.53258500  0.99205000  0.13807000  1
  S  S4  1  0.49032600  0.35505000  0.47196400  1
  S  S5  1  0.50967400  0.85505000  0.52803600  1
  S  S6  1  0.50967400  0.35505000  0.97196400  1
  S  S7  1  0.49032600  0.85505000  0.02803600  1
  S  S8  1  0.64004500  0.41153200  0.58337900  1
  S  S9  1  0.35995500  0.91153200  0.41662100  1
  S  S10  1  0.35995500  0.41153200  0.08337900  1
  S  S11  1  0.64004500  0.91153200  0.91662100  1
  S  S12  1  0.82100100  0.25608900  0.58512600  1
  S  S13  1  0.17899900  0.75608900  0.41487400  1
  S  S14  1  0.17899900  0.25608900  0.08512600  1
  S  S15  1  0.82100100  0.75608900  0.91487400  1
  S  S16  1  0.01442000  0.35347800  0.52370200  1
  S  S17  1  0.98558000  0.85347800  0.47629800  1
  S  S18  1  0.98558000  0.35347800  0.02370200  1
  S  S19  1  0.01442000  0.85347800  0.97629800  1
  S  S20  1  0.02675700  0.28389800  0.38286300  1
  S  S21  1  0.97324300  0.78389800  0.61713700  1
  S  S22  1  0.97324300  0.28389800  0.88286300  1
  S  S23  1  0.02675700  0.78389800  0.11713700  1
  S  S24  1  0.93199900  0.44542100  0.30066900  1
  S  S25  1  0.06800100  0.94542100  0.69933100  1
  S  S26  1  0.06800100  0.44542100  0.80066900  1
  S  S27  1  0.93199900  0.94542100  0.19933100  1
  S  S28  1  0.69116100  0.85042800  0.23051400  1
  S  S29  1  0.30883900  0.35042800  0.76948600  1
  S  S30  1  0.30883900  0.85042800  0.73051400  1
  S  S31  1  0.69116100  0.35042800  0.26948600  1
  O  O32  1  0.68954800  0.69325300  0.19060800  1
  O  O33  1  0.31045200  0.19325300  0.80939200  1
  O  O34  1  0.31045200  0.69325300  0.69060800  1
  O  O35  1  0.68954800  0.19325300  0.30939200  1
