# generated using pymatgen
data_TlAuCl4
_symmetry_space_group_name_H-M   'P 1'
_cell_length_a   6.92908302
_cell_length_b   6.92908302
_cell_length_c   10.22052062
_cell_angle_alpha   79.76688926
_cell_angle_beta   79.76688926
_cell_angle_gamma   50.75545937
_symmetry_Int_Tables_number   1
_chemical_formula_structural   TlAuCl4
_chemical_formula_sum   'Tl2 Au2 Cl8'
_cell_volume   372.61259457
_cell_formula_units_Z   2
loop_
 _symmetry_equiv_pos_site_id
 _symmetry_equiv_pos_as_xyz
  1  'x, y, z'
loop_
 _atom_site_type_symbol
 _atom_site_label
 _atom_site_symmetry_multiplicity
 _atom_site_fract_x
 _atom_site_fract_y
 _atom_site_fract_z
 _atom_site_occupancy
  Tl  Tl0  1  0.22703100  0.77296900  0.75000000  1
  Tl  Tl1  1  0.77296900  0.22703100  0.25000000  1
  Au  Au2  1  0.50000000  0.00000000  0.00000000  1
  Au  Au3  1  0.00000000  0.50000000  0.50000000  1
  Cl  Cl4  1  0.19418800  0.27221000  0.85190100  1
  Cl  Cl5  1  0.72779000  0.80581200  0.64809900  1
  Cl  Cl6  1  0.80581200  0.72779000  0.14809900  1
  Cl  Cl7  1  0.27221000  0.19418800  0.35190100  1
  Cl  Cl8  1  0.19737500  0.67836700  0.43209300  1
  Cl  Cl9  1  0.32163300  0.80262500  0.06790700  1
  Cl  Cl10  1  0.80262500  0.32163300  0.56790700  1
  Cl  Cl11  1  0.67836700  0.19737500  0.93209300  1
