# generated using pymatgen
data_Li2Fe2(MoO4)3
_symmetry_space_group_name_H-M   'P 1'
_cell_length_a   9.48097600
_cell_length_b   9.66914100
_cell_length_c   13.21034800
_cell_angle_alpha   90.00000000
_cell_angle_beta   90.00000000
_cell_angle_gamma   90.00000000
_symmetry_Int_Tables_number   1
_chemical_formula_structural   Li2Fe2(MoO4)3
_chemical_formula_sum   'Li8 Fe8 Mo12 O48'
_cell_volume   1211.03082876
_cell_formula_units_Z   4
loop_
 _symmetry_equiv_pos_site_id
 _symmetry_equiv_pos_as_xyz
  1  'x, y, z'
loop_
 _atom_site_type_symbol
 _atom_site_label
 _atom_site_symmetry_multiplicity
 _atom_site_fract_x
 _atom_site_fract_y
 _atom_site_fract_z
 _atom_site_occupancy
  Li  Li0  1  0.23371600  0.27728000  0.81013200  1
  Li  Li1  1  0.73371600  0.22272000  0.68986800  1
  Li  Li2  1  0.26628400  0.27728000  0.18986800  1
  Li  Li3  1  0.76628400  0.22272000  0.31013200  1
  Li  Li4  1  0.76628400  0.72272000  0.18986800  1
  Li  Li5  1  0.26628400  0.77728000  0.31013200  1
  Li  Li6  1  0.73371600  0.72272000  0.81013200  1
  Li  Li7  1  0.23371600  0.77728000  0.68986800  1
  Fe  Fe8  1  0.03483700  0.25383800  0.62195200  1
  Fe  Fe9  1  0.53483700  0.24616200  0.87804800  1
  Fe  Fe10  1  0.46516300  0.25383800  0.37804800  1
  Fe  Fe11  1  0.96516300  0.24616200  0.12195200  1
  Fe  Fe12  1  0.96516300  0.74616200  0.37804800  1
  Fe  Fe13  1  0.46516300  0.75383800  0.12195200  1
  Fe  Fe14  1  0.53483700  0.74616200  0.62195200  1
  Fe  Fe15  1  0.03483700  0.75383800  0.87804800  1
  Mo  Mo16  1  0.39759600  0.09719100  0.64301300  1
  Mo  Mo17  1  0.89759600  0.40280900  0.85698700  1
  Mo  Mo18  1  0.10240400  0.09719100  0.35698700  1
  Mo  Mo19  1  0.60240400  0.40280900  0.14301300  1
  Mo  Mo20  1  0.60240400  0.90280900  0.35698700  1
  Mo  Mo21  1  0.10240400  0.59719100  0.14301300  1
  Mo  Mo22  1  0.89759600  0.90280900  0.64301300  1
  Mo  Mo23  1  0.39759600  0.59719100  0.85698700  1
  Mo  Mo24  1  0.25000000  0.03700600  0.00000000  1
  Mo  Mo25  1  0.75000000  0.46299400  0.50000000  1
  Mo  Mo26  1  0.75000000  0.96299400  0.00000000  1
  Mo  Mo27  1  0.25000000  0.53700600  0.50000000  1
  O  O28  1  0.23090000  0.17096700  0.67984500  1
  O  O29  1  0.73090000  0.32903300  0.82015500  1
  O  O30  1  0.26910000  0.17096700  0.32015500  1
  O  O31  1  0.76910000  0.32903300  0.17984500  1
  O  O32  1  0.76910000  0.82903300  0.32015500  1
  O  O33  1  0.26910000  0.67096700  0.17984500  1
  O  O34  1  0.73090000  0.82903300  0.67984500  1
  O  O35  1  0.23090000  0.67096700  0.82015500  1
  O  O36  1  0.43209000  0.14107300  0.51540300  1
  O  O37  1  0.93209000  0.35892700  0.98459700  1
  O  O38  1  0.06791000  0.14107300  0.48459700  1
  O  O39  1  0.56791000  0.35892700  0.01540300  1
  O  O40  1  0.56791000  0.85892700  0.48459700  1
  O  O41  1  0.06791000  0.64107300  0.01540300  1
  O  O42  1  0.93209000  0.85892700  0.51540300  1
  O  O43  1  0.43209000  0.64107300  0.98459700  1
  O  O44  1  0.12454900  0.43111200  0.56375100  1
  O  O45  1  0.62454900  0.06888800  0.93624900  1
  O  O46  1  0.37545100  0.43111200  0.43624900  1
  O  O47  1  0.87545100  0.06888800  0.06375100  1
  O  O48  1  0.87545100  0.56888800  0.43624900  1
  O  O49  1  0.37545100  0.93111200  0.06375100  1
  O  O50  1  0.62454900  0.56888800  0.56375100  1
  O  O51  1  0.12454900  0.93111200  0.93624900  1
  O  O52  1  0.53554100  0.17134700  0.71995900  1
  O  O53  1  0.03554100  0.32865300  0.78004100  1
  O  O54  1  0.96445900  0.17134700  0.28004100  1
  O  O55  1  0.46445900  0.32865300  0.21995900  1
  O  O56  1  0.46445900  0.82865300  0.28004100  1
  O  O57  1  0.96445900  0.67134700  0.21995900  1
  O  O58  1  0.03554100  0.82865300  0.71995900  1
  O  O59  1  0.53554100  0.67134700  0.78004100  1
  O  O60  1  0.33281900  0.14770700  0.90682700  1
  O  O61  1  0.83281900  0.35229300  0.59317300  1
  O  O62  1  0.16718100  0.14770700  0.09317300  1
  O  O63  1  0.66718100  0.35229300  0.40682700  1
  O  O64  1  0.66718100  0.85229300  0.09317300  1
  O  O65  1  0.16718100  0.64770700  0.40682700  1
  O  O66  1  0.83281900  0.85229300  0.90682700  1
  O  O67  1  0.33281900  0.64770700  0.59317300  1
  O  O68  1  0.39258700  0.41093500  0.83840500  1
  O  O69  1  0.89258700  0.08906500  0.66159500  1
  O  O70  1  0.10741300  0.41093500  0.16159500  1
  O  O71  1  0.60741300  0.08906500  0.33840500  1
  O  O72  1  0.60741300  0.58906500  0.16159500  1
  O  O73  1  0.10741300  0.91093500  0.33840500  1
  O  O74  1  0.89258700  0.58906500  0.83840500  1
  O  O75  1  0.39258700  0.91093500  0.66159500  1
