# generated using pymatgen
data_Na2O2
_symmetry_space_group_name_H-M   'P 1'
_cell_length_a   6.27944398
_cell_length_b   6.27944398
_cell_length_c   4.50693700
_cell_angle_alpha   90.00000000
_cell_angle_beta   90.00000000
_cell_angle_gamma   119.99999977
_symmetry_Int_Tables_number   1
_chemical_formula_structural   Na2O2
_chemical_formula_sum   'Na6 O6'
_cell_volume   153.90562771
_cell_formula_units_Z   3
loop_
 _symmetry_equiv_pos_site_id
 _symmetry_equiv_pos_as_xyz
  1  'x, y, z'
loop_
 _atom_site_type_symbol
 _atom_site_label
 _atom_site_symmetry_multiplicity
 _atom_site_fract_x
 _atom_site_fract_y
 _atom_site_fract_z
 _atom_site_occupancy
  Na  Na0  1  0.00000000  0.69980100  0.50000000  1
  Na  Na1  1  0.30019900  0.30019900  0.50000000  1
  Na  Na2  1  0.69980100  0.00000000  0.50000000  1
  Na  Na3  1  0.00000000  0.36555600  0.00000000  1
  Na  Na4  1  0.63444400  0.63444400  0.00000000  1
  Na  Na5  1  0.36555600  0.00000000  0.00000000  1
  O  O6  1  0.66666700  0.33333300  0.32758600  1
  O  O7  1  0.66666700  0.33333300  0.67241400  1
  O  O8  1  0.33333300  0.66666700  0.67241400  1
  O  O9  1  0.33333300  0.66666700  0.32758600  1
  O  O10  1  0.00000000  0.00000000  0.82945600  1
  O  O11  1  0.00000000  0.00000000  0.17054400  1
