# generated using pymatgen
data_Rb2Hg3Te4
_symmetry_space_group_name_H-M   'P 1'
_cell_length_a   7.41156800
_cell_length_b   12.61855500
_cell_length_c   14.90287800
_cell_angle_alpha   90.00000000
_cell_angle_beta   90.00000000
_cell_angle_gamma   90.00000000
_symmetry_Int_Tables_number   1
_chemical_formula_structural   Rb2Hg3Te4
_chemical_formula_sum   'Rb8 Hg12 Te16'
_cell_volume   1393.76600881
_cell_formula_units_Z   4
loop_
 _symmetry_equiv_pos_site_id
 _symmetry_equiv_pos_as_xyz
  1  'x, y, z'
loop_
 _atom_site_type_symbol
 _atom_site_label
 _atom_site_symmetry_multiplicity
 _atom_site_fract_x
 _atom_site_fract_y
 _atom_site_fract_z
 _atom_site_occupancy
  Rb  Rb0  1  0.83535900  0.63541900  0.95832800  1
  Rb  Rb1  1  0.83535900  0.36458100  0.54167200  1
  Rb  Rb2  1  0.66464100  0.13541900  0.04167200  1
  Rb  Rb3  1  0.66464100  0.86458100  0.45832800  1
  Rb  Rb4  1  0.16464100  0.36458100  0.04167200  1
  Rb  Rb5  1  0.16464100  0.63541900  0.45832800  1
  Rb  Rb6  1  0.33535900  0.86458100  0.95832800  1
  Rb  Rb7  1  0.33535900  0.13541900  0.54167200  1
  Hg  Hg8  1  0.10103000  0.00000000  0.75000000  1
  Hg  Hg9  1  0.39897000  0.50000000  0.25000000  1
  Hg  Hg10  1  0.89897000  0.00000000  0.25000000  1
  Hg  Hg11  1  0.60103000  0.50000000  0.75000000  1
  Hg  Hg12  1  0.16044200  0.65893100  0.74574500  1
  Hg  Hg13  1  0.16044200  0.34106900  0.75425500  1
  Hg  Hg14  1  0.33955800  0.15893100  0.25425500  1
  Hg  Hg15  1  0.33955800  0.84106900  0.24574500  1
  Hg  Hg16  1  0.83955800  0.34106900  0.25425500  1
  Hg  Hg17  1  0.83955800  0.65893100  0.24574500  1
  Hg  Hg18  1  0.66044200  0.84106900  0.74574500  1
  Hg  Hg19  1  0.66044200  0.15893100  0.75425500  1
  Te  Te20  1  0.35505700  0.57838900  0.88775700  1
  Te  Te21  1  0.35505700  0.42161100  0.61224300  1
  Te  Te22  1  0.14494300  0.07838900  0.11224300  1
  Te  Te23  1  0.14494300  0.92161100  0.38775700  1
  Te  Te24  1  0.83041200  0.34641300  0.84188800  1
  Te  Te25  1  0.83041200  0.65358700  0.65811200  1
  Te  Te26  1  0.66958800  0.84641300  0.15811200  1
  Te  Te27  1  0.66958800  0.15358700  0.34188800  1
  Te  Te28  1  0.16958800  0.65358700  0.15811200  1
  Te  Te29  1  0.16958800  0.34641300  0.34188800  1
  Te  Te30  1  0.33041200  0.15358700  0.84188800  1
  Te  Te31  1  0.33041200  0.84641300  0.65811200  1
  Te  Te32  1  0.85505700  0.07838900  0.61224300  1
  Te  Te33  1  0.85505700  0.92161100  0.88775700  1
  Te  Te34  1  0.64494300  0.57838900  0.38775700  1
  Te  Te35  1  0.64494300  0.42161100  0.11224300  1
