# generated using pymatgen
data_MoBr2
_symmetry_space_group_name_H-M   'P 1'
_cell_length_a   10.03231544
_cell_length_b   10.03231544
_cell_length_c   12.10007500
_cell_angle_alpha   90.00000000
_cell_angle_beta   90.00000000
_cell_angle_gamma   105.86178003
_symmetry_Int_Tables_number   1
_chemical_formula_structural   MoBr2
_chemical_formula_sum   'Mo12 Br24'
_cell_volume   1171.46983519
_cell_formula_units_Z   12
loop_
 _symmetry_equiv_pos_site_id
 _symmetry_equiv_pos_as_xyz
  1  'x, y, z'
loop_
 _atom_site_type_symbol
 _atom_site_label
 _atom_site_symmetry_multiplicity
 _atom_site_fract_x
 _atom_site_fract_y
 _atom_site_fract_z
 _atom_site_occupancy
  Mo  Mo0  1  0.06930100  0.06930100  0.86150300  1
  Mo  Mo1  1  0.43069900  0.43069900  0.36150300  1
  Mo  Mo2  1  0.56930100  0.56930100  0.63849700  1
  Mo  Mo3  1  0.93069900  0.93069900  0.13849700  1
  Mo  Mo4  1  0.86144000  0.86144000  0.93082600  1
  Mo  Mo5  1  0.63856000  0.63856000  0.43082600  1
  Mo  Mo6  1  0.36144000  0.36144000  0.56917400  1
  Mo  Mo7  1  0.13856000  0.13856000  0.06917400  1
  Mo  Mo8  1  0.38247300  0.61752700  0.50000000  1
  Mo  Mo9  1  0.11752700  0.88247300  0.00000000  1
  Mo  Mo10  1  0.61752700  0.38247300  0.50000000  1
  Mo  Mo11  1  0.88247300  0.11752700  0.00000000  1
  Br  Br12  1  0.65523400  0.65523400  0.84483700  1
  Br  Br13  1  0.84476600  0.84476600  0.34483700  1
  Br  Br14  1  0.15523400  0.15523400  0.65516300  1
  Br  Br15  1  0.34476600  0.34476600  0.15516300  1
  Br  Br16  1  0.22152000  0.77848000  0.50000000  1
  Br  Br17  1  0.27848000  0.72152000  0.00000000  1
  Br  Br18  1  0.77848000  0.22152000  0.50000000  1
  Br  Br19  1  0.72152000  0.27848000  0.00000000  1
  Br  Br20  1  0.32184700  0.09060900  0.93077000  1
  Br  Br21  1  0.17815300  0.40939100  0.43077000  1
  Br  Br22  1  0.59060900  0.82184700  0.56923000  1
  Br  Br23  1  0.90939100  0.67815300  0.06923000  1
  Br  Br24  1  0.95373800  0.18473500  0.20613800  1
  Br  Br25  1  0.54626200  0.31526600  0.70613800  1
  Br  Br26  1  0.68473500  0.45373800  0.29386200  1
  Br  Br27  1  0.81526600  0.04626200  0.79386200  1
  Br  Br28  1  0.04626200  0.81526600  0.79386200  1
  Br  Br29  1  0.45373800  0.68473400  0.29386200  1
  Br  Br30  1  0.31526600  0.54626200  0.70613800  1
  Br  Br31  1  0.18473400  0.95373800  0.20613800  1
  Br  Br32  1  0.09060900  0.32184700  0.93077000  1
  Br  Br33  1  0.40939100  0.17815300  0.43077000  1
  Br  Br34  1  0.82184700  0.59060900  0.56923000  1
  Br  Br35  1  0.67815300  0.90939100  0.06923000  1
