# generated using pymatgen
data_Yb(Ga4Co)2
_symmetry_space_group_name_H-M   'P 1'
_cell_length_a   3.99019900
_cell_length_b   12.37962300
_cell_length_c   14.38010400
_cell_angle_alpha   90.00000000
_cell_angle_beta   90.00000000
_cell_angle_gamma   90.00000000
_symmetry_Int_Tables_number   1
_chemical_formula_structural   Yb(Ga4Co)2
_chemical_formula_sum   'Yb4 Ga32 Co8'
_cell_volume   710.33628825
_cell_formula_units_Z   4
loop_
 _symmetry_equiv_pos_site_id
 _symmetry_equiv_pos_as_xyz
  1  'x, y, z'
loop_
 _atom_site_type_symbol
 _atom_site_label
 _atom_site_symmetry_multiplicity
 _atom_site_fract_x
 _atom_site_fract_y
 _atom_site_fract_z
 _atom_site_occupancy
  Yb  Yb0  1  0.00000000  0.15671600  0.81929700  1
  Yb  Yb1  1  0.00000000  0.84328400  0.18070300  1
  Yb  Yb2  1  0.00000000  0.65671600  0.68070300  1
  Yb  Yb3  1  0.00000000  0.34328400  0.31929700  1
  Ga  Ga4  1  0.00000000  0.50000000  0.50000000  1
  Ga  Ga5  1  0.50000000  0.00000000  0.50000000  1
  Ga  Ga6  1  0.50000000  0.50000000  0.00000000  1
  Ga  Ga7  1  0.00000000  0.00000000  0.00000000  1
  Ga  Ga8  1  0.50000000  0.33105100  0.48915900  1
  Ga  Ga9  1  0.50000000  0.66894900  0.51084100  1
  Ga  Ga10  1  0.50000000  0.83105100  0.01084100  1
  Ga  Ga11  1  0.50000000  0.16894900  0.98915900  1
  Ga  Ga12  1  0.50000000  0.02056300  0.13388200  1
  Ga  Ga13  1  0.50000000  0.97943700  0.86611800  1
  Ga  Ga14  1  0.50000000  0.52056300  0.36611800  1
  Ga  Ga15  1  0.50000000  0.47943700  0.63388200  1
  Ga  Ga16  1  0.50000000  0.23908000  0.17737200  1
  Ga  Ga17  1  0.50000000  0.76092000  0.82262800  1
  Ga  Ga18  1  0.50000000  0.73908000  0.32262800  1
  Ga  Ga19  1  0.50000000  0.26092000  0.67737200  1
  Ga  Ga20  1  0.50000000  0.44932800  0.18366700  1
  Ga  Ga21  1  0.50000000  0.55067200  0.81633300  1
  Ga  Ga22  1  0.50000000  0.94932800  0.31633300  1
  Ga  Ga23  1  0.50000000  0.05067200  0.68366700  1
  Ga  Ga24  1  0.50000000  0.16672700  0.37793100  1
  Ga  Ga25  1  0.50000000  0.83327300  0.62206900  1
  Ga  Ga26  1  0.50000000  0.66672700  0.12206900  1
  Ga  Ga27  1  0.50000000  0.33327300  0.87793100  1
  Ga  Ga28  1  0.00000000  0.33813700  0.04512000  1
  Ga  Ga29  1  0.00000000  0.66186300  0.95488000  1
  Ga  Ga30  1  0.00000000  0.83813700  0.45488000  1
  Ga  Ga31  1  0.00000000  0.16186300  0.54512000  1
  Ga  Ga32  1  0.00000000  0.09977800  0.25486600  1
  Ga  Ga33  1  0.00000000  0.90022200  0.74513400  1
  Ga  Ga34  1  0.00000000  0.59977800  0.24513400  1
  Ga  Ga35  1  0.00000000  0.40022200  0.75486600  1
  Co  Co36  1  0.00000000  0.03400200  0.40643600  1
  Co  Co37  1  0.00000000  0.34807100  0.59748200  1
  Co  Co38  1  0.00000000  0.65192900  0.40251800  1
  Co  Co39  1  0.00000000  0.84807100  0.90251800  1
  Co  Co40  1  0.00000000  0.15192900  0.09748200  1
  Co  Co41  1  0.00000000  0.96599800  0.59356400  1
  Co  Co42  1  0.00000000  0.53400200  0.09356400  1
  Co  Co43  1  0.00000000  0.46599800  0.90643600  1
