# generated using pymatgen
data_GeIr
_symmetry_space_group_name_H-M   'P 1'
_cell_length_a   3.57863700
_cell_length_b   5.62825500
_cell_length_c   6.37845400
_cell_angle_alpha   90.00000000
_cell_angle_beta   90.00000000
_cell_angle_gamma   90.00000000
_symmetry_Int_Tables_number   1
_chemical_formula_structural   GeIr
_chemical_formula_sum   'Ge4 Ir4'
_cell_volume   128.47151380
_cell_formula_units_Z   4
loop_
 _symmetry_equiv_pos_site_id
 _symmetry_equiv_pos_as_xyz
  1  'x, y, z'
loop_
 _atom_site_type_symbol
 _atom_site_label
 _atom_site_symmetry_multiplicity
 _atom_site_fract_x
 _atom_site_fract_y
 _atom_site_fract_z
 _atom_site_occupancy
  Ge  Ge0  1  0.75000000  0.80669600  0.57615800  1
  Ge  Ge1  1  0.25000000  0.19330400  0.42384200  1
  Ge  Ge2  1  0.75000000  0.30669600  0.92384200  1
  Ge  Ge3  1  0.25000000  0.69330400  0.07615800  1
  Ir  Ir4  1  0.75000000  0.99706600  0.20874200  1
  Ir  Ir5  1  0.25000000  0.00293400  0.79125800  1
  Ir  Ir6  1  0.75000000  0.49706600  0.29125800  1
  Ir  Ir7  1  0.25000000  0.50293400  0.70874200  1
