# generated using pymatgen
data_Li2PbO3
_symmetry_space_group_name_H-M   'P 1'
_cell_length_a   5.44770278
_cell_length_b   5.44770278
_cell_length_c   5.53204404
_cell_angle_alpha   79.89345216
_cell_angle_beta   79.89345216
_cell_angle_gamma   119.65860145
_symmetry_Int_Tables_number   1
_chemical_formula_structural   Li2PbO3
_chemical_formula_sum   'Li4 Pb2 O6'
_cell_volume   133.68909991
_cell_formula_units_Z   2
loop_
 _symmetry_equiv_pos_site_id
 _symmetry_equiv_pos_as_xyz
  1  'x, y, z'
loop_
 _atom_site_type_symbol
 _atom_site_label
 _atom_site_symmetry_multiplicity
 _atom_site_fract_x
 _atom_site_fract_y
 _atom_site_fract_z
 _atom_site_occupancy
  Li  Li0  1  0.25380900  0.74619100  0.75000000  1
  Li  Li1  1  0.74619100  0.25380900  0.25000000  1
  Li  Li2  1  0.57984900  0.42015100  0.75000000  1
  Li  Li3  1  0.42015100  0.57984900  0.25000000  1
  Pb  Pb4  1  0.08962300  0.91037700  0.25000000  1
  Pb  Pb5  1  0.91037700  0.08962300  0.75000000  1
  O  O6  1  0.50000000  0.00000000  0.00000000  1
  O  O7  1  0.00000000  0.50000000  0.50000000  1
  O  O8  1  0.16223800  0.32197300  0.99152600  1
  O  O9  1  0.67802700  0.83776200  0.50847400  1
  O  O10  1  0.83776200  0.67802700  0.00847400  1
  O  O11  1  0.32197300  0.16223800  0.49152600  1
