# generated using pymatgen
data_Rb2PuCl5
_symmetry_space_group_name_H-M   'P 1'
_cell_length_a   8.33946900
_cell_length_b   8.90278900
_cell_length_c   13.57398600
_cell_angle_alpha   90.00000000
_cell_angle_beta   90.00000000
_cell_angle_gamma   90.00000000
_symmetry_Int_Tables_number   1
_chemical_formula_structural   Rb2PuCl5
_chemical_formula_sum   'Rb8 Pu4 Cl20'
_cell_volume   1007.79424988
_cell_formula_units_Z   4
loop_
 _symmetry_equiv_pos_site_id
 _symmetry_equiv_pos_as_xyz
  1  'x, y, z'
loop_
 _atom_site_type_symbol
 _atom_site_label
 _atom_site_symmetry_multiplicity
 _atom_site_fract_x
 _atom_site_fract_y
 _atom_site_fract_z
 _atom_site_occupancy
  Rb  Rb0  1  0.45618000  0.50201400  0.67115000  1
  Rb  Rb1  1  0.95618000  0.49798600  0.82885000  1
  Rb  Rb2  1  0.54382000  0.00201300  0.32885000  1
  Rb  Rb3  1  0.04382000  0.99798600  0.17115000  1
  Rb  Rb4  1  0.95618000  0.00201300  0.82885000  1
  Rb  Rb5  1  0.45618000  0.99798600  0.67115000  1
  Rb  Rb6  1  0.04382000  0.50201400  0.17115000  1
  Rb  Rb7  1  0.54382000  0.49798600  0.32885000  1
  Pu  Pu8  1  0.93906700  0.75000000  0.50147700  1
  Pu  Pu9  1  0.43906700  0.25000000  0.99852300  1
  Pu  Pu10  1  0.06093300  0.25000000  0.49852300  1
  Pu  Pu11  1  0.56093300  0.75000000  0.00147700  1
  Cl  Cl12  1  0.34675500  0.96129100  0.92242000  1
  Cl  Cl13  1  0.84675500  0.03870900  0.57758000  1
  Cl  Cl14  1  0.65324500  0.46129100  0.07758000  1
  Cl  Cl15  1  0.15324500  0.53870900  0.42242000  1
  Cl  Cl16  1  0.65324500  0.03870900  0.07758000  1
  Cl  Cl17  1  0.15324500  0.96129100  0.42242000  1
  Cl  Cl18  1  0.34675500  0.53870900  0.92242000  1
  Cl  Cl19  1  0.84675500  0.46129100  0.57758000  1
  Cl  Cl20  1  0.37671000  0.75000000  0.16983800  1
  Cl  Cl21  1  0.87671000  0.25000000  0.33016200  1
  Cl  Cl22  1  0.62329000  0.25000000  0.83016200  1
  Cl  Cl23  1  0.12329000  0.75000000  0.66983800  1
  Cl  Cl24  1  0.89860100  0.75000000  0.01293400  1
  Cl  Cl25  1  0.39860100  0.25000000  0.48706600  1
  Cl  Cl26  1  0.10139900  0.25000000  0.98706600  1
  Cl  Cl27  1  0.60139900  0.75000000  0.51293400  1
  Cl  Cl28  1  0.65925000  0.75000000  0.80762900  1
  Cl  Cl29  1  0.15925000  0.25000000  0.69237100  1
  Cl  Cl30  1  0.34075000  0.25000000  0.19237100  1
  Cl  Cl31  1  0.84075000  0.75000000  0.30762900  1
