# generated using pymatgen
data_LiFeAs
_symmetry_space_group_name_H-M   'P 1'
_cell_length_a   3.79062900
_cell_length_b   3.79062900
_cell_length_c   6.10745100
_cell_angle_alpha   90.00000000
_cell_angle_beta   90.00000000
_cell_angle_gamma   90.00000000
_symmetry_Int_Tables_number   1
_chemical_formula_structural   LiFeAs
_chemical_formula_sum   'Li2 Fe2 As2'
_cell_volume   87.75715855
_cell_formula_units_Z   2
loop_
 _symmetry_equiv_pos_site_id
 _symmetry_equiv_pos_as_xyz
  1  'x, y, z'
loop_
 _atom_site_type_symbol
 _atom_site_label
 _atom_site_symmetry_multiplicity
 _atom_site_fract_x
 _atom_site_fract_y
 _atom_site_fract_z
 _atom_site_occupancy
  Li  Li0  1  0.00000000  0.50000000  0.16896800  1
  Li  Li1  1  0.50000000  0.00000000  0.83103200  1
  Fe  Fe2  1  0.00000000  0.00000000  0.50000000  1
  Fe  Fe3  1  0.50000000  0.50000000  0.50000000  1
  As  As4  1  0.00000000  0.50000000  0.72571400  1
  As  As5  1  0.50000000  0.00000000  0.27428600  1
