# generated using pymatgen
data_Hg2WO4
_symmetry_space_group_name_H-M   'P 1'
_cell_length_a   7.44288544
_cell_length_b   7.44288544
_cell_length_c   5.06804819
_cell_angle_alpha   75.36244985
_cell_angle_beta   75.36244985
_cell_angle_gamma   106.35305872
_symmetry_Int_Tables_number   1
_chemical_formula_structural   Hg2WO4
_chemical_formula_sum   'Hg4 W2 O8'
_cell_volume   244.27853611
_cell_formula_units_Z   2
loop_
 _symmetry_equiv_pos_site_id
 _symmetry_equiv_pos_as_xyz
  1  'x, y, z'
loop_
 _atom_site_type_symbol
 _atom_site_label
 _atom_site_symmetry_multiplicity
 _atom_site_fract_x
 _atom_site_fract_y
 _atom_site_fract_z
 _atom_site_occupancy
  Hg  Hg0  1  0.47175200  0.24284200  0.47595500  1
  Hg  Hg1  1  0.75715800  0.52824800  0.02404500  1
  Hg  Hg2  1  0.52824800  0.75715800  0.52404500  1
  Hg  Hg3  1  0.24284200  0.47175200  0.97595500  1
  W  W4  1  0.09384500  0.90615500  0.25000000  1
  W  W5  1  0.90615500  0.09384500  0.75000000  1
  O  O6  1  0.33314100  0.95229800  0.29696300  1
  O  O7  1  0.04770200  0.66685900  0.20303700  1
  O  O8  1  0.66685900  0.04770200  0.70303700  1
  O  O9  1  0.95229800  0.33314100  0.79696300  1
  O  O10  1  0.18046800  0.08494300  0.84701700  1
  O  O11  1  0.91505700  0.81953200  0.65298300  1
  O  O12  1  0.08494300  0.18046800  0.34701700  1
  O  O13  1  0.81953200  0.91505700  0.15298300  1
