# generated using pymatgen
data_K2In2As3
_symmetry_space_group_name_H-M   'P 1'
_cell_length_a   7.27327800
_cell_length_b   14.63744100
_cell_length_c   16.13991979
_cell_angle_alpha   89.91257909
_cell_angle_beta   90.00000000
_cell_angle_gamma   90.00000000
_symmetry_Int_Tables_number   1
_chemical_formula_structural   K2In2As3
_chemical_formula_sum   'K16 In16 As24'
_cell_volume   1718.28900673
_cell_formula_units_Z   8
loop_
 _symmetry_equiv_pos_site_id
 _symmetry_equiv_pos_as_xyz
  1  'x, y, z'
loop_
 _atom_site_type_symbol
 _atom_site_label
 _atom_site_symmetry_multiplicity
 _atom_site_fract_x
 _atom_site_fract_y
 _atom_site_fract_z
 _atom_site_occupancy
  K  K0  1  0.95825900  0.85670400  0.99291400  1
  K  K1  1  0.45825900  0.14329600  0.50708600  1
  K  K2  1  0.04174100  0.14329600  0.00708600  1
  K  K3  1  0.54174100  0.85670400  0.49291400  1
  K  K4  1  0.56680100  0.34363700  0.02237400  1
  K  K5  1  0.06680100  0.65636300  0.47762600  1
  K  K6  1  0.43319900  0.65636300  0.97762600  1
  K  K7  1  0.93319900  0.34363700  0.52237400  1
  K  K8  1  0.54599200  0.08296300  0.10724300  1
  K  K9  1  0.04599200  0.91703700  0.39275700  1
  K  K10  1  0.45400800  0.91703700  0.89275700  1
  K  K11  1  0.95400800  0.08296300  0.60724300  1
  K  K12  1  0.91705400  0.56282400  0.90762800  1
  K  K13  1  0.41705400  0.43717600  0.59237200  1
  K  K14  1  0.08294600  0.43717600  0.09237200  1
  K  K15  1  0.58294600  0.56282400  0.40762800  1
  In  In16  1  0.75000600  0.41044100  0.25822000  1
  In  In17  1  0.25000600  0.58955900  0.24178000  1
  In  In18  1  0.24999400  0.58955900  0.74178000  1
  In  In19  1  0.74749400  0.18440600  0.32372800  1
  In  In20  1  0.24749400  0.81559400  0.17627200  1
  In  In21  1  0.25250600  0.81559400  0.67627200  1
  In  In22  1  0.75250600  0.18440600  0.82372800  1
  In  In23  1  0.71540800  0.90845700  0.23024500  1
  In  In24  1  0.21540800  0.09154300  0.26975500  1
  In  In25  1  0.28459200  0.09154300  0.76975500  1
  In  In26  1  0.78459200  0.90845700  0.73024500  1
  In  In27  1  0.22987100  0.31751300  0.33209700  1
  In  In28  1  0.72987100  0.68248700  0.16790300  1
  In  In29  1  0.77012900  0.68248700  0.66790300  1
  In  In30  1  0.27012900  0.31751300  0.83209700  1
  In  In31  1  0.74999400  0.41044100  0.75822000  1
  As  As32  1  0.79979400  0.75233800  0.82250000  1
  As  As33  1  0.70020600  0.75233800  0.32250000  1
  As  As34  1  0.20020600  0.24766200  0.17750000  1
  As  As35  1  0.04527600  0.47829000  0.34228400  1
  As  As36  1  0.54527600  0.52171000  0.15771600  1
  As  As37  1  0.95472400  0.52171000  0.65771600  1
  As  As38  1  0.45472400  0.47829000  0.84228400  1
  As  As39  1  0.64506700  0.25339900  0.67248800  1
  As  As40  1  0.14506700  0.74660100  0.82751200  1
  As  As41  1  0.35493300  0.74660100  0.32751200  1
  As  As42  1  0.85493300  0.25339900  0.17248800  1
  As  As43  1  0.57095400  0.33444200  0.39123400  1
  As  As44  1  0.29979400  0.24766200  0.67750000  1
  As  As45  1  0.07095400  0.66555800  0.10876600  1
  As  As46  1  0.42904600  0.66555800  0.60876600  1
  As  As47  1  0.92904600  0.33444200  0.89123400  1
  As  As48  1  0.95771400  0.03036500  0.82843900  1
  As  As49  1  0.45771400  0.96963500  0.67156100  1
  As  As50  1  0.04228600  0.96963500  0.17156100  1
  As  As51  1  0.54228600  0.03036500  0.32843900  1
  As  As52  1  0.43934900  0.16316700  0.90866000  1
  As  As53  1  0.93934900  0.83683300  0.59134000  1
  As  As54  1  0.56065100  0.83683300  0.09134000  1
  As  As55  1  0.06065100  0.16316700  0.40866000  1
