# generated using pymatgen
data_TlPO3
_symmetry_space_group_name_H-M   'P 1'
_cell_length_a   7.79382300
_cell_length_b   7.79382300
_cell_length_c   11.37951800
_cell_angle_alpha   90.00000000
_cell_angle_beta   90.00000000
_cell_angle_gamma   90.00000000
_symmetry_Int_Tables_number   1
_chemical_formula_structural   TlPO3
_chemical_formula_sum   'Tl8 P8 O24'
_cell_volume   691.23376530
_cell_formula_units_Z   8
loop_
 _symmetry_equiv_pos_site_id
 _symmetry_equiv_pos_as_xyz
  1  'x, y, z'
loop_
 _atom_site_type_symbol
 _atom_site_label
 _atom_site_symmetry_multiplicity
 _atom_site_fract_x
 _atom_site_fract_y
 _atom_site_fract_z
 _atom_site_occupancy
  Tl  Tl0  1  0.50000000  0.50000000  0.33332900  1
  Tl  Tl1  1  0.50000000  0.50000000  0.66667100  1
  Tl  Tl2  1  0.00000000  0.00000000  0.16667100  1
  Tl  Tl3  1  0.00000000  0.00000000  0.83332900  1
  Tl  Tl4  1  0.00000000  0.50000000  0.27966800  1
  Tl  Tl5  1  0.50000000  0.00000000  0.72033200  1
  Tl  Tl6  1  0.50000000  0.00000000  0.22033200  1
  Tl  Tl7  1  0.00000000  0.50000000  0.77966800  1
  P  P8  1  0.78318200  0.84689800  0.46798000  1
  P  P9  1  0.21681800  0.15310200  0.46798000  1
  P  P10  1  0.65310200  0.71681800  0.96798000  1
  P  P11  1  0.15310200  0.78318200  0.53202000  1
  P  P12  1  0.84689800  0.21681800  0.53202000  1
  P  P13  1  0.71681800  0.34689800  0.03202000  1
  P  P14  1  0.28318200  0.65310200  0.03202000  1
  P  P15  1  0.34689800  0.28318200  0.96798000  1
  O  O16  1  0.62520200  0.80631200  0.53798000  1
  O  O17  1  0.37479800  0.19368800  0.53798000  1
  O  O18  1  0.69368800  0.87479800  0.03798000  1
  O  O19  1  0.19368800  0.62520200  0.46202000  1
  O  O20  1  0.80631200  0.37479800  0.46202000  1
  O  O21  1  0.87479800  0.30631200  0.96202000  1
  O  O22  1  0.12520200  0.69368800  0.96202000  1
  O  O23  1  0.30631200  0.12520200  0.03798000  1
  O  O24  1  0.80292300  0.77247600  0.34650400  1
  O  O25  1  0.19707700  0.22752400  0.34650400  1
  O  O26  1  0.72752400  0.69707700  0.84650400  1
  O  O27  1  0.22752400  0.80292300  0.65349600  1
  O  O28  1  0.77247600  0.19707700  0.65349600  1
  O  O29  1  0.69707700  0.27247600  0.15349600  1
  O  O30  1  0.30292300  0.72752400  0.15349600  1
  O  O31  1  0.27247600  0.30292300  0.84650400  1
  O  O32  1  0.30292900  0.44620400  0.05179100  1
  O  O33  1  0.44620400  0.69707100  0.94820900  1
  O  O34  1  0.55379600  0.30292900  0.94820900  1
  O  O35  1  0.80292900  0.05379600  0.44820900  1
  O  O36  1  0.19707100  0.94620400  0.44820900  1
  O  O37  1  0.69707100  0.55379600  0.05179100  1
  O  O38  1  0.05379600  0.19707100  0.55179100  1
  O  O39  1  0.94620400  0.80292900  0.55179100  1
