# generated using pymatgen
data_SbSeCl9
_symmetry_space_group_name_H-M   'P 1'
_cell_length_a   11.65873400
_cell_length_b   9.73496600
_cell_length_c   13.54720947
_cell_angle_alpha   76.45339141
_cell_angle_beta   90.00000000
_cell_angle_gamma   90.00000000
_symmetry_Int_Tables_number   1
_chemical_formula_structural   SbSeCl9
_chemical_formula_sum   'Sb4 Se4 Cl36'
_cell_volume   1494.79702881
_cell_formula_units_Z   4
loop_
 _symmetry_equiv_pos_site_id
 _symmetry_equiv_pos_as_xyz
  1  'x, y, z'
loop_
 _atom_site_type_symbol
 _atom_site_label
 _atom_site_symmetry_multiplicity
 _atom_site_fract_x
 _atom_site_fract_y
 _atom_site_fract_z
 _atom_site_occupancy
  Sb  Sb0  1  0.25000000  0.97875000  0.37815300  1
  Sb  Sb1  1  0.75000000  0.02125000  0.62184700  1
  Sb  Sb2  1  0.25000000  0.33445900  0.82874600  1
  Sb  Sb3  1  0.75000000  0.66554100  0.17125400  1
  Se  Se4  1  0.75000000  0.63528300  0.67838100  1
  Se  Se5  1  0.25000000  0.36471700  0.32161900  1
  Se  Se6  1  0.25000000  0.94723900  0.88062100  1
  Se  Se7  1  0.75000000  0.05276100  0.11937900  1
  Cl  Cl8  1  0.60732600  0.52448100  0.62509100  1
  Cl  Cl9  1  0.10732600  0.47551900  0.37490900  1
  Cl  Cl10  1  0.75000000  0.83901200  0.00527500  1
  Cl  Cl11  1  0.25000000  0.16098800  0.99472500  1
  Cl  Cl12  1  0.89400000  0.81998700  0.22393900  1
  Cl  Cl13  1  0.39400000  0.18001300  0.77606100  1
  Cl  Cl14  1  0.10600000  0.18001300  0.77606100  1
  Cl  Cl15  1  0.60600000  0.81998700  0.22393900  1
  Cl  Cl16  1  0.75000000  0.51462800  0.33600900  1
  Cl  Cl17  1  0.25000000  0.48537200  0.66399100  1
  Cl  Cl18  1  0.89845800  0.53863900  0.11190600  1
  Cl  Cl19  1  0.39845800  0.46136100  0.88809400  1
  Cl  Cl20  1  0.10154200  0.46136100  0.88809400  1
  Cl  Cl21  1  0.60154200  0.53863900  0.11190600  1
  Cl  Cl22  1  0.39267400  0.47551900  0.37490900  1
  Cl  Cl23  1  0.89267400  0.52448100  0.62509100  1
  Cl  Cl24  1  0.75000000  0.86455400  0.50180700  1
  Cl  Cl25  1  0.25000000  0.13544600  0.49819300  1
  Cl  Cl26  1  0.60557800  0.85485700  0.71757400  1
  Cl  Cl27  1  0.10557800  0.14514300  0.28242600  1
  Cl  Cl28  1  0.39442200  0.14514300  0.28242600  1
  Cl  Cl29  1  0.89442200  0.85485700  0.71757400  1
  Cl  Cl30  1  0.75000000  0.14550200  0.75264800  1
  Cl  Cl31  1  0.25000000  0.85449800  0.24735200  1
  Cl  Cl32  1  0.60218900  0.15927800  0.52863200  1
  Cl  Cl33  1  0.10218900  0.84072200  0.47136800  1
  Cl  Cl34  1  0.39781100  0.84072200  0.47136800  1
  Cl  Cl35  1  0.89781100  0.15927800  0.52863200  1
  Cl  Cl36  1  0.25000000  0.48111500  0.16148800  1
  Cl  Cl37  1  0.75000000  0.51888500  0.83851200  1
  Cl  Cl38  1  0.75000000  0.16012900  0.24434000  1
  Cl  Cl39  1  0.25000000  0.83987100  0.75566000  1
  Cl  Cl40  1  0.89270200  0.16705200  0.03093200  1
  Cl  Cl41  1  0.39270200  0.83294800  0.96906800  1
  Cl  Cl42  1  0.10729800  0.83294800  0.96906800  1
  Cl  Cl43  1  0.60729800  0.16705200  0.03093200  1
