# generated using pymatgen
data_DyGeIr
_symmetry_space_group_name_H-M   'P 1'
_cell_length_a   4.33114000
_cell_length_b   6.90703200
_cell_length_c   7.61652900
_cell_angle_alpha   90.00000000
_cell_angle_beta   90.00000000
_cell_angle_gamma   90.00000000
_symmetry_Int_Tables_number   1
_chemical_formula_structural   DyGeIr
_chemical_formula_sum   'Dy4 Ge4 Ir4'
_cell_volume   227.85092195
_cell_formula_units_Z   4
loop_
 _symmetry_equiv_pos_site_id
 _symmetry_equiv_pos_as_xyz
  1  'x, y, z'
loop_
 _atom_site_type_symbol
 _atom_site_label
 _atom_site_symmetry_multiplicity
 _atom_site_fract_x
 _atom_site_fract_y
 _atom_site_fract_z
 _atom_site_occupancy
  Dy  Dy0  1  0.75000000  0.49705400  0.80769600  1
  Dy  Dy1  1  0.25000000  0.00294600  0.30769600  1
  Dy  Dy2  1  0.75000000  0.99705400  0.69230400  1
  Dy  Dy3  1  0.25000000  0.50294600  0.19230400  1
  Ge  Ge4  1  0.25000000  0.79218800  0.89078500  1
  Ge  Ge5  1  0.25000000  0.29218800  0.60921500  1
  Ge  Ge6  1  0.75000000  0.20781200  0.10921500  1
  Ge  Ge7  1  0.75000000  0.70781200  0.39078500  1
  Ir  Ir8  1  0.25000000  0.66116300  0.56648300  1
  Ir  Ir9  1  0.25000000  0.16116300  0.93351700  1
  Ir  Ir10  1  0.75000000  0.83883700  0.06648300  1
  Ir  Ir11  1  0.75000000  0.33883700  0.43351700  1
