# generated using pymatgen
data_KC8
_symmetry_space_group_name_H-M   'P 1'
_cell_length_a   11.55664963
_cell_length_b   11.00547637
_cell_length_c   4.98163677
_cell_angle_alpha   83.51668837
_cell_angle_beta   71.12323229
_cell_angle_gamma   25.36007934
_symmetry_Int_Tables_number   1
_chemical_formula_structural   KC8
_chemical_formula_sum   'K2 C16'
_cell_volume   230.23559220
_cell_formula_units_Z   2
loop_
 _symmetry_equiv_pos_site_id
 _symmetry_equiv_pos_as_xyz
  1  'x, y, z'
loop_
 _atom_site_type_symbol
 _atom_site_label
 _atom_site_symmetry_multiplicity
 _atom_site_fract_x
 _atom_site_fract_y
 _atom_site_fract_z
 _atom_site_occupancy
  K  K0  1  0.00000000  0.00000000  0.00000000  1
  K  K1  1  0.25000000  0.25000000  0.25000000  1
  C  C2  1  0.54126500  0.20883600  0.29136700  1
  C  C3  1  0.95853200  0.29136700  0.20883600  1
  C  C4  1  0.29136700  0.95853200  0.54126500  1
  C  C5  1  0.20883600  0.54126500  0.95853200  1
  C  C6  1  0.70873500  0.04116400  0.95863300  1
  C  C7  1  0.29146800  0.95863300  0.04116400  1
  C  C8  1  0.95863300  0.29146800  0.70873500  1
  C  C9  1  0.04116400  0.70873500  0.29146800  1
  C  C10  1  0.04049500  0.70776500  0.79210300  1
  C  C11  1  0.45963700  0.79210300  0.70776500  1
  C  C12  1  0.79210300  0.45963700  0.04049500  1
  C  C13  1  0.70776500  0.04049500  0.45963700  1
  C  C14  1  0.20950500  0.54223500  0.45789700  1
  C  C15  1  0.79036300  0.45789700  0.54223500  1
  C  C16  1  0.45789700  0.79036300  0.20950500  1
  C  C17  1  0.54223500  0.20950500  0.79036300  1
