# generated using pymatgen
data_Ni3H2Se3O10
_symmetry_space_group_name_H-M   'P 1'
_cell_length_a   8.09592700
_cell_length_b   8.22114996
_cell_length_c   8.50727279
_cell_angle_alpha   69.82740833
_cell_angle_beta   62.91225391
_cell_angle_gamma   68.04194408
_symmetry_Int_Tables_number   1
_chemical_formula_structural   Ni3H2Se3O10
_chemical_formula_sum   'Ni6 H4 Se6 O20'
_cell_volume   456.97742366
_cell_formula_units_Z   2
loop_
 _symmetry_equiv_pos_site_id
 _symmetry_equiv_pos_as_xyz
  1  'x, y, z'
loop_
 _atom_site_type_symbol
 _atom_site_label
 _atom_site_symmetry_multiplicity
 _atom_site_fract_x
 _atom_site_fract_y
 _atom_site_fract_z
 _atom_site_occupancy
  Ni  Ni0  1  0.00000000  0.00000000  0.00000000  1
  Ni  Ni1  1  0.50000000  0.50000000  0.50000000  1
  Ni  Ni2  1  0.65332300  0.03688800  0.80255300  1
  Ni  Ni3  1  0.34667700  0.96311200  0.19744700  1
  Ni  Ni4  1  0.71001400  0.86676200  0.39084600  1
  Ni  Ni5  1  0.28998600  0.13323800  0.60915400  1
  H  H6  1  0.06119700  0.18884700  0.40446300  1
  H  H7  1  0.93880300  0.81115300  0.59553700  1
  H  H8  1  0.96510600  0.12365000  0.31327500  1
  H  H9  1  0.03489400  0.87635000  0.68672500  1
  Se  Se10  1  0.56922200  0.23644200  0.23649200  1
  Se  Se11  1  0.43077800  0.76355800  0.76350800  1
  Se  Se12  1  0.79634000  0.66819400  0.06095500  1
  Se  Se13  1  0.20366000  0.33180600  0.93904500  1
  Se  Se14  1  0.17333600  0.67018000  0.29826000  1
  Se  Se15  1  0.82666400  0.32982000  0.70174000  1
  O  O16  1  0.08749600  0.12983200  0.30637000  1
  O  O17  1  0.91250400  0.87016800  0.69363000  1
  O  O18  1  0.80487100  0.13950100  0.87991400  1
  O  O19  1  0.19512900  0.86049900  0.12008600  1
  O  O20  1  0.13535400  0.21177900  0.85287800  1
  O  O21  1  0.86464600  0.78822100  0.14712200  1
  O  O22  1  0.40578200  0.17308600  0.97510800  1
  O  O23  1  0.59421800  0.82691400  0.02489200  1
  O  O24  1  0.30341000  0.71406200  0.38694400  1
  O  O25  1  0.69659000  0.28593800  0.61305600  1
  O  O26  1  0.55359800  0.68946100  0.56163000  1
  O  O27  1  0.44640200  0.31053900  0.43837000  1
  O  O28  1  0.20618800  0.89660300  0.75753300  1
  O  O29  1  0.79381200  0.10339700  0.24246700  1
  O  O30  1  0.53600200  0.94745900  0.67044200  1
  O  O31  1  0.46399800  0.05254100  0.32955800  1
  O  O32  1  0.94330700  0.72780300  0.45442500  1
  O  O33  1  0.05669300  0.27219700  0.54557500  1
  O  O34  1  0.70710200  0.51217000  0.24329200  1
  O  O35  1  0.29289800  0.48783000  0.75670800  1
