# generated using pymatgen
data_K2H5F7
_symmetry_space_group_name_H-M   'P 1'
_cell_length_a   8.55120200
_cell_length_b   8.42840900
_cell_length_c   10.15943016
_cell_angle_alpha   78.25980483
_cell_angle_beta   90.00000000
_cell_angle_gamma   90.00000000
_symmetry_Int_Tables_number   1
_chemical_formula_structural   K2H5F7
_chemical_formula_sum   'K8 H20 F28'
_cell_volume   716.90305705
_cell_formula_units_Z   4
loop_
 _symmetry_equiv_pos_site_id
 _symmetry_equiv_pos_as_xyz
  1  'x, y, z'
loop_
 _atom_site_type_symbol
 _atom_site_label
 _atom_site_symmetry_multiplicity
 _atom_site_fract_x
 _atom_site_fract_y
 _atom_site_fract_z
 _atom_site_occupancy
  K  K0  1  0.22863300  0.86403200  0.03867900  1
  K  K1  1  0.72863300  0.63596800  0.96132100  1
  K  K2  1  0.77136700  0.13596800  0.96132100  1
  K  K3  1  0.27136700  0.36403200  0.03867900  1
  K  K4  1  0.25098500  0.50000700  0.50197800  1
  K  K5  1  0.75098500  0.99999300  0.49802200  1
  K  K6  1  0.74901500  0.49999300  0.49802200  1
  K  K7  1  0.24901500  0.00000700  0.50197800  1
  H  H8  1  0.02343500  0.12301600  0.21650200  1
  H  H9  1  0.52343500  0.37698400  0.78349800  1
  H  H10  1  0.97656500  0.87698400  0.78349800  1
  H  H11  1  0.47656500  0.62301600  0.21650200  1
  H  H12  1  0.02375300  0.51986400  0.21726300  1
  H  H13  1  0.52375300  0.98013600  0.78273700  1
  H  H14  1  0.97624700  0.48013600  0.78273700  1
  H  H15  1  0.47624700  0.01986400  0.21726300  1
  H  H16  1  0.00141800  0.71141500  0.65187000  1
  H  H17  1  0.50141800  0.78858500  0.34813000  1
  H  H18  1  0.47485100  0.28766600  0.34288500  1
  H  H19  1  0.97485100  0.21233400  0.65711500  1
  H  H20  1  0.52514900  0.71233400  0.65711500  1
  H  H21  1  0.02514900  0.78766600  0.34288500  1
  H  H22  1  0.69317700  0.31817900  0.22563800  1
  H  H23  1  0.19317700  0.18182100  0.77436200  1
  H  H24  1  0.30682300  0.68182100  0.77436200  1
  H  H25  1  0.80682300  0.81817900  0.22563800  1
  H  H26  1  0.99858200  0.28858500  0.34813000  1
  H  H27  1  0.49858200  0.21141500  0.65187000  1
  F  F28  1  0.35265400  0.28894800  0.34191500  1
  F  F29  1  0.00089700  0.84931300  0.65212300  1
  F  F30  1  0.49910300  0.34931300  0.65212300  1
  F  F31  1  0.50089700  0.65068700  0.34787700  1
  F  F32  1  0.50118300  0.92291900  0.35079600  1
  F  F33  1  0.00118300  0.57708100  0.64920400  1
  F  F34  1  0.49881700  0.07708100  0.64920400  1
  F  F35  1  0.99881700  0.42291900  0.35079600  1
  F  F36  1  0.45032300  0.07995300  0.12567100  1
  F  F37  1  0.95032300  0.42004700  0.87432900  1
  F  F38  1  0.54967700  0.92004700  0.87432900  1
  F  F39  1  0.04967700  0.57995300  0.12567100  1
  F  F40  1  0.45247400  0.60896800  0.12333900  1
  F  F41  1  0.95247400  0.89103200  0.87666100  1
  F  F42  1  0.54752600  0.39103200  0.87666100  1
  F  F43  1  0.04752600  0.10896800  0.12333900  1
  F  F44  1  0.64734600  0.71105200  0.65808500  1
  F  F45  1  0.14734600  0.78894800  0.34191500  1
  F  F46  1  0.74613000  0.34344400  0.13415700  1
  F  F47  1  0.24613000  0.15655600  0.86584300  1
  F  F48  1  0.25387000  0.65655600  0.86584300  1
  F  F49  1  0.75387000  0.84344400  0.13415700  1
  F  F50  1  0.62666300  0.28525900  0.34937400  1
  F  F51  1  0.12666300  0.21474100  0.65062600  1
  F  F52  1  0.37333700  0.71474100  0.65062600  1
  F  F53  1  0.87333700  0.78525900  0.34937400  1
  F  F54  1  0.99910300  0.15068700  0.34787700  1
  F  F55  1  0.85265400  0.21105200  0.65808500  1
