# generated using pymatgen
data_KAlCl4
_symmetry_space_group_name_H-M   'P 1'
_cell_length_a   10.68206000
_cell_length_b   7.34367400
_cell_length_c   9.54325315
_cell_angle_alpha   86.63414749
_cell_angle_beta   90.00000000
_cell_angle_gamma   90.00000000
_symmetry_Int_Tables_number   1
_chemical_formula_structural   KAlCl4
_chemical_formula_sum   'K4 Al4 Cl16'
_cell_volume   747.33451491
_cell_formula_units_Z   4
loop_
 _symmetry_equiv_pos_site_id
 _symmetry_equiv_pos_as_xyz
  1  'x, y, z'
loop_
 _atom_site_type_symbol
 _atom_site_label
 _atom_site_symmetry_multiplicity
 _atom_site_fract_x
 _atom_site_fract_y
 _atom_site_fract_z
 _atom_site_occupancy
  K  K0  1  0.91633100  0.56321300  0.94961300  1
  K  K1  1  0.41633100  0.43678700  0.05038700  1
  K  K2  1  0.30679500  0.94164500  0.55378500  1
  K  K3  1  0.80679500  0.05835500  0.44621500  1
  Al  Al4  1  0.66272400  0.99359600  0.93416200  1
  Al  Al5  1  0.16272400  0.00640400  0.06583800  1
  Al  Al6  1  0.05801900  0.49103800  0.43306800  1
  Al  Al7  1  0.55801900  0.50896200  0.56693200  1
  Cl  Cl8  1  0.49279000  0.05252900  0.81934400  1
  Cl  Cl9  1  0.99279000  0.94747100  0.18065600  1
  Cl  Cl10  1  0.69065100  0.21087400  0.07489900  1
  Cl  Cl11  1  0.19065100  0.78912600  0.92510100  1
  Cl  Cl12  1  0.64845800  0.73506800  0.05497200  1
  Cl  Cl13  1  0.14845800  0.26493200  0.94502800  1
  Cl  Cl14  1  0.32255100  0.02896000  0.20239800  1
  Cl  Cl15  1  0.82255100  0.97104000  0.79760200  1
  Cl  Cl16  1  0.39540900  0.53247900  0.69947400  1
  Cl  Cl17  1  0.89540900  0.46752100  0.30052600  1
  Cl  Cl18  1  0.72564100  0.45575900  0.68693000  1
  Cl  Cl19  1  0.22564100  0.54424100  0.31307000  1
  Cl  Cl20  1  0.53298800  0.28833100  0.42859700  1
  Cl  Cl21  1  0.03298800  0.71166900  0.57140300  1
  Cl  Cl22  1  0.57244200  0.76569200  0.44369400  1
  Cl  Cl23  1  0.07244200  0.23430800  0.55630600  1
