# generated using pymatgen
data_YHSe
_symmetry_space_group_name_H-M   'P 1'
_cell_length_a   3.85277609
_cell_length_b   3.85277609
_cell_length_c   3.92470700
_cell_angle_alpha   90.00000000
_cell_angle_beta   90.00000000
_cell_angle_gamma   120.00000162
_symmetry_Int_Tables_number   1
_chemical_formula_structural   YHSe
_chemical_formula_sum   'Y1 H1 Se1'
_cell_volume   50.45281535
_cell_formula_units_Z   1
loop_
 _symmetry_equiv_pos_site_id
 _symmetry_equiv_pos_as_xyz
  1  'x, y, z'
loop_
 _atom_site_type_symbol
 _atom_site_label
 _atom_site_symmetry_multiplicity
 _atom_site_fract_x
 _atom_site_fract_y
 _atom_site_fract_z
 _atom_site_occupancy
  Y  Y0  1  0.66666700  0.33333300  0.00000000  1
  H  H1  1  0.00000000  0.00000000  0.00000000  1
  Se  Se2  1  0.33333300  0.66666700  0.50000000  1
