# generated using pymatgen
data_Ce(IO3)4
_symmetry_space_group_name_H-M   'P 1'
_cell_length_a   10.25060200
_cell_length_b   10.25060200
_cell_length_c   5.40181300
_cell_angle_alpha   90.00000000
_cell_angle_beta   90.00000000
_cell_angle_gamma   90.00000000
_symmetry_Int_Tables_number   1
_chemical_formula_structural   Ce(IO3)4
_chemical_formula_sum   'Ce2 I8 O24'
_cell_volume   567.59464404
_cell_formula_units_Z   2
loop_
 _symmetry_equiv_pos_site_id
 _symmetry_equiv_pos_as_xyz
  1  'x, y, z'
loop_
 _atom_site_type_symbol
 _atom_site_label
 _atom_site_symmetry_multiplicity
 _atom_site_fract_x
 _atom_site_fract_y
 _atom_site_fract_z
 _atom_site_occupancy
  Ce  Ce0  1  0.00000000  0.00000000  0.00000000  1
  Ce  Ce1  1  0.50000000  0.50000000  0.50000000  1
  I  I2  1  0.00301300  0.27093700  0.53622300  1
  I  I3  1  0.77093700  0.49698700  0.03622300  1
  I  I4  1  0.22906300  0.50301300  0.03622300  1
  I  I5  1  0.99698700  0.72906300  0.53622300  1
  I  I6  1  0.49698700  0.22906300  0.96377700  1
  I  I7  1  0.72906300  0.00301300  0.46377700  1
  I  I8  1  0.27093700  0.99698700  0.46377700  1
  I  I9  1  0.50301300  0.77093700  0.96377700  1
  O  O10  1  0.07177800  0.15116900  0.31254500  1
  O  O11  1  0.65116900  0.42822200  0.81254500  1
  O  O12  1  0.34883100  0.57177800  0.81254500  1
  O  O13  1  0.92822200  0.84883100  0.31254500  1
  O  O14  1  0.42822200  0.34883100  0.18745500  1
  O  O15  1  0.84883100  0.07177800  0.68745500  1
  O  O16  1  0.15116900  0.92822200  0.68745500  1
  O  O17  1  0.57177800  0.65116900  0.18745500  1
  O  O18  1  0.07710600  0.19199300  0.80909300  1
  O  O19  1  0.69199300  0.42289400  0.30909300  1
  O  O20  1  0.62001500  0.90131800  0.00117600  1
  O  O21  1  0.40131800  0.87998500  0.50117600  1
  O  O22  1  0.59868200  0.12001500  0.50117600  1
  O  O23  1  0.37998500  0.09868200  0.00117600  1
  O  O24  1  0.87998500  0.59868200  0.49882400  1
  O  O25  1  0.09868200  0.62001500  0.99882400  1
  O  O26  1  0.90131800  0.37998500  0.99882400  1
  O  O27  1  0.12001500  0.40131800  0.49882400  1
  O  O28  1  0.57710600  0.69199300  0.69090700  1
  O  O29  1  0.19199300  0.92289400  0.19090700  1
  O  O30  1  0.80800700  0.07710600  0.19090700  1
  O  O31  1  0.42289400  0.30800700  0.69090700  1
  O  O32  1  0.92289400  0.80800700  0.80909300  1
  O  O33  1  0.30800700  0.57710600  0.30909300  1
