# generated using pymatgen
data_Lu2S3
_symmetry_space_group_name_H-M   'P 1'
_cell_length_a   7.21333755
_cell_length_b   7.21333755
_cell_length_c   7.21333790
_cell_angle_alpha   55.71424979
_cell_angle_beta   55.71424979
_cell_angle_gamma   55.71424366
_symmetry_Int_Tables_number   1
_chemical_formula_structural   Lu2S3
_chemical_formula_sum   'Lu4 S6'
_cell_volume   239.01139102
_cell_formula_units_Z   2
loop_
 _symmetry_equiv_pos_site_id
 _symmetry_equiv_pos_as_xyz
  1  'x, y, z'
loop_
 _atom_site_type_symbol
 _atom_site_label
 _atom_site_symmetry_multiplicity
 _atom_site_fract_x
 _atom_site_fract_y
 _atom_site_fract_z
 _atom_site_occupancy
  Lu  Lu0  1  0.84894100  0.84894100  0.84894100  1
  Lu  Lu1  1  0.65105900  0.65105900  0.65105900  1
  Lu  Lu2  1  0.15105900  0.15105900  0.15105900  1
  Lu  Lu3  1  0.34894100  0.34894100  0.34894100  1
  S  S4  1  0.75000000  0.05344400  0.44655600  1
  S  S5  1  0.44655600  0.75000000  0.05344400  1
  S  S6  1  0.05344400  0.44655600  0.75000000  1
  S  S7  1  0.25000000  0.94655600  0.55344400  1
  S  S8  1  0.94655600  0.55344400  0.25000000  1
  S  S9  1  0.55344400  0.25000000  0.94655600  1
