# generated using pymatgen
data_CaAsPt
_symmetry_space_group_name_H-M   'P 1'
_cell_length_a   22.37882112
_cell_length_b   22.37882112
_cell_length_c   22.37882112
_cell_angle_alpha   169.15776768
_cell_angle_beta   169.15776768
_cell_angle_gamma   15.35628549
_symmetry_Int_Tables_number   1
_chemical_formula_structural   CaAsPt
_chemical_formula_sum   'Ca6 As6 Pt6'
_cell_volume   396.54827923
_cell_formula_units_Z   6
loop_
 _symmetry_equiv_pos_site_id
 _symmetry_equiv_pos_as_xyz
  1  'x, y, z'
loop_
 _atom_site_type_symbol
 _atom_site_label
 _atom_site_symmetry_multiplicity
 _atom_site_fract_x
 _atom_site_fract_y
 _atom_site_fract_z
 _atom_site_occupancy
  Ca  Ca0  1  0.50044000  0.00044000  0.50000000  1
  Ca  Ca1  1  0.75044000  0.75044000  0.00000000  1
  Ca  Ca2  1  0.33416400  0.83416400  0.50000000  1
  Ca  Ca3  1  0.58416400  0.58416400  0.00000000  1
  Ca  Ca4  1  0.66695300  0.16695300  0.50000000  1
  Ca  Ca5  1  0.91695300  0.91695300  0.00000000  1
  As  As6  1  0.80632800  0.30632800  0.50000000  1
  As  As7  1  0.22286000  0.22286000  0.00000000  1
  As  As8  1  0.97286000  0.47286000  0.50000000  1
  As  As9  1  0.05632800  0.05632800  0.00000000  1
  As  As10  1  0.39001000  0.39001000  0.00000000  1
  As  As11  1  0.14001000  0.64001000  0.50000000  1
  Pt  Pt12  1  0.11179500  0.11179500  0.00000000  1
  Pt  Pt13  1  0.86179500  0.36179500  0.50000000  1
  Pt  Pt14  1  0.02795500  0.52795500  0.50000000  1
  Pt  Pt15  1  0.44549500  0.44549500  0.00000000  1
  Pt  Pt16  1  0.19549500  0.69549500  0.50000000  1
  Pt  Pt17  1  0.27795500  0.27795500  0.00000000  1
