# generated using pymatgen
data_Ti2FeO5
_symmetry_space_group_name_H-M   'P 1'
_cell_length_a   3.75784400
_cell_length_b   5.30521554
_cell_length_c   10.24031800
_cell_angle_alpha   90.00000000
_cell_angle_beta   90.00000000
_cell_angle_gamma   110.74228175
_symmetry_Int_Tables_number   1
_chemical_formula_structural   Ti2FeO5
_chemical_formula_sum   'Ti4 Fe2 O10'
_cell_volume   190.92016167
_cell_formula_units_Z   2
loop_
 _symmetry_equiv_pos_site_id
 _symmetry_equiv_pos_as_xyz
  1  'x, y, z'
loop_
 _atom_site_type_symbol
 _atom_site_label
 _atom_site_symmetry_multiplicity
 _atom_site_fract_x
 _atom_site_fract_y
 _atom_site_fract_z
 _atom_site_occupancy
  Ti  Ti0  1  0.13282900  0.26565800  0.06698600  1
  Ti  Ti1  1  0.86717000  0.73434300  0.93301400  1
  Ti  Ti2  1  0.86717000  0.73434300  0.56698600  1
  Ti  Ti3  1  0.13282900  0.26565800  0.43301400  1
  Fe  Fe4  1  0.80740900  0.61482100  0.25000000  1
  Fe  Fe5  1  0.19259000  0.38517900  0.75000000  1
  O  O6  1  0.31408000  0.62815900  0.55875300  1
  O  O7  1  0.68591900  0.37184100  0.44124700  1
  O  O8  1  0.68591900  0.37184100  0.05875300  1
  O  O9  1  0.31408000  0.62815900  0.94124700  1
  O  O10  1  0.04510400  0.09020800  0.61157300  1
  O  O11  1  0.95489500  0.90979200  0.38842700  1
  O  O12  1  0.79503200  0.59006600  0.75000000  1
  O  O13  1  0.20496700  0.40993400  0.25000000  1
  O  O14  1  0.95489500  0.90979200  0.11157300  1
  O  O15  1  0.04510400  0.09020800  0.88842700  1
