# generated using pymatgen
data_U(BiO3)2
_symmetry_space_group_name_H-M   'P 1'
_cell_length_a   3.92658221
_cell_length_b   3.92658221
_cell_length_c   9.55756400
_cell_angle_alpha   90.00000000
_cell_angle_beta   90.00000000
_cell_angle_gamma   120.00000347
_symmetry_Int_Tables_number   1
_chemical_formula_structural   U(BiO3)2
_chemical_formula_sum   'U1 Bi2 O6'
_cell_volume   127.61661466
_cell_formula_units_Z   1
loop_
 _symmetry_equiv_pos_site_id
 _symmetry_equiv_pos_as_xyz
  1  'x, y, z'
loop_
 _atom_site_type_symbol
 _atom_site_label
 _atom_site_symmetry_multiplicity
 _atom_site_fract_x
 _atom_site_fract_y
 _atom_site_fract_z
 _atom_site_occupancy
  U  U0  1  0.00000000  0.00000000  0.50000000  1
  Bi  Bi1  1  0.33333300  0.66666700  0.84014500  1
  Bi  Bi2  1  0.66666700  0.33333300  0.15985500  1
  O  O3  1  0.00000000  0.00000000  0.70989500  1
  O  O4  1  0.00000000  0.00000000  0.29010500  1
  O  O5  1  0.33333300  0.66666700  0.08510400  1
  O  O6  1  0.66666700  0.33333300  0.44713100  1
  O  O7  1  0.33333300  0.66666700  0.55286900  1
  O  O8  1  0.66666700  0.33333300  0.91489600  1
