# generated using pymatgen
data_Ba2P3Pd
_symmetry_space_group_name_H-M   'P 1'
_cell_length_a   7.25856800
_cell_length_b   6.54785100
_cell_length_c   12.99020738
_cell_angle_alpha   88.49009894
_cell_angle_beta   90.00000000
_cell_angle_gamma   90.00000000
_symmetry_Int_Tables_number   1
_chemical_formula_structural   Ba2P3Pd
_chemical_formula_sum   'Ba8 P12 Pd4'
_cell_volume   617.18448929
_cell_formula_units_Z   4
loop_
 _symmetry_equiv_pos_site_id
 _symmetry_equiv_pos_as_xyz
  1  'x, y, z'
loop_
 _atom_site_type_symbol
 _atom_site_label
 _atom_site_symmetry_multiplicity
 _atom_site_fract_x
 _atom_site_fract_y
 _atom_site_fract_z
 _atom_site_occupancy
  Ba  Ba0  1  0.25531900  0.62177500  0.33492400  1
  Ba  Ba1  1  0.24468100  0.62177500  0.83492400  1
  Ba  Ba2  1  0.74468100  0.37822500  0.66507600  1
  Ba  Ba3  1  0.75531900  0.37822500  0.16507600  1
  Ba  Ba4  1  0.74911500  0.83603900  0.43904000  1
  Ba  Ba5  1  0.24911500  0.16396100  0.06096000  1
  Ba  Ba6  1  0.25088500  0.16396100  0.56096000  1
  Ba  Ba7  1  0.75088500  0.83603900  0.93904000  1
  P  P8  1  0.09025400  0.68612400  0.59509700  1
  P  P9  1  0.59025400  0.31387600  0.90490300  1
  P  P10  1  0.90974600  0.31387600  0.40490300  1
  P  P11  1  0.40974600  0.68612400  0.09509700  1
  P  P12  1  0.39069500  0.68297600  0.59436000  1
  P  P13  1  0.89069500  0.31702400  0.90564000  1
  P  P14  1  0.60930500  0.31702400  0.40564000  1
  P  P15  1  0.57273300  0.90363000  0.19216600  1
  P  P16  1  0.92726700  0.90363000  0.69216600  1
  P  P17  1  0.42726700  0.09637000  0.80783400  1
  P  P18  1  0.07273300  0.09637000  0.30783400  1
  P  P19  1  0.10930500  0.68297600  0.09436000  1
  Pd  Pd20  1  0.90078300  0.88330200  0.19264200  1
  Pd  Pd21  1  0.09921700  0.11669800  0.80735800  1
  Pd  Pd22  1  0.40078300  0.11669800  0.30735800  1
  Pd  Pd23  1  0.59921700  0.88330200  0.69264200  1
