# generated using pymatgen
data_ZrNiH3
_symmetry_space_group_name_H-M   'P 1'
_cell_length_a   5.54585035
_cell_length_b   5.54585035
_cell_length_c   4.33167500
_cell_angle_alpha   90.00000000
_cell_angle_beta   90.00000000
_cell_angle_gamma   143.03784766
_symmetry_Int_Tables_number   1
_chemical_formula_structural   ZrNiH3
_chemical_formula_sum   'Zr2 Ni2 H6'
_cell_volume   80.10769177
_cell_formula_units_Z   2
loop_
 _symmetry_equiv_pos_site_id
 _symmetry_equiv_pos_as_xyz
  1  'x, y, z'
loop_
 _atom_site_type_symbol
 _atom_site_label
 _atom_site_symmetry_multiplicity
 _atom_site_fract_x
 _atom_site_fract_y
 _atom_site_fract_z
 _atom_site_occupancy
  Zr  Zr0  1  0.85979600  0.14020400  0.75000000  1
  Zr  Zr1  1  0.14020400  0.85979600  0.25000000  1
  Ni  Ni2  1  0.56880700  0.43119300  0.75000000  1
  Ni  Ni3  1  0.43119300  0.56880700  0.25000000  1
  H  H4  1  0.06824200  0.93175800  0.75000000  1
  H  H5  1  0.93175800  0.06824200  0.25000000  1
  H  H6  1  0.68667500  0.31332500  0.49681800  1
  H  H7  1  0.31332500  0.68667500  0.50318200  1
  H  H8  1  0.68667500  0.31332500  0.00318200  1
  H  H9  1  0.31332500  0.68667500  0.99681800  1
