# generated using pymatgen
data_H3N
_symmetry_space_group_name_H-M   'P 1'
_cell_length_a   5.11634700
_cell_length_b   5.11634700
_cell_length_c   5.11634700
_cell_angle_alpha   90.00000000
_cell_angle_beta   90.00000000
_cell_angle_gamma   90.00000000
_symmetry_Int_Tables_number   1
_chemical_formula_structural   H3N
_chemical_formula_sum   'H12 N4'
_cell_volume   133.93064931
_cell_formula_units_Z   4
loop_
 _symmetry_equiv_pos_site_id
 _symmetry_equiv_pos_as_xyz
  1  'x, y, z'
loop_
 _atom_site_type_symbol
 _atom_site_label
 _atom_site_symmetry_multiplicity
 _atom_site_fract_x
 _atom_site_fract_y
 _atom_site_fract_z
 _atom_site_occupancy
  H  H0  1  0.13835200  0.72950700  0.60175500  1
  H  H1  1  0.63835200  0.77049300  0.39824500  1
  H  H2  1  0.86164800  0.22950700  0.89824500  1
  H  H3  1  0.77049300  0.39824500  0.63835200  1
  H  H4  1  0.36164800  0.27049300  0.10175500  1
  H  H5  1  0.10175500  0.36164800  0.27049300  1
  H  H6  1  0.27049300  0.10175500  0.36164800  1
  H  H7  1  0.22950700  0.89824500  0.86164800  1
  H  H8  1  0.60175500  0.13835200  0.72950700  1
  H  H9  1  0.72950700  0.60175500  0.13835200  1
  H  H10  1  0.39824500  0.63835200  0.77049300  1
  H  H11  1  0.89824500  0.86164800  0.22950700  1
  N  N12  1  0.79817100  0.70182900  0.29817100  1
  N  N13  1  0.70182900  0.29817100  0.79817100  1
  N  N14  1  0.29817100  0.79817100  0.70182900  1
  N  N15  1  0.20182900  0.20182900  0.20182900  1
