# generated using pymatgen
data_Ga3Co
_symmetry_space_group_name_H-M   'P 1'
_cell_length_a   6.27048100
_cell_length_b   6.27048100
_cell_length_c   6.46649100
_cell_angle_alpha   90.00000000
_cell_angle_beta   90.00000000
_cell_angle_gamma   90.00000000
_symmetry_Int_Tables_number   1
_chemical_formula_structural   Ga3Co
_chemical_formula_sum   'Ga12 Co4'
_cell_volume   254.25551972
_cell_formula_units_Z   4
loop_
 _symmetry_equiv_pos_site_id
 _symmetry_equiv_pos_as_xyz
  1  'x, y, z'
loop_
 _atom_site_type_symbol
 _atom_site_label
 _atom_site_symmetry_multiplicity
 _atom_site_fract_x
 _atom_site_fract_y
 _atom_site_fract_z
 _atom_site_occupancy
  Ga  Ga0  1  0.50000000  0.00000000  0.00000000  1
  Ga  Ga1  1  0.50000000  0.00000000  0.50000000  1
  Ga  Ga2  1  0.00000000  0.50000000  0.00000000  1
  Ga  Ga3  1  0.00000000  0.50000000  0.50000000  1
  Ga  Ga4  1  0.65128100  0.34871900  0.74499500  1
  Ga  Ga5  1  0.84871900  0.84871900  0.75500500  1
  Ga  Ga6  1  0.15128100  0.15128100  0.75500500  1
  Ga  Ga7  1  0.34871900  0.65128100  0.74499500  1
  Ga  Ga8  1  0.34871900  0.65128100  0.25500500  1
  Ga  Ga9  1  0.65128100  0.34871900  0.25500500  1
  Ga  Ga10  1  0.84871900  0.84871900  0.24499500  1
  Ga  Ga11  1  0.15128100  0.15128100  0.24499500  1
  Co  Co12  1  0.84514300  0.15485700  0.00000000  1
  Co  Co13  1  0.65485700  0.65485700  0.50000000  1
  Co  Co14  1  0.34514300  0.34514300  0.50000000  1
  Co  Co15  1  0.15485700  0.84514300  0.00000000  1
