# generated using pymatgen
data_Mn2GeO4
_symmetry_space_group_name_H-M   'P 1'
_cell_length_a   5.12001200
_cell_length_b   6.38680500
_cell_length_c   10.88922900
_cell_angle_alpha   89.99992728
_cell_angle_beta   90.00027109
_cell_angle_gamma   89.99997984
_symmetry_Int_Tables_number   1
_chemical_formula_structural   Mn2GeO4
_chemical_formula_sum   'Mn8 Ge4 O16'
_cell_volume   356.08343155
_cell_formula_units_Z   4
loop_
 _symmetry_equiv_pos_site_id
 _symmetry_equiv_pos_as_xyz
  1  'x, y, z'
loop_
 _atom_site_type_symbol
 _atom_site_label
 _atom_site_symmetry_multiplicity
 _atom_site_fract_x
 _atom_site_fract_y
 _atom_site_fract_z
 _atom_site_occupancy
  Mn  Mn0  1  0.50001100  0.00000300  0.50000100  1
  Mn  Mn1  1  0.49998900  0.50000700  0.50000500  1
  Mn  Mn2  1  0.49260100  0.74999500  0.22116500  1
  Mn  Mn3  1  0.50738500  0.24999400  0.77883900  1
  Mn  Mn4  1  0.00000300  0.00000000  0.00000000  1
  Mn  Mn5  1  0.99999500  0.49999400  0.00000800  1
  Mn  Mn6  1  0.99261800  0.25000700  0.27882300  1
  Mn  Mn7  1  0.00739600  0.75000000  0.72117400  1
  Ge  Ge8  1  0.56481500  0.75000100  0.90404700  1
  Ge  Ge9  1  0.06484500  0.25000000  0.59595100  1
  Ge  Ge10  1  0.43518500  0.24999900  0.09595200  1
  Ge  Ge11  1  0.93515500  0.74999900  0.40404700  1
  O  O12  1  0.77964200  0.75000000  0.55381500  1
  O  O13  1  0.27960700  0.25000100  0.94619100  1
  O  O14  1  0.22035700  0.25000000  0.44618500  1
  O  O15  1  0.72039300  0.74999900  0.05380800  1
  O  O16  1  0.22065300  0.74999800  0.90619300  1
  O  O17  1  0.72063000  0.25000000  0.59380800  1
  O  O18  1  0.77934500  0.24999900  0.09380500  1
  O  O19  1  0.27937000  0.75000100  0.40619100  1
  O  O20  1  0.22452200  0.47047600  0.66451300  1
  O  O21  1  0.72456100  0.52953000  0.83548900  1
  O  O22  1  0.77548000  0.97047800  0.33548500  1
  O  O23  1  0.27543900  0.02953000  0.16451000  1
  O  O24  1  0.77548000  0.52952300  0.33548600  1
  O  O25  1  0.27544000  0.47047100  0.16451000  1
  O  O26  1  0.22452100  0.02952400  0.66451200  1
  O  O27  1  0.72456100  0.97047200  0.83548800  1
