# generated using pymatgen
data_AlH12(ClO2)3
_symmetry_space_group_name_H-M   'P 1'
_cell_length_a   7.94466215
_cell_length_b   7.94466215
_cell_length_c   7.94466190
_cell_angle_alpha   96.46801344
_cell_angle_beta   96.46801344
_cell_angle_gamma   96.46801621
_symmetry_Int_Tables_number   1
_chemical_formula_structural   AlH12(ClO2)3
_chemical_formula_sum   'Al2 H24 Cl6 O12'
_cell_volume   491.07959235
_cell_formula_units_Z   2
loop_
 _symmetry_equiv_pos_site_id
 _symmetry_equiv_pos_as_xyz
  1  'x, y, z'
loop_
 _atom_site_type_symbol
 _atom_site_label
 _atom_site_symmetry_multiplicity
 _atom_site_fract_x
 _atom_site_fract_y
 _atom_site_fract_z
 _atom_site_occupancy
  Al  Al0  1  0.50000000  0.50000000  0.50000000  1
  Al  Al1  1  0.00000000  0.00000000  0.00000000  1
  H  H2  1  0.88670300  0.29171000  0.08534500  1
  H  H3  1  0.08534500  0.88670300  0.29171000  1
  H  H4  1  0.29171000  0.08534500  0.88670300  1
  H  H5  1  0.61329700  0.41465500  0.20829000  1
  H  H6  1  0.20829000  0.61329700  0.41465500  1
  H  H7  1  0.41465500  0.20829000  0.61329700  1
  H  H8  1  0.11329700  0.70829000  0.91465500  1
  H  H9  1  0.91465500  0.11329700  0.70829000  1
  H  H10  1  0.70829000  0.91465500  0.11329700  1
  H  H11  1  0.38670300  0.58534500  0.79171000  1
  H  H12  1  0.79171000  0.38670300  0.58534500  1
  H  H13  1  0.58534500  0.79171000  0.38670300  1
  H  H14  1  0.95779000  0.21466800  0.25826600  1
  H  H15  1  0.25826600  0.95779000  0.21466800  1
  H  H16  1  0.21466800  0.25826600  0.95779000  1
  H  H17  1  0.54221000  0.24173400  0.28533200  1
  H  H18  1  0.28533200  0.54221000  0.24173400  1
  H  H19  1  0.24173400  0.28533200  0.54221000  1
  H  H20  1  0.04221000  0.78533200  0.74173400  1
  H  H21  1  0.74173400  0.04221000  0.78533200  1
  H  H22  1  0.75826600  0.71466800  0.45779000  1
  H  H23  1  0.71466800  0.45779000  0.75826600  1
  H  H24  1  0.45779000  0.75826600  0.71466800  1
  H  H25  1  0.78533200  0.74173400  0.04221000  1
  Cl  Cl26  1  0.51869700  0.98130300  0.25000000  1
  Cl  Cl27  1  0.75000000  0.48130300  0.01869700  1
  Cl  Cl28  1  0.01869700  0.75000000  0.48130300  1
  Cl  Cl29  1  0.48130300  0.01869700  0.75000000  1
  Cl  Cl30  1  0.98130300  0.25000000  0.51869700  1
  Cl  Cl31  1  0.25000000  0.51869700  0.98130300  1
  O  O32  1  0.94475800  0.19738200  0.13040200  1
  O  O33  1  0.13040200  0.94475800  0.19738200  1
  O  O34  1  0.19738200  0.13040200  0.94475800  1
  O  O35  1  0.55524200  0.36959800  0.30261800  1
  O  O36  1  0.30261800  0.55524200  0.36959800  1
  O  O37  1  0.36959800  0.30261800  0.55524200  1
  O  O38  1  0.05524200  0.80261800  0.86959800  1
  O  O39  1  0.86959800  0.05524200  0.80261800  1
  O  O40  1  0.80261800  0.86959800  0.05524200  1
  O  O41  1  0.44475800  0.63040200  0.69738200  1
  O  O42  1  0.69738200  0.44475800  0.63040200  1
  O  O43  1  0.63040200  0.69738200  0.44475800  1
