# generated using pymatgen
data_Dy3(CuGe)4
_symmetry_space_group_name_H-M   'P 1'
_cell_length_a   7.98515330
_cell_length_b   7.98515330
_cell_length_c   7.98515330
_cell_angle_alpha   149.58255298
_cell_angle_beta   130.81150471
_cell_angle_gamma   58.94021980
_symmetry_Int_Tables_number   1
_chemical_formula_structural   Dy3(CuGe)4
_chemical_formula_sum   'Dy3 Cu4 Ge4'
_cell_volume   193.59040776
_cell_formula_units_Z   1
loop_
 _symmetry_equiv_pos_site_id
 _symmetry_equiv_pos_as_xyz
  1  'x, y, z'
loop_
 _atom_site_type_symbol
 _atom_site_label
 _atom_site_symmetry_multiplicity
 _atom_site_fract_x
 _atom_site_fract_y
 _atom_site_fract_z
 _atom_site_occupancy
  Dy  Dy0  1  0.86990300  0.86990300  0.00000000  1
  Dy  Dy1  1  0.13009700  0.13009700  0.00000000  1
  Dy  Dy2  1  0.50000000  0.00000000  0.50000000  1
  Cu  Cu3  1  0.85860400  0.66894600  0.18965800  1
  Cu  Cu4  1  0.14139600  0.33105400  0.81034200  1
  Cu  Cu5  1  0.47928800  0.66894600  0.81034200  1
  Cu  Cu6  1  0.52071200  0.33105400  0.18965800  1
  Ge  Ge7  1  0.28318300  0.78318300  0.50000000  1
  Ge  Ge8  1  0.80840000  0.50000000  0.30840000  1
  Ge  Ge9  1  0.19160000  0.50000000  0.69160000  1
  Ge  Ge10  1  0.71681700  0.21681700  0.50000000  1
