# generated using pymatgen
data_GdClO
_symmetry_space_group_name_H-M   'P 1'
_cell_length_a   3.96972100
_cell_length_b   3.96972100
_cell_length_c   6.74812900
_cell_angle_alpha   90.00000000
_cell_angle_beta   90.00000000
_cell_angle_gamma   90.00000000
_symmetry_Int_Tables_number   1
_chemical_formula_structural   GdClO
_chemical_formula_sum   'Gd2 Cl2 O2'
_cell_volume   106.34163802
_cell_formula_units_Z   2
loop_
 _symmetry_equiv_pos_site_id
 _symmetry_equiv_pos_as_xyz
  1  'x, y, z'
loop_
 _atom_site_type_symbol
 _atom_site_label
 _atom_site_symmetry_multiplicity
 _atom_site_fract_x
 _atom_site_fract_y
 _atom_site_fract_z
 _atom_site_occupancy
  Gd  Gd0  1  0.00000000  0.50000000  0.82934700  1
  Gd  Gd1  1  0.50000000  0.00000000  0.17065300  1
  Cl  Cl2  1  0.50000000  0.00000000  0.62748300  1
  Cl  Cl3  1  0.00000000  0.50000000  0.37251700  1
  O  O4  1  0.00000000  0.00000000  0.00000000  1
  O  O5  1  0.50000000  0.50000000  0.00000000  1
