# generated using pymatgen
data_KInBr4
_symmetry_space_group_name_H-M   'P 1'
_cell_length_a   8.05669800
_cell_length_b   10.82814600
_cell_length_c   10.88045700
_cell_angle_alpha   90.00000000
_cell_angle_beta   90.00000000
_cell_angle_gamma   90.00000000
_symmetry_Int_Tables_number   1
_chemical_formula_structural   KInBr4
_chemical_formula_sum   'K4 In4 Br16'
_cell_volume   949.20130044
_cell_formula_units_Z   4
loop_
 _symmetry_equiv_pos_site_id
 _symmetry_equiv_pos_as_xyz
  1  'x, y, z'
loop_
 _atom_site_type_symbol
 _atom_site_label
 _atom_site_symmetry_multiplicity
 _atom_site_fract_x
 _atom_site_fract_y
 _atom_site_fract_z
 _atom_site_occupancy
  K  K0  1  0.17835300  0.75000000  0.25000000  1
  K  K1  1  0.32164700  0.75000000  0.75000000  1
  K  K2  1  0.82164700  0.25000000  0.75000000  1
  K  K3  1  0.67835300  0.25000000  0.25000000  1
  In  In4  1  0.75000000  0.67966400  0.50000000  1
  In  In5  1  0.75000000  0.82033600  0.00000000  1
  In  In6  1  0.25000000  0.32033600  0.50000000  1
  In  In7  1  0.25000000  0.17966400  0.00000000  1
  Br  Br8  1  0.34409900  0.05121100  0.18379900  1
  Br  Br9  1  0.34409900  0.44878900  0.31620100  1
  Br  Br10  1  0.15590100  0.44878900  0.68379900  1
  Br  Br11  1  0.15590100  0.05121100  0.81620100  1
  Br  Br12  1  0.65590100  0.94878900  0.81620100  1
  Br  Br13  1  0.65590100  0.55121100  0.68379900  1
  Br  Br14  1  0.84409900  0.55121100  0.31620100  1
  Br  Br15  1  0.84409900  0.94878900  0.18379900  1
  Br  Br16  1  0.99728100  0.31640700  0.04160100  1
  Br  Br17  1  0.99728100  0.18359300  0.45839900  1
  Br  Br18  1  0.50271900  0.18359300  0.54160100  1
  Br  Br19  1  0.50271900  0.31640700  0.95839900  1
  Br  Br20  1  0.00271900  0.68359300  0.95839900  1
  Br  Br21  1  0.00271900  0.81640700  0.54160100  1
  Br  Br22  1  0.49728100  0.81640700  0.45839900  1
  Br  Br23  1  0.49728100  0.68359300  0.04160100  1
