# generated using pymatgen
data_Sn2BF7
_symmetry_space_group_name_H-M   'P 1'
_cell_length_a   5.45837000
_cell_length_b   9.01523100
_cell_length_c   14.31778300
_cell_angle_alpha   90.00000000
_cell_angle_beta   90.00000000
_cell_angle_gamma   90.00000000
_symmetry_Int_Tables_number   1
_chemical_formula_structural   Sn2BF7
_chemical_formula_sum   'Sn8 B4 F28'
_cell_volume   704.55614416
_cell_formula_units_Z   4
loop_
 _symmetry_equiv_pos_site_id
 _symmetry_equiv_pos_as_xyz
  1  'x, y, z'
loop_
 _atom_site_type_symbol
 _atom_site_label
 _atom_site_symmetry_multiplicity
 _atom_site_fract_x
 _atom_site_fract_y
 _atom_site_fract_z
 _atom_site_occupancy
  Sn  Sn0  1  0.25000000  0.27452100  0.05524800  1
  Sn  Sn1  1  0.25000000  0.77452100  0.44475200  1
  Sn  Sn2  1  0.75000000  0.72547900  0.94475200  1
  Sn  Sn3  1  0.75000000  0.22547900  0.55524800  1
  Sn  Sn4  1  0.75000000  0.98154100  0.18927600  1
  Sn  Sn5  1  0.75000000  0.48154100  0.31072400  1
  Sn  Sn6  1  0.25000000  0.01845900  0.81072400  1
  Sn  Sn7  1  0.25000000  0.51845900  0.68927600  1
  B  B8  1  0.75000000  0.31536300  0.87163900  1
  B  B9  1  0.75000000  0.81536300  0.62836100  1
  B  B10  1  0.25000000  0.68463700  0.12836100  1
  B  B11  1  0.25000000  0.18463700  0.37163900  1
  F  F12  1  0.75000000  0.29015100  0.97019200  1
  F  F13  1  0.75000000  0.79015100  0.52980800  1
  F  F14  1  0.25000000  0.70984900  0.02980800  1
  F  F15  1  0.25000000  0.20984900  0.47019200  1
  F  F16  1  0.49977100  0.85257400  0.86118200  1
  F  F17  1  0.00022900  0.35257400  0.63881800  1
  F  F18  1  0.50022900  0.14742600  0.13881800  1
  F  F19  1  0.99977100  0.64742600  0.36118200  1
  F  F20  1  0.75000000  0.89829100  0.04633800  1
  F  F21  1  0.75000000  0.39829100  0.45366200  1
  F  F22  1  0.25000000  0.10170900  0.95366200  1
  F  F23  1  0.25000000  0.60170900  0.54633800  1
  F  F24  1  0.99977100  0.14742600  0.13881800  1
  F  F25  1  0.50022900  0.64742600  0.36118200  1
  F  F26  1  0.00022900  0.85257400  0.86118200  1
  F  F27  1  0.49977100  0.35257400  0.63881800  1
  F  F28  1  0.53738900  0.89654000  0.65142400  1
  F  F29  1  0.96261100  0.39654000  0.84857600  1
  F  F30  1  0.46261100  0.10346000  0.34857600  1
  F  F31  1  0.03738900  0.60346000  0.15142400  1
  F  F32  1  0.75000000  0.17723400  0.82390200  1
  F  F33  1  0.75000000  0.67723400  0.67609800  1
  F  F34  1  0.25000000  0.82276600  0.17609800  1
  F  F35  1  0.25000000  0.32276600  0.32390200  1
  F  F36  1  0.03738900  0.10346000  0.34857600  1
  F  F37  1  0.46261100  0.60346000  0.15142400  1
  F  F38  1  0.96261100  0.89654000  0.65142400  1
  F  F39  1  0.53738900  0.39654000  0.84857600  1
