# generated using pymatgen
data_NbBi4ClO8
_symmetry_space_group_name_H-M   'P 1'
_cell_length_a   5.55521100
_cell_length_b   5.62586200
_cell_length_c   29.31197800
_cell_angle_alpha   90.00000000
_cell_angle_beta   90.00000000
_cell_angle_gamma   90.00000000
_symmetry_Int_Tables_number   1
_chemical_formula_structural   NbBi4ClO8
_chemical_formula_sum   'Nb4 Bi16 Cl4 O32'
_cell_volume   916.08286532
_cell_formula_units_Z   4
loop_
 _symmetry_equiv_pos_site_id
 _symmetry_equiv_pos_as_xyz
  1  'x, y, z'
loop_
 _atom_site_type_symbol
 _atom_site_label
 _atom_site_symmetry_multiplicity
 _atom_site_fract_x
 _atom_site_fract_y
 _atom_site_fract_z
 _atom_site_occupancy
  Nb  Nb0  1  0.00000000  0.98749200  0.75000000  1
  Nb  Nb1  1  0.50000000  0.48749200  0.75000000  1
  Nb  Nb2  1  0.00000000  0.01250800  0.25000000  1
  Nb  Nb3  1  0.50000000  0.51250800  0.25000000  1
  Bi  Bi4  1  0.48829600  0.49360300  0.06853100  1
  Bi  Bi5  1  0.47593100  0.05224300  0.84301800  1
  Bi  Bi6  1  0.97593100  0.55224300  0.65698200  1
  Bi  Bi7  1  0.47593100  0.94775700  0.34301800  1
  Bi  Bi8  1  0.97593100  0.44775700  0.15698200  1
  Bi  Bi9  1  0.51170400  0.50639700  0.93146900  1
  Bi  Bi10  1  0.01170400  0.00639700  0.56853100  1
  Bi  Bi11  1  0.51170400  0.49360300  0.43146900  1
  Bi  Bi12  1  0.02406900  0.44775700  0.34301800  1
  Bi  Bi13  1  0.52406900  0.05224300  0.65698200  1
  Bi  Bi14  1  0.02406900  0.55224300  0.84301800  1
  Bi  Bi15  1  0.52406900  0.94775700  0.15698200  1
  Bi  Bi16  1  0.98829600  0.00639700  0.93146900  1
  Bi  Bi17  1  0.48829600  0.50639700  0.56853100  1
  Bi  Bi18  1  0.98829600  0.99360300  0.43146900  1
  Bi  Bi19  1  0.01170400  0.99360300  0.06853100  1
  Cl  Cl20  1  0.50000000  0.00000000  0.50000000  1
  Cl  Cl21  1  0.00000000  0.50000000  0.50000000  1
  Cl  Cl22  1  0.50000000  0.00000000  0.00000000  1
  Cl  Cl23  1  0.00000000  0.50000000  0.00000000  1
  O  O24  1  0.24573600  0.30798900  0.23258600  1
  O  O25  1  0.74573600  0.19201100  0.76741400  1
  O  O26  1  0.24573600  0.69201100  0.73258600  1
  O  O27  1  0.74573600  0.80798900  0.26741400  1
  O  O28  1  0.75426400  0.30798900  0.26741400  1
  O  O29  1  0.25426400  0.19201100  0.73258600  1
  O  O30  1  0.75426400  0.69201100  0.76741400  1
  O  O31  1  0.25426400  0.80798900  0.23258600  1
  O  O32  1  0.38871500  0.58471900  0.31403900  1
  O  O33  1  0.88871500  0.91528100  0.68596100  1
  O  O34  1  0.38871500  0.41528100  0.81403900  1
  O  O35  1  0.88871500  0.08471900  0.18596100  1
  O  O36  1  0.61128500  0.58471900  0.18596100  1
  O  O37  1  0.11128500  0.91528100  0.81403900  1
  O  O38  1  0.61128500  0.41528100  0.68596100  1
  O  O39  1  0.11128500  0.08471900  0.31403900  1
  O  O40  1  0.74658500  0.25464700  0.10507400  1
  O  O41  1  0.24658500  0.24535300  0.89492600  1
  O  O42  1  0.74658500  0.74535300  0.60507400  1
  O  O43  1  0.24658500  0.75464700  0.39492600  1
  O  O44  1  0.24300400  0.24600800  0.10655700  1
  O  O45  1  0.74300400  0.25399200  0.89344300  1
  O  O46  1  0.24300400  0.75399200  0.60655700  1
  O  O47  1  0.74300400  0.74600800  0.39344300  1
  O  O48  1  0.75699600  0.24600800  0.39344300  1
  O  O49  1  0.25699600  0.25399200  0.60655700  1
  O  O50  1  0.75699600  0.75399200  0.89344300  1
  O  O51  1  0.25699600  0.74600800  0.10655700  1
  O  O52  1  0.25341500  0.25464700  0.39492600  1
  O  O53  1  0.75341500  0.24535300  0.60507400  1
  O  O54  1  0.25341500  0.74535300  0.89492600  1
  O  O55  1  0.75341500  0.75464700  0.10507400  1
