# generated using pymatgen
data_Mg(H2N)2
_symmetry_space_group_name_H-M   'P 1'
_cell_length_a   12.74655052
_cell_length_b   12.74655052
_cell_length_c   12.74655052
_cell_angle_alpha   131.33875310
_cell_angle_beta   131.33875310
_cell_angle_gamma   71.27542111
_symmetry_Int_Tables_number   1
_chemical_formula_structural   Mg(H2N)2
_chemical_formula_sum   'Mg16 H64 N32'
_cell_volume   1142.81262432
_cell_formula_units_Z   16
loop_
 _symmetry_equiv_pos_site_id
 _symmetry_equiv_pos_as_xyz
  1  'x, y, z'
loop_
 _atom_site_type_symbol
 _atom_site_label
 _atom_site_symmetry_multiplicity
 _atom_site_fract_x
 _atom_site_fract_y
 _atom_site_fract_z
 _atom_site_occupancy
  Mg  Mg0  1  0.16922800  0.93241200  0.98016200  1
  Mg  Mg1  1  0.31093300  0.54774900  0.98016200  1
  Mg  Mg2  1  0.56758800  0.33077200  0.01983800  1
  Mg  Mg3  1  0.08077200  0.56093300  0.26318400  1
  Mg  Mg4  1  0.29774900  0.81758800  0.73681600  1
  Mg  Mg5  1  0.68241200  0.20225100  0.26318400  1
  Mg  Mg6  1  0.93906700  0.41922800  0.73681600  1
  Mg  Mg7  1  0.95225100  0.18906700  0.01983800  1
  Mg  Mg8  1  0.58077200  0.31758800  0.51983800  1
  Mg  Mg9  1  0.43906700  0.70225100  0.51983800  1
  Mg  Mg10  1  0.18241200  0.91922800  0.48016200  1
  Mg  Mg11  1  0.66922800  0.68906700  0.23681600  1
  Mg  Mg12  1  0.45225100  0.43241200  0.76318400  1
  Mg  Mg13  1  0.06758800  0.04774900  0.23681600  1
  Mg  Mg14  1  0.81093300  0.83077200  0.76318400  1
  Mg  Mg15  1  0.79774900  0.06093300  0.48016200  1
  H  H16  1  0.00562500  0.67941700  0.73924500  1
  H  H17  1  0.23362000  0.55982800  0.73924500  1
  H  H18  1  0.82058300  0.49437500  0.26075500  1
  H  H19  1  0.24437500  0.48362000  0.17379100  1
  H  H20  1  0.30982800  0.07058300  0.82620900  1
  H  H21  1  0.42941700  0.19017200  0.17379100  1
  H  H22  1  0.01638000  0.25562500  0.82620900  1
  H  H23  1  0.94017200  0.26638000  0.26075500  1
  H  H24  1  0.74437500  0.57058300  0.76075500  1
  H  H25  1  0.51638000  0.69017200  0.76075500  1
  H  H26  1  0.92941700  0.75562500  0.23924500  1
  H  H27  1  0.50562500  0.76638000  0.32620900  1
  H  H28  1  0.44017200  0.17941700  0.67379100  1
  H  H29  1  0.32058300  0.05982800  0.32620900  1
  H  H30  1  0.73362000  0.99437500  0.67379100  1
  H  H31  1  0.80982800  0.98362000  0.23924500  1
  H  H32  1  0.95061000  0.74400500  0.64090100  1
  H  H33  1  0.19029200  0.39689700  0.64090100  1
  H  H34  1  0.75599500  0.54939000  0.35909900  1
  H  H35  1  0.29939000  0.44029200  0.29339500  1
  H  H36  1  0.14689700  0.00599500  0.70660500  1
  H  H37  1  0.49400500  0.35310300  0.29339500  1
  H  H38  1  0.05970800  0.20061000  0.70660500  1
  H  H39  1  0.10310300  0.30970800  0.35909900  1
  H  H40  1  0.79939000  0.50599500  0.85909900  1
  H  H41  1  0.55970800  0.85310300  0.85909900  1
  H  H42  1  0.99400500  0.70061000  0.14090100  1
  H  H43  1  0.65662600  0.58006100  0.53806500  1
  H  H44  1  0.45061000  0.80970800  0.20660500  1
  H  H45  1  0.25599500  0.89689700  0.20660500  1
  H  H46  1  0.69029200  0.04939000  0.79339500  1
  H  H47  1  0.64689700  0.94029200  0.14090100  1
  H  H48  1  0.84600000  0.45380600  0.50791400  1
  H  H49  1  0.16191400  0.55410800  0.50791400  1
  H  H50  1  0.04619400  0.65400000  0.49208600  1
  H  H51  1  0.40400000  0.41191400  0.10780600  1
  H  H52  1  0.30410800  0.29619400  0.89219400  1
  H  H53  1  0.20380600  0.19589200  0.10780600  1
  H  H54  1  0.08808600  0.09600000  0.89219400  1
  H  H55  1  0.94589200  0.33808600  0.49208600  1
  H  H56  1  0.90400000  0.79619400  0.99208600  1
  H  H57  1  0.58808600  0.69589200  0.99208600  1
  H  H58  1  0.70380600  0.59600000  0.00791400  1
  H  H59  1  0.34600000  0.83808600  0.39219400  1
  H  H60  1  0.44589200  0.95380600  0.60780600  1
  H  H61  1  0.54619400  0.05410800  0.39219400  1
  H  H62  1  0.66191400  0.15400000  0.60780600  1
  H  H63  1  0.80410800  0.91191400  0.00791400  1
  H  H64  1  0.70800300  0.13143900  0.03806500  1
  H  H65  1  0.88143900  0.34337400  0.92343500  1
  H  H66  1  0.41993900  0.95800300  0.07656500  1
  H  H67  1  0.54199700  0.08006100  0.92343500  1
  H  H68  1  0.15662600  0.61856100  0.07656500  1
  H  H69  1  0.83006100  0.40662600  0.03806500  1
  H  H70  1  0.36856100  0.79199700  0.96193500  1
  H  H71  1  0.09337400  0.66993900  0.96193500  1
  H  H72  1  0.04199700  0.11856100  0.46193500  1
  H  H73  1  0.86856100  0.90662600  0.57656500  1
  H  H74  1  0.33006100  0.29199700  0.42343500  1
  H  H75  1  0.20800300  0.16993900  0.57656500  1
  H  H76  1  0.59337400  0.63143900  0.42343500  1
  H  H77  1  0.91993900  0.84337400  0.46193500  1
  H  H78  1  0.38143900  0.45800300  0.53806500  1
  H  H79  1  0.60310300  0.24400500  0.79339500  1
  N  N80  1  0.52197200  0.26629500  0.28974900  1
  N  N81  1  0.26777700  0.52345400  0.28974900  1
  N  N82  1  0.23370500  0.97802800  0.71025100  1
  N  N83  1  0.72802800  0.51777700  0.24432300  1
  N  N84  1  0.27345400  0.48370500  0.75567700  1
  N  N85  1  0.01629500  0.22654600  0.24432300  1
  N  N86  1  0.98222300  0.77197200  0.75567700  1
  N  N87  1  0.97654600  0.23222300  0.71025100  1
  N  N88  1  0.22802800  0.98370500  0.21025100  1
  N  N89  1  0.48222300  0.72654600  0.21025100  1
  N  N90  1  0.51629500  0.27197200  0.78974900  1
  N  N91  1  0.02197200  0.73222300  0.25567700  1
  N  N92  1  0.47654600  0.76629500  0.74432300  1
  N  N93  1  0.73370500  0.02345400  0.25567700  1
  N  N94  1  0.76777700  0.47802800  0.74432300  1
  N  N95  1  0.77345400  0.01777700  0.78974900  1
  N  N96  1  0.13490600  0.63490600  0.50000000  1
  N  N97  1  0.38490600  0.38490600  0.00000000  1
  N  N98  1  0.11509400  0.11509400  0.00000000  1
  N  N99  1  0.86509400  0.36509400  0.50000000  1
  N  N100  1  0.61509400  0.61509400  0.00000000  1
  N  N101  1  0.36509400  0.86509400  0.50000000  1
  N  N102  1  0.63490600  0.13490600  0.50000000  1
  N  N103  1  0.88490600  0.88490600  0.00000000  1
  N  N104  1  0.62500000  0.66667100  0.54167100  1
  N  N105  1  0.41667100  0.37500000  0.54167100  1
  N  N106  1  0.83332900  0.87500000  0.45832900  1
  N  N107  1  0.12500000  0.08332900  0.45832900  1
  N  N108  1  0.12500000  0.58332900  0.95832900  1
  N  N109  1  0.33332900  0.87500000  0.95832900  1
  N  N110  1  0.91667100  0.37500000  0.04167100  1
  N  N111  1  0.62500000  0.16667100  0.04167100  1
