# generated using pymatgen
data_NaAlH4
_symmetry_space_group_name_H-M   'P 1'
_cell_length_a   6.57100449
_cell_length_b   6.57100449
_cell_length_c   6.57100449
_cell_angle_alpha   135.42542813
_cell_angle_beta   135.42542813
_cell_angle_gamma   64.86989431
_symmetry_Int_Tables_number   1
_chemical_formula_structural   NaAlH4
_chemical_formula_sum   'Na2 Al2 H8'
_cell_volume   137.76894366
_cell_formula_units_Z   2
loop_
 _symmetry_equiv_pos_site_id
 _symmetry_equiv_pos_as_xyz
  1  'x, y, z'
loop_
 _atom_site_type_symbol
 _atom_site_label
 _atom_site_symmetry_multiplicity
 _atom_site_fract_x
 _atom_site_fract_y
 _atom_site_fract_z
 _atom_site_occupancy
  Na  Na0  1  0.75000000  0.25000000  0.50000000  1
  Na  Na1  1  0.00000000  0.00000000  0.00000000  1
  Al  Al2  1  0.25000000  0.75000000  0.50000000  1
  Al  Al3  1  0.50000000  0.50000000  0.00000000  1
  H  H4  1  0.72349200  0.81680200  0.37839500  1
  H  H5  1  0.56680200  0.68840700  0.59331000  1
  H  H6  1  0.09509700  0.97349200  0.40669000  1
  H  H7  1  0.43840700  0.34509700  0.62160500  1
  H  H8  1  0.31159300  0.90490300  0.87839500  1
  H  H9  1  0.65490300  0.27650800  0.09331000  1
  H  H10  1  0.18319800  0.56159300  0.90669000  1
  H  H11  1  0.02650800  0.43319800  0.12160500  1
