# generated using pymatgen
data_Nd(Cu2P)2
_symmetry_space_group_name_H-M   'P 1'
_cell_length_a   3.87769200
_cell_length_b   10.98665900
_cell_length_c   14.66062200
_cell_angle_alpha   90.00000000
_cell_angle_beta   90.00000000
_cell_angle_gamma   90.00000000
_symmetry_Int_Tables_number   1
_chemical_formula_structural   Nd(Cu2P)2
_chemical_formula_sum   'Nd6 Cu24 P12'
_cell_volume   624.58471555
_cell_formula_units_Z   6
loop_
 _symmetry_equiv_pos_site_id
 _symmetry_equiv_pos_as_xyz
  1  'x, y, z'
loop_
 _atom_site_type_symbol
 _atom_site_label
 _atom_site_symmetry_multiplicity
 _atom_site_fract_x
 _atom_site_fract_y
 _atom_site_fract_z
 _atom_site_occupancy
  Nd  Nd0  1  0.50000000  0.37685000  0.22645400  1
  Nd  Nd1  1  0.50000000  0.62315000  0.77354600  1
  Nd  Nd2  1  0.00000000  0.87685000  0.27354600  1
  Nd  Nd3  1  0.00000000  0.12315000  0.72645400  1
  Nd  Nd4  1  0.50000000  0.50000000  0.50000000  1
  Nd  Nd5  1  0.00000000  0.00000000  0.00000000  1
  Cu  Cu6  1  0.00000000  0.06802800  0.43561400  1
  Cu  Cu7  1  0.50000000  0.56802800  0.06438600  1
  Cu  Cu8  1  0.00000000  0.59939800  0.94679100  1
  Cu  Cu9  1  0.00000000  0.40060200  0.05320900  1
  Cu  Cu10  1  0.50000000  0.09939800  0.55320900  1
  Cu  Cu11  1  0.50000000  0.43197200  0.93561400  1
  Cu  Cu12  1  0.00000000  0.26498500  0.53515700  1
  Cu  Cu13  1  0.00000000  0.73501500  0.46484300  1
  Cu  Cu14  1  0.50000000  0.76498500  0.96484300  1
  Cu  Cu15  1  0.50000000  0.23501500  0.03515700  1
  Cu  Cu16  1  0.00000000  0.42570600  0.66815500  1
  Cu  Cu17  1  0.00000000  0.57429400  0.33184500  1
  Cu  Cu18  1  0.50000000  0.92570600  0.83184500  1
  Cu  Cu19  1  0.50000000  0.07429400  0.16815500  1
  Cu  Cu20  1  0.00000000  0.82902500  0.71604000  1
  Cu  Cu21  1  0.00000000  0.17097500  0.28396000  1
  Cu  Cu22  1  0.50000000  0.32902500  0.78396000  1
  Cu  Cu23  1  0.50000000  0.67097500  0.21604000  1
  Cu  Cu24  1  0.50000000  0.24243100  0.41084500  1
  Cu  Cu25  1  0.50000000  0.75756900  0.58915500  1
  Cu  Cu26  1  0.00000000  0.74243100  0.08915500  1
  Cu  Cu27  1  0.00000000  0.25756900  0.91084500  1
  Cu  Cu28  1  0.50000000  0.90060200  0.44679100  1
  Cu  Cu29  1  0.00000000  0.93197200  0.56438600  1
  P  P30  1  0.50000000  0.86574600  0.11467400  1
  P  P31  1  0.50000000  0.13425400  0.88532600  1
  P  P32  1  0.00000000  0.36574600  0.38532600  1
  P  P33  1  0.00000000  0.63425400  0.61467400  1
  P  P34  1  0.50000000  0.70714800  0.37168000  1
  P  P35  1  0.50000000  0.29285200  0.62832000  1
  P  P36  1  0.50000000  0.05867600  0.33437200  1
  P  P37  1  0.50000000  0.94132400  0.66562800  1
  P  P38  1  0.00000000  0.55867600  0.16562800  1
  P  P39  1  0.00000000  0.44132400  0.83437200  1
  P  P40  1  0.00000000  0.20714800  0.12832000  1
  P  P41  1  0.00000000  0.79285200  0.87168000  1
