# generated using pymatgen
data_La5C2Br9
_symmetry_space_group_name_H-M   'P 1'
_cell_length_a   10.05322700
_cell_length_b   11.43789100
_cell_length_c   16.97279100
_cell_angle_alpha   90.00000000
_cell_angle_beta   90.00000000
_cell_angle_gamma   90.00000000
_symmetry_Int_Tables_number   1
_chemical_formula_structural   La5C2Br9
_chemical_formula_sum   'La20 C8 Br36'
_cell_volume   1951.66244789
_cell_formula_units_Z   4
loop_
 _symmetry_equiv_pos_site_id
 _symmetry_equiv_pos_as_xyz
  1  'x, y, z'
loop_
 _atom_site_type_symbol
 _atom_site_label
 _atom_site_symmetry_multiplicity
 _atom_site_fract_x
 _atom_site_fract_y
 _atom_site_fract_z
 _atom_site_occupancy
  La  La0  1  0.54700700  0.30858300  0.54961600  1
  La  La1  1  0.04700700  0.69141700  0.45038400  1
  La  La2  1  0.95299300  0.80858300  0.95038400  1
  La  La3  1  0.45299300  0.19141700  0.04961600  1
  La  La4  1  0.45299300  0.69141700  0.45038400  1
  La  La5  1  0.95299300  0.30858300  0.54961600  1
  La  La6  1  0.04700700  0.19141700  0.04961600  1
  La  La7  1  0.54700700  0.80858300  0.95038400  1
  La  La8  1  0.25000000  0.96290100  0.56553300  1
  La  La9  1  0.75000000  0.03709900  0.43446700  1
  La  La10  1  0.25000000  0.46290100  0.93446700  1
  La  La11  1  0.75000000  0.53709900  0.06553300  1
  La  La12  1  0.25000000  0.63655400  0.64569100  1
  La  La13  1  0.75000000  0.36344600  0.35430900  1
  La  La14  1  0.25000000  0.13655400  0.85430900  1
  La  La15  1  0.75000000  0.86344600  0.14569100  1
  La  La16  1  0.25000000  0.92883900  0.34374300  1
  La  La17  1  0.75000000  0.07116100  0.65625700  1
  La  La18  1  0.25000000  0.42883900  0.15625700  1
  La  La19  1  0.75000000  0.57116100  0.84374300  1
  C  C20  1  0.25000000  0.74609300  0.52803900  1
  C  C21  1  0.75000000  0.25390700  0.47196100  1
  C  C22  1  0.25000000  0.24609300  0.97196100  1
  C  C23  1  0.75000000  0.75390700  0.02803900  1
  C  C24  1  0.25000000  0.82047800  0.45766200  1
  C  C25  1  0.75000000  0.17952200  0.54233800  1
  C  C26  1  0.25000000  0.32047800  0.04233800  1
  C  C27  1  0.75000000  0.67952200  0.95766200  1
  Br  Br28  1  0.53297400  0.56934900  0.60882500  1
  Br  Br29  1  0.03297400  0.43065100  0.39117500  1
  Br  Br30  1  0.96702600  0.06934900  0.89117500  1
  Br  Br31  1  0.46702600  0.93065100  0.10882500  1
  Br  Br32  1  0.46702600  0.43065100  0.39117500  1
  Br  Br33  1  0.96702600  0.56934900  0.60882500  1
  Br  Br34  1  0.03297400  0.93065100  0.10882500  1
  Br  Br35  1  0.53297400  0.06934900  0.89117500  1
  Br  Br36  1  0.42681100  0.11377600  0.44072500  1
  Br  Br37  1  0.92681100  0.88622400  0.55927500  1
  Br  Br38  1  0.07318900  0.61377600  0.05927500  1
  Br  Br39  1  0.57318900  0.38622400  0.94072500  1
  Br  Br40  1  0.57318900  0.88622400  0.55927500  1
  Br  Br41  1  0.07318900  0.11377600  0.44072500  1
  Br  Br42  1  0.92681100  0.38622400  0.94072500  1
  Br  Br43  1  0.42681100  0.61377600  0.05927500  1
  Br  Br44  1  0.45063900  0.13323200  0.67461900  1
  Br  Br45  1  0.95063900  0.86676800  0.32538100  1
  Br  Br46  1  0.04936100  0.63323200  0.82538100  1
  Br  Br47  1  0.54936100  0.36676800  0.17461900  1
  Br  Br48  1  0.54936100  0.86676800  0.32538100  1
  Br  Br49  1  0.04936100  0.13323200  0.67461900  1
  Br  Br50  1  0.95063900  0.36676800  0.17461900  1
  Br  Br51  1  0.45063900  0.63323200  0.82538100  1
  Br  Br52  1  0.25000000  0.86773700  0.72640300  1
  Br  Br53  1  0.75000000  0.13226300  0.27359700  1
  Br  Br54  1  0.25000000  0.36773700  0.77359700  1
  Br  Br55  1  0.75000000  0.63226300  0.22640300  1
  Br  Br56  1  0.25000000  0.65855300  0.29568100  1
  Br  Br57  1  0.75000000  0.34144700  0.70431900  1
  Br  Br58  1  0.25000000  0.15855300  0.20431900  1
  Br  Br59  1  0.75000000  0.84144700  0.79568100  1
  Br  Br60  1  0.25000000  0.38571100  0.56156600  1
  Br  Br61  1  0.75000000  0.61428900  0.43843400  1
  Br  Br62  1  0.25000000  0.88571100  0.93843400  1
  Br  Br63  1  0.75000000  0.11428900  0.06156600  1
