# generated using pymatgen
data_SrMgSi2
_symmetry_space_group_name_H-M   'P 1'
_cell_length_a   4.43817100
_cell_length_b   11.44960000
_cell_length_c   14.41327800
_cell_angle_alpha   90.00000000
_cell_angle_beta   90.00000000
_cell_angle_gamma   90.00000000
_symmetry_Int_Tables_number   1
_chemical_formula_structural   SrMgSi2
_chemical_formula_sum   'Sr8 Mg8 Si16'
_cell_volume   732.41479594
_cell_formula_units_Z   8
loop_
 _symmetry_equiv_pos_site_id
 _symmetry_equiv_pos_as_xyz
  1  'x, y, z'
loop_
 _atom_site_type_symbol
 _atom_site_label
 _atom_site_symmetry_multiplicity
 _atom_site_fract_x
 _atom_site_fract_y
 _atom_site_fract_z
 _atom_site_occupancy
  Sr  Sr0  1  0.25000000  0.52326400  0.19613900  1
  Sr  Sr1  1  0.25000000  0.74103400  0.93844200  1
  Sr  Sr2  1  0.75000000  0.25896600  0.06155800  1
  Sr  Sr3  1  0.75000000  0.24103400  0.56155800  1
  Sr  Sr4  1  0.25000000  0.75896600  0.43844200  1
  Sr  Sr5  1  0.25000000  0.97673600  0.69613900  1
  Sr  Sr6  1  0.75000000  0.02326400  0.30386100  1
  Sr  Sr7  1  0.75000000  0.47673600  0.80386100  1
  Mg  Mg8  1  0.25000000  0.44203600  0.43992100  1
  Mg  Mg9  1  0.75000000  0.55796400  0.56007900  1
  Mg  Mg10  1  0.75000000  0.94203600  0.06007900  1
  Mg  Mg11  1  0.25000000  0.05796400  0.93992100  1
  Mg  Mg12  1  0.25000000  0.67996200  0.69010300  1
  Mg  Mg13  1  0.75000000  0.32003800  0.30989700  1
  Mg  Mg14  1  0.75000000  0.17996200  0.80989700  1
  Mg  Mg15  1  0.25000000  0.82003800  0.19010300  1
  Si  Si16  1  0.75000000  0.95221700  0.86773300  1
  Si  Si17  1  0.25000000  0.45221700  0.63226700  1
  Si  Si18  1  0.75000000  0.54778300  0.36773300  1
  Si  Si19  1  0.25000000  0.02790000  0.46677000  1
  Si  Si20  1  0.25000000  0.04778300  0.13226700  1
  Si  Si21  1  0.25000000  0.27419100  0.72290900  1
  Si  Si22  1  0.75000000  0.72580900  0.27709100  1
  Si  Si23  1  0.75000000  0.77419100  0.77709100  1
  Si  Si24  1  0.25000000  0.21168000  0.39332600  1
  Si  Si25  1  0.75000000  0.97210000  0.53323000  1
  Si  Si26  1  0.75000000  0.52790000  0.03323000  1
  Si  Si27  1  0.25000000  0.47210000  0.96677000  1
  Si  Si28  1  0.25000000  0.28832000  0.89332600  1
  Si  Si29  1  0.75000000  0.78832000  0.60667400  1
  Si  Si30  1  0.75000000  0.71168000  0.10667400  1
  Si  Si31  1  0.25000000  0.22580900  0.22290900  1
