# generated using pymatgen
data_Nb3TeI7
_symmetry_space_group_name_H-M   'P 1'
_cell_length_a   7.73354438
_cell_length_b   7.73354438
_cell_length_c   14.88342100
_cell_angle_alpha   90.00000000
_cell_angle_beta   90.00000000
_cell_angle_gamma   120.00000322
_symmetry_Int_Tables_number   1
_chemical_formula_structural   Nb3TeI7
_chemical_formula_sum   'Nb6 Te2 I14'
_cell_volume   770.88669140
_cell_formula_units_Z   2
loop_
 _symmetry_equiv_pos_site_id
 _symmetry_equiv_pos_as_xyz
  1  'x, y, z'
loop_
 _atom_site_type_symbol
 _atom_site_label
 _atom_site_symmetry_multiplicity
 _atom_site_fract_x
 _atom_site_fract_y
 _atom_site_fract_z
 _atom_site_occupancy
  Nb  Nb0  1  0.86762300  0.13237700  0.24929500  1
  Nb  Nb1  1  0.73524500  0.86762300  0.74929500  1
  Nb  Nb2  1  0.13237700  0.26475500  0.74929500  1
  Nb  Nb3  1  0.86762300  0.73524500  0.24929500  1
  Nb  Nb4  1  0.26475500  0.13237700  0.24929500  1
  Nb  Nb5  1  0.13237700  0.86762300  0.74929500  1
  Te  Te6  1  0.00000000  0.00000000  0.10921500  1
  Te  Te7  1  0.00000000  0.00000000  0.60921500  1
  I  I8  1  0.66666700  0.33333300  0.34747100  1
  I  I9  1  0.33333300  0.66666700  0.84747100  1
  I  I10  1  0.16713700  0.83286300  0.37430000  1
  I  I11  1  0.33427400  0.16713700  0.87430000  1
  I  I12  1  0.83286300  0.66572600  0.87430000  1
  I  I13  1  0.16713700  0.33427400  0.37430000  1
  I  I14  1  0.66572600  0.83286300  0.37430000  1
  I  I15  1  0.83286300  0.16713700  0.87430000  1
  I  I16  1  0.49879900  0.50120100  0.14590900  1
  I  I17  1  0.99759800  0.49879900  0.64590900  1
  I  I18  1  0.50120100  0.00240200  0.64590900  1
  I  I19  1  0.49879900  0.99759800  0.14590900  1
  I  I20  1  0.00240200  0.50120100  0.14590900  1
  I  I21  1  0.50120100  0.49879900  0.64590900  1
