# generated using pymatgen
data_La3Br6N
_symmetry_space_group_name_H-M   'P 1'
_cell_length_a   11.30568700
_cell_length_b   12.08086700
_cell_length_c   17.37526800
_cell_angle_alpha   90.00000000
_cell_angle_beta   90.00000000
_cell_angle_gamma   90.00000000
_symmetry_Int_Tables_number   1
_chemical_formula_structural   La3Br6N
_chemical_formula_sum   'La24 Br48 N8'
_cell_volume   2373.15755882
_cell_formula_units_Z   8
loop_
 _symmetry_equiv_pos_site_id
 _symmetry_equiv_pos_as_xyz
  1  'x, y, z'
loop_
 _atom_site_type_symbol
 _atom_site_label
 _atom_site_symmetry_multiplicity
 _atom_site_fract_x
 _atom_site_fract_y
 _atom_site_fract_z
 _atom_site_occupancy
  La  La0  1  0.13690900  0.01942700  0.44194200  1
  La  La1  1  0.63690900  0.48057300  0.55805800  1
  La  La2  1  0.86309100  0.51942700  0.05805800  1
  La  La3  1  0.36309100  0.98057300  0.94194200  1
  La  La4  1  0.86309100  0.98057300  0.55805800  1
  La  La5  1  0.36309100  0.51942700  0.44194200  1
  La  La6  1  0.13690900  0.48057300  0.94194200  1
  La  La7  1  0.63690900  0.01942700  0.05805800  1
  La  La8  1  0.34971800  0.96073400  0.17229700  1
  La  La9  1  0.84971800  0.53926600  0.82770300  1
  La  La10  1  0.65028200  0.46073400  0.32770300  1
  La  La11  1  0.15028200  0.03926600  0.67229700  1
  La  La12  1  0.65028200  0.03926600  0.82770300  1
  La  La13  1  0.15028200  0.46073400  0.17229700  1
  La  La14  1  0.34971800  0.53926600  0.67229700  1
  La  La15  1  0.84971800  0.96073400  0.32770300  1
  La  La16  1  0.00953200  0.22237100  0.05015100  1
  La  La17  1  0.50953200  0.27762900  0.94984900  1
  La  La18  1  0.99046800  0.72237100  0.44984900  1
  La  La19  1  0.49046800  0.77762900  0.55015100  1
  La  La20  1  0.99046800  0.77762900  0.94984900  1
  La  La21  1  0.49046800  0.72237100  0.05015100  1
  La  La22  1  0.00953200  0.27762900  0.55015100  1
  La  La23  1  0.50953200  0.22237100  0.44984900  1
  Br  Br24  1  0.25634700  0.78414400  0.45424200  1
  Br  Br25  1  0.75634700  0.71585600  0.54575800  1
  Br  Br26  1  0.74365300  0.28414400  0.04575800  1
  Br  Br27  1  0.24365300  0.21585600  0.95424200  1
  Br  Br28  1  0.74365300  0.21585600  0.54575800  1
  Br  Br29  1  0.24365300  0.28414400  0.45424200  1
  Br  Br30  1  0.25634700  0.71585600  0.95424200  1
  Br  Br31  1  0.75634700  0.78414400  0.04575800  1
  Br  Br32  1  0.36771100  0.06424500  0.33866600  1
  Br  Br33  1  0.86771100  0.43575500  0.66133400  1
  Br  Br34  1  0.63228900  0.56424500  0.16133400  1
  Br  Br35  1  0.13228900  0.93575500  0.83866600  1
  Br  Br36  1  0.63228900  0.93575500  0.66133400  1
  Br  Br37  1  0.13228900  0.56424500  0.33866600  1
  Br  Br38  1  0.36771100  0.43575500  0.83866600  1
  Br  Br39  1  0.86771100  0.06424500  0.16133400  1
  Br  Br40  1  0.10516600  0.91733900  0.27535200  1
  Br  Br41  1  0.60516600  0.58266100  0.72464800  1
  Br  Br42  1  0.89483400  0.41733900  0.22464800  1
  Br  Br43  1  0.39483400  0.08266100  0.77535200  1
  Br  Br44  1  0.89483400  0.08266100  0.72464800  1
  Br  Br45  1  0.39483400  0.41733900  0.27535200  1
  Br  Br46  1  0.10516600  0.58266100  0.77535200  1
  Br  Br47  1  0.60516600  0.91733900  0.22464800  1
  Br  Br48  1  0.64340900  0.97019200  0.44489200  1
  Br  Br49  1  0.14340900  0.52980800  0.55510800  1
  Br  Br50  1  0.35659100  0.47019200  0.05510800  1
  Br  Br51  1  0.85659100  0.02980800  0.94489200  1
  Br  Br52  1  0.35659100  0.02980800  0.55510800  1
  Br  Br53  1  0.85659100  0.47019200  0.44489200  1
  Br  Br54  1  0.64340900  0.52980800  0.94489200  1
  Br  Br55  1  0.14340900  0.97019200  0.05510800  1
  Br  Br56  1  0.16301900  0.21694600  0.18884500  1
  Br  Br57  1  0.66301900  0.28305400  0.81115500  1
  Br  Br58  1  0.83698100  0.71694600  0.31115500  1
  Br  Br59  1  0.33698100  0.78305400  0.68884500  1
  Br  Br60  1  0.83698100  0.78305400  0.81115500  1
  Br  Br61  1  0.33698100  0.71694600  0.18884500  1
  Br  Br62  1  0.16301900  0.28305400  0.68884500  1
  Br  Br63  1  0.66301900  0.21694600  0.31115500  1
  Br  Br64  1  0.53372600  0.68378800  0.37686100  1
  Br  Br65  1  0.03372600  0.81621200  0.62313900  1
  Br  Br66  1  0.46627400  0.18378800  0.12313900  1
  Br  Br67  1  0.96627400  0.31621200  0.87686100  1
  Br  Br68  1  0.46627400  0.31621200  0.62313900  1
  Br  Br69  1  0.96627400  0.18378800  0.37686100  1
  Br  Br70  1  0.53372600  0.81621200  0.87686100  1
  Br  Br71  1  0.03372600  0.68378800  0.12313900  1
  N  N72  1  0.54686900  0.09144700  0.94047000  1
  N  N73  1  0.04686900  0.40855300  0.05953000  1
  N  N74  1  0.45313100  0.59144700  0.55953000  1
  N  N75  1  0.95313100  0.90855300  0.44047000  1
  N  N76  1  0.45313100  0.90855300  0.05953000  1
  N  N77  1  0.95313100  0.59144700  0.94047000  1
  N  N78  1  0.54686900  0.40855300  0.44047000  1
  N  N79  1  0.04686900  0.09144700  0.55953000  1
