# generated using pymatgen
data_CoBW
_symmetry_space_group_name_H-M   'P 1'
_cell_length_a   3.25972200
_cell_length_b   5.74563100
_cell_length_c   6.63438800
_cell_angle_alpha   90.00000000
_cell_angle_beta   90.00000000
_cell_angle_gamma   90.00000000
_symmetry_Int_Tables_number   1
_chemical_formula_structural   CoBW
_chemical_formula_sum   'Co4 B4 W4'
_cell_volume   124.25651286
_cell_formula_units_Z   4
loop_
 _symmetry_equiv_pos_site_id
 _symmetry_equiv_pos_as_xyz
  1  'x, y, z'
loop_
 _atom_site_type_symbol
 _atom_site_label
 _atom_site_symmetry_multiplicity
 _atom_site_fract_x
 _atom_site_fract_y
 _atom_site_fract_z
 _atom_site_occupancy
  Co  Co0  1  0.25000000  0.14281800  0.44206300  1
  Co  Co1  1  0.25000000  0.64281800  0.05793700  1
  Co  Co2  1  0.75000000  0.85718200  0.55793700  1
  Co  Co3  1  0.75000000  0.35718200  0.94206300  1
  B  B4  1  0.25000000  0.26954100  0.12604700  1
  B  B5  1  0.25000000  0.76954100  0.37395300  1
  B  B6  1  0.75000000  0.73045900  0.87395300  1
  B  B7  1  0.75000000  0.23045900  0.62604700  1
  W  W8  1  0.25000000  0.02772900  0.82520300  1
  W  W9  1  0.25000000  0.52772900  0.67479700  1
  W  W10  1  0.75000000  0.97227100  0.17479700  1
  W  W11  1  0.75000000  0.47227100  0.32520300  1
