# generated using pymatgen
data_NaFeCl4
_symmetry_space_group_name_H-M   'P 1'
_cell_length_a   6.33539800
_cell_length_b   10.05616300
_cell_length_c   10.55877300
_cell_angle_alpha   90.00000000
_cell_angle_beta   90.00000000
_cell_angle_gamma   90.00000000
_symmetry_Int_Tables_number   1
_chemical_formula_structural   NaFeCl4
_chemical_formula_sum   'Na4 Fe4 Cl16'
_cell_volume   672.69726284
_cell_formula_units_Z   4
loop_
 _symmetry_equiv_pos_site_id
 _symmetry_equiv_pos_as_xyz
  1  'x, y, z'
loop_
 _atom_site_type_symbol
 _atom_site_label
 _atom_site_symmetry_multiplicity
 _atom_site_fract_x
 _atom_site_fract_y
 _atom_site_fract_z
 _atom_site_occupancy
  Na  Na0  1  0.06127300  0.53540600  0.63308500  1
  Na  Na1  1  0.43872700  0.46459400  0.13308500  1
  Na  Na2  1  0.93872700  0.03540600  0.86691500  1
  Na  Na3  1  0.56127300  0.96459400  0.36691500  1
  Fe  Fe4  1  0.95827500  0.73966900  0.21144600  1
  Fe  Fe5  1  0.45827500  0.76033100  0.78855400  1
  Fe  Fe6  1  0.04172500  0.23966900  0.28855400  1
  Fe  Fe7  1  0.54172500  0.26033100  0.71144600  1
  Cl  Cl8  1  0.32652100  0.57827600  0.87769300  1
  Cl  Cl9  1  0.17347900  0.42172400  0.37769300  1
  Cl  Cl10  1  0.67347900  0.07827600  0.62230700  1
  Cl  Cl11  1  0.82652100  0.92172400  0.12230700  1
  Cl  Cl12  1  0.19172300  0.25907500  0.71618000  1
  Cl  Cl13  1  0.69172300  0.24092500  0.28382000  1
  Cl  Cl14  1  0.80827700  0.75907500  0.78382000  1
  Cl  Cl15  1  0.30827700  0.74092500  0.21618000  1
  Cl  Cl16  1  0.64728100  0.43551500  0.60276200  1
  Cl  Cl17  1  0.14728100  0.06448500  0.39723800  1
  Cl  Cl18  1  0.35271900  0.93551500  0.89723800  1
  Cl  Cl19  1  0.85271900  0.56448500  0.10276200  1
  Cl  Cl20  1  0.82421500  0.73557500  0.40510400  1
  Cl  Cl21  1  0.32421500  0.76442500  0.59489600  1
  Cl  Cl22  1  0.17578500  0.23557500  0.09489600  1
  Cl  Cl23  1  0.67578500  0.26442500  0.90510400  1
