# generated using pymatgen
data_NbCl5
_symmetry_space_group_name_H-M   'P 1'
_cell_length_a   13.67769918
_cell_length_b   13.67769918
_cell_length_c   6.41346543
_cell_angle_alpha   89.41127909
_cell_angle_beta   89.41127909
_cell_angle_gamma   85.94665887
_symmetry_Int_Tables_number   1
_chemical_formula_structural   NbCl5
_chemical_formula_sum   'Nb6 Cl30'
_cell_volume   1196.70843980
_cell_formula_units_Z   6
loop_
 _symmetry_equiv_pos_site_id
 _symmetry_equiv_pos_as_xyz
  1  'x, y, z'
loop_
 _atom_site_type_symbol
 _atom_site_label
 _atom_site_symmetry_multiplicity
 _atom_site_fract_x
 _atom_site_fract_y
 _atom_site_fract_z
 _atom_site_occupancy
  Nb  Nb0  1  0.44149700  0.22511300  0.47520200  1
  Nb  Nb1  1  0.77488700  0.55850300  0.52479800  1
  Nb  Nb2  1  0.55850300  0.77488700  0.52479800  1
  Nb  Nb3  1  0.22511300  0.44149700  0.47520200  1
  Nb  Nb4  1  0.10815500  0.89184500  0.00000000  1
  Nb  Nb5  1  0.89184500  0.10815500  0.00000000  1
  Cl  Cl6  1  0.52352200  0.33066900  0.25756800  1
  Cl  Cl7  1  0.66933100  0.47647800  0.74243200  1
  Cl  Cl8  1  0.47647800  0.66933100  0.74243200  1
  Cl  Cl9  1  0.33066900  0.52352200  0.25756800  1
  Cl  Cl10  1  0.57029400  0.20167500  0.69932300  1
  Cl  Cl11  1  0.79832500  0.42970600  0.30067700  1
  Cl  Cl12  1  0.86848400  0.23746200  0.77251300  1
  Cl  Cl13  1  0.76253800  0.13151600  0.22748700  1
  Cl  Cl14  1  0.13151600  0.76253800  0.22748700  1
  Cl  Cl15  1  0.23746200  0.86848400  0.77251300  1
  Cl  Cl16  1  0.99732100  0.18976300  0.21015600  1
  Cl  Cl17  1  0.81023700  0.00267900  0.78984400  1
  Cl  Cl18  1  0.00267900  0.81023700  0.78984400  1
  Cl  Cl19  1  0.18976300  0.99732100  0.21015600  1
  Cl  Cl20  1  0.04791000  0.04791000  0.79471500  1
  Cl  Cl21  1  0.95209000  0.95209000  0.20528500  1
  Cl  Cl22  1  0.28578600  0.28578600  0.27356900  1
  Cl  Cl23  1  0.71421400  0.71421400  0.72643100  1
  Cl  Cl24  1  0.09622600  0.46501600  0.25132700  1
  Cl  Cl25  1  0.53498400  0.90377400  0.74867300  1
  Cl  Cl26  1  0.90377400  0.53498400  0.74867300  1
  Cl  Cl27  1  0.46501600  0.09622600  0.25132700  1
  Cl  Cl28  1  0.14321800  0.33565400  0.69228200  1
  Cl  Cl29  1  0.66434600  0.85678200  0.30771800  1
  Cl  Cl30  1  0.85678200  0.66434600  0.30771800  1
  Cl  Cl31  1  0.33565400  0.14321800  0.69228200  1
  Cl  Cl32  1  0.38095600  0.38095600  0.67647900  1
  Cl  Cl33  1  0.61904400  0.61904400  0.32352100  1
  Cl  Cl34  1  0.20167500  0.57029400  0.69932300  1
  Cl  Cl35  1  0.42970600  0.79832500  0.30067700  1
