# generated using pymatgen
data_ZnI2
_symmetry_space_group_name_H-M   'P 1'
_cell_length_a   15.04499410
_cell_length_b   15.04499410
_cell_length_c   15.04499410
_cell_angle_alpha   127.16838773
_cell_angle_beta   127.16838773
_cell_angle_gamma   77.97613498
_symmetry_Int_Tables_number   1
_chemical_formula_structural   ZnI2
_chemical_formula_sum   'Zn16 I32'
_cell_volume   2095.56944560
_cell_formula_units_Z   16
loop_
 _symmetry_equiv_pos_site_id
 _symmetry_equiv_pos_as_xyz
  1  'x, y, z'
loop_
 _atom_site_type_symbol
 _atom_site_label
 _atom_site_symmetry_multiplicity
 _atom_site_fract_x
 _atom_site_fract_y
 _atom_site_fract_z
 _atom_site_occupancy
  Zn  Zn0  1  0.15721300  0.93826200  0.96969700  1
  Zn  Zn1  1  0.31248300  0.53143400  0.96969700  1
  Zn  Zn2  1  0.56173800  0.34278700  0.03030300  1
  Zn  Zn3  1  0.09278700  0.56248300  0.28104900  1
  Zn  Zn4  1  0.28143400  0.81173800  0.71895100  1
  Zn  Zn5  1  0.68826200  0.21856600  0.28104900  1
  Zn  Zn6  1  0.93751700  0.40721300  0.71895100  1
  Zn  Zn7  1  0.96856600  0.18751700  0.03030300  1
  Zn  Zn8  1  0.59278700  0.31173800  0.53030300  1
  Zn  Zn9  1  0.43751700  0.71856600  0.53030300  1
  Zn  Zn10  1  0.18826200  0.90721300  0.46969700  1
  Zn  Zn11  1  0.65721300  0.68751700  0.21895100  1
  Zn  Zn12  1  0.46856600  0.43826200  0.78104900  1
  Zn  Zn13  1  0.06173800  0.03143400  0.21895100  1
  Zn  Zn14  1  0.81248300  0.84278700  0.78104900  1
  Zn  Zn15  1  0.78143400  0.06248300  0.46969700  1
  I  I16  1  0.47921800  0.77708900  0.75890200  1
  I  I17  1  0.52708900  0.26818700  0.79787100  1
  I  I18  1  0.47031600  0.72921800  0.20212900  1
  I  I19  1  0.77078200  0.02968400  0.79787100  1
  I  I20  1  0.23181300  0.97291100  0.20212900  1
  I  I21  1  0.77968400  0.48181300  0.75890200  1
  I  I22  1  0.72291100  0.02078200  0.24109800  1
  I  I23  1  0.01818700  0.72031600  0.24109800  1
  I  I24  1  0.27078200  0.47291100  0.74109800  1
  I  I25  1  0.22291100  0.98181300  0.70212900  1
  I  I26  1  0.27968400  0.52078200  0.29787100  1
  I  I27  1  0.97921800  0.22031600  0.70212900  1
  I  I28  1  0.51818700  0.27708900  0.29787100  1
  I  I29  1  0.97031600  0.76818700  0.74109800  1
  I  I30  1  0.02708900  0.22921800  0.25890200  1
  I  I31  1  0.73181300  0.52968400  0.25890200  1
  I  I32  1  0.62500000  0.67044700  0.54544700  1
  I  I33  1  0.42044700  0.37500000  0.54544700  1
  I  I34  1  0.82955300  0.87500000  0.45455300  1
  I  I35  1  0.12500000  0.07955300  0.45455300  1
  I  I36  1  0.12500000  0.57955300  0.95455300  1
  I  I37  1  0.32955300  0.87500000  0.95455300  1
  I  I38  1  0.92044700  0.37500000  0.04544700  1
  I  I39  1  0.62500000  0.17044700  0.04544700  1
  I  I40  1  0.88226400  0.38226400  0.50000000  1
  I  I41  1  0.13226400  0.13226400  0.00000000  1
  I  I42  1  0.36773600  0.36773600  0.00000000  1
  I  I43  1  0.11773600  0.61773600  0.50000000  1
  I  I44  1  0.86773600  0.86773600  0.00000000  1
  I  I45  1  0.61773600  0.11773600  0.50000000  1
  I  I46  1  0.38226400  0.88226400  0.50000000  1
  I  I47  1  0.63226400  0.63226400  0.00000000  1
