# generated using pymatgen
data_Sb7F29
_symmetry_space_group_name_H-M   'P 1'
_cell_length_a   13.73520700
_cell_length_b   8.68351800
_cell_length_c   20.35199856
_cell_angle_alpha   80.20456386
_cell_angle_beta   90.00000000
_cell_angle_gamma   90.00000000
_symmetry_Int_Tables_number   1
_chemical_formula_structural   Sb7F29
_chemical_formula_sum   'Sb28 F116'
_cell_volume   2391.99349371
_cell_formula_units_Z   4
loop_
 _symmetry_equiv_pos_site_id
 _symmetry_equiv_pos_as_xyz
  1  'x, y, z'
loop_
 _atom_site_type_symbol
 _atom_site_label
 _atom_site_symmetry_multiplicity
 _atom_site_fract_x
 _atom_site_fract_y
 _atom_site_fract_z
 _atom_site_occupancy
  Sb  Sb0  1  0.24566900  0.97967600  0.13139700  1
  Sb  Sb1  1  0.74566900  0.02032400  0.36860300  1
  Sb  Sb2  1  0.75433100  0.02032400  0.86860300  1
  Sb  Sb3  1  0.25433100  0.97967600  0.63139700  1
  Sb  Sb4  1  0.23760000  0.55240400  0.25132700  1
  Sb  Sb5  1  0.73760000  0.44759600  0.24867300  1
  Sb  Sb6  1  0.76240000  0.44759600  0.74867300  1
  Sb  Sb7  1  0.26240000  0.55240400  0.75132700  1
  Sb  Sb8  1  0.94199300  0.88930100  0.14012000  1
  Sb  Sb9  1  0.44199300  0.11069900  0.35988000  1
  Sb  Sb10  1  0.05800700  0.11069900  0.85988000  1
  Sb  Sb11  1  0.55800700  0.88930100  0.64012000  1
  Sb  Sb12  1  0.52093700  0.87709300  0.12844900  1
  Sb  Sb13  1  0.02093700  0.12290700  0.37155100  1
  Sb  Sb14  1  0.47906300  0.12290700  0.87155100  1
  Sb  Sb15  1  0.97906300  0.87709300  0.62844900  1
  Sb  Sb16  1  0.46311700  0.33725300  0.11368400  1
  Sb  Sb17  1  0.96311700  0.66274700  0.38631600  1
  Sb  Sb18  1  0.53688300  0.66274700  0.88631600  1
  Sb  Sb19  1  0.03688300  0.33725300  0.61368400  1
  Sb  Sb20  1  0.03088800  0.34519400  0.11107200  1
  Sb  Sb21  1  0.53088800  0.65480600  0.38892800  1
  Sb  Sb22  1  0.96911200  0.65480600  0.88892800  1
  Sb  Sb23  1  0.46911200  0.34519400  0.61107200  1
  Sb  Sb24  1  0.25004200  0.56229200  0.99447500  1
  Sb  Sb25  1  0.75004200  0.43770800  0.50552500  1
  Sb  Sb26  1  0.74995800  0.43770800  0.00552500  1
  Sb  Sb27  1  0.24995800  0.56229200  0.49447500  1
  F  F28  1  0.22265300  0.99074200  0.22191300  1
  F  F29  1  0.72265300  0.00925800  0.27808700  1
  F  F30  1  0.77734700  0.00925800  0.77808700  1
  F  F31  1  0.27734700  0.99074200  0.72191300  1
  F  F32  1  0.24160100  0.71550100  0.16788700  1
  F  F33  1  0.74160100  0.28449900  0.33211300  1
  F  F34  1  0.75839900  0.28449900  0.83211300  1
  F  F35  1  0.25839900  0.71550100  0.66788700  1
  F  F36  1  0.08425900  0.89961700  0.12170200  1
  F  F37  1  0.58425900  0.10038300  0.37829800  1
  F  F38  1  0.91574100  0.10038300  0.87829800  1
  F  F39  1  0.41574100  0.89961700  0.62170200  1
  F  F40  1  0.39663200  0.90125200  0.17618700  1
  F  F41  1  0.89663200  0.09874800  0.32381300  1
  F  F42  1  0.60336800  0.09874800  0.82381300  1
  F  F43  1  0.10336800  0.90125200  0.67618700  1
  F  F44  1  0.34478100  0.19733200  0.12503100  1
  F  F45  1  0.84478100  0.80266800  0.37496900  1
  F  F46  1  0.65521900  0.80266800  0.87496900  1
  F  F47  1  0.15521900  0.19733200  0.62503100  1
  F  F48  1  0.14761000  0.20246100  0.11966100  1
  F  F49  1  0.64761000  0.79753900  0.38033900  1
  F  F50  1  0.85239000  0.79753900  0.88033900  1
  F  F51  1  0.35239000  0.20246100  0.61966100  1
  F  F52  1  0.95769000  0.12140100  0.14234200  1
  F  F53  1  0.45769000  0.87859900  0.35765800  1
  F  F54  1  0.04231000  0.87859900  0.85765800  1
  F  F55  1  0.54231000  0.12140100  0.64234200  1
  F  F56  1  0.53630300  0.10984700  0.12723700  1
  F  F57  1  0.03630300  0.89015300  0.37276300  1
  F  F58  1  0.46369700  0.89015300  0.87276300  1
  F  F59  1  0.96369700  0.10984700  0.62723700  1
  F  F60  1  0.34495500  0.51946500  0.06831100  1
  F  F61  1  0.84495500  0.48053500  0.43168900  1
  F  F62  1  0.65504500  0.48053500  0.93168900  1
  F  F63  1  0.15504500  0.51946500  0.56831100  1
  F  F64  1  0.14770600  0.52437000  0.06392700  1
  F  F65  1  0.64770600  0.47563000  0.43607300  1
  F  F66  1  0.85229400  0.47563000  0.93607300  1
  F  F67  1  0.35229400  0.52437000  0.56392700  1
  F  F68  1  0.34110000  0.66225400  0.28496800  1
  F  F69  1  0.84110000  0.33774600  0.21503200  1
  F  F70  1  0.65890000  0.33774600  0.71503200  1
  F  F71  1  0.15890000  0.66225400  0.78496800  1
  F  F72  1  0.33217500  0.43673100  0.20987200  1
  F  F73  1  0.83217500  0.56326900  0.29012800  1
  F  F74  1  0.66782500  0.56326900  0.79012800  1
  F  F75  1  0.16782500  0.43673100  0.70987200  1
  F  F76  1  0.13692700  0.45584500  0.20606400  1
  F  F77  1  0.63692700  0.54415500  0.29393600  1
  F  F78  1  0.86307300  0.54415500  0.79393600  1
  F  F79  1  0.36307300  0.45584500  0.70606400  1
  F  F80  1  0.14028700  0.67658700  0.28400500  1
  F  F81  1  0.64028700  0.32341300  0.21599500  1
  F  F82  1  0.85971300  0.32341300  0.71599500  1
  F  F83  1  0.35971300  0.67658700  0.78400500  1
  F  F84  1  0.22925800  0.39879500  0.32891400  1
  F  F85  1  0.72925800  0.60120500  0.17108600  1
  F  F86  1  0.77074200  0.60120500  0.67108600  1
  F  F87  1  0.27074200  0.39879500  0.82891400  1
  F  F88  1  0.94664000  0.67146300  0.13734300  1
  F  F89  1  0.44664000  0.32853700  0.36265700  1
  F  F90  1  0.05336000  0.32853700  0.86265700  1
  F  F91  1  0.55336000  0.67146300  0.63734300  1
  F  F92  1  0.97398800  0.85670400  0.23244300  1
  F  F93  1  0.47398800  0.14329600  0.26755700  1
  F  F94  1  0.02601200  0.14329600  0.76755700  1
  F  F95  1  0.52601200  0.85670400  0.73244300  1
  F  F96  1  0.80926700  0.90931500  0.15953000  1
  F  F97  1  0.30926700  0.09068500  0.34047000  1
  F  F98  1  0.19073300  0.09068500  0.84047000  1
  F  F99  1  0.69073300  0.90931500  0.65953000  1
  F  F100  1  0.92121000  0.94738100  0.04753500  1
  F  F101  1  0.42121000  0.05261900  0.45246500  1
  F  F102  1  0.07879000  0.05261900  0.95246500  1
  F  F103  1  0.57879000  0.94738100  0.54753500  1
  F  F104  1  0.49910100  0.65792200  0.13450100  1
  F  F105  1  0.99910100  0.34207800  0.36549900  1
  F  F106  1  0.50089900  0.34207800  0.86549900  1
  F  F107  1  0.00089900  0.65792200  0.63450100  1
  F  F108  1  0.58007300  0.84832800  0.21319700  1
  F  F109  1  0.08007300  0.15167200  0.28680300  1
  F  F110  1  0.41992700  0.15167200  0.78680300  1
  F  F111  1  0.91992700  0.84832800  0.71319700  1
  F  F112  1  0.63514500  0.88496600  0.07735300  1
  F  F113  1  0.13514500  0.11503400  0.42264700  1
  F  F114  1  0.36485500  0.11503400  0.92264700  1
  F  F115  1  0.86485500  0.88496600  0.57735300  1
  F  F116  1  0.43725700  0.92692000  0.05313400  1
  F  F117  1  0.93725700  0.07308000  0.44686600  1
  F  F118  1  0.56274300  0.07308000  0.94686600  1
  F  F119  1  0.06274300  0.92692000  0.55313400  1
  F  F120  1  0.46685700  0.32147100  0.02109600  1
  F  F121  1  0.96685700  0.67852900  0.47890400  1
  F  F122  1  0.53314300  0.67852900  0.97890400  1
  F  F123  1  0.03314300  0.32147100  0.52109600  1
  F  F124  1  0.02140400  0.31697600  0.02003000  1
  F  F125  1  0.52140300  0.68302400  0.47997000  1
  F  F126  1  0.97859600  0.68302400  0.97997000  1
  F  F127  1  0.47859600  0.31697600  0.52003000  1
  F  F128  1  0.15266600  0.60440000  0.92631200  1
  F  F129  1  0.65266600  0.39560000  0.57368800  1
  F  F130  1  0.84733400  0.39560000  0.07368800  1
  F  F131  1  0.34733400  0.60440000  0.42631200  1
  F  F132  1  0.24952100  0.77285700  0.00793900  1
  F  F133  1  0.74952100  0.22714300  0.49206100  1
  F  F134  1  0.75047900  0.22714300  0.99206100  1
  F  F135  1  0.25047900  0.77285700  0.50793900  1
  F  F136  1  0.24811700  0.34682800  0.99081900  1
  F  F137  1  0.74811700  0.65317200  0.50918100  1
  F  F138  1  0.75188300  0.65317200  0.00918100  1
  F  F139  1  0.25188300  0.34682800  0.49081900  1
  F  F140  1  0.35303400  0.60194300  0.93032300  1
  F  F141  1  0.85303400  0.39805700  0.56967700  1
  F  F142  1  0.64696600  0.39805700  0.06967700  1
  F  F143  1  0.14696600  0.60194300  0.43032300  1
