# generated using pymatgen
data_Ba2BiSbO6
_symmetry_space_group_name_H-M   'P 1'
_cell_length_a   6.10849442
_cell_length_b   6.10849442
_cell_length_c   6.15658155
_cell_angle_alpha   60.01430178
_cell_angle_beta   60.01430178
_cell_angle_gamma   60.00222659
_symmetry_Int_Tables_number   1
_chemical_formula_structural   Ba2BiSbO6
_chemical_formula_sum   'Ba2 Bi1 Sb1 O6'
_cell_volume   162.47784885
_cell_formula_units_Z   1
loop_
 _symmetry_equiv_pos_site_id
 _symmetry_equiv_pos_as_xyz
  1  'x, y, z'
loop_
 _atom_site_type_symbol
 _atom_site_label
 _atom_site_symmetry_multiplicity
 _atom_site_fract_x
 _atom_site_fract_y
 _atom_site_fract_z
 _atom_site_occupancy
  Ba  Ba0  1  0.24915000  0.24915000  0.25484500  1
  Ba  Ba1  1  0.75085000  0.75085000  0.74515500  1
  Bi  Bi2  1  0.00000000  0.00000000  0.00000000  1
  Sb  Sb3  1  0.50000000  0.50000000  0.50000000  1
  O  O4  1  0.29558000  0.76364000  0.70089400  1
  O  O5  1  0.23636000  0.70442000  0.29910600  1
  O  O6  1  0.70442000  0.23636000  0.29910600  1
  O  O7  1  0.76364000  0.29558000  0.70089400  1
  O  O8  1  0.73142100  0.73142100  0.21381600  1
  O  O9  1  0.26857900  0.26857900  0.78618400  1
