# generated using pymatgen
data_Bi2TeO6
_symmetry_space_group_name_H-M   'P 1'
_cell_length_a   8.85045677
_cell_length_b   8.85045677
_cell_length_c   5.45762500
_cell_angle_alpha   90.00000000
_cell_angle_beta   90.00000000
_cell_angle_gamma   144.10541731
_symmetry_Int_Tables_number   1
_chemical_formula_structural   Bi2TeO6
_chemical_formula_sum   'Bi4 Te2 O12'
_cell_volume   250.64082909
_cell_formula_units_Z   2
loop_
 _symmetry_equiv_pos_site_id
 _symmetry_equiv_pos_as_xyz
  1  'x, y, z'
loop_
 _atom_site_type_symbol
 _atom_site_label
 _atom_site_symmetry_multiplicity
 _atom_site_fract_x
 _atom_site_fract_y
 _atom_site_fract_z
 _atom_site_occupancy
  Bi  Bi0  1  0.32680300  0.67319700  0.01109200  1
  Bi  Bi1  1  0.17319700  0.82680300  0.51109200  1
  Bi  Bi2  1  0.67319700  0.32680300  0.98890800  1
  Bi  Bi3  1  0.82680300  0.17319700  0.48890800  1
  Te  Te4  1  0.50000000  0.50000000  0.50000000  1
  Te  Te5  1  0.00000000  0.00000000  0.00000000  1
  O  O6  1  0.39081900  0.60918100  0.41546800  1
  O  O7  1  0.10918100  0.89081900  0.91546800  1
  O  O8  1  0.60918100  0.39081900  0.58453200  1
  O  O9  1  0.89081900  0.10918100  0.08453200  1
  O  O10  1  0.78215500  0.71784500  0.25000000  1
  O  O11  1  0.71784500  0.78215500  0.75000000  1
  O  O12  1  0.49960200  0.00039800  0.75000000  1
  O  O13  1  0.00039800  0.49960200  0.25000000  1
  O  O14  1  0.50039800  0.99960200  0.25000000  1
  O  O15  1  0.99960200  0.50039800  0.75000000  1
  O  O16  1  0.28215500  0.21784500  0.25000000  1
  O  O17  1  0.21784500  0.28215500  0.75000000  1
