# generated using pymatgen
data_KNa22C2S9ClO42
_symmetry_space_group_name_H-M   'P 1'
_cell_length_a   10.61324047
_cell_length_b   10.61324047
_cell_length_c   21.49502200
_cell_angle_alpha   90.00000000
_cell_angle_beta   90.00000000
_cell_angle_gamma   120.00000293
_symmetry_Int_Tables_number   1
_chemical_formula_structural   KNa22C2S9ClO42
_chemical_formula_sum   'K2 Na44 C4 S18 Cl2 O84'
_cell_volume   2096.83627693
_cell_formula_units_Z   2
loop_
 _symmetry_equiv_pos_site_id
 _symmetry_equiv_pos_as_xyz
  1  'x, y, z'
loop_
 _atom_site_type_symbol
 _atom_site_label
 _atom_site_symmetry_multiplicity
 _atom_site_fract_x
 _atom_site_fract_y
 _atom_site_fract_z
 _atom_site_occupancy
  K  K0  1  0.00000000  0.00000000  0.00000000  1
  K  K1  1  0.00000000  0.00000000  0.50000000  1
  Na  Na2  1  0.50000000  0.00000000  0.00000000  1
  Na  Na3  1  0.50000000  0.50000000  0.50000000  1
  Na  Na4  1  0.00000000  0.50000000  0.50000000  1
  Na  Na5  1  0.00000000  0.50000000  0.00000000  1
  Na  Na6  1  0.50000000  0.50000000  0.00000000  1
  Na  Na7  1  0.50000000  0.00000000  0.50000000  1
  Na  Na8  1  0.66666700  0.33333300  0.37518700  1
  Na  Na9  1  0.33333300  0.66666700  0.87518700  1
  Na  Na10  1  0.33333300  0.66666700  0.62481300  1
  Na  Na11  1  0.66666700  0.33333300  0.12481300  1
  Na  Na12  1  0.00000000  0.00000000  0.32637500  1
  Na  Na13  1  0.00000000  0.00000000  0.82637500  1
  Na  Na14  1  0.00000000  0.00000000  0.67362500  1
  Na  Na15  1  0.00000000  0.00000000  0.17362500  1
  Na  Na16  1  0.34916400  0.14792400  0.25000000  1
  Na  Na17  1  0.20124100  0.34916400  0.75000000  1
  Na  Na18  1  0.14792400  0.79875900  0.75000000  1
  Na  Na19  1  0.85207600  0.20124100  0.25000000  1
  Na  Na20  1  0.79875900  0.65083600  0.25000000  1
  Na  Na21  1  0.65083600  0.85207600  0.75000000  1
  Na  Na22  1  0.17849100  0.36112300  0.42586500  1
  Na  Na23  1  0.81736800  0.17849100  0.92586500  1
  Na  Na24  1  0.36112300  0.18263200  0.92586500  1
  Na  Na25  1  0.63887700  0.81736800  0.42586500  1
  Na  Na26  1  0.18263200  0.82150900  0.42586500  1
  Na  Na27  1  0.82150900  0.63887700  0.92586500  1
  Na  Na28  1  0.82150900  0.63887700  0.57413500  1
  Na  Na29  1  0.18263200  0.82150900  0.07413500  1
  Na  Na30  1  0.63887700  0.81736800  0.07413500  1
  Na  Na31  1  0.36112300  0.18263200  0.57413500  1
  Na  Na32  1  0.81736800  0.17849100  0.57413500  1
  Na  Na33  1  0.17849100  0.36112300  0.07413500  1
  Na  Na34  1  0.52208900  0.05411500  0.66092500  1
  Na  Na35  1  0.46797400  0.52208900  0.16092500  1
  Na  Na36  1  0.05411500  0.53202600  0.16092500  1
  Na  Na37  1  0.94588500  0.46797400  0.66092500  1
  Na  Na38  1  0.53202600  0.47791100  0.66092500  1
  Na  Na39  1  0.47791100  0.94588500  0.16092500  1
  Na  Na40  1  0.47791100  0.94588500  0.33907500  1
  Na  Na41  1  0.53202600  0.47791100  0.83907500  1
  Na  Na42  1  0.94588500  0.46797400  0.83907500  1
  Na  Na43  1  0.05411500  0.53202600  0.33907500  1
  Na  Na44  1  0.46797400  0.52208900  0.33907500  1
  Na  Na45  1  0.52208900  0.05411500  0.83907500  1
  C  C46  1  0.66666700  0.33333300  0.56975400  1
  C  C47  1  0.33333300  0.66666700  0.06975400  1
  C  C48  1  0.33333300  0.66666700  0.43024600  1
  C  C49  1  0.66666700  0.33333300  0.93024600  1
  S  S50  1  0.20897100  0.35757700  0.25000000  1
  S  S51  1  0.85139400  0.20897100  0.75000000  1
  S  S52  1  0.35757700  0.14860600  0.75000000  1
  S  S53  1  0.64242300  0.85139400  0.25000000  1
  S  S54  1  0.14860600  0.79102900  0.25000000  1
  S  S55  1  0.79102900  0.64242300  0.75000000  1
  S  S56  1  0.33965100  0.16859500  0.40887200  1
  S  S57  1  0.17105600  0.33965100  0.90887200  1
  S  S58  1  0.16859500  0.82894400  0.90887200  1
  S  S59  1  0.83140500  0.17105600  0.40887200  1
  S  S60  1  0.82894400  0.66034900  0.40887200  1
  S  S61  1  0.66034900  0.83140500  0.90887200  1
  S  S62  1  0.66034900  0.83140500  0.59112800  1
  S  S63  1  0.82894400  0.66034900  0.09112800  1
  S  S64  1  0.83140500  0.17105600  0.09112800  1
  S  S65  1  0.16859500  0.82894400  0.59112800  1
  S  S66  1  0.17105600  0.33965100  0.59112800  1
  S  S67  1  0.33965100  0.16859500  0.09112800  1
  Cl  Cl68  1  0.66666700  0.33333300  0.25000000  1
  Cl  Cl69  1  0.33333300  0.66666700  0.75000000  1
  O  O70  1  0.59565100  0.40387600  0.56995300  1
  O  O71  1  0.19177500  0.59565100  0.06995300  1
  O  O72  1  0.40387600  0.80822500  0.06995300  1
  O  O73  1  0.59612400  0.19177500  0.56995300  1
  O  O74  1  0.80822500  0.40434900  0.56995300  1
  O  O75  1  0.40434900  0.59612400  0.06995300  1
  O  O76  1  0.40434900  0.59612400  0.43004700  1
  O  O77  1  0.80822500  0.40434900  0.93004700  1
  O  O78  1  0.59612400  0.19177500  0.93004700  1
  O  O79  1  0.40387600  0.80822500  0.43004700  1
  O  O80  1  0.19177500  0.59565100  0.43004700  1
  O  O81  1  0.59565100  0.40387600  0.93004700  1
  O  O82  1  0.35574800  0.36722600  0.25000000  1
  O  O83  1  0.98852200  0.35574800  0.75000000  1
  O  O84  1  0.36722600  0.01147800  0.75000000  1
  O  O85  1  0.63277400  0.98852200  0.25000000  1
  O  O86  1  0.01147800  0.64425200  0.25000000  1
  O  O87  1  0.64425200  0.63277400  0.75000000  1
  O  O88  1  0.09073400  0.20105000  0.25000000  1
  O  O89  1  0.88968400  0.09073400  0.75000000  1
  O  O90  1  0.20105000  0.11031600  0.75000000  1
  O  O91  1  0.79895000  0.88968400  0.25000000  1
  O  O92  1  0.11031600  0.90926600  0.25000000  1
  O  O93  1  0.90926600  0.79895000  0.75000000  1
  O  O94  1  0.19889600  0.43124800  0.30712900  1
  O  O95  1  0.76764800  0.19889600  0.80712900  1
  O  O96  1  0.43124800  0.23235200  0.80712900  1
  O  O97  1  0.56875200  0.76764800  0.30712900  1
  O  O98  1  0.23235200  0.80110400  0.30712900  1
  O  O99  1  0.80110400  0.56875200  0.80712900  1
  O  O100  1  0.80110400  0.56875200  0.69287100  1
  O  O101  1  0.23235200  0.80110400  0.19287100  1
  O  O102  1  0.56875200  0.76764800  0.19287100  1
  O  O103  1  0.43124800  0.23235200  0.69287100  1
  O  O104  1  0.76764800  0.19889600  0.69287100  1
  O  O105  1  0.19889600  0.43124800  0.19287100  1
  O  O106  1  0.38987300  0.11362200  0.35595000  1
  O  O107  1  0.27625200  0.38987300  0.85595000  1
  O  O108  1  0.11362200  0.72374800  0.85595000  1
  O  O109  1  0.88637800  0.27625200  0.35595000  1
  O  O110  1  0.72374800  0.61012700  0.35595000  1
  O  O111  1  0.61012700  0.88637800  0.85595000  1
  O  O112  1  0.61012700  0.88637800  0.64405000  1
  O  O113  1  0.72374800  0.61012700  0.14405000  1
  O  O114  1  0.88637800  0.27625200  0.14405000  1
  O  O115  1  0.11362200  0.72374800  0.64405000  1
  O  O116  1  0.27625200  0.38987300  0.64405000  1
  O  O117  1  0.38987300  0.11362200  0.14405000  1
  O  O118  1  0.19610000  0.15557400  0.39431500  1
  O  O119  1  0.04052500  0.19610000  0.89431500  1
  O  O120  1  0.15557400  0.95947500  0.89431500  1
  O  O121  1  0.84442600  0.04052500  0.39431500  1
  O  O122  1  0.95947500  0.80390000  0.39431500  1
  O  O123  1  0.80390000  0.84442600  0.89431500  1
  O  O124  1  0.80390000  0.84442600  0.60568500  1
  O  O125  1  0.95947500  0.80390000  0.10568500  1
  O  O126  1  0.84442600  0.04052500  0.10568500  1
  O  O127  1  0.15557400  0.95947500  0.60568500  1
  O  O128  1  0.04052500  0.19610000  0.60568500  1
  O  O129  1  0.19610000  0.15557400  0.10568500  1
  O  O130  1  0.45027500  0.32524200  0.41940900  1
  O  O131  1  0.12503400  0.45027500  0.91940900  1
  O  O132  1  0.32524200  0.87496600  0.91940900  1
  O  O133  1  0.67475800  0.12503400  0.41940900  1
  O  O134  1  0.87496600  0.54972500  0.41940900  1
  O  O135  1  0.54972500  0.67475800  0.91940900  1
  O  O136  1  0.54972500  0.67475800  0.58059100  1
  O  O137  1  0.87496600  0.54972500  0.08059100  1
  O  O138  1  0.67475800  0.12503400  0.08059100  1
  O  O139  1  0.32524200  0.87496600  0.58059100  1
  O  O140  1  0.12503400  0.45027500  0.58059100  1
  O  O141  1  0.45027500  0.32524200  0.08059100  1
  O  O142  1  0.32359700  0.07973400  0.46566300  1
  O  O143  1  0.24386300  0.32359700  0.96566300  1
  O  O144  1  0.07973400  0.75613700  0.96566300  1
  O  O145  1  0.92026600  0.24386300  0.46566300  1
  O  O146  1  0.75613700  0.67640300  0.46566300  1
  O  O147  1  0.67640300  0.92026600  0.96566300  1
  O  O148  1  0.67640300  0.92026600  0.53433700  1
  O  O149  1  0.75613700  0.67640300  0.03433700  1
  O  O150  1  0.92026600  0.24386300  0.03433700  1
  O  O151  1  0.07973400  0.75613700  0.53433700  1
  O  O152  1  0.24386300  0.32359700  0.53433700  1
  O  O153  1  0.32359700  0.07973400  0.03433700  1
