# generated using pymatgen
data_Li2TiO3
_symmetry_space_group_name_H-M   'P 1'
_cell_length_a   5.10832742
_cell_length_b   5.10832742
_cell_length_c   9.83459528
_cell_angle_alpha   84.92581657
_cell_angle_beta   84.92581657
_cell_angle_gamma   120.10828768
_symmetry_Int_Tables_number   1
_chemical_formula_structural   Li2TiO3
_chemical_formula_sum   'Li8 Ti4 O12'
_cell_volume   218.49596530
_cell_formula_units_Z   4
loop_
 _symmetry_equiv_pos_site_id
 _symmetry_equiv_pos_as_xyz
  1  'x, y, z'
loop_
 _atom_site_type_symbol
 _atom_site_label
 _atom_site_symmetry_multiplicity
 _atom_site_fract_x
 _atom_site_fract_y
 _atom_site_fract_z
 _atom_site_occupancy
  Li  Li0  1  0.16000900  0.31966500  0.00037700  1
  Li  Li1  1  0.68033500  0.83999100  0.49962300  1
  Li  Li2  1  0.83999100  0.68033500  0.99962300  1
  Li  Li3  1  0.31966500  0.16000900  0.50037700  1
  Li  Li4  1  0.00000000  0.50000000  0.50000000  1
  Li  Li5  1  0.50000000  0.00000000  0.00000000  1
  Li  Li6  1  0.91565800  0.08434200  0.75000000  1
  Li  Li7  1  0.08434200  0.91565800  0.25000000  1
  Ti  Ti8  1  0.58258500  0.41741500  0.75000000  1
  Ti  Ti9  1  0.74960600  0.25039400  0.25000000  1
  Ti  Ti10  1  0.25039400  0.74960600  0.75000000  1
  Ti  Ti11  1  0.41741500  0.58258500  0.25000000  1
  O  O12  1  0.04534000  0.23323300  0.36556400  1
  O  O13  1  0.87704900  0.40407700  0.86309700  1
  O  O14  1  0.76676700  0.95466000  0.13443600  1
  O  O15  1  0.95466000  0.76676700  0.63443600  1
  O  O16  1  0.52076400  0.68975800  0.86303800  1
  O  O17  1  0.59592300  0.12295100  0.63690300  1
  O  O18  1  0.12295100  0.59592300  0.13690300  1
  O  O19  1  0.40407700  0.87704900  0.36309700  1
  O  O20  1  0.68975800  0.52076400  0.36303800  1
  O  O21  1  0.31024200  0.47923600  0.63696200  1
  O  O22  1  0.47923600  0.31024200  0.13696200  1
  O  O23  1  0.23323300  0.04534000  0.86556400  1
