# generated using pymatgen
data_Er2S3
_symmetry_space_group_name_H-M   'P 1'
_cell_length_a   3.99357700
_cell_length_b   10.11643100
_cell_length_c   17.54691338
_cell_angle_alpha   81.37752542
_cell_angle_beta   90.00000000
_cell_angle_gamma   90.00000000
_symmetry_Int_Tables_number   1
_chemical_formula_structural   Er2S3
_chemical_formula_sum   'Er12 S18'
_cell_volume   700.89606169
_cell_formula_units_Z   6
loop_
 _symmetry_equiv_pos_site_id
 _symmetry_equiv_pos_as_xyz
  1  'x, y, z'
loop_
 _atom_site_type_symbol
 _atom_site_label
 _atom_site_symmetry_multiplicity
 _atom_site_fract_x
 _atom_site_fract_y
 _atom_site_fract_z
 _atom_site_occupancy
  Er  Er0  1  0.75000000  0.87608800  0.42982200  1
  Er  Er1  1  0.25000000  0.12391200  0.57017800  1
  Er  Er2  1  0.75000000  0.45097500  0.11468300  1
  Er  Er3  1  0.25000000  0.54902500  0.88531700  1
  Er  Er4  1  0.75000000  0.81098300  0.02066700  1
  Er  Er5  1  0.25000000  0.18901700  0.97933300  1
  Er  Er6  1  0.75000000  0.51325300  0.39958500  1
  Er  Er7  1  0.25000000  0.48674700  0.60041500  1
  Er  Er8  1  0.25000000  0.82967400  0.21827800  1
  Er  Er9  1  0.75000000  0.17032600  0.78172200  1
  Er  Er10  1  0.25000000  0.18768600  0.27914600  1
  Er  Er11  1  0.75000000  0.81231400  0.72085400  1
  S  S12  1  0.75000000  0.38479200  0.96743900  1
  S  S13  1  0.25000000  0.61520800  0.03256100  1
  S  S14  1  0.25000000  0.71023600  0.36860900  1
  S  S15  1  0.75000000  0.28976400  0.63139100  1
  S  S16  1  0.25000000  0.00760700  0.73181400  1
  S  S17  1  0.75000000  0.99239300  0.26818600  1
  S  S18  1  0.25000000  0.36721500  0.46873000  1
  S  S19  1  0.75000000  0.63278500  0.53127000  1
  S  S20  1  0.75000000  0.36230000  0.28220500  1
  S  S21  1  0.25000000  0.63770000  0.71779500  1
  S  S22  1  0.25000000  0.26870400  0.12697100  1
  S  S23  1  0.75000000  0.73129600  0.87302900  1
  S  S24  1  0.75000000  0.04856900  0.92421500  1
  S  S25  1  0.25000000  0.95143100  0.07578500  1
  S  S26  1  0.75000000  0.94762800  0.57530000  1
  S  S27  1  0.25000000  0.05237200  0.42470000  1
  S  S28  1  0.25000000  0.31885800  0.81867900  1
  S  S29  1  0.75000000  0.68114200  0.18132100  1
