# generated using pymatgen
data_H4OF2
_symmetry_space_group_name_H-M   'P 1'
_cell_length_a   6.10518900
_cell_length_b   3.59314900
_cell_length_c   11.31080512
_cell_angle_alpha   82.77099677
_cell_angle_beta   90.00000000
_cell_angle_gamma   90.00000000
_symmetry_Int_Tables_number   1
_chemical_formula_structural   H4OF2
_chemical_formula_sum   'H16 O4 F8'
_cell_volume   246.15117643
_cell_formula_units_Z   4
loop_
 _symmetry_equiv_pos_site_id
 _symmetry_equiv_pos_as_xyz
  1  'x, y, z'
loop_
 _atom_site_type_symbol
 _atom_site_label
 _atom_site_symmetry_multiplicity
 _atom_site_fract_x
 _atom_site_fract_y
 _atom_site_fract_z
 _atom_site_occupancy
  H  H0  1  0.89418900  0.16383300  0.70010700  1
  H  H1  1  0.39418900  0.83616700  0.79989300  1
  H  H2  1  0.10581100  0.83616700  0.29989300  1
  H  H3  1  0.60581100  0.16383300  0.20010700  1
  H  H4  1  0.68617900  0.90380900  0.65496700  1
  H  H5  1  0.18617900  0.09619100  0.84503300  1
  H  H6  1  0.31382100  0.09619100  0.34503300  1
  H  H7  1  0.81382100  0.90380900  0.15496700  1
  H  H8  1  0.80493500  0.23141300  0.55662400  1
  H  H9  1  0.30493500  0.76858700  0.94337600  1
  H  H10  1  0.19506500  0.76858700  0.44337600  1
  H  H11  1  0.69506500  0.23141300  0.05662400  1
  H  H12  1  0.64574200  0.41178700  0.38625800  1
  H  H13  1  0.14574200  0.58821300  0.11374200  1
  H  H14  1  0.35425800  0.58821300  0.61374200  1
  H  H15  1  0.85425800  0.41178700  0.88625800  1
  O  O16  1  0.83048800  0.04143600  0.62996700  1
  O  O17  1  0.33048800  0.95856400  0.87003300  1
  O  O18  1  0.16951200  0.95856400  0.37003300  1
  O  O19  1  0.66951200  0.04143600  0.12996700  1
  F  F20  1  0.98682500  0.29860800  0.80617900  1
  F  F21  1  0.48682500  0.70139200  0.69382100  1
  F  F22  1  0.01317500  0.70139200  0.19382100  1
  F  F23  1  0.51317500  0.29860800  0.30617900  1
  F  F24  1  0.75207800  0.50991400  0.94855200  1
  F  F25  1  0.25207800  0.49008600  0.55144800  1
  F  F26  1  0.24792200  0.49008600  0.05144800  1
  F  F27  1  0.74792200  0.50991400  0.44855200  1
