# generated using pymatgen
data_Ge3Ru2
_symmetry_space_group_name_H-M   'P 1'
_cell_length_a   5.78381500
_cell_length_b   9.33825700
_cell_length_c   11.57692700
_cell_angle_alpha   90.00000000
_cell_angle_beta   90.00000000
_cell_angle_gamma   90.00000000
_symmetry_Int_Tables_number   1
_chemical_formula_structural   Ge3Ru2
_chemical_formula_sum   'Ge24 Ru16'
_cell_volume   625.27852051
_cell_formula_units_Z   8
loop_
 _symmetry_equiv_pos_site_id
 _symmetry_equiv_pos_as_xyz
  1  'x, y, z'
loop_
 _atom_site_type_symbol
 _atom_site_label
 _atom_site_symmetry_multiplicity
 _atom_site_fract_x
 _atom_site_fract_y
 _atom_site_fract_z
 _atom_site_occupancy
  Ge  Ge0  1  0.59801500  0.10010400  0.36424600  1
  Ge  Ge1  1  0.09801500  0.39989600  0.13575400  1
  Ge  Ge2  1  0.90198500  0.10010400  0.63575400  1
  Ge  Ge3  1  0.40198500  0.39989600  0.86424600  1
  Ge  Ge4  1  0.40198500  0.89989600  0.63575400  1
  Ge  Ge5  1  0.90198500  0.60010400  0.86424600  1
  Ge  Ge6  1  0.09801500  0.89989600  0.36424600  1
  Ge  Ge7  1  0.59801500  0.60010400  0.13575400  1
  Ge  Ge8  1  0.91293100  0.06789300  0.17287400  1
  Ge  Ge9  1  0.41293100  0.43210700  0.32712600  1
  Ge  Ge10  1  0.58706900  0.06789300  0.82712600  1
  Ge  Ge11  1  0.08706900  0.43210700  0.67287400  1
  Ge  Ge12  1  0.08706900  0.93210700  0.82712600  1
  Ge  Ge13  1  0.58706900  0.56789300  0.67287400  1
  Ge  Ge14  1  0.41293100  0.93210700  0.17287400  1
  Ge  Ge15  1  0.91293100  0.56789300  0.32712600  1
  Ge  Ge16  1  0.53647000  0.71944200  0.42631300  1
  Ge  Ge17  1  0.03647000  0.78055800  0.07368700  1
  Ge  Ge18  1  0.96353000  0.71944200  0.57368700  1
  Ge  Ge19  1  0.46353000  0.78055800  0.92631300  1
  Ge  Ge20  1  0.46353000  0.28055800  0.57368700  1
  Ge  Ge21  1  0.96353000  0.21944200  0.92631300  1
  Ge  Ge22  1  0.03647000  0.28055800  0.42631300  1
  Ge  Ge23  1  0.53647000  0.21944200  0.07368700  1
  Ru  Ru24  1  0.75000000  0.92720500  0.50000000  1
  Ru  Ru25  1  0.25000000  0.57279500  0.00000000  1
  Ru  Ru26  1  0.25000000  0.07279500  0.50000000  1
  Ru  Ru27  1  0.75000000  0.42720500  0.00000000  1
  Ru  Ru28  1  0.75000000  0.45414300  0.50000000  1
  Ru  Ru29  1  0.25000000  0.04585700  0.00000000  1
  Ru  Ru30  1  0.25000000  0.54585700  0.50000000  1
  Ru  Ru31  1  0.75000000  0.95414300  0.00000000  1
  Ru  Ru32  1  0.75882300  0.31258300  0.25318300  1
  Ru  Ru33  1  0.25882300  0.18741700  0.24681700  1
  Ru  Ru34  1  0.74117700  0.31258300  0.74681700  1
  Ru  Ru35  1  0.24117700  0.18741700  0.75318300  1
  Ru  Ru36  1  0.24117700  0.68741700  0.74681700  1
  Ru  Ru37  1  0.74117700  0.81258300  0.75318300  1
  Ru  Ru38  1  0.25882300  0.68741700  0.25318300  1
  Ru  Ru39  1  0.75882300  0.81258300  0.24681700  1
