# generated using pymatgen
data_CsFeCl4
_symmetry_space_group_name_H-M   'P 1'
_cell_length_a   7.38217600
_cell_length_b   9.78693600
_cell_length_c   11.86556400
_cell_angle_alpha   90.00000000
_cell_angle_beta   90.00000000
_cell_angle_gamma   90.00000000
_symmetry_Int_Tables_number   1
_chemical_formula_structural   CsFeCl4
_chemical_formula_sum   'Cs4 Fe4 Cl16'
_cell_volume   857.27375766
_cell_formula_units_Z   4
loop_
 _symmetry_equiv_pos_site_id
 _symmetry_equiv_pos_as_xyz
  1  'x, y, z'
loop_
 _atom_site_type_symbol
 _atom_site_label
 _atom_site_symmetry_multiplicity
 _atom_site_fract_x
 _atom_site_fract_y
 _atom_site_fract_z
 _atom_site_occupancy
  Cs  Cs0  1  0.25000000  0.33443000  0.68077700  1
  Cs  Cs1  1  0.75000000  0.66557000  0.31922300  1
  Cs  Cs2  1  0.75000000  0.83443000  0.81922300  1
  Cs  Cs3  1  0.25000000  0.16557000  0.18077700  1
  Fe  Fe4  1  0.25000000  0.80514500  0.56927200  1
  Fe  Fe5  1  0.75000000  0.19485500  0.43072800  1
  Fe  Fe6  1  0.75000000  0.30514500  0.93072800  1
  Fe  Fe7  1  0.25000000  0.69485500  0.06927200  1
  Cl  Cl8  1  0.50712200  0.32740500  0.41643800  1
  Cl  Cl9  1  0.00712200  0.67259500  0.58356200  1
  Cl  Cl10  1  0.49287800  0.82740500  0.08356200  1
  Cl  Cl11  1  0.99287800  0.17259500  0.91643800  1
  Cl  Cl12  1  0.49287800  0.67259500  0.58356200  1
  Cl  Cl13  1  0.99287800  0.32740500  0.41643800  1
  Cl  Cl14  1  0.50712200  0.17259500  0.91643800  1
  Cl  Cl15  1  0.00712200  0.82740500  0.08356200  1
  Cl  Cl16  1  0.25000000  0.59324000  0.90419800  1
  Cl  Cl17  1  0.75000000  0.40676000  0.09580200  1
  Cl  Cl18  1  0.75000000  0.09324000  0.59580200  1
  Cl  Cl19  1  0.25000000  0.90676000  0.40419800  1
  Cl  Cl20  1  0.25000000  0.55011600  0.21177900  1
  Cl  Cl21  1  0.75000000  0.44988400  0.78822100  1
  Cl  Cl22  1  0.75000000  0.05011600  0.28822100  1
  Cl  Cl23  1  0.25000000  0.94988400  0.71177900  1
