# generated using pymatgen
data_Ta(ICl)2
_symmetry_space_group_name_H-M   'P 1'
_cell_length_a   7.96765229
_cell_length_b   7.96765229
_cell_length_c   7.96765229
_cell_angle_alpha   123.05416364
_cell_angle_beta   112.30793564
_cell_angle_gamma   94.30030784
_symmetry_Int_Tables_number   1
_chemical_formula_structural   Ta(ICl)2
_chemical_formula_sum   'Ta2 I4 Cl4'
_cell_volume   365.36060982
_cell_formula_units_Z   2
loop_
 _symmetry_equiv_pos_site_id
 _symmetry_equiv_pos_as_xyz
  1  'x, y, z'
loop_
 _atom_site_type_symbol
 _atom_site_label
 _atom_site_symmetry_multiplicity
 _atom_site_fract_x
 _atom_site_fract_y
 _atom_site_fract_z
 _atom_site_occupancy
  Ta  Ta0  1  0.00000000  0.29081000  0.29081000  1
  Ta  Ta1  1  0.00000000  0.70919000  0.70919000  1
  I  I2  1  0.82404000  0.82404000  0.00000000  1
  I  I3  1  0.17596000  0.17596000  0.00000000  1
  I  I4  1  0.78956200  0.28956200  0.50000000  1
  I  I5  1  0.21043800  0.71043800  0.50000000  1
  Cl  Cl6  1  0.73869000  0.26999200  0.00868200  1
  Cl  Cl7  1  0.26131000  0.26999200  0.53130200  1
  Cl  Cl8  1  0.73869000  0.73000800  0.46869800  1
  Cl  Cl9  1  0.26131000  0.73000800  0.99131800  1
