# generated using pymatgen
data_LaP7
_symmetry_space_group_name_H-M   'P 1'
_cell_length_a   11.71653200
_cell_length_b   7.04317900
_cell_length_c   10.34159321
_cell_angle_alpha   50.29321595
_cell_angle_beta   90.00000000
_cell_angle_gamma   90.00000000
_symmetry_Int_Tables_number   1
_chemical_formula_structural   LaP7
_chemical_formula_sum   'La4 P28'
_cell_volume   656.54499352
_cell_formula_units_Z   4
loop_
 _symmetry_equiv_pos_site_id
 _symmetry_equiv_pos_as_xyz
  1  'x, y, z'
loop_
 _atom_site_type_symbol
 _atom_site_label
 _atom_site_symmetry_multiplicity
 _atom_site_fract_x
 _atom_site_fract_y
 _atom_site_fract_z
 _atom_site_occupancy
  La  La0  1  0.65086500  0.88566600  0.71630400  1
  La  La1  1  0.15086500  0.11433400  0.78369600  1
  La  La2  1  0.34913500  0.11433400  0.28369600  1
  La  La3  1  0.84913500  0.88566600  0.21630400  1
  P  P4  1  0.78044400  0.28606800  0.25032900  1
  P  P5  1  0.28044400  0.71393200  0.24967100  1
  P  P6  1  0.21955600  0.71393200  0.74967100  1
  P  P7  1  0.71955600  0.28606800  0.75032900  1
  P  P8  1  0.53408800  0.68853900  0.40835200  1
  P  P9  1  0.03408800  0.31146100  0.09164800  1
  P  P10  1  0.46591200  0.31146100  0.59164800  1
  P  P11  1  0.96591200  0.68853900  0.90835200  1
  P  P12  1  0.88473600  0.63813300  0.73773900  1
  P  P13  1  0.38473600  0.36186700  0.76226100  1
  P  P14  1  0.11526400  0.36186700  0.26226100  1
  P  P15  1  0.61526400  0.63813300  0.23773900  1
  P  P16  1  0.66263100  0.29662600  0.95118700  1
  P  P17  1  0.16263100  0.70337400  0.54881300  1
  P  P18  1  0.33736900  0.70337400  0.04881300  1
  P  P19  1  0.83736900  0.29662600  0.45118700  1
  P  P20  1  0.90098200  0.26475200  0.82265500  1
  P  P21  1  0.40098200  0.73524800  0.67734500  1
  P  P22  1  0.09901800  0.73524800  0.17734500  1
  P  P23  1  0.59901800  0.26475200  0.32265500  1
  P  P24  1  0.48802700  0.16192400  0.99287000  1
  P  P25  1  0.98802700  0.83807600  0.50713000  1
  P  P26  1  0.51197300  0.83807600  0.00713000  1
  P  P27  1  0.01197300  0.16192400  0.49287000  1
  P  P28  1  0.68992400  0.68714000  0.52755900  1
  P  P29  1  0.18992400  0.31286000  0.97244100  1
  P  P30  1  0.31007600  0.31286000  0.47244100  1
  P  P31  1  0.81007600  0.68714000  0.02755900  1
