# generated using pymatgen
data_YAlGe
_symmetry_space_group_name_H-M   'P 1'
_cell_length_a   5.61818154
_cell_length_b   5.61818154
_cell_length_c   5.78627300
_cell_angle_alpha   90.00000000
_cell_angle_beta   90.00000000
_cell_angle_gamma   137.49226801
_symmetry_Int_Tables_number   1
_chemical_formula_structural   YAlGe
_chemical_formula_sum   'Y2 Al2 Ge2'
_cell_volume   123.40641985
_cell_formula_units_Z   2
loop_
 _symmetry_equiv_pos_site_id
 _symmetry_equiv_pos_as_xyz
  1  'x, y, z'
loop_
 _atom_site_type_symbol
 _atom_site_label
 _atom_site_symmetry_multiplicity
 _atom_site_fract_x
 _atom_site_fract_y
 _atom_site_fract_z
 _atom_site_occupancy
  Y  Y0  1  0.31025600  0.68974400  0.25000000  1
  Y  Y1  1  0.68974400  0.31025600  0.75000000  1
  Al  Al2  1  0.00000000  0.00000000  0.50000000  1
  Al  Al3  1  0.00000000  0.00000000  0.00000000  1
  Ge  Ge4  1  0.39440100  0.60559900  0.75000000  1
  Ge  Ge5  1  0.60559900  0.39440100  0.25000000  1
