# generated using pymatgen
data_Mo2SBr2
_symmetry_space_group_name_H-M   'P 1'
_cell_length_a   9.88353371
_cell_length_b   9.88353371
_cell_length_c   12.06592900
_cell_angle_alpha   90.00000000
_cell_angle_beta   90.00000000
_cell_angle_gamma   140.30796884
_symmetry_Int_Tables_number   1
_chemical_formula_structural   Mo2SBr2
_chemical_formula_sum   'Mo12 S6 Br12'
_cell_volume   752.75824808
_cell_formula_units_Z   6
loop_
 _symmetry_equiv_pos_site_id
 _symmetry_equiv_pos_as_xyz
  1  'x, y, z'
loop_
 _atom_site_type_symbol
 _atom_site_label
 _atom_site_symmetry_multiplicity
 _atom_site_fract_x
 _atom_site_fract_y
 _atom_site_fract_z
 _atom_site_occupancy
  Mo  Mo0  1  0.74429200  0.74429200  0.93848100  1
  Mo  Mo1  1  0.74429200  0.74429200  0.56151900  1
  Mo  Mo2  1  0.25570800  0.25570800  0.43848100  1
  Mo  Mo3  1  0.25570800  0.25570800  0.06151900  1
  Mo  Mo4  1  0.01234100  0.15571800  0.89816500  1
  Mo  Mo5  1  0.15571800  0.01234100  0.60183500  1
  Mo  Mo6  1  0.98765900  0.84428200  0.39816500  1
  Mo  Mo7  1  0.84428200  0.98765900  0.10183500  1
  Mo  Mo8  1  0.98765900  0.84428200  0.10183500  1
  Mo  Mo9  1  0.84428200  0.98765900  0.39816500  1
  Mo  Mo10  1  0.01234100  0.15571800  0.60183500  1
  Mo  Mo11  1  0.15571800  0.01234100  0.89816500  1
  S  S12  1  0.38091100  0.38091100  0.62806400  1
  S  S13  1  0.38091100  0.38091100  0.87193600  1
  S  S14  1  0.61908900  0.61908900  0.12806400  1
  S  S15  1  0.61908900  0.61908900  0.37193600  1
  S  S16  1  0.91161900  0.91161900  0.75000000  1
  S  S17  1  0.08838100  0.08838100  0.25000000  1
  Br  Br18  1  0.97407200  0.63112500  0.25000000  1
  Br  Br19  1  0.63112500  0.97407200  0.25000000  1
  Br  Br20  1  0.02592800  0.36887500  0.75000000  1
  Br  Br21  1  0.36887500  0.02592800  0.75000000  1
  Br  Br22  1  0.11080700  0.39505700  0.06345400  1
  Br  Br23  1  0.39505700  0.11080700  0.43654600  1
  Br  Br24  1  0.39505700  0.11080700  0.06345400  1
  Br  Br25  1  0.11080700  0.39505700  0.43654600  1
  Br  Br26  1  0.60494300  0.88919300  0.56345400  1
  Br  Br27  1  0.88919300  0.60494300  0.93654600  1
  Br  Br28  1  0.60494300  0.88919300  0.93654600  1
  Br  Br29  1  0.88919300  0.60494300  0.56345400  1
