# generated using pymatgen
data_CdH4NCl3
_symmetry_space_group_name_H-M   'P 1'
_cell_length_a   4.08739200
_cell_length_b   9.32445900
_cell_length_c   14.92120400
_cell_angle_alpha   90.00000000
_cell_angle_beta   90.00000000
_cell_angle_gamma   90.00000000
_symmetry_Int_Tables_number   1
_chemical_formula_structural   CdH4NCl3
_chemical_formula_sum   'Cd4 H16 N4 Cl12'
_cell_volume   568.68765700
_cell_formula_units_Z   4
loop_
 _symmetry_equiv_pos_site_id
 _symmetry_equiv_pos_as_xyz
  1  'x, y, z'
loop_
 _atom_site_type_symbol
 _atom_site_label
 _atom_site_symmetry_multiplicity
 _atom_site_fract_x
 _atom_site_fract_y
 _atom_site_fract_z
 _atom_site_occupancy
  Cd  Cd0  1  0.75000000  0.83716300  0.05953300  1
  Cd  Cd1  1  0.25000000  0.16283700  0.94046700  1
  Cd  Cd2  1  0.75000000  0.33716300  0.44046700  1
  Cd  Cd3  1  0.25000000  0.66283700  0.55953300  1
  H  H4  1  0.04783200  0.38309900  0.19414700  1
  H  H5  1  0.54783200  0.61690100  0.80585300  1
  H  H6  1  0.45216800  0.88309900  0.30585300  1
  H  H7  1  0.95216800  0.11690100  0.69414700  1
  H  H8  1  0.95216800  0.61690100  0.80585300  1
  H  H9  1  0.45216800  0.38309900  0.19414700  1
  H  H10  1  0.54783200  0.11690100  0.69414700  1
  H  H11  1  0.04783200  0.88309900  0.30585300  1
  H  H12  1  0.75000000  0.46520200  0.77940800  1
  H  H13  1  0.25000000  0.53479800  0.22059200  1
  H  H14  1  0.75000000  0.96520200  0.72059200  1
  H  H15  1  0.25000000  0.03479800  0.27940800  1
  H  H16  1  0.75000000  0.51893800  0.88668700  1
  H  H17  1  0.25000000  0.48106200  0.11331300  1
  H  H18  1  0.75000000  0.01893800  0.61331300  1
  H  H19  1  0.25000000  0.98106200  0.38668700  1
  N  N20  1  0.25000000  0.94627000  0.32083500  1
  N  N21  1  0.75000000  0.05373000  0.67916500  1
  N  N22  1  0.25000000  0.44627000  0.17916500  1
  N  N23  1  0.75000000  0.55373000  0.82083500  1
  Cl  Cl24  1  0.75000000  0.73472600  0.22019900  1
  Cl  Cl25  1  0.25000000  0.26527400  0.77980100  1
  Cl  Cl26  1  0.75000000  0.23472600  0.27980100  1
  Cl  Cl27  1  0.25000000  0.76527400  0.72019900  1
  Cl  Cl28  1  0.25000000  0.67200300  0.00451900  1
  Cl  Cl29  1  0.75000000  0.32799700  0.99548100  1
  Cl  Cl30  1  0.25000000  0.17200300  0.49548100  1
  Cl  Cl31  1  0.75000000  0.82799700  0.50451900  1
  Cl  Cl32  1  0.75000000  0.97405700  0.90153200  1
  Cl  Cl33  1  0.25000000  0.02594300  0.09846800  1
  Cl  Cl34  1  0.75000000  0.47405700  0.59846800  1
  Cl  Cl35  1  0.25000000  0.52594300  0.40153200  1
