# generated using pymatgen
data_Y2Si4Mo3
_symmetry_space_group_name_H-M   'P 1'
_cell_length_a   6.93827100
_cell_length_b   6.75995000
_cell_length_c   6.87224581
_cell_angle_alpha   71.11938720
_cell_angle_beta   90.00000000
_cell_angle_gamma   90.00000000
_symmetry_Int_Tables_number   1
_chemical_formula_structural   Y2Si4Mo3
_chemical_formula_sum   'Y4 Si8 Mo6'
_cell_volume   304.98187828
_cell_formula_units_Z   2
loop_
 _symmetry_equiv_pos_site_id
 _symmetry_equiv_pos_as_xyz
  1  'x, y, z'
loop_
 _atom_site_type_symbol
 _atom_site_label
 _atom_site_symmetry_multiplicity
 _atom_site_fract_x
 _atom_site_fract_y
 _atom_site_fract_z
 _atom_site_occupancy
  Y  Y0  1  0.16984100  0.93777400  0.19081900  1
  Y  Y1  1  0.33015900  0.43777400  0.19081900  1
  Y  Y2  1  0.83015900  0.06222600  0.80918100  1
  Y  Y3  1  0.66984100  0.56222600  0.80918100  1
  Si  Si4  1  0.54496800  0.13138900  0.09032700  1
  Si  Si5  1  0.36855100  0.62814900  0.50479800  1
  Si  Si6  1  0.86855100  0.87185100  0.49520200  1
  Si  Si7  1  0.04496800  0.36861100  0.90967300  1
  Si  Si8  1  0.13144900  0.12814900  0.50479800  1
  Si  Si9  1  0.63144900  0.37185100  0.49520200  1
  Si  Si10  1  0.95503200  0.63138900  0.09032700  1
  Si  Si11  1  0.45503200  0.86861100  0.90967300  1
  Mo  Mo12  1  0.83733700  0.25105500  0.24960100  1
  Mo  Mo13  1  0.33733700  0.24894500  0.75039900  1
  Mo  Mo14  1  0.16266300  0.74894500  0.75039900  1
  Mo  Mo15  1  0.66266300  0.75105500  0.24960100  1
  Mo  Mo16  1  0.50000000  0.00000000  0.50000000  1
  Mo  Mo17  1  0.00000000  0.50000000  0.50000000  1
