# generated using pymatgen
data_Er5C2Br9
_symmetry_space_group_name_H-M   'P 1'
_cell_length_a   16.45405200
_cell_length_b   10.15748100
_cell_length_c   13.43331326
_cell_angle_alpha   58.02141021
_cell_angle_beta   90.00000000
_cell_angle_gamma   90.00000000
_symmetry_Int_Tables_number   1
_chemical_formula_structural   Er5C2Br9
_chemical_formula_sum   'Er20 C8 Br36'
_cell_volume   1904.42500854
_cell_formula_units_Z   4
loop_
 _symmetry_equiv_pos_site_id
 _symmetry_equiv_pos_as_xyz
  1  'x, y, z'
loop_
 _atom_site_type_symbol
 _atom_site_label
 _atom_site_symmetry_multiplicity
 _atom_site_fract_x
 _atom_site_fract_y
 _atom_site_fract_z
 _atom_site_occupancy
  Er  Er0  1  0.81382400  0.20965500  0.94570200  1
  Er  Er1  1  0.31382400  0.79034500  0.55429800  1
  Er  Er2  1  0.18617600  0.79034500  0.05429800  1
  Er  Er3  1  0.68617600  0.20965500  0.44570200  1
  Er  Er4  1  0.94402700  0.98902100  0.26249600  1
  Er  Er5  1  0.44402700  0.01097900  0.23750400  1
  Er  Er6  1  0.05597300  0.01097900  0.73750400  1
  Er  Er7  1  0.55597300  0.98902100  0.76249600  1
  Er  Er8  1  0.44152200  0.64548700  0.80995000  1
  Er  Er9  1  0.94152200  0.35451300  0.69005000  1
  Er  Er10  1  0.55847800  0.35451300  0.19005000  1
  Er  Er11  1  0.05847800  0.64548700  0.30995000  1
  Er  Er12  1  0.46236800  0.16077900  0.46702000  1
  Er  Er13  1  0.96236800  0.83922100  0.03298000  1
  Er  Er14  1  0.53763200  0.83922100  0.53298000  1
  Er  Er15  1  0.03763200  0.16077900  0.96702000  1
  Er  Er16  1  0.33933900  0.98685500  0.71945500  1
  Er  Er17  1  0.83933900  0.01314500  0.78054500  1
  Er  Er18  1  0.66066100  0.01314500  0.28054500  1
  Er  Er19  1  0.16066100  0.98685500  0.21945500  1
  C  C20  1  0.41149600  0.87369300  0.61791900  1
  C  C21  1  0.91149600  0.12630700  0.88208100  1
  C  C22  1  0.58850400  0.12630700  0.38208100  1
  C  C23  1  0.08850400  0.87369300  0.11791900  1
  C  C24  1  0.97055600  0.07314800  0.83147000  1
  C  C25  1  0.47055600  0.92685200  0.66853000  1
  C  C26  1  0.02944400  0.92685200  0.16853000  1
  C  C27  1  0.52944400  0.07314800  0.33147000  1
  Br  Br28  1  0.31773600  0.69817800  0.93613700  1
  Br  Br29  1  0.81773600  0.30182200  0.56386300  1
  Br  Br30  1  0.68226400  0.30182200  0.06386300  1
  Br  Br31  1  0.18226400  0.69817800  0.43613700  1
  Br  Br32  1  0.43338600  0.08738600  0.84435100  1
  Br  Br33  1  0.93338600  0.91261400  0.65564900  1
  Br  Br34  1  0.56661400  0.91261400  0.15564900  1
  Br  Br35  1  0.06661400  0.08738600  0.34435100  1
  Br  Br36  1  0.56133500  0.53693800  0.73484200  1
  Br  Br37  1  0.06133500  0.46306200  0.76515800  1
  Br  Br38  1  0.43866500  0.46306200  0.26515800  1
  Br  Br39  1  0.93866500  0.53693800  0.23484200  1
  Br  Br40  1  0.32884800  0.27954100  0.53129000  1
  Br  Br41  1  0.82884800  0.72045900  0.96871000  1
  Br  Br42  1  0.67115200  0.72045900  0.46871000  1
  Br  Br43  1  0.17115200  0.27954100  0.03129000  1
  Br  Br44  1  0.30659500  0.90480800  0.13990000  1
  Br  Br45  1  0.80659500  0.09519200  0.36010000  1
  Br  Br46  1  0.69340500  0.09519200  0.86010000  1
  Br  Br47  1  0.19340500  0.90480800  0.63990000  1
  Br  Br48  1  0.20144600  0.07918900  0.82671200  1
  Br  Br49  1  0.70144600  0.92081100  0.67328800  1
  Br  Br50  1  0.79855400  0.92081100  0.17328800  1
  Br  Br51  1  0.29855400  0.07918900  0.32671200  1
  Br  Br52  1  0.17983700  0.49983300  0.25109000  1
  Br  Br53  1  0.67983700  0.50016700  0.24891000  1
  Br  Br54  1  0.82016300  0.50016700  0.74891000  1
  Br  Br55  1  0.32016300  0.49983300  0.75109000  1
  Br  Br56  1  0.05716500  0.31994600  0.54172400  1
  Br  Br57  1  0.55716500  0.68005400  0.95827600  1
  Br  Br58  1  0.94283500  0.68005400  0.45827600  1
  Br  Br59  1  0.44283500  0.31994600  0.04172400  1
  Br  Br60  1  0.07032900  0.70457300  0.94064000  1
  Br  Br61  1  0.57032900  0.29542700  0.55936000  1
  Br  Br62  1  0.92967100  0.29542700  0.05936000  1
  Br  Br63  1  0.42967100  0.70457300  0.44064000  1
