# generated using pymatgen
data_Eu3AuO6
_symmetry_space_group_name_H-M   'P 1'
_cell_length_a   3.75942255
_cell_length_b   5.67910267
_cell_length_c   7.21299779
_cell_angle_alpha   90.54084629
_cell_angle_beta   102.54435195
_cell_angle_gamma   91.00768630
_symmetry_Int_Tables_number   1
_chemical_formula_structural   Eu3AuO6
_chemical_formula_sum   'Eu3 Au1 O6'
_cell_volume   150.28521449
_cell_formula_units_Z   1
loop_
 _symmetry_equiv_pos_site_id
 _symmetry_equiv_pos_as_xyz
  1  'x, y, z'
loop_
 _atom_site_type_symbol
 _atom_site_label
 _atom_site_symmetry_multiplicity
 _atom_site_fract_x
 _atom_site_fract_y
 _atom_site_fract_z
 _atom_site_occupancy
  Eu  Eu0  1  0.61365000  0.52478000  0.76888400  1
  Eu  Eu1  1  0.38635000  0.47522000  0.23111600  1
  Eu  Eu2  1  0.00000000  0.00000000  0.50000000  1
  Au  Au3  1  0.00000000  0.00000000  0.00000000  1
  O  O4  1  0.15920900  0.30247400  0.88736600  1
  O  O5  1  0.87513300  0.20253900  0.20785500  1
  O  O6  1  0.12486700  0.79746100  0.79214500  1
  O  O7  1  0.48463700  0.74564500  0.47826700  1
  O  O8  1  0.84079100  0.69752600  0.11263400  1
  O  O9  1  0.51536300  0.25435500  0.52173300  1
