# generated using pymatgen
data_BaP3Pt2
_symmetry_space_group_name_H-M   'P 1'
_cell_length_a   5.83907400
_cell_length_b   8.40954800
_cell_length_c   11.80306614
_cell_angle_alpha   73.23220361
_cell_angle_beta   90.00000000
_cell_angle_gamma   90.00000000
_symmetry_Int_Tables_number   1
_chemical_formula_structural   BaP3Pt2
_chemical_formula_sum   'Ba4 P12 Pt8'
_cell_volume   554.93485174
_cell_formula_units_Z   4
loop_
 _symmetry_equiv_pos_site_id
 _symmetry_equiv_pos_as_xyz
  1  'x, y, z'
loop_
 _atom_site_type_symbol
 _atom_site_label
 _atom_site_symmetry_multiplicity
 _atom_site_fract_x
 _atom_site_fract_y
 _atom_site_fract_z
 _atom_site_occupancy
  Ba  Ba0  1  0.08555800  0.75984200  0.35180100  1
  Ba  Ba1  1  0.91444200  0.24015800  0.64819900  1
  Ba  Ba2  1  0.58555800  0.24015800  0.14819900  1
  Ba  Ba3  1  0.41444200  0.75984200  0.85180100  1
  P  P4  1  0.38435500  0.27583900  0.41705100  1
  P  P5  1  0.88435500  0.72416100  0.08294900  1
  P  P6  1  0.61564500  0.72416100  0.58294900  1
  P  P7  1  0.11564500  0.27583900  0.91705100  1
  P  P8  1  0.87948100  0.06879200  0.43008800  1
  P  P9  1  0.37948100  0.93120800  0.06991200  1
  P  P10  1  0.12051900  0.93120800  0.56991200  1
  P  P11  1  0.84781200  0.45540800  0.82546500  1
  P  P12  1  0.65218800  0.45540800  0.32546500  1
  P  P13  1  0.15218800  0.54459200  0.17453500  1
  P  P14  1  0.34781200  0.54459200  0.67453500  1
  P  P15  1  0.62051900  0.06879200  0.93008800  1
  Pt  Pt16  1  0.50000000  0.00000000  0.50000000  1
  Pt  Pt17  1  0.00000000  0.50000000  0.00000000  1
  Pt  Pt18  1  0.50000000  0.50000000  0.50000000  1
  Pt  Pt19  1  0.00000000  0.00000000  0.00000000  1
  Pt  Pt20  1  0.48383100  0.33826700  0.83883500  1
  Pt  Pt21  1  0.98383100  0.66173300  0.66116500  1
  Pt  Pt22  1  0.51616900  0.66173300  0.16116500  1
  Pt  Pt23  1  0.01616900  0.33826700  0.33883500  1
