# generated using pymatgen
data_Te2Au
_symmetry_space_group_name_H-M   'P 1'
_cell_length_a   4.51262300
_cell_length_b   8.95260200
_cell_length_c   16.87999300
_cell_angle_alpha   90.00000000
_cell_angle_beta   90.00000000
_cell_angle_gamma   90.00000000
_symmetry_Int_Tables_number   1
_chemical_formula_structural   Te2Au
_chemical_formula_sum   'Te16 Au8'
_cell_volume   681.94695189
_cell_formula_units_Z   8
loop_
 _symmetry_equiv_pos_site_id
 _symmetry_equiv_pos_as_xyz
  1  'x, y, z'
loop_
 _atom_site_type_symbol
 _atom_site_label
 _atom_site_symmetry_multiplicity
 _atom_site_fract_x
 _atom_site_fract_y
 _atom_site_fract_z
 _atom_site_occupancy
  Te  Te0  1  0.44768100  0.02968700  0.38036100  1
  Te  Te1  1  0.44768100  0.97031300  0.61963900  1
  Te  Te2  1  0.44768100  0.97031300  0.88036100  1
  Te  Te3  1  0.44768100  0.02968700  0.11963900  1
  Te  Te4  1  0.51975900  0.63883800  0.37098600  1
  Te  Te5  1  0.51975900  0.36116200  0.62901400  1
  Te  Te6  1  0.51975900  0.36116200  0.87098600  1
  Te  Te7  1  0.51975900  0.63883800  0.12901400  1
  Te  Te8  1  0.01900000  0.97920900  0.25000000  1
  Te  Te9  1  0.01900000  0.02079100  0.75000000  1
  Te  Te10  1  0.10629000  0.37526100  0.25000000  1
  Te  Te11  1  0.10629000  0.62473900  0.75000000  1
  Te  Te12  1  0.90682900  0.69708400  0.99353200  1
  Te  Te13  1  0.90682900  0.30291600  0.00646800  1
  Te  Te14  1  0.90682900  0.30291600  0.49353200  1
  Te  Te15  1  0.90682900  0.69708400  0.50646800  1
  Au  Au16  1  0.49346400  0.33319100  0.37401000  1
  Au  Au17  1  0.49346400  0.66680900  0.62599000  1
  Au  Au18  1  0.49346400  0.66680900  0.87401000  1
  Au  Au19  1  0.49346400  0.33319100  0.12599000  1
  Au  Au20  1  0.00964500  0.32477900  0.75000000  1
  Au  Au21  1  0.00964500  0.67522100  0.25000000  1
  Au  Au22  1  0.95959700  0.00000000  0.50000000  1
  Au  Au23  1  0.95959700  0.00000000  0.00000000  1
