# generated using pymatgen
data_TbCoGe
_symmetry_space_group_name_H-M   'P 1'
_cell_length_a   4.26130300
_cell_length_b   6.95269600
_cell_length_c   7.16638600
_cell_angle_alpha   90.00000000
_cell_angle_beta   90.00000000
_cell_angle_gamma   90.00000000
_symmetry_Int_Tables_number   1
_chemical_formula_structural   TbCoGe
_chemical_formula_sum   'Tb4 Co4 Ge4'
_cell_volume   212.32241885
_cell_formula_units_Z   4
loop_
 _symmetry_equiv_pos_site_id
 _symmetry_equiv_pos_as_xyz
  1  'x, y, z'
loop_
 _atom_site_type_symbol
 _atom_site_label
 _atom_site_symmetry_multiplicity
 _atom_site_fract_x
 _atom_site_fract_y
 _atom_site_fract_z
 _atom_site_occupancy
  Tb  Tb0  1  0.25000000  0.48695800  0.69596000  1
  Tb  Tb1  1  0.75000000  0.51304200  0.30404000  1
  Tb  Tb2  1  0.25000000  0.98695800  0.80404000  1
  Tb  Tb3  1  0.75000000  0.01304200  0.19596000  1
  Co  Co4  1  0.75000000  0.34614500  0.93125700  1
  Co  Co5  1  0.25000000  0.15385500  0.43125700  1
  Co  Co6  1  0.75000000  0.84614500  0.56874300  1
  Co  Co7  1  0.25000000  0.65385500  0.06874300  1
  Ge  Ge8  1  0.25000000  0.79993500  0.39919600  1
  Ge  Ge9  1  0.75000000  0.70006500  0.89919600  1
  Ge  Ge10  1  0.25000000  0.29993500  0.10080400  1
  Ge  Ge11  1  0.75000000  0.20006500  0.60080400  1
