# generated using pymatgen
data_SiPbO3
_symmetry_space_group_name_H-M   'P 1'
_cell_length_a   7.15311200
_cell_length_b   11.40387600
_cell_length_c   13.25526146
_cell_angle_alpha   60.40556064
_cell_angle_beta   90.00000000
_cell_angle_gamma   90.00000000
_symmetry_Int_Tables_number   1
_chemical_formula_structural   SiPbO3
_chemical_formula_sum   'Si12 Pb12 O36'
_cell_volume   940.21419759
_cell_formula_units_Z   12
loop_
 _symmetry_equiv_pos_site_id
 _symmetry_equiv_pos_as_xyz
  1  'x, y, z'
loop_
 _atom_site_type_symbol
 _atom_site_label
 _atom_site_symmetry_multiplicity
 _atom_site_fract_x
 _atom_site_fract_y
 _atom_site_fract_z
 _atom_site_occupancy
  Si  Si0  1  0.81751500  0.75080600  0.46353000  1
  Si  Si1  1  0.81751500  0.24919400  0.03647000  1
  Si  Si2  1  0.18248500  0.24919400  0.53647000  1
  Si  Si3  1  0.18248500  0.75080600  0.96353000  1
  Si  Si4  1  0.59353100  0.13703800  0.89302800  1
  Si  Si5  1  0.59353100  0.86296200  0.60697200  1
  Si  Si6  1  0.40646900  0.86296200  0.10697200  1
  Si  Si7  1  0.40646900  0.13703800  0.39302800  1
  Si  Si8  1  0.87265900  0.46499500  0.65401800  1
  Si  Si9  1  0.87265900  0.53500500  0.84598200  1
  Si  Si10  1  0.12734100  0.53500500  0.34598200  1
  Si  Si11  1  0.12734100  0.46499500  0.15401800  1
  Pb  Pb12  1  0.69497900  0.19906900  0.60244500  1
  Pb  Pb13  1  0.69497900  0.80093100  0.89755500  1
  Pb  Pb14  1  0.30502100  0.80093100  0.39755500  1
  Pb  Pb15  1  0.30502100  0.19906900  0.10244500  1
  Pb  Pb16  1  0.61576200  0.56662400  0.34530100  1
  Pb  Pb17  1  0.61576200  0.43337600  0.15469900  1
  Pb  Pb18  1  0.38423800  0.43337600  0.65469900  1
  Pb  Pb19  1  0.38423800  0.56662400  0.84530100  1
  Pb  Pb20  1  0.94014700  0.86860700  0.17805600  1
  Pb  Pb21  1  0.94014700  0.13139300  0.32194400  1
  Pb  Pb22  1  0.05985300  0.13139300  0.82194400  1
  Pb  Pb23  1  0.05985300  0.86860700  0.67805600  1
  O  O24  1  0.95336200  0.85822900  0.35878100  1
  O  O25  1  0.95336200  0.14177100  0.14121900  1
  O  O26  1  0.04663800  0.14177100  0.64121900  1
  O  O27  1  0.04663800  0.85822900  0.85878100  1
  O  O28  1  0.62923500  0.71726300  0.41343700  1
  O  O29  1  0.62923500  0.28273700  0.08656300  1
  O  O30  1  0.37076500  0.28273700  0.58656300  1
  O  O31  1  0.37076500  0.71726300  0.91343700  1
  O  O32  1  0.57476000  0.75587300  0.16703900  1
  O  O33  1  0.57476000  0.24412700  0.33296100  1
  O  O34  1  0.42524000  0.24412700  0.83296100  1
  O  O35  1  0.42524000  0.75587300  0.66703900  1
  O  O36  1  0.71393300  0.09893000  0.80674700  1
  O  O37  1  0.71393300  0.90107000  0.69325300  1
  O  O38  1  0.94189800  0.61342600  0.54532000  1
  O  O39  1  0.28606700  0.90107000  0.19325300  1
  O  O40  1  0.05206500  0.36567000  0.70930700  1
  O  O41  1  0.05206500  0.63433000  0.79069300  1
  O  O42  1  0.94793500  0.63433000  0.29069300  1
  O  O43  1  0.94793500  0.36567000  0.20930700  1
  O  O44  1  0.70974800  0.40138000  0.60874600  1
  O  O45  1  0.70974800  0.59862000  0.89125400  1
  O  O46  1  0.29025200  0.59862000  0.39125400  1
  O  O47  1  0.29025200  0.40138000  0.10874600  1
  O  O48  1  0.50000000  0.00000000  0.50000000  1
  O  O49  1  0.50000000  0.00000000  0.00000000  1
  O  O50  1  0.22615900  0.50000000  0.25000000  1
  O  O51  1  0.77384100  0.50000000  0.75000000  1
  O  O52  1  0.23935700  0.18237900  0.45454900  1
  O  O53  1  0.23935700  0.81762100  0.04545100  1
  O  O54  1  0.76064300  0.81762100  0.54545100  1
  O  O55  1  0.76064300  0.18237900  0.95454900  1
  O  O56  1  0.05810200  0.61342600  0.04532000  1
  O  O57  1  0.05810200  0.38657400  0.45468000  1
  O  O58  1  0.94189800  0.38657400  0.95468000  1
  O  O59  1  0.28606700  0.09893000  0.30674700  1
