# generated using pymatgen
data_Li2B2S5
_symmetry_space_group_name_H-M   'P 1'
_cell_length_a   8.62645713
_cell_length_b   8.62645713
_cell_length_c   7.00595200
_cell_angle_alpha   90.00000000
_cell_angle_beta   90.00000000
_cell_angle_gamma   135.18261818
_symmetry_Int_Tables_number   1
_chemical_formula_structural   Li2B2S5
_chemical_formula_sum   'Li4 B4 S10'
_cell_volume   367.47555407
_cell_formula_units_Z   2
loop_
 _symmetry_equiv_pos_site_id
 _symmetry_equiv_pos_as_xyz
  1  'x, y, z'
loop_
 _atom_site_type_symbol
 _atom_site_label
 _atom_site_symmetry_multiplicity
 _atom_site_fract_x
 _atom_site_fract_y
 _atom_site_fract_z
 _atom_site_occupancy
  Li  Li0  1  0.23307800  0.76692200  0.00000000  1
  Li  Li1  1  0.76692200  0.23307800  0.50000000  1
  Li  Li2  1  0.76692200  0.23307800  0.00000000  1
  Li  Li3  1  0.23307800  0.76692200  0.50000000  1
  B  B4  1  0.73253100  0.55752100  0.75000000  1
  B  B5  1  0.55752100  0.73253100  0.75000000  1
  B  B6  1  0.26746900  0.44247900  0.25000000  1
  B  B7  1  0.44247900  0.26746900  0.25000000  1
  S  S8  1  0.53045100  0.92236700  0.75000000  1
  S  S9  1  0.92236700  0.53045100  0.75000000  1
  S  S10  1  0.07763300  0.46954900  0.25000000  1
  S  S11  1  0.46954900  0.07763300  0.25000000  1
  S  S12  1  0.31011100  0.44078900  0.75000000  1
  S  S13  1  0.44078900  0.31011100  0.75000000  1
  S  S14  1  0.68988900  0.55921100  0.25000000  1
  S  S15  1  0.55921100  0.68988900  0.25000000  1
  S  S16  1  0.82137600  0.82137600  0.75000000  1
  S  S17  1  0.17862400  0.17862400  0.25000000  1
