# generated using pymatgen
data_PI2
_symmetry_space_group_name_H-M   'P 1'
_cell_length_a   5.20430300
_cell_length_b   7.56627647
_cell_length_c   7.73994394
_cell_angle_alpha   80.20380499
_cell_angle_beta   77.94522362
_cell_angle_gamma   73.53076420
_symmetry_Int_Tables_number   1
_chemical_formula_structural   PI2
_chemical_formula_sum   'P2 I4'
_cell_volume   283.82102938
_cell_formula_units_Z   2
loop_
 _symmetry_equiv_pos_site_id
 _symmetry_equiv_pos_as_xyz
  1  'x, y, z'
loop_
 _atom_site_type_symbol
 _atom_site_label
 _atom_site_symmetry_multiplicity
 _atom_site_fract_x
 _atom_site_fract_y
 _atom_site_fract_z
 _atom_site_occupancy
  P  P0  1  0.41606000  0.03294100  0.87209700  1
  P  P1  1  0.58394000  0.96705900  0.12790300  1
  I  I2  1  0.55689400  0.32793200  0.77911000  1
  I  I3  1  0.44310600  0.67206800  0.22089000  1
  I  I4  1  0.79857000  0.80775500  0.71000800  1
  I  I5  1  0.20143000  0.19224500  0.28999200  1
