# generated using pymatgen
data_Sc2Te
_symmetry_space_group_name_H-M   'P 1'
_cell_length_a   3.94211500
_cell_length_b   10.74381400
_cell_length_c   20.27756100
_cell_angle_alpha   90.00000000
_cell_angle_beta   90.00000000
_cell_angle_gamma   90.00000000
_symmetry_Int_Tables_number   1
_chemical_formula_structural   Sc2Te
_chemical_formula_sum   'Sc24 Te12'
_cell_volume   858.82264480
_cell_formula_units_Z   12
loop_
 _symmetry_equiv_pos_site_id
 _symmetry_equiv_pos_as_xyz
  1  'x, y, z'
loop_
 _atom_site_type_symbol
 _atom_site_label
 _atom_site_symmetry_multiplicity
 _atom_site_fract_x
 _atom_site_fract_y
 _atom_site_fract_z
 _atom_site_occupancy
  Sc  Sc0  1  0.25000000  0.89338700  0.49005200  1
  Sc  Sc1  1  0.75000000  0.10661300  0.50994800  1
  Sc  Sc2  1  0.75000000  0.39338700  0.00994800  1
  Sc  Sc3  1  0.25000000  0.60661300  0.99005200  1
  Sc  Sc4  1  0.25000000  0.06925700  0.63691700  1
  Sc  Sc5  1  0.75000000  0.93074300  0.36308300  1
  Sc  Sc6  1  0.75000000  0.56925700  0.86308300  1
  Sc  Sc7  1  0.25000000  0.43074300  0.13691700  1
  Sc  Sc8  1  0.25000000  0.38044400  0.53246200  1
  Sc  Sc9  1  0.75000000  0.61955600  0.46753800  1
  Sc  Sc10  1  0.75000000  0.88044400  0.96753800  1
  Sc  Sc11  1  0.25000000  0.11955600  0.03246200  1
  Sc  Sc12  1  0.75000000  0.65764400  0.10689100  1
  Sc  Sc13  1  0.25000000  0.34235600  0.89310900  1
  Sc  Sc14  1  0.25000000  0.15764400  0.39310900  1
  Sc  Sc15  1  0.75000000  0.84235600  0.60689100  1
  Sc  Sc16  1  0.75000000  0.96516700  0.16322400  1
  Sc  Sc17  1  0.25000000  0.03483300  0.83677600  1
  Sc  Sc18  1  0.25000000  0.46516700  0.33677600  1
  Sc  Sc19  1  0.75000000  0.53483300  0.66322400  1
  Sc  Sc20  1  0.25000000  0.74655500  0.22790500  1
  Sc  Sc21  1  0.75000000  0.25344500  0.77209500  1
  Sc  Sc22  1  0.75000000  0.24655500  0.27209500  1
  Sc  Sc23  1  0.25000000  0.75344500  0.72790500  1
  Te  Te24  1  0.75000000  0.96847100  0.73557300  1
  Te  Te25  1  0.25000000  0.03152900  0.26442700  1
  Te  Te26  1  0.25000000  0.46847100  0.76442700  1
  Te  Te27  1  0.75000000  0.53152900  0.23557300  1
  Te  Te28  1  0.75000000  0.27696400  0.62614500  1
  Te  Te29  1  0.25000000  0.72303600  0.37385500  1
  Te  Te30  1  0.25000000  0.77696400  0.87385500  1
  Te  Te31  1  0.75000000  0.22303600  0.12614500  1
  Te  Te32  1  0.25000000  0.64593900  0.57429400  1
  Te  Te33  1  0.75000000  0.35406100  0.42570600  1
  Te  Te34  1  0.75000000  0.14593900  0.92570600  1
  Te  Te35  1  0.25000000  0.85406100  0.07429400  1
