# generated using pymatgen
data_Sr(Sb3Ru)4
_symmetry_space_group_name_H-M   'P 1'
_cell_length_a   8.15252586
_cell_length_b   8.15252586
_cell_length_c   8.15252586
_cell_angle_alpha   109.47122063
_cell_angle_beta   109.47122063
_cell_angle_gamma   109.47122063
_symmetry_Int_Tables_number   1
_chemical_formula_structural   Sr(Sb3Ru)4
_chemical_formula_sum   'Sr1 Sb12 Ru4'
_cell_volume   417.11390182
_cell_formula_units_Z   1
loop_
 _symmetry_equiv_pos_site_id
 _symmetry_equiv_pos_as_xyz
  1  'x, y, z'
loop_
 _atom_site_type_symbol
 _atom_site_label
 _atom_site_symmetry_multiplicity
 _atom_site_fract_x
 _atom_site_fract_y
 _atom_site_fract_z
 _atom_site_occupancy
  Sr  Sr0  1  0.00000000  0.00000000  0.00000000  1
  Sb  Sb1  1  0.15938700  0.50179700  0.34241000  1
  Sb  Sb2  1  0.49820300  0.65759000  0.84061300  1
  Sb  Sb3  1  0.34241000  0.84061300  0.18302400  1
  Sb  Sb4  1  0.81697600  0.65759000  0.15938700  1
  Sb  Sb5  1  0.65759000  0.84061300  0.49820300  1
  Sb  Sb6  1  0.18302400  0.34241000  0.84061300  1
  Sb  Sb7  1  0.65759000  0.15938700  0.81697600  1
  Sb  Sb8  1  0.34241000  0.15938700  0.50179700  1
  Sb  Sb9  1  0.50179700  0.34241000  0.15938700  1
  Sb  Sb10  1  0.84061300  0.49820300  0.65759000  1
  Sb  Sb11  1  0.84061300  0.18302400  0.34241000  1
  Sb  Sb12  1  0.15938700  0.81697600  0.65759000  1
  Ru  Ru13  1  0.50000000  0.50000000  0.50000000  1
  Ru  Ru14  1  0.50000000  0.00000000  0.00000000  1
  Ru  Ru15  1  0.00000000  0.50000000  0.00000000  1
  Ru  Ru16  1  0.00000000  0.00000000  0.50000000  1
