# generated using pymatgen
data_NbSbF10
_symmetry_space_group_name_H-M   'P 1'
_cell_length_a   5.79337700
_cell_length_b   7.55326430
_cell_length_c   9.90290249
_cell_angle_alpha   87.66610785
_cell_angle_beta   106.30108475
_cell_angle_gamma   99.40618832
_symmetry_Int_Tables_number   1
_chemical_formula_structural   NbSbF10
_chemical_formula_sum   'Nb2 Sb2 F20'
_cell_volume   410.32159608
_cell_formula_units_Z   2
loop_
 _symmetry_equiv_pos_site_id
 _symmetry_equiv_pos_as_xyz
  1  'x, y, z'
loop_
 _atom_site_type_symbol
 _atom_site_label
 _atom_site_symmetry_multiplicity
 _atom_site_fract_x
 _atom_site_fract_y
 _atom_site_fract_z
 _atom_site_occupancy
  Nb  Nb0  1  0.33785000  0.37936600  0.22074700  1
  Nb  Nb1  1  0.66215000  0.62063400  0.77925300  1
  Sb  Sb2  1  0.96480600  0.76552900  0.31501100  1
  Sb  Sb3  1  0.03519400  0.23447100  0.68498900  1
  F  F4  1  0.02649500  0.24868100  0.16791100  1
  F  F5  1  0.97350500  0.75131900  0.83208900  1
  F  F6  1  0.49740300  0.22103400  0.15803600  1
  F  F7  1  0.50259700  0.77896600  0.84196400  1
  F  F8  1  0.11454400  0.22589100  0.88402200  1
  F  F9  1  0.88545600  0.77410900  0.11597800  1
  F  F10  1  0.96047800  0.28918500  0.49133700  1
  F  F11  1  0.03952200  0.71081500  0.50866300  1
  F  F12  1  0.76127100  0.05273700  0.66350500  1
  F  F13  1  0.23872900  0.94726300  0.33649500  1
  F  F14  1  0.25823200  0.08318900  0.67480500  1
  F  F15  1  0.74176800  0.91681100  0.32519500  1
  F  F16  1  0.30650200  0.44553800  0.71174200  1
  F  F17  1  0.69349800  0.55446200  0.28825800  1
  F  F18  1  0.82974600  0.41914500  0.69930000  1
  F  F19  1  0.17025400  0.58085500  0.30070000  1
  F  F20  1  0.69117200  0.45023300  0.92489400  1
  F  F21  1  0.30882800  0.54976700  0.07510600  1
  F  F22  1  0.57134000  0.66492400  0.58562000  1
  F  F23  1  0.42866000  0.33507600  0.41438000  1
