# generated using pymatgen
data_Re3Te8Cl3
_symmetry_space_group_name_H-M   'P 1'
_cell_length_a   8.69506300
_cell_length_b   10.87883800
_cell_length_c   18.84558900
_cell_angle_alpha   90.00000000
_cell_angle_beta   90.00000000
_cell_angle_gamma   90.00000000
_symmetry_Int_Tables_number   1
_chemical_formula_structural   Re3Te8Cl3
_chemical_formula_sum   'Re12 Te32 Cl12'
_cell_volume   1782.64538038
_cell_formula_units_Z   4
loop_
 _symmetry_equiv_pos_site_id
 _symmetry_equiv_pos_as_xyz
  1  'x, y, z'
loop_
 _atom_site_type_symbol
 _atom_site_label
 _atom_site_symmetry_multiplicity
 _atom_site_fract_x
 _atom_site_fract_y
 _atom_site_fract_z
 _atom_site_occupancy
  Re  Re0  1  0.34696900  0.06799100  0.01524900  1
  Re  Re1  1  0.84696900  0.93200900  0.48475100  1
  Re  Re2  1  0.65303100  0.06799100  0.98475100  1
  Re  Re3  1  0.15303100  0.93200900  0.51524900  1
  Re  Re4  1  0.45408900  0.19228000  0.90020700  1
  Re  Re5  1  0.95408900  0.80772000  0.59979300  1
  Re  Re6  1  0.54591100  0.19228000  0.09979300  1
  Re  Re7  1  0.04591100  0.80772000  0.40020700  1
  Re  Re8  1  0.34728600  0.31698300  0.01484900  1
  Re  Re9  1  0.84728600  0.68301700  0.48515100  1
  Re  Re10  1  0.65271400  0.31698300  0.98515100  1
  Re  Re11  1  0.15271400  0.68301700  0.51484900  1
  Te  Te12  1  0.34880800  0.80784200  0.42925700  1
  Te  Te13  1  0.84880800  0.19215800  0.07074300  1
  Te  Te14  1  0.65119200  0.80784200  0.57074300  1
  Te  Te15  1  0.15119200  0.19215800  0.92925700  1
  Te  Te16  1  0.11822300  0.82259900  0.25789700  1
  Te  Te17  1  0.61822300  0.17740100  0.24210300  1
  Te  Te18  1  0.88177700  0.82259900  0.74210300  1
  Te  Te19  1  0.38177700  0.17740100  0.75789700  1
  Te  Te20  1  0.04700800  0.05734700  0.39909900  1
  Te  Te21  1  0.54700800  0.94265300  0.10090100  1
  Te  Te22  1  0.95299200  0.05734700  0.60090100  1
  Te  Te23  1  0.45299200  0.94265300  0.89909900  1
  Te  Te24  1  0.37096300  0.51437200  0.55254000  1
  Te  Te25  1  0.87096300  0.48562800  0.94746000  1
  Te  Te26  1  0.62903700  0.51437200  0.44746000  1
  Te  Te27  1  0.12903700  0.48562800  0.05254000  1
  Te  Te28  1  0.74542600  0.80696500  0.36740100  1
  Te  Te29  1  0.24542600  0.19303500  0.13259900  1
  Te  Te30  1  0.25457400  0.80696500  0.63259900  1
  Te  Te31  1  0.75457400  0.19303500  0.86740100  1
  Te  Te32  1  0.37019000  0.10201400  0.55260700  1
  Te  Te33  1  0.87019000  0.89798600  0.94739300  1
  Te  Te34  1  0.62981000  0.10201400  0.44739300  1
  Te  Te35  1  0.12981000  0.89798600  0.05260700  1
  Te  Te36  1  0.04546700  0.55880200  0.39803300  1
  Te  Te37  1  0.54546700  0.44119800  0.10196700  1
  Te  Te38  1  0.95453300  0.55880200  0.60196700  1
  Te  Te39  1  0.45453300  0.44119800  0.89803300  1
  Te  Te40  1  0.22887000  0.30823400  0.49144600  1
  Te  Te41  1  0.72887000  0.69176600  0.00855400  1
  Te  Te42  1  0.77113000  0.30823400  0.50855400  1
  Te  Te43  1  0.27113000  0.69176600  0.99144600  1
  Cl  Cl44  1  0.17733200  0.33588500  0.74975100  1
  Cl  Cl45  1  0.67733200  0.66411500  0.75024900  1
  Cl  Cl46  1  0.82266800  0.33588500  0.25024900  1
  Cl  Cl47  1  0.32266800  0.66411500  0.24975100  1
  Cl  Cl48  1  0.55938300  0.32477200  0.70694000  1
  Cl  Cl49  1  0.05938300  0.67522800  0.79306000  1
  Cl  Cl50  1  0.44061700  0.32477200  0.29306000  1
  Cl  Cl51  1  0.94061700  0.67522800  0.20694000  1
  Cl  Cl52  1  0.60703700  0.00307200  0.72226500  1
  Cl  Cl53  1  0.10703700  0.99692800  0.77773500  1
  Cl  Cl54  1  0.39296300  0.00307200  0.27773500  1
  Cl  Cl55  1  0.89296300  0.99692800  0.22226500  1
