# generated using pymatgen
data_Ni21(SnB3)2
_symmetry_space_group_name_H-M   'P 1'
_cell_length_a   7.47968219
_cell_length_b   7.47968219
_cell_length_c   7.47968219
_cell_angle_alpha   60.00000000
_cell_angle_beta   60.00000000
_cell_angle_gamma   60.00000000
_symmetry_Int_Tables_number   1
_chemical_formula_structural   Ni21(SnB3)2
_chemical_formula_sum   'Ni21 Sn2 B6'
_cell_volume   295.89282776
_cell_formula_units_Z   1
loop_
 _symmetry_equiv_pos_site_id
 _symmetry_equiv_pos_as_xyz
  1  'x, y, z'
loop_
 _atom_site_type_symbol
 _atom_site_label
 _atom_site_symmetry_multiplicity
 _atom_site_fract_x
 _atom_site_fract_y
 _atom_site_fract_z
 _atom_site_occupancy
  Ni  Ni0  1  0.66381500  0.00000000  0.00000000  1
  Ni  Ni1  1  0.15616300  0.61461200  0.61461200  1
  Ni  Ni2  1  0.61461200  0.61461200  0.61461200  1
  Ni  Ni3  1  0.61461200  0.61461200  0.15616300  1
  Ni  Ni4  1  0.38538800  0.84383700  0.38538800  1
  Ni  Ni5  1  0.66381500  0.33618500  0.00000000  1
  Ni  Ni6  1  0.00000000  0.33618500  0.66381500  1
  Ni  Ni7  1  0.00000000  0.00000000  0.33618500  1
  Ni  Ni8  1  0.33618500  0.00000000  0.00000000  1
  Ni  Ni9  1  0.00000000  0.00000000  0.66381500  1
  Ni  Ni10  1  0.00000000  0.33618500  0.00000000  1
  Ni  Ni11  1  0.66381500  0.00000000  0.33618500  1
  Ni  Ni12  1  0.00000000  0.00000000  0.00000000  1
  Ni  Ni13  1  0.00000000  0.66381500  0.00000000  1
  Ni  Ni14  1  0.33618500  0.00000000  0.66381500  1
  Ni  Ni15  1  0.00000000  0.66381500  0.33618500  1
  Ni  Ni16  1  0.33618500  0.66381500  0.00000000  1
  Ni  Ni17  1  0.84383700  0.38538800  0.38538800  1
  Ni  Ni18  1  0.38538800  0.38538800  0.84383700  1
  Ni  Ni19  1  0.61461200  0.15616300  0.61461200  1
  Ni  Ni20  1  0.38538800  0.38538800  0.38538800  1
  Sn  Sn21  1  0.75000000  0.75000000  0.75000000  1
  Sn  Sn22  1  0.25000000  0.25000000  0.25000000  1
  B  B23  1  0.72780600  0.72780600  0.27219400  1
  B  B24  1  0.72780600  0.27219400  0.72780600  1
  B  B25  1  0.27219400  0.72780600  0.27219400  1
  B  B26  1  0.72780600  0.27219400  0.27219400  1
  B  B27  1  0.27219400  0.72780600  0.72780600  1
  B  B28  1  0.27219400  0.27219400  0.72780600  1
