# generated using pymatgen
data_CeCoC2
_symmetry_space_group_name_H-M   'P 1'
_cell_length_a   3.73217040
_cell_length_b   3.73217040
_cell_length_c   7.39957518
_cell_angle_alpha   82.60388425
_cell_angle_beta   82.60388425
_cell_angle_gamma   89.99895788
_symmetry_Int_Tables_number   1
_chemical_formula_structural   CeCoC2
_chemical_formula_sum   'Ce2 Co2 C4'
_cell_volume   101.34707109
_cell_formula_units_Z   2
loop_
 _symmetry_equiv_pos_site_id
 _symmetry_equiv_pos_as_xyz
  1  'x, y, z'
loop_
 _atom_site_type_symbol
 _atom_site_label
 _atom_site_symmetry_multiplicity
 _atom_site_fract_x
 _atom_site_fract_y
 _atom_site_fract_z
 _atom_site_occupancy
  Ce  Ce0  1  0.06340500  0.93147100  0.99946100  1
  Ce  Ce1  1  0.93147100  0.06340500  0.49946100  1
  Co  Co2  1  0.37516400  0.50979200  0.69473700  1
  Co  Co3  1  0.50979200  0.37516400  0.19473700  1
  C  C4  1  0.44347100  0.59395600  0.42808800  1
  C  C5  1  0.59395600  0.44347100  0.92808800  1
  C  C6  1  0.49139300  0.85834700  0.27461400  1
  C  C7  1  0.85834700  0.49139300  0.77461400  1
