# generated using pymatgen
data_La3B2N5
_symmetry_space_group_name_H-M   'P 1'
_cell_length_a   14.83516700
_cell_length_b   7.65741000
_cell_length_c   9.70057800
_cell_angle_alpha   89.99900772
_cell_angle_beta   90.00000000
_cell_angle_gamma   90.00000000
_symmetry_Int_Tables_number   1
_chemical_formula_structural   La3B2N5
_chemical_formula_sum   'La24 B16 N40'
_cell_volume   1101.97553473
_cell_formula_units_Z   8
loop_
 _symmetry_equiv_pos_site_id
 _symmetry_equiv_pos_as_xyz
  1  'x, y, z'
loop_
 _atom_site_type_symbol
 _atom_site_label
 _atom_site_symmetry_multiplicity
 _atom_site_fract_x
 _atom_site_fract_y
 _atom_site_fract_z
 _atom_site_occupancy
  La  La0  1  0.19378800  0.37825700  0.70215600  1
  La  La1  1  0.69378800  0.12174300  0.29784400  1
  La  La2  1  0.80621200  0.62174300  0.29784400  1
  La  La3  1  0.30621200  0.87825700  0.70215600  1
  La  La4  1  0.11163300  0.12963400  0.98907300  1
  La  La5  1  0.61163300  0.37036600  0.01092700  1
  La  La6  1  0.88836700  0.87036600  0.01092700  1
  La  La7  1  0.38836700  0.62963400  0.98907300  1
  La  La8  1  0.96576800  0.13807400  0.68217600  1
  La  La9  1  0.46576800  0.36192600  0.31782400  1
  La  La10  1  0.03423200  0.86192600  0.31782400  1
  La  La11  1  0.53423200  0.63807400  0.68217600  1
  La  La12  1  0.10969000  0.62341700  0.99549900  1
  La  La13  1  0.60969000  0.87658300  0.00450100  1
  La  La14  1  0.89031000  0.37658300  0.00450100  1
  La  La15  1  0.39031000  0.12341700  0.99549900  1
  La  La16  1  0.75307600  0.87724200  0.67336600  1
  La  La17  1  0.25307600  0.62275800  0.32663400  1
  La  La18  1  0.24692400  0.12275800  0.32663400  1
  La  La19  1  0.74692400  0.37724200  0.67336600  1
  La  La20  1  0.96952800  0.61734400  0.67459500  1
  La  La21  1  0.46952800  0.88265600  0.32540500  1
  La  La22  1  0.03047200  0.38265600  0.32540500  1
  La  La23  1  0.53047200  0.11734400  0.67459500  1
  B  B24  1  0.85801600  0.96623400  0.44073300  1
  B  B25  1  0.35801600  0.53376600  0.55926700  1
  B  B26  1  0.14198400  0.03376600  0.55926700  1
  B  B27  1  0.64198400  0.46623400  0.44073300  1
  B  B28  1  0.10558200  0.87621900  0.76981600  1
  B  B29  1  0.60558200  0.62378100  0.23018400  1
  B  B30  1  0.89441800  0.12378100  0.23018400  1
  B  B31  1  0.39441800  0.37621900  0.76981600  1
  B  B32  1  0.64606500  0.77958700  0.44077800  1
  B  B33  1  0.14606500  0.72041300  0.55922200  1
  B  B34  1  0.35393500  0.22041300  0.55922200  1
  B  B35  1  0.85393500  0.27958700  0.44077800  1
  B  B36  1  0.24805400  0.37574200  0.09417000  1
  B  B37  1  0.74805400  0.12425800  0.90583000  1
  B  B38  1  0.75194600  0.62425800  0.90583000  1
  B  B39  1  0.25194600  0.87574200  0.09417000  1
  N  N40  1  0.89948600  0.83889900  0.52696400  1
  N  N41  1  0.39948600  0.66110100  0.47303600  1
  N  N42  1  0.10051400  0.16110100  0.47303600  1
  N  N43  1  0.60051400  0.33889900  0.52696400  1
  N  N44  1  0.14044700  0.70852400  0.71224800  1
  N  N45  1  0.64044700  0.79147600  0.28775200  1
  N  N46  1  0.85955300  0.29147600  0.28775200  1
  N  N47  1  0.35955300  0.20852400  0.71224800  1
  N  N48  1  0.13828600  0.04607500  0.71241900  1
  N  N49  1  0.63828600  0.45392500  0.28758100  1
  N  N50  1  0.86171400  0.95392500  0.28758100  1
  N  N51  1  0.36171400  0.54607500  0.71241900  1
  N  N52  1  0.23553600  0.37773100  0.94433500  1
  N  N53  1  0.73553600  0.12226900  0.05566500  1
  N  N54  1  0.76446400  0.62226900  0.05566500  1
  N  N55  1  0.26446400  0.87773100  0.94433500  1
  N  N56  1  0.89098500  0.41160700  0.52735000  1
  N  N57  1  0.39098500  0.08839300  0.47265000  1
  N  N58  1  0.10901500  0.58839300  0.47265000  1
  N  N59  1  0.60901500  0.91160700  0.52735000  1
  N  N60  1  0.83801400  0.12195700  0.83874800  1
  N  N61  1  0.33801400  0.37804300  0.16125200  1
  N  N62  1  0.16198600  0.87804300  0.16125200  1
  N  N63  1  0.66198600  0.62195700  0.83874800  1
  N  N64  1  0.97926600  0.63191200  0.15602200  1
  N  N65  1  0.47926600  0.86808800  0.84397800  1
  N  N66  1  0.02073400  0.36808800  0.84397800  1
  N  N67  1  0.52073400  0.13191200  0.15602200  1
  N  N68  1  0.83266800  0.62798500  0.81524400  1
  N  N69  1  0.33266800  0.87201500  0.18475600  1
  N  N70  1  0.16733200  0.37201500  0.18475600  1
  N  N71  1  0.66733200  0.12798500  0.81524400  1
  N  N72  1  0.97087700  0.12370700  0.13739200  1
  N  N73  1  0.47087700  0.37629300  0.86260800  1
  N  N74  1  0.02912300  0.87629300  0.86260800  1
  N  N75  1  0.52912300  0.62370700  0.13739200  1
  N  N76  1  0.81387400  0.12155400  0.50668300  1
  N  N77  1  0.31387400  0.37844600  0.49331700  1
  N  N78  1  0.18612600  0.87844600  0.49331700  1
  N  N79  1  0.68612600  0.62155400  0.50668300  1
