# generated using pymatgen
data_BaGe2S5
_symmetry_space_group_name_H-M   'P 1'
_cell_length_a   10.76610097
_cell_length_b   10.76610097
_cell_length_c   10.76610097
_cell_angle_alpha   60.00000000
_cell_angle_beta   60.00000000
_cell_angle_gamma   60.00000000
_symmetry_Int_Tables_number   1
_chemical_formula_structural   BaGe2S5
_chemical_formula_sum   'Ba4 Ge8 S20'
_cell_volume   882.38953193
_cell_formula_units_Z   4
loop_
 _symmetry_equiv_pos_site_id
 _symmetry_equiv_pos_as_xyz
  1  'x, y, z'
loop_
 _atom_site_type_symbol
 _atom_site_label
 _atom_site_symmetry_multiplicity
 _atom_site_fract_x
 _atom_site_fract_y
 _atom_site_fract_z
 _atom_site_occupancy
  Ba  Ba0  1  0.12500000  0.12500000  0.62500000  1
  Ba  Ba1  1  0.12500000  0.62500000  0.12500000  1
  Ba  Ba2  1  0.62500000  0.12500000  0.12500000  1
  Ba  Ba3  1  0.12500000  0.12500000  0.12500000  1
  Ge  Ge4  1  0.41700100  0.41700100  0.41700100  1
  Ge  Ge5  1  0.50100400  0.83299900  0.83299900  1
  Ge  Ge6  1  0.83299900  0.83299900  0.50100400  1
  Ge  Ge7  1  0.83299900  0.50100400  0.83299900  1
  Ge  Ge8  1  0.41700100  0.41700100  0.74899600  1
  Ge  Ge9  1  0.41700100  0.74899600  0.41700100  1
  Ge  Ge10  1  0.74899600  0.41700100  0.41700100  1
  Ge  Ge11  1  0.83299900  0.83299900  0.83299900  1
  S  S12  1  0.92303700  0.57696300  0.57696300  1
  S  S13  1  0.67303700  0.32696300  0.32696300  1
  S  S14  1  0.57696300  0.92303700  0.57696300  1
  S  S15  1  0.57696300  0.57696300  0.92303700  1
  S  S16  1  0.92303700  0.92303700  0.57696300  1
  S  S17  1  0.92303700  0.57696300  0.92303700  1
  S  S18  1  0.32696300  0.67303700  0.67303700  1
  S  S19  1  0.67303700  0.67303700  0.32696300  1
  S  S20  1  0.32696300  0.32696300  0.67303700  1
  S  S21  1  0.32696300  0.67303700  0.32696300  1
  S  S22  1  0.67303700  0.32696300  0.67303700  1
  S  S23  1  0.57696300  0.92303700  0.92303700  1
  S  S24  1  0.91555800  0.91555800  0.91555800  1
  S  S25  1  0.99667400  0.33444200  0.33444200  1
  S  S26  1  0.33444200  0.99667400  0.33444200  1
  S  S27  1  0.33444200  0.33444200  0.99667400  1
  S  S28  1  0.91555800  0.25332600  0.91555800  1
  S  S29  1  0.91555800  0.91555800  0.25332600  1
  S  S30  1  0.25332600  0.91555800  0.91555800  1
  S  S31  1  0.33444200  0.33444200  0.33444200  1
