# generated using pymatgen
data_Ti3Cu3O
_symmetry_space_group_name_H-M   'P 1'
_cell_length_a   7.94717453
_cell_length_b   7.94717453
_cell_length_c   7.94717453
_cell_angle_alpha   60.00000000
_cell_angle_beta   60.00000000
_cell_angle_gamma   60.00000000
_symmetry_Int_Tables_number   1
_chemical_formula_structural   Ti3Cu3O
_chemical_formula_sum   'Ti12 Cu12 O4'
_cell_volume   354.91410070
_cell_formula_units_Z   4
loop_
 _symmetry_equiv_pos_site_id
 _symmetry_equiv_pos_as_xyz
  1  'x, y, z'
loop_
 _atom_site_type_symbol
 _atom_site_label
 _atom_site_symmetry_multiplicity
 _atom_site_fract_x
 _atom_site_fract_y
 _atom_site_fract_z
 _atom_site_occupancy
  Ti  Ti0  1  0.93577900  0.56422100  0.56422100  1
  Ti  Ti1  1  0.68577900  0.31422100  0.68577900  1
  Ti  Ti2  1  0.93577900  0.56422100  0.93577900  1
  Ti  Ti3  1  0.56422100  0.93577900  0.93577900  1
  Ti  Ti4  1  0.31422100  0.68577900  0.31422100  1
  Ti  Ti5  1  0.56422100  0.93577900  0.56422100  1
  Ti  Ti6  1  0.68577900  0.68577900  0.31422100  1
  Ti  Ti7  1  0.93577900  0.93577900  0.56422100  1
  Ti  Ti8  1  0.31422100  0.31422100  0.68577900  1
  Ti  Ti9  1  0.68577900  0.31422100  0.31422100  1
  Ti  Ti10  1  0.56422100  0.56422100  0.93577900  1
  Ti  Ti11  1  0.31422100  0.68577900  0.68577900  1
  Cu  Cu12  1  0.25407600  0.91530800  0.91530800  1
  Cu  Cu13  1  0.33469200  0.33469200  0.33469200  1
  Cu  Cu14  1  0.33469200  0.33469200  0.99592400  1
  Cu  Cu15  1  0.91530800  0.25407600  0.91530800  1
  Cu  Cu16  1  0.91530800  0.91530800  0.91530800  1
  Cu  Cu17  1  0.99592400  0.33469200  0.33469200  1
  Cu  Cu18  1  0.91530800  0.91530800  0.25407600  1
  Cu  Cu19  1  0.33469200  0.99592400  0.33469200  1
  Cu  Cu20  1  0.12500000  0.62500000  0.12500000  1
  Cu  Cu21  1  0.12500000  0.12500000  0.62500000  1
  Cu  Cu22  1  0.62500000  0.12500000  0.12500000  1
  Cu  Cu23  1  0.12500000  0.12500000  0.12500000  1
  O  O24  1  0.62500000  0.12500000  0.62500000  1
  O  O25  1  0.62500000  0.62500000  0.12500000  1
  O  O26  1  0.12500000  0.62500000  0.62500000  1
  O  O27  1  0.62500000  0.62500000  0.62500000  1
