# generated using pymatgen
data_Nd4Ge7
_symmetry_space_group_name_H-M   'P 1'
_cell_length_a   7.64747067
_cell_length_b   7.64747067
_cell_length_c   12.09327500
_cell_angle_alpha   90.00000000
_cell_angle_beta   90.00000000
_cell_angle_gamma   133.41118564
_symmetry_Int_Tables_number   1
_chemical_formula_structural   Nd4Ge7
_chemical_formula_sum   'Nd8 Ge14'
_cell_volume   513.78288020
_cell_formula_units_Z   2
loop_
 _symmetry_equiv_pos_site_id
 _symmetry_equiv_pos_as_xyz
  1  'x, y, z'
loop_
 _atom_site_type_symbol
 _atom_site_label
 _atom_site_symmetry_multiplicity
 _atom_site_fract_x
 _atom_site_fract_y
 _atom_site_fract_z
 _atom_site_occupancy
  Nd  Nd0  1  0.51437800  0.51437800  0.50000000  1
  Nd  Nd1  1  0.48562200  0.48562200  0.00000000  1
  Nd  Nd2  1  0.00487900  0.99512100  0.25000000  1
  Nd  Nd3  1  0.99512100  0.00487900  0.75000000  1
  Nd  Nd4  1  0.01811400  0.50856000  0.61967900  1
  Nd  Nd5  1  0.50856000  0.01811400  0.38032100  1
  Nd  Nd6  1  0.98188600  0.49144000  0.11967900  1
  Nd  Nd7  1  0.49144000  0.98188600  0.88032100  1
  Ge  Ge8  1  0.56103400  0.43896600  0.25000000  1
  Ge  Ge9  1  0.43896600  0.56103400  0.75000000  1
  Ge  Ge10  1  0.81999100  0.52564100  0.83709500  1
  Ge  Ge11  1  0.52564100  0.81999100  0.16290500  1
  Ge  Ge12  1  0.18000900  0.47435900  0.33709500  1
  Ge  Ge13  1  0.47435900  0.18000900  0.66290500  1
  Ge  Ge14  1  0.08091600  0.42618300  0.87129000  1
  Ge  Ge15  1  0.42618300  0.08091600  0.12871000  1
  Ge  Ge16  1  0.92966300  0.10660100  0.48967600  1
  Ge  Ge17  1  0.10660100  0.92966300  0.51032400  1
  Ge  Ge18  1  0.07033700  0.89339900  0.98967600  1
  Ge  Ge19  1  0.89339900  0.07033700  0.01032400  1
  Ge  Ge20  1  0.57381700  0.91908400  0.62871000  1
  Ge  Ge21  1  0.91908400  0.57381700  0.37129000  1
