# generated using pymatgen
data_RbPb
_symmetry_space_group_name_H-M   'P 1'
_cell_length_a   13.14704888
_cell_length_b   13.14704888
_cell_length_c   13.14704888
_cell_angle_alpha   124.97690264
_cell_angle_beta   124.97690264
_cell_angle_gamma   81.57629325
_symmetry_Int_Tables_number   1
_chemical_formula_structural   RbPb
_chemical_formula_sum   'Rb16 Pb16'
_cell_volume   1468.46242127
_cell_formula_units_Z   16
loop_
 _symmetry_equiv_pos_site_id
 _symmetry_equiv_pos_as_xyz
  1  'x, y, z'
loop_
 _atom_site_type_symbol
 _atom_site_label
 _atom_site_symmetry_multiplicity
 _atom_site_fract_x
 _atom_site_fract_y
 _atom_site_fract_z
 _atom_site_occupancy
  Rb  Rb0  1  0.12500000  0.23890000  0.61390000  1
  Rb  Rb1  1  0.98890000  0.87500000  0.61390000  1
  Rb  Rb2  1  0.26110000  0.37500000  0.38610000  1
  Rb  Rb3  1  0.62500000  0.51110000  0.38610000  1
  Rb  Rb4  1  0.62500000  0.01110000  0.88610000  1
  Rb  Rb5  1  0.76110000  0.37500000  0.88610000  1
  Rb  Rb6  1  0.48890000  0.87500000  0.11390000  1
  Rb  Rb7  1  0.12500000  0.73890000  0.11390000  1
  Rb  Rb8  1  0.62921300  0.62921300  0.75842600  1
  Rb  Rb9  1  0.37921300  0.12078700  0.50000000  1
  Rb  Rb10  1  0.62078700  0.87921300  0.50000000  1
  Rb  Rb11  1  0.87078700  0.87078700  0.24157400  1
  Rb  Rb12  1  0.12078700  0.62078700  0.74157400  1
  Rb  Rb13  1  0.37078700  0.12921300  0.00000000  1
  Rb  Rb14  1  0.12921300  0.37078700  0.00000000  1
  Rb  Rb15  1  0.87921300  0.37921300  0.25842600  1
  Pb  Pb16  1  0.94239800  0.11764200  0.94643300  1
  Pb  Pb17  1  0.86764200  0.42120900  0.67524400  1
  Pb  Pb18  1  0.74596500  0.19239800  0.32475600  1
  Pb  Pb19  1  0.30760200  0.75403500  0.67524400  1
  Pb  Pb20  1  0.07879100  0.63235800  0.32475600  1
  Pb  Pb21  1  0.50403500  0.32879100  0.94643300  1
  Pb  Pb22  1  0.38235800  0.55760200  0.05356700  1
  Pb  Pb23  1  0.17120900  0.99596500  0.05356700  1
  Pb  Pb24  1  0.80760200  0.13235800  0.55356700  1
  Pb  Pb25  1  0.88235800  0.82879100  0.82475600  1
  Pb  Pb26  1  0.00403500  0.05760200  0.17524400  1
  Pb  Pb27  1  0.44239800  0.49596500  0.82475600  1
  Pb  Pb28  1  0.67120900  0.61764200  0.17524400  1
  Pb  Pb29  1  0.24596500  0.92120900  0.55356700  1
  Pb  Pb30  1  0.36764200  0.69239800  0.44643300  1
  Pb  Pb31  1  0.57879100  0.25403500  0.44643300  1
