# generated using pymatgen
data_TiCoSi
_symmetry_space_group_name_H-M   'P 1'
_cell_length_a   3.70929400
_cell_length_b   6.12662400
_cell_length_c   6.89515800
_cell_angle_alpha   90.00000000
_cell_angle_beta   90.00000000
_cell_angle_gamma   90.00000000
_symmetry_Int_Tables_number   1
_chemical_formula_structural   TiCoSi
_chemical_formula_sum   'Ti4 Co4 Si4'
_cell_volume   156.69556591
_cell_formula_units_Z   4
loop_
 _symmetry_equiv_pos_site_id
 _symmetry_equiv_pos_as_xyz
  1  'x, y, z'
loop_
 _atom_site_type_symbol
 _atom_site_label
 _atom_site_symmetry_multiplicity
 _atom_site_fract_x
 _atom_site_fract_y
 _atom_site_fract_z
 _atom_site_occupancy
  Ti  Ti0  1  0.25000000  0.01551400  0.80915800  1
  Ti  Ti1  1  0.75000000  0.48448600  0.30915800  1
  Ti  Ti2  1  0.25000000  0.51551400  0.69084200  1
  Ti  Ti3  1  0.75000000  0.98448600  0.19084200  1
  Co  Co4  1  0.25000000  0.64558700  0.06541400  1
  Co  Co5  1  0.75000000  0.35441300  0.93458600  1
  Co  Co6  1  0.25000000  0.14558700  0.43458600  1
  Co  Co7  1  0.75000000  0.85441300  0.56541400  1
  Si  Si8  1  0.75000000  0.72677400  0.88575200  1
  Si  Si9  1  0.25000000  0.77322600  0.38575200  1
  Si  Si10  1  0.75000000  0.22677400  0.61424800  1
  Si  Si11  1  0.25000000  0.27322600  0.11424800  1
