# generated using pymatgen
data_V2CdP2O9
_symmetry_space_group_name_H-M   'P 1'
_cell_length_a   6.40291400
_cell_length_b   7.45259700
_cell_length_c   14.56048300
_cell_angle_alpha   90.00000000
_cell_angle_beta   90.00000000
_cell_angle_gamma   90.00000000
_symmetry_Int_Tables_number   1
_chemical_formula_structural   V2CdP2O9
_chemical_formula_sum   'V8 Cd4 P8 O36'
_cell_volume   694.80204440
_cell_formula_units_Z   4
loop_
 _symmetry_equiv_pos_site_id
 _symmetry_equiv_pos_as_xyz
  1  'x, y, z'
loop_
 _atom_site_type_symbol
 _atom_site_label
 _atom_site_symmetry_multiplicity
 _atom_site_fract_x
 _atom_site_fract_y
 _atom_site_fract_z
 _atom_site_occupancy
  V  V0  1  0.50000000  0.50000000  0.50000000  1
  V  V1  1  0.00000000  0.50000000  0.50000000  1
  V  V2  1  0.25000000  0.14970400  0.37849700  1
  V  V3  1  0.00000000  0.00000000  0.00000000  1
  V  V4  1  0.25000000  0.35029600  0.87849700  1
  V  V5  1  0.75000000  0.64970400  0.12150300  1
  V  V6  1  0.75000000  0.85029600  0.62150300  1
  V  V7  1  0.50000000  0.00000000  0.00000000  1
  Cd  Cd8  1  0.75000000  0.36724000  0.72285200  1
  Cd  Cd9  1  0.25000000  0.63276000  0.27714800  1
  Cd  Cd10  1  0.25000000  0.86724000  0.77714800  1
  Cd  Cd11  1  0.75000000  0.13276000  0.22285200  1
  P  P12  1  0.75000000  0.36717200  0.93312700  1
  P  P13  1  0.25000000  0.63282800  0.06687300  1
  P  P14  1  0.25000000  0.86717200  0.56687300  1
  P  P15  1  0.75000000  0.13282800  0.43312700  1
  P  P16  1  0.25000000  0.39358000  0.69385200  1
  P  P17  1  0.75000000  0.60642000  0.30614800  1
  P  P18  1  0.75000000  0.89358000  0.80614800  1
  P  P19  1  0.25000000  0.10642000  0.19385200  1
  O  O20  1  0.54900400  0.59947300  0.36700400  1
  O  O21  1  0.04900400  0.40052700  0.63299600  1
  O  O22  1  0.45099600  0.09947300  0.13299600  1
  O  O23  1  0.95099600  0.90052700  0.86700400  1
  O  O24  1  0.45099600  0.40052700  0.63299600  1
  O  O25  1  0.95099600  0.59947300  0.36700400  1
  O  O26  1  0.54900400  0.90052700  0.86700400  1
  O  O27  1  0.04900400  0.09947300  0.13299600  1
  O  O28  1  0.75000000  0.32008600  0.48114000  1
  O  O29  1  0.25000000  0.67991400  0.51886000  1
  O  O30  1  0.25000000  0.82008600  0.01886000  1
  O  O31  1  0.75000000  0.17991400  0.98114000  1
  O  O32  1  0.25000000  0.12841000  0.95200800  1
  O  O33  1  0.75000000  0.87159000  0.04799200  1
  O  O34  1  0.75000000  0.62841000  0.54799200  1
  O  O35  1  0.25000000  0.37159000  0.45200800  1
  O  O36  1  0.25000000  0.21968000  0.75304500  1
  O  O37  1  0.75000000  0.78032000  0.24695500  1
  O  O38  1  0.75000000  0.71968000  0.74695500  1
  O  O39  1  0.25000000  0.28032000  0.25304500  1
  O  O40  1  0.93926600  0.12577600  0.36577900  1
  O  O41  1  0.43926600  0.87422400  0.63422100  1
  O  O42  1  0.06073400  0.62577600  0.13422100  1
  O  O43  1  0.56073400  0.37422400  0.86577900  1
  O  O44  1  0.06073400  0.87422400  0.63422100  1
  O  O45  1  0.56073400  0.12577600  0.36577900  1
  O  O46  1  0.93926600  0.37422400  0.86577900  1
  O  O47  1  0.43926600  0.62577600  0.13422100  1
  O  O48  1  0.25000000  0.48409300  0.99756300  1
  O  O49  1  0.75000000  0.04714400  0.73313600  1
  O  O50  1  0.75000000  0.45285600  0.23313600  1
  O  O51  1  0.25000000  0.54714400  0.76686400  1
  O  O52  1  0.25000000  0.01590700  0.49756300  1
  O  O53  1  0.75000000  0.98409300  0.50243700  1
  O  O54  1  0.75000000  0.51590700  0.00243700  1
  O  O55  1  0.25000000  0.95285600  0.26686400  1
