# generated using pymatgen
data_ZnHgAsHO5
_symmetry_space_group_name_H-M   'P 1'
_cell_length_a   6.42726800
_cell_length_b   7.76168400
_cell_length_c   8.83815600
_cell_angle_alpha   90.00000000
_cell_angle_beta   90.00000000
_cell_angle_gamma   90.00000000
_symmetry_Int_Tables_number   1
_chemical_formula_structural   ZnHgAsHO5
_chemical_formula_sum   'Zn4 Hg4 As4 H4 O20'
_cell_volume   440.90399052
_cell_formula_units_Z   4
loop_
 _symmetry_equiv_pos_site_id
 _symmetry_equiv_pos_as_xyz
  1  'x, y, z'
loop_
 _atom_site_type_symbol
 _atom_site_label
 _atom_site_symmetry_multiplicity
 _atom_site_fract_x
 _atom_site_fract_y
 _atom_site_fract_z
 _atom_site_occupancy
  Zn  Zn0  1  0.00000000  0.50000000  0.50000000  1
  Zn  Zn1  1  0.50000000  0.50000000  0.50000000  1
  Zn  Zn2  1  0.50000000  0.00000000  0.00000000  1
  Zn  Zn3  1  0.00000000  0.00000000  0.00000000  1
  Hg  Hg4  1  0.25000000  0.88679400  0.32489500  1
  Hg  Hg5  1  0.75000000  0.11320600  0.67510500  1
  Hg  Hg6  1  0.25000000  0.38679400  0.17510500  1
  Hg  Hg7  1  0.75000000  0.61320600  0.82489500  1
  As  As8  1  0.25000000  0.86061800  0.67818400  1
  As  As9  1  0.75000000  0.13938200  0.32181600  1
  As  As10  1  0.25000000  0.36061800  0.82181600  1
  As  As11  1  0.75000000  0.63938200  0.17818400  1
  H  H12  1  0.25000000  0.74063300  0.04277200  1
  H  H13  1  0.75000000  0.25936700  0.95722800  1
  H  H14  1  0.25000000  0.24063300  0.45722800  1
  H  H15  1  0.75000000  0.75936700  0.54277200  1
  O  O16  1  0.25000000  0.86093200  0.08047500  1
  O  O17  1  0.75000000  0.13906800  0.91952500  1
  O  O18  1  0.25000000  0.36093200  0.41952500  1
  O  O19  1  0.75000000  0.63906800  0.58047500  1
  O  O20  1  0.25000000  0.67409900  0.56850600  1
  O  O21  1  0.75000000  0.32590100  0.43149400  1
  O  O22  1  0.25000000  0.17409900  0.93149400  1
  O  O23  1  0.75000000  0.82590100  0.06850600  1
  O  O24  1  0.97429700  0.62626600  0.28474300  1
  O  O25  1  0.47429700  0.37373400  0.71525700  1
  O  O26  1  0.52570300  0.12626600  0.21525700  1
  O  O27  1  0.02570300  0.87373400  0.78474300  1
  O  O28  1  0.02570300  0.37373400  0.71525700  1
  O  O29  1  0.52570300  0.62626600  0.28474300  1
  O  O30  1  0.47429700  0.87373400  0.78474300  1
  O  O31  1  0.97429700  0.12626600  0.21525700  1
  O  O32  1  0.75000000  0.97815400  0.46065200  1
  O  O33  1  0.25000000  0.02184600  0.53934800  1
  O  O34  1  0.75000000  0.47815400  0.03934800  1
  O  O35  1  0.25000000  0.52184600  0.96065200  1
