# generated using pymatgen
data_Ba2Si3O8
_symmetry_space_group_name_H-M   'P 1'
_cell_length_a   4.75581300
_cell_length_b   12.66486200
_cell_length_c   14.14900300
_cell_angle_alpha   86.52761969
_cell_angle_beta   90.00000000
_cell_angle_gamma   90.00000000
_symmetry_Int_Tables_number   1
_chemical_formula_structural   Ba2Si3O8
_chemical_formula_sum   'Ba8 Si12 O32'
_cell_volume   850.65414204
_cell_formula_units_Z   4
loop_
 _symmetry_equiv_pos_site_id
 _symmetry_equiv_pos_as_xyz
  1  'x, y, z'
loop_
 _atom_site_type_symbol
 _atom_site_label
 _atom_site_symmetry_multiplicity
 _atom_site_fract_x
 _atom_site_fract_y
 _atom_site_fract_z
 _atom_site_occupancy
  Ba  Ba0  1  0.75543500  0.85590600  0.46750000  1
  Ba  Ba1  1  0.25543500  0.14409400  0.03250000  1
  Ba  Ba2  1  0.24456500  0.14409400  0.53250000  1
  Ba  Ba3  1  0.74456500  0.85590600  0.96750000  1
  Ba  Ba4  1  0.27327600  0.58248000  0.38969300  1
  Ba  Ba5  1  0.77327600  0.41752000  0.11030700  1
  Ba  Ba6  1  0.72672400  0.41752000  0.61030700  1
  Ba  Ba7  1  0.22672400  0.58248000  0.88969300  1
  Si  Si8  1  0.82018200  0.97323300  0.18768300  1
  Si  Si9  1  0.32018200  0.02676700  0.31231700  1
  Si  Si10  1  0.17981800  0.02676700  0.81231700  1
  Si  Si11  1  0.67981800  0.97323300  0.68768300  1
  Si  Si12  1  0.82029600  0.72385300  0.22295700  1
  Si  Si13  1  0.32029600  0.27614700  0.27704300  1
  Si  Si14  1  0.17970400  0.27614700  0.77704300  1
  Si  Si15  1  0.67970400  0.72385300  0.72295700  1
  Si  Si16  1  0.31357900  0.64898100  0.11088800  1
  Si  Si17  1  0.81357900  0.35101900  0.38911200  1
  Si  Si18  1  0.68642100  0.35101900  0.88911200  1
  Si  Si19  1  0.18642100  0.64898100  0.61088800  1
  O  O20  1  0.14908600  0.00232500  0.21436800  1
  O  O21  1  0.64908600  0.99767500  0.28563200  1
  O  O22  1  0.85091400  0.99767500  0.78563200  1
  O  O23  1  0.35091400  0.00232500  0.71436800  1
  O  O24  1  0.73595200  0.03411300  0.08955700  1
  O  O25  1  0.23595200  0.96588700  0.41044300  1
  O  O26  1  0.26404800  0.96588700  0.91044300  1
  O  O27  1  0.76404800  0.03411300  0.58955700  1
  O  O28  1  0.79924200  0.84491200  0.17251500  1
  O  O29  1  0.29924200  0.15508800  0.32748500  1
  O  O30  1  0.20075800  0.15508800  0.82748500  1
  O  O31  1  0.70075800  0.84491200  0.67251500  1
  O  O32  1  0.73728000  0.71379500  0.33247300  1
  O  O33  1  0.23728000  0.28620500  0.16752700  1
  O  O34  1  0.26272000  0.28620500  0.66752700  1
  O  O35  1  0.76272000  0.71379500  0.83247300  1
  O  O36  1  0.14601900  0.68077900  0.20983000  1
  O  O37  1  0.64601900  0.31922100  0.29017000  1
  O  O38  1  0.85398100  0.31922100  0.79017000  1
  O  O39  1  0.35398100  0.68077900  0.70983000  1
  O  O40  1  0.24841300  0.52860700  0.58423500  1
  O  O41  1  0.74841300  0.47139300  0.91576500  1
  O  O42  1  0.75158700  0.47139300  0.41576500  1
  O  O43  1  0.25158700  0.52860700  0.08423500  1
  O  O44  1  0.23182800  0.73324200  0.52173600  1
  O  O45  1  0.73182800  0.26675800  0.97826400  1
  O  O46  1  0.76817200  0.26675800  0.47826400  1
  O  O47  1  0.26817200  0.73324200  0.02173600  1
  O  O48  1  0.85357800  0.64845500  0.65092400  1
  O  O49  1  0.35357800  0.35154500  0.84907600  1
  O  O50  1  0.14642200  0.35154500  0.34907600  1
  O  O51  1  0.64642200  0.64845500  0.15092400  1
