# generated using pymatgen
data_BiAsO4
_symmetry_space_group_name_H-M   'P 1'
_cell_length_a   7.28856700
_cell_length_b   6.83591300
_cell_length_c   8.38994656
_cell_angle_alpha   53.49779452
_cell_angle_beta   90.00000000
_cell_angle_gamma   90.00000000
_symmetry_Int_Tables_number   1
_chemical_formula_structural   BiAsO4
_chemical_formula_sum   'Bi4 As4 O16'
_cell_volume   336.01930099
_cell_formula_units_Z   4
loop_
 _symmetry_equiv_pos_site_id
 _symmetry_equiv_pos_as_xyz
  1  'x, y, z'
loop_
 _atom_site_type_symbol
 _atom_site_label
 _atom_site_symmetry_multiplicity
 _atom_site_fract_x
 _atom_site_fract_y
 _atom_site_fract_z
 _atom_site_occupancy
  Bi  Bi0  1  0.63304700  0.20108200  0.21861600  1
  Bi  Bi1  1  0.13304700  0.79891800  0.28138400  1
  Bi  Bi2  1  0.36695300  0.79891800  0.78138400  1
  Bi  Bi3  1  0.86695300  0.20108200  0.71861600  1
  As  As4  1  0.66247600  0.68822400  0.20172900  1
  As  As5  1  0.16247600  0.31177600  0.29827100  1
  As  As6  1  0.33752400  0.31177600  0.79827100  1
  As  As7  1  0.83752400  0.68822400  0.70172900  1
  O  O8  1  0.70713300  0.38775400  0.39151900  1
  O  O9  1  0.20713300  0.61224600  0.10848100  1
  O  O10  1  0.29286700  0.61224600  0.60848100  1
  O  O11  1  0.79286700  0.38775400  0.89151900  1
  O  O12  1  0.60152000  0.63769200  0.02683700  1
  O  O13  1  0.10152000  0.36230800  0.47316300  1
  O  O14  1  0.39848000  0.36230800  0.97316300  1
  O  O15  1  0.89848000  0.63769200  0.52683700  1
  O  O16  1  0.99854400  0.84036900  0.73720300  1
  O  O17  1  0.49854400  0.15963100  0.76279700  1
  O  O18  1  0.00145600  0.15963100  0.26279700  1
  O  O19  1  0.50145600  0.84036900  0.23720300  1
  O  O20  1  0.64384700  0.86975800  0.60964400  1
  O  O21  1  0.14384700  0.13024200  0.89035600  1
  O  O22  1  0.35615300  0.13024200  0.39035600  1
  O  O23  1  0.85615300  0.86975800  0.10964400  1
