# generated using pymatgen
data_Rb2Ta15O32
_symmetry_space_group_name_H-M   'P 1'
_cell_length_a   12.95987948
_cell_length_b   12.95987948
_cell_length_c   12.95987903
_cell_angle_alpha   35.41494406
_cell_angle_beta   35.41494406
_cell_angle_gamma   35.41494494
_symmetry_Int_Tables_number   1
_chemical_formula_structural   Rb2Ta15O32
_chemical_formula_sum   'Rb2 Ta15 O32'
_cell_volume   653.13563134
_cell_formula_units_Z   1
loop_
 _symmetry_equiv_pos_site_id
 _symmetry_equiv_pos_as_xyz
  1  'x, y, z'
loop_
 _atom_site_type_symbol
 _atom_site_label
 _atom_site_symmetry_multiplicity
 _atom_site_fract_x
 _atom_site_fract_y
 _atom_site_fract_z
 _atom_site_occupancy
  Rb  Rb0  1  0.14042500  0.14042500  0.14042500  1
  Rb  Rb1  1  0.85957500  0.85957500  0.85957500  1
  Ta  Ta2  1  0.50000000  0.50000000  0.50000000  1
  Ta  Ta3  1  0.69930800  0.02536300  0.57106900  1
  Ta  Ta4  1  0.02536300  0.57106900  0.69930800  1
  Ta  Ta5  1  0.57106900  0.69930800  0.02536300  1
  Ta  Ta6  1  0.30069200  0.97463700  0.42893100  1
  Ta  Ta7  1  0.97463700  0.42893100  0.30069200  1
  Ta  Ta8  1  0.42893100  0.30069200  0.97463700  1
  Ta  Ta9  1  0.05283200  0.81463000  0.22849300  1
  Ta  Ta10  1  0.81463000  0.22849300  0.05283200  1
  Ta  Ta11  1  0.22849300  0.05283200  0.81463000  1
  Ta  Ta12  1  0.94716800  0.18537000  0.77150700  1
  Ta  Ta13  1  0.18537000  0.77150700  0.94716800  1
  Ta  Ta14  1  0.77150700  0.94716800  0.18537000  1
  Ta  Ta15  1  0.36220200  0.36220200  0.36220200  1
  Ta  Ta16  1  0.63779800  0.63779800  0.63779800  1
  O  O17  1  0.47110200  0.67163100  0.26022600  1
  O  O18  1  0.67163100  0.26022600  0.47110200  1
  O  O19  1  0.26022600  0.47110200  0.67163100  1
  O  O20  1  0.52889800  0.32836900  0.73977400  1
  O  O21  1  0.32836900  0.73977400  0.52889800  1
  O  O22  1  0.73977400  0.52889800  0.32836900  1
  O  O23  1  0.96593700  0.84870600  0.55307300  1
  O  O24  1  0.84870600  0.55307300  0.96593700  1
  O  O25  1  0.55307300  0.96593700  0.84870600  1
  O  O26  1  0.03406300  0.15129400  0.44692700  1
  O  O27  1  0.15129400  0.44692700  0.03406300  1
  O  O28  1  0.44692700  0.03406300  0.15129400  1
  O  O29  1  0.73634300  0.73634300  0.73634300  1
  O  O30  1  0.26365700  0.26365700  0.26365700  1
  O  O31  1  0.85783600  0.04017100  0.29901700  1
  O  O32  1  0.04017100  0.29901700  0.85783600  1
  O  O33  1  0.29901700  0.85783600  0.04017100  1
  O  O34  1  0.57094300  0.17048000  0.25817700  1
  O  O35  1  0.25817700  0.57094300  0.17048000  1
  O  O36  1  0.17048000  0.25817700  0.57094300  1
  O  O37  1  0.42905700  0.82952000  0.74182300  1
  O  O38  1  0.74182300  0.42905700  0.82952000  1
  O  O39  1  0.82952000  0.74182300  0.42905700  1
  O  O40  1  0.54287300  0.84524000  0.42972400  1
  O  O41  1  0.42972400  0.54287300  0.84524000  1
  O  O42  1  0.84524000  0.42972400  0.54287300  1
  O  O43  1  0.45712700  0.15476000  0.57027600  1
  O  O44  1  0.57027600  0.45712700  0.15476000  1
  O  O45  1  0.15476000  0.57027600  0.45712700  1
  O  O46  1  0.70098300  0.14216400  0.95982900  1
  O  O47  1  0.95982900  0.70098300  0.14216400  1
  O  O48  1  0.14216400  0.95982900  0.70098300  1
