# generated using pymatgen
data_FeH10N2OF5
_symmetry_space_group_name_H-M   'P 1'
_cell_length_a   7.86547600
_cell_length_b   8.23153400
_cell_length_c   10.74952600
_cell_angle_alpha   90.00000000
_cell_angle_beta   90.00000000
_cell_angle_gamma   90.00000000
_symmetry_Int_Tables_number   1
_chemical_formula_structural   FeH10N2OF5
_chemical_formula_sum   'Fe4 H40 N8 O4 F20'
_cell_volume   695.97734194
_cell_formula_units_Z   4
loop_
 _symmetry_equiv_pos_site_id
 _symmetry_equiv_pos_as_xyz
  1  'x, y, z'
loop_
 _atom_site_type_symbol
 _atom_site_label
 _atom_site_symmetry_multiplicity
 _atom_site_fract_x
 _atom_site_fract_y
 _atom_site_fract_z
 _atom_site_occupancy
  Fe  Fe0  1  0.75000000  0.79996300  0.00000000  1
  Fe  Fe1  1  0.25000000  0.70003700  0.50000000  1
  Fe  Fe2  1  0.25000000  0.20003700  0.00000000  1
  Fe  Fe3  1  0.75000000  0.29996300  0.50000000  1
  H  H4  1  0.64757900  0.61585000  0.52090600  1
  H  H5  1  0.14757900  0.88415000  0.97909400  1
  H  H6  1  0.85242100  0.61585000  0.47909400  1
  H  H7  1  0.35242100  0.88415000  0.02090600  1
  H  H8  1  0.35242100  0.38415000  0.47909400  1
  H  H9  1  0.85242100  0.11585000  0.02090600  1
  H  H10  1  0.14757900  0.38415000  0.52090600  1
  H  H11  1  0.64757900  0.11585000  0.97909400  1
  H  H12  1  0.90188900  0.50569600  0.88086700  1
  H  H13  1  0.40188900  0.99430400  0.61913300  1
  H  H14  1  0.59811100  0.50569600  0.11913300  1
  H  H15  1  0.09811100  0.99430400  0.38086700  1
  H  H16  1  0.09811100  0.49430400  0.11913300  1
  H  H17  1  0.59811100  0.00569600  0.38086700  1
  H  H18  1  0.40188900  0.49430400  0.88086700  1
  H  H19  1  0.90188900  0.00569600  0.61913300  1
  H  H20  1  0.04330900  0.37118800  0.81668300  1
  H  H21  1  0.54330900  0.12881200  0.68331700  1
  H  H22  1  0.97467000  0.43994200  0.24335400  1
  H  H23  1  0.45669100  0.37118800  0.18331700  1
  H  H24  1  0.95669100  0.62881200  0.18331700  1
  H  H25  1  0.45669100  0.87118800  0.31668300  1
  H  H26  1  0.54330900  0.62881200  0.81668300  1
  H  H27  1  0.04330900  0.87118800  0.68331700  1
  H  H28  1  0.86606000  0.42147400  0.74003100  1
  H  H29  1  0.36606000  0.07852600  0.75996900  1
  H  H30  1  0.63394000  0.42147400  0.25996900  1
  H  H31  1  0.13394000  0.07852600  0.24003100  1
  H  H32  1  0.13394000  0.57852600  0.25996900  1
  H  H33  1  0.63394000  0.92147400  0.24003100  1
  H  H34  1  0.36606000  0.57852600  0.74003100  1
  H  H35  1  0.86606000  0.92147400  0.75996900  1
  H  H36  1  0.02533000  0.56005800  0.75664600  1
  H  H37  1  0.52533000  0.93994200  0.74335400  1
  H  H38  1  0.47467000  0.56005800  0.24335400  1
  H  H39  1  0.97467000  0.93994200  0.25664600  1
  H  H40  1  0.02533000  0.06005800  0.74335400  1
  H  H41  1  0.52533000  0.43994200  0.75664600  1
  H  H42  1  0.47467000  0.06005800  0.25664600  1
  H  H43  1  0.95669100  0.12881200  0.31668300  1
  N  N44  1  0.95893200  0.96594500  0.70093700  1
  N  N45  1  0.95893200  0.46594500  0.79906300  1
  N  N46  1  0.45893200  0.03405500  0.70093700  1
  N  N47  1  0.54106800  0.46594500  0.20093700  1
  N  N48  1  0.45893200  0.53405500  0.79906300  1
  N  N49  1  0.04106800  0.03405500  0.29906300  1
  N  N50  1  0.04106800  0.53405500  0.20093700  1
  N  N51  1  0.54106800  0.96594500  0.29906300  1
  O  O52  1  0.75000000  0.04784800  0.00000000  1
  O  O53  1  0.25000000  0.45215200  0.50000000  1
  O  O54  1  0.25000000  0.95215200  0.00000000  1
  O  O55  1  0.75000000  0.54784800  0.50000000  1
  F  F56  1  0.98395900  0.29473700  0.55691300  1
  F  F57  1  0.48395900  0.20526300  0.94308700  1
  F  F58  1  0.51604100  0.29473700  0.44308700  1
  F  F59  1  0.01604100  0.20526300  0.05691300  1
  F  F60  1  0.01604100  0.70526300  0.44308700  1
  F  F61  1  0.51604100  0.79473700  0.05691300  1
  F  F62  1  0.67230500  0.80494400  0.82285100  1
  F  F63  1  0.98395900  0.79473700  0.94308700  1
  F  F64  1  0.75000000  0.06213100  0.50000000  1
  F  F65  1  0.25000000  0.43786900  0.00000000  1
  F  F66  1  0.25000000  0.93786900  0.50000000  1
  F  F67  1  0.75000000  0.56213100  0.00000000  1
  F  F68  1  0.32769500  0.19505600  0.17714900  1
  F  F69  1  0.67230500  0.30494400  0.67714900  1
  F  F70  1  0.17230500  0.19505600  0.82285100  1
  F  F71  1  0.82769500  0.30494400  0.32285100  1
  F  F72  1  0.17230500  0.69505600  0.67714900  1
  F  F73  1  0.82769500  0.80494400  0.17714900  1
  F  F74  1  0.32769500  0.69505600  0.32285100  1
  F  F75  1  0.48395900  0.70526300  0.55691300  1
