# generated using pymatgen
data_U(Ni2P)2
_symmetry_space_group_name_H-M   'P 1'
_cell_length_a   7.02046000
_cell_length_b   7.02046000
_cell_length_c   3.65827400
_cell_angle_alpha   90.00000000
_cell_angle_beta   90.00000000
_cell_angle_gamma   90.00000000
_symmetry_Int_Tables_number   1
_chemical_formula_structural   U(Ni2P)2
_chemical_formula_sum   'U2 Ni8 P4'
_cell_volume   180.30483340
_cell_formula_units_Z   2
loop_
 _symmetry_equiv_pos_site_id
 _symmetry_equiv_pos_as_xyz
  1  'x, y, z'
loop_
 _atom_site_type_symbol
 _atom_site_label
 _atom_site_symmetry_multiplicity
 _atom_site_fract_x
 _atom_site_fract_y
 _atom_site_fract_z
 _atom_site_occupancy
  U  U0  1  0.50000000  0.50000000  0.00000000  1
  U  U1  1  0.00000000  0.00000000  0.50000000  1
  Ni  Ni2  1  0.59017000  0.16072200  0.50000000  1
  Ni  Ni3  1  0.40983000  0.83927800  0.50000000  1
  Ni  Ni4  1  0.16072200  0.59017000  0.50000000  1
  Ni  Ni5  1  0.83927800  0.40983000  0.50000000  1
  Ni  Ni6  1  0.09017000  0.33927800  0.00000000  1
  Ni  Ni7  1  0.90983000  0.66072200  0.00000000  1
  Ni  Ni8  1  0.66072200  0.90983000  0.00000000  1
  Ni  Ni9  1  0.33927800  0.09017000  0.00000000  1
  P  P10  1  0.21808300  0.78191700  0.00000000  1
  P  P11  1  0.28191700  0.28191700  0.50000000  1
  P  P12  1  0.71808300  0.71808300  0.50000000  1
  P  P13  1  0.78191700  0.21808300  0.00000000  1
