# generated using pymatgen
data_LuTiSi
_symmetry_space_group_name_H-M   'P 1'
_cell_length_a   3.98145300
_cell_length_b   3.98145300
_cell_length_c   7.41293500
_cell_angle_alpha   90.00000000
_cell_angle_beta   90.00000000
_cell_angle_gamma   90.00000000
_symmetry_Int_Tables_number   1
_chemical_formula_structural   LuTiSi
_chemical_formula_sum   'Lu2 Ti2 Si2'
_cell_volume   117.50960834
_cell_formula_units_Z   2
loop_
 _symmetry_equiv_pos_site_id
 _symmetry_equiv_pos_as_xyz
  1  'x, y, z'
loop_
 _atom_site_type_symbol
 _atom_site_label
 _atom_site_symmetry_multiplicity
 _atom_site_fract_x
 _atom_site_fract_y
 _atom_site_fract_z
 _atom_site_occupancy
  Lu  Lu0  1  0.00000000  0.50000000  0.34400800  1
  Lu  Lu1  1  0.50000000  0.00000000  0.65599200  1
  Ti  Ti2  1  0.00000000  0.00000000  0.00000000  1
  Ti  Ti3  1  0.50000000  0.50000000  0.00000000  1
  Si  Si4  1  0.00000000  0.50000000  0.75410700  1
  Si  Si5  1  0.50000000  0.00000000  0.24589300  1
