# generated using pymatgen
data_NaMgH3
_symmetry_space_group_name_H-M   'P 1'
_cell_length_a   5.36201600
_cell_length_b   5.44202600
_cell_length_c   7.64192300
_cell_angle_alpha   90.00000000
_cell_angle_beta   90.00000000
_cell_angle_gamma   90.00000000
_symmetry_Int_Tables_number   1
_chemical_formula_structural   NaMgH3
_chemical_formula_sum   'Na4 Mg4 H12'
_cell_volume   222.99307448
_cell_formula_units_Z   4
loop_
 _symmetry_equiv_pos_site_id
 _symmetry_equiv_pos_as_xyz
  1  'x, y, z'
loop_
 _atom_site_type_symbol
 _atom_site_label
 _atom_site_symmetry_multiplicity
 _atom_site_fract_x
 _atom_site_fract_y
 _atom_site_fract_z
 _atom_site_occupancy
  Na  Na0  1  0.50556000  0.53042200  0.25000000  1
  Na  Na1  1  0.99444000  0.03042200  0.25000000  1
  Na  Na2  1  0.49444000  0.46957800  0.75000000  1
  Na  Na3  1  0.00556000  0.96957800  0.75000000  1
  Mg  Mg4  1  0.00000000  0.50000000  0.00000000  1
  Mg  Mg5  1  0.50000000  0.00000000  0.50000000  1
  Mg  Mg6  1  0.00000000  0.50000000  0.50000000  1
  Mg  Mg7  1  0.50000000  0.00000000  0.00000000  1
  H  H8  1  0.79481100  0.79322200  0.04359600  1
  H  H9  1  0.70518900  0.29322200  0.45640400  1
  H  H10  1  0.20518900  0.20677800  0.54359600  1
  H  H11  1  0.29481100  0.70677800  0.95640400  1
  H  H12  1  0.20518900  0.20677800  0.95640400  1
  H  H13  1  0.29481100  0.70677800  0.54359600  1
  H  H14  1  0.79481100  0.79322200  0.45640400  1
  H  H15  1  0.70518900  0.29322200  0.04359600  1
  H  H16  1  0.41665600  0.97260000  0.25000000  1
  H  H17  1  0.08334400  0.47260000  0.25000000  1
  H  H18  1  0.58334400  0.02740000  0.75000000  1
  H  H19  1  0.91665600  0.52740000  0.75000000  1
