# generated using pymatgen
data_Ta2P
_symmetry_space_group_name_H-M   'P 1'
_cell_length_a   3.41690300
_cell_length_b   11.63507100
_cell_length_c   14.53000300
_cell_angle_alpha   90.00000000
_cell_angle_beta   90.00000000
_cell_angle_gamma   90.00000000
_symmetry_Int_Tables_number   1
_chemical_formula_structural   Ta2P
_chemical_formula_sum   'Ta24 P12'
_cell_volume   577.65347711
_cell_formula_units_Z   12
loop_
 _symmetry_equiv_pos_site_id
 _symmetry_equiv_pos_as_xyz
  1  'x, y, z'
loop_
 _atom_site_type_symbol
 _atom_site_label
 _atom_site_symmetry_multiplicity
 _atom_site_fract_x
 _atom_site_fract_y
 _atom_site_fract_z
 _atom_site_occupancy
  Ta  Ta0  1  0.00000000  0.47010400  0.39064600  1
  Ta  Ta1  1  0.00000000  0.52989600  0.60935400  1
  Ta  Ta2  1  0.50000000  0.97010400  0.10935400  1
  Ta  Ta3  1  0.50000000  0.02989600  0.89064600  1
  Ta  Ta4  1  0.00000000  0.80339800  0.20490300  1
  Ta  Ta5  1  0.00000000  0.19660200  0.79509700  1
  Ta  Ta6  1  0.50000000  0.30339800  0.29509700  1
  Ta  Ta7  1  0.50000000  0.69660200  0.70490300  1
  Ta  Ta8  1  0.00000000  0.87719800  0.42237700  1
  Ta  Ta9  1  0.00000000  0.12280200  0.57762300  1
  Ta  Ta10  1  0.50000000  0.37719800  0.07762300  1
  Ta  Ta11  1  0.50000000  0.62280200  0.92237700  1
  Ta  Ta12  1  0.50000000  0.91322100  0.57987200  1
  Ta  Ta13  1  0.50000000  0.08677900  0.42012800  1
  Ta  Ta14  1  0.00000000  0.41322100  0.92012800  1
  Ta  Ta15  1  0.00000000  0.58677900  0.07987200  1
  Ta  Ta16  1  0.50000000  0.42192700  0.75456600  1
  Ta  Ta17  1  0.50000000  0.57807300  0.24543400  1
  Ta  Ta18  1  0.00000000  0.92192700  0.74543400  1
  Ta  Ta19  1  0.00000000  0.07807300  0.25456600  1
  Ta  Ta20  1  0.50000000  0.34795800  0.52284000  1
  Ta  Ta21  1  0.50000000  0.65204200  0.47716000  1
  Ta  Ta22  1  0.00000000  0.84795800  0.97716000  1
  Ta  Ta23  1  0.00000000  0.15204200  0.02284000  1
  P  P24  1  0.50000000  0.81583400  0.84806900  1
  P  P25  1  0.50000000  0.18416600  0.15193100  1
  P  P26  1  0.00000000  0.31583400  0.65193100  1
  P  P27  1  0.00000000  0.68416600  0.34806900  1
  P  P28  1  0.50000000  0.25564500  0.91674300  1
  P  P29  1  0.50000000  0.74435500  0.08325700  1
  P  P30  1  0.00000000  0.75564500  0.58325700  1
  P  P31  1  0.00000000  0.24435500  0.41674300  1
  P  P32  1  0.50000000  0.07781900  0.70530100  1
  P  P33  1  0.50000000  0.92218000  0.29469900  1
  P  P34  1  0.00000000  0.57782000  0.79469900  1
  P  P35  1  0.00000000  0.42218100  0.20530100  1
