# generated using pymatgen
data_B10(Pb2O7)3
_symmetry_space_group_name_H-M   'P 1'
_cell_length_a   6.95341800
_cell_length_b   7.10452865
_cell_length_c   11.40521235
_cell_angle_alpha   82.97664548
_cell_angle_beta   77.84504678
_cell_angle_gamma   60.93091169
_symmetry_Int_Tables_number   1
_chemical_formula_structural   B10(Pb2O7)3
_chemical_formula_sum   'B10 Pb6 O21'
_cell_volume   481.28236953
_cell_formula_units_Z   1
loop_
 _symmetry_equiv_pos_site_id
 _symmetry_equiv_pos_as_xyz
  1  'x, y, z'
loop_
 _atom_site_type_symbol
 _atom_site_label
 _atom_site_symmetry_multiplicity
 _atom_site_fract_x
 _atom_site_fract_y
 _atom_site_fract_z
 _atom_site_occupancy
  B  B0  1  0.21667100  0.87095000  0.94446000  1
  B  B1  1  0.78332900  0.12905000  0.05554000  1
  B  B2  1  0.52788400  0.67180300  0.57541400  1
  B  B3  1  0.47211600  0.32819700  0.42458600  1
  B  B4  1  0.72257800  0.17658000  0.75740200  1
  B  B5  1  0.27742200  0.82342000  0.24259800  1
  B  B6  1  0.83180400  0.46463500  0.70159500  1
  B  B7  1  0.16819600  0.53536500  0.29840500  1
  B  B8  1  0.44473200  0.56831800  0.79628500  1
  B  B9  1  0.55526800  0.43168200  0.20371500  1
  Pb  Pb10  1  0.75513600  0.73840200  0.93258400  1
  Pb  Pb11  1  0.24486400  0.26159800  0.06741600  1
  Pb  Pb12  1  0.03845200  0.75780000  0.59092100  1
  Pb  Pb13  1  0.96154800  0.24220000  0.40907900  1
  Pb  Pb14  1  0.34625500  0.14471600  0.69716000  1
  Pb  Pb15  1  0.65374500  0.85528400  0.30284000  1
  O  O16  1  0.76562400  0.96585200  0.76015500  1
  O  O17  1  0.88600600  0.23268900  0.70537500  1
  O  O18  1  0.97110000  0.51955700  0.28946000  1
  O  O19  1  0.02890000  0.48044300  0.71054000  1
  O  O20  1  0.24569200  0.43023700  0.41655000  1
  O  O21  1  0.11399400  0.76731100  0.29462500  1
  O  O22  1  0.55183700  0.21978500  0.52436000  1
  O  O23  1  0.44816300  0.78021500  0.47564000  1
  O  O24  1  0.62771900  0.33436700  0.32410600  1
  O  O25  1  0.37228100  0.66563300  0.67589400  1
  O  O26  1  0.35200300  0.42357600  0.20068700  1
  O  O27  1  0.64799700  0.57642400  0.79931300  1
  O  O28  1  0.73850600  0.31578900  0.10792000  1
  O  O29  1  0.26149400  0.68421100  0.89208000  1
  O  O30  1  0.62997000  0.06018000  0.05642100  1
  O  O31  1  0.37003000  0.93982000  0.94357900  1
  O  O32  1  0.00000000  0.00000000  0.00000000  1
  O  O33  1  0.50109700  0.33252000  0.79939700  1
  O  O34  1  0.49890300  0.66748000  0.20060300  1
  O  O35  1  0.75430800  0.56976300  0.58345000  1
  O  O36  1  0.23437600  0.03414800  0.23984500  1
