# generated using pymatgen
data_GdCBr
_symmetry_space_group_name_H-M   'P 1'
_cell_length_a   4.04827035
_cell_length_b   4.04827035
_cell_length_c   10.32282904
_cell_angle_alpha   81.12322182
_cell_angle_beta   81.12322182
_cell_angle_gamma   57.09414828
_symmetry_Int_Tables_number   1
_chemical_formula_structural   GdCBr
_chemical_formula_sum   'Gd2 C2 Br2'
_cell_volume   139.82514855
_cell_formula_units_Z   2
loop_
 _symmetry_equiv_pos_site_id
 _symmetry_equiv_pos_as_xyz
  1  'x, y, z'
loop_
 _atom_site_type_symbol
 _atom_site_label
 _atom_site_symmetry_multiplicity
 _atom_site_fract_x
 _atom_site_fract_y
 _atom_site_fract_z
 _atom_site_occupancy
  Gd  Gd0  1  0.58960400  0.58960400  0.14555900  1
  Gd  Gd1  1  0.41039600  0.41039600  0.85444100  1
  C  C2  1  0.91234900  0.91234900  0.03579400  1
  C  C3  1  0.08765100  0.08765100  0.96420600  1
  Br  Br4  1  0.19993600  0.19993600  0.33190500  1
  Br  Br5  1  0.80006400  0.80006400  0.66809500  1
