# generated using pymatgen
data_TbInRh
_symmetry_space_group_name_H-M   'P 1'
_cell_length_a   7.54497473
_cell_length_b   7.54497473
_cell_length_c   3.96125900
_cell_angle_alpha   90.00000000
_cell_angle_beta   90.00000000
_cell_angle_gamma   120.00000642
_symmetry_Int_Tables_number   1
_chemical_formula_structural   TbInRh
_chemical_formula_sum   'Tb3 In3 Rh3'
_cell_volume   195.28973759
_cell_formula_units_Z   3
loop_
 _symmetry_equiv_pos_site_id
 _symmetry_equiv_pos_as_xyz
  1  'x, y, z'
loop_
 _atom_site_type_symbol
 _atom_site_label
 _atom_site_symmetry_multiplicity
 _atom_site_fract_x
 _atom_site_fract_y
 _atom_site_fract_z
 _atom_site_occupancy
  Tb  Tb0  1  0.00000000  0.59276500  0.50000000  1
  Tb  Tb1  1  0.40723500  0.40723500  0.50000000  1
  Tb  Tb2  1  0.59276500  0.00000000  0.50000000  1
  In  In3  1  0.74406900  0.74406900  0.00000000  1
  In  In4  1  0.00000000  0.25593100  0.00000000  1
  In  In5  1  0.25593100  0.00000000  0.00000000  1
  Rh  Rh6  1  0.33333300  0.66666700  0.00000000  1
  Rh  Rh7  1  0.00000000  0.00000000  0.50000000  1
  Rh  Rh8  1  0.66666700  0.33333300  0.00000000  1
