# generated using pymatgen
data_Na3AuO2
_symmetry_space_group_name_H-M   'P 1'
_cell_length_a   9.81446100
_cell_length_b   9.81446100
_cell_length_c   4.63843500
_cell_angle_alpha   90.00000000
_cell_angle_beta   90.00000000
_cell_angle_gamma   90.00000000
_symmetry_Int_Tables_number   1
_chemical_formula_structural   Na3AuO2
_chemical_formula_sum   'Na12 Au4 O8'
_cell_volume   446.79096500
_cell_formula_units_Z   4
loop_
 _symmetry_equiv_pos_site_id
 _symmetry_equiv_pos_as_xyz
  1  'x, y, z'
loop_
 _atom_site_type_symbol
 _atom_site_label
 _atom_site_symmetry_multiplicity
 _atom_site_fract_x
 _atom_site_fract_y
 _atom_site_fract_z
 _atom_site_occupancy
  Na  Na0  1  0.65892100  0.65892100  0.50000000  1
  Na  Na1  1  0.15154100  0.51189800  0.00000000  1
  Na  Na2  1  0.98810200  0.65154100  0.50000000  1
  Na  Na3  1  0.84845900  0.48810200  0.00000000  1
  Na  Na4  1  0.34845900  0.01189800  0.50000000  1
  Na  Na5  1  0.65154100  0.98810200  0.50000000  1
  Na  Na6  1  0.51189800  0.15154100  0.00000000  1
  Na  Na7  1  0.48810200  0.84845900  0.00000000  1
  Na  Na8  1  0.84107900  0.15892100  0.00000000  1
  Na  Na9  1  0.34107900  0.34107900  0.50000000  1
  Na  Na10  1  0.01189800  0.34845900  0.50000000  1
  Na  Na11  1  0.15892100  0.84107900  0.00000000  1
  Au  Au12  1  0.83358500  0.83358500  0.00000000  1
  Au  Au13  1  0.33358500  0.66641500  0.50000000  1
  Au  Au14  1  0.66641500  0.33358500  0.50000000  1
  Au  Au15  1  0.16641500  0.16641500  0.00000000  1
  O  O16  1  0.30920000  0.01612800  0.00000000  1
  O  O17  1  0.69080000  0.98387200  0.00000000  1
  O  O18  1  0.48387200  0.80920000  0.50000000  1
  O  O19  1  0.51612800  0.19080000  0.50000000  1
  O  O20  1  0.19080000  0.51612800  0.50000000  1
  O  O21  1  0.98387200  0.69080000  0.00000000  1
  O  O22  1  0.01612800  0.30920000  0.00000000  1
  O  O23  1  0.80920000  0.48387200  0.50000000  1
