# generated using pymatgen
data_CuSe2Br
_symmetry_space_group_name_H-M   'P 1'
_cell_length_a   4.99503000
_cell_length_b   7.88665300
_cell_length_c   12.61394133
_cell_angle_alpha   66.85310546
_cell_angle_beta   90.00000000
_cell_angle_gamma   90.00000000
_symmetry_Int_Tables_number   1
_chemical_formula_structural   CuSe2Br
_chemical_formula_sum   'Cu4 Se8 Br4'
_cell_volume   456.91288946
_cell_formula_units_Z   4
loop_
 _symmetry_equiv_pos_site_id
 _symmetry_equiv_pos_as_xyz
  1  'x, y, z'
loop_
 _atom_site_type_symbol
 _atom_site_label
 _atom_site_symmetry_multiplicity
 _atom_site_fract_x
 _atom_site_fract_y
 _atom_site_fract_z
 _atom_site_occupancy
  Cu  Cu0  1  0.36255000  0.18112800  0.75164400  1
  Cu  Cu1  1  0.86255000  0.81887200  0.74835600  1
  Cu  Cu2  1  0.63745000  0.81887200  0.24835600  1
  Cu  Cu3  1  0.13745000  0.18112800  0.25164400  1
  Se  Se4  1  0.96507800  0.68949100  0.16344700  1
  Se  Se5  1  0.46507800  0.31050900  0.33655300  1
  Se  Se6  1  0.03492200  0.31050900  0.83655300  1
  Se  Se7  1  0.53492200  0.68949100  0.66344700  1
  Se  Se8  1  0.19509400  0.58757300  0.83235200  1
  Se  Se9  1  0.69509400  0.41242700  0.66764800  1
  Se  Se10  1  0.80490600  0.41242700  0.16764800  1
  Se  Se11  1  0.30490600  0.58757300  0.33235200  1
  Br  Br12  1  0.38874900  0.08765000  0.11685500  1
  Br  Br13  1  0.88874900  0.91235000  0.38314500  1
  Br  Br14  1  0.61125100  0.91235000  0.88314500  1
  Br  Br15  1  0.11125100  0.08765000  0.61685500  1
