# generated using pymatgen
data_La8Nb7S22
_symmetry_space_group_name_H-M   'P 1'
_cell_length_a   16.38708177
_cell_length_b   16.38708177
_cell_length_c   5.83937700
_cell_angle_alpha   90.00000000
_cell_angle_beta   90.00000000
_cell_angle_gamma   90.74234133
_symmetry_Int_Tables_number   1
_chemical_formula_structural   La8Nb7S22
_chemical_formula_sum   'La16 Nb14 S44'
_cell_volume   1567.95395070
_cell_formula_units_Z   2
loop_
 _symmetry_equiv_pos_site_id
 _symmetry_equiv_pos_as_xyz
  1  'x, y, z'
loop_
 _atom_site_type_symbol
 _atom_site_label
 _atom_site_symmetry_multiplicity
 _atom_site_fract_x
 _atom_site_fract_y
 _atom_site_fract_z
 _atom_site_occupancy
  La  La0  1  0.86019800  0.98681600  0.92047600  1
  La  La1  1  0.13980200  0.01318400  0.92047600  1
  La  La2  1  0.01318400  0.13980200  0.42047600  1
  La  La3  1  0.98681600  0.86019800  0.42047600  1
  La  La4  1  0.73443200  0.10986900  0.43938200  1
  La  La5  1  0.26556800  0.89013100  0.43938200  1
  La  La6  1  0.89013100  0.26556800  0.93938200  1
  La  La7  1  0.10986900  0.73443200  0.93938200  1
  La  La8  1  0.60953000  0.23618300  0.91079000  1
  La  La9  1  0.39047000  0.76381700  0.91079000  1
  La  La10  1  0.76381700  0.39047000  0.41079000  1
  La  La11  1  0.23618300  0.60953000  0.41079000  1
  La  La12  1  0.48386800  0.36141200  0.43150000  1
  La  La13  1  0.51613200  0.63858800  0.43150000  1
  La  La14  1  0.63858800  0.51613200  0.93150000  1
  La  La15  1  0.36141200  0.48386800  0.93150000  1
  Nb  Nb16  1  0.50000000  0.00000000  0.99909400  1
  Nb  Nb17  1  0.00000000  0.50000000  0.49909400  1
  Nb  Nb18  1  0.42834000  0.07010100  0.50214800  1
  Nb  Nb19  1  0.57166000  0.92989900  0.50214800  1
  Nb  Nb20  1  0.92989900  0.57166000  0.00214800  1
  Nb  Nb21  1  0.07010100  0.42834000  0.00214800  1
  Nb  Nb22  1  0.35551900  0.14302000  0.99953900  1
  Nb  Nb23  1  0.64448100  0.85698000  0.99953900  1
  Nb  Nb24  1  0.85698000  0.64448100  0.49953900  1
  Nb  Nb25  1  0.14302000  0.35551900  0.49953900  1
  Nb  Nb26  1  0.28718200  0.21337500  0.50077200  1
  Nb  Nb27  1  0.71281800  0.78662500  0.50077200  1
  Nb  Nb28  1  0.78662500  0.71281800  0.00077200  1
  Nb  Nb29  1  0.21337500  0.28718200  0.00077200  1
  S  S30  1  0.56902200  0.07131900  0.66803400  1
  S  S31  1  0.43097800  0.92868100  0.66803400  1
  S  S32  1  0.92868100  0.43097800  0.16803400  1
  S  S33  1  0.07131900  0.56902200  0.16803400  1
  S  S34  1  0.36021000  0.00363200  0.16810900  1
  S  S35  1  0.63979000  0.99636800  0.16810900  1
  S  S36  1  0.99636800  0.63979000  0.66810900  1
  S  S37  1  0.00363200  0.36021000  0.66810900  1
  S  S38  1  0.49432000  0.13931600  0.17147700  1
  S  S39  1  0.50568000  0.86068400  0.17147700  1
  S  S40  1  0.86068400  0.50568000  0.67147700  1
  S  S41  1  0.13931600  0.49432000  0.67147700  1
  S  S42  1  0.28762600  0.07213600  0.66671400  1
  S  S43  1  0.71237400  0.92786400  0.66671400  1
  S  S44  1  0.92786400  0.71237400  0.16671400  1
  S  S45  1  0.07213600  0.28762600  0.16671400  1
  S  S46  1  0.42861200  0.20974900  0.66971400  1
  S  S47  1  0.57138800  0.79025100  0.66971400  1
  S  S48  1  0.79025100  0.57138800  0.16971400  1
  S  S49  1  0.20974900  0.42861200  0.16971400  1
  S  S50  1  0.21498600  0.14830900  0.17071600  1
  S  S51  1  0.78501400  0.85169100  0.17071600  1
  S  S52  1  0.85169100  0.78501400  0.67071600  1
  S  S53  1  0.14830900  0.21498600  0.67071600  1
  S  S54  1  0.35323000  0.28368100  0.16705800  1
  S  S55  1  0.64677000  0.71631900  0.16705800  1
  S  S56  1  0.71631900  0.64677000  0.66705800  1
  S  S57  1  0.28368100  0.35323000  0.66705800  1
  S  S58  1  0.88776500  0.01292100  0.42177600  1
  S  S59  1  0.11223500  0.98707900  0.42177600  1
  S  S60  1  0.38807300  0.51303800  0.42608200  1
  S  S61  1  0.61192700  0.48696200  0.42608200  1
  S  S62  1  0.48696200  0.61192700  0.92608200  1
  S  S63  1  0.51303800  0.38807300  0.92608200  1
  S  S64  1  0.26350400  0.63727200  0.91700000  1
  S  S65  1  0.73649600  0.36272800  0.91700000  1
  S  S66  1  0.36272800  0.73649600  0.41700000  1
  S  S67  1  0.63727200  0.26350400  0.41700000  1
  S  S68  1  0.13886500  0.76250000  0.42976800  1
  S  S69  1  0.86113500  0.23750000  0.42976800  1
  S  S70  1  0.23750000  0.86113500  0.92976800  1
  S  S71  1  0.76250000  0.13886500  0.92976800  1
  S  S72  1  0.01292100  0.88776500  0.92177600  1
  S  S73  1  0.98707900  0.11223500  0.92177600  1
