# generated using pymatgen
data_BaB8O13
_symmetry_space_group_name_H-M   'P 1'
_cell_length_a   8.75519500
_cell_length_b   8.75519500
_cell_length_c   13.33318000
_cell_angle_alpha   90.00000000
_cell_angle_beta   90.00000000
_cell_angle_gamma   90.00000000
_symmetry_Int_Tables_number   1
_chemical_formula_structural   BaB8O13
_chemical_formula_sum   'Ba4 B32 O52'
_cell_volume   1022.03410631
_cell_formula_units_Z   4
loop_
 _symmetry_equiv_pos_site_id
 _symmetry_equiv_pos_as_xyz
  1  'x, y, z'
loop_
 _atom_site_type_symbol
 _atom_site_label
 _atom_site_symmetry_multiplicity
 _atom_site_fract_x
 _atom_site_fract_y
 _atom_site_fract_z
 _atom_site_occupancy
  Ba  Ba0  1  0.00000000  0.53927700  0.50000000  1
  Ba  Ba1  1  0.46072300  0.00000000  0.75000000  1
  Ba  Ba2  1  0.53927700  0.00000000  0.25000000  1
  Ba  Ba3  1  0.00000000  0.46072300  0.00000000  1
  B  B4  1  0.78138800  0.07024900  0.99804600  1
  B  B5  1  0.21861200  0.92975100  0.49804600  1
  B  B6  1  0.07024900  0.78138800  0.75195400  1
  B  B7  1  0.07024900  0.21861200  0.74804600  1
  B  B8  1  0.92975100  0.78138800  0.24804600  1
  B  B9  1  0.21861200  0.07024900  0.00195400  1
  B  B10  1  0.78138800  0.92975100  0.50195400  1
  B  B11  1  0.92975100  0.21861200  0.25195400  1
  B  B12  1  0.73752600  0.80696900  0.03321500  1
  B  B13  1  0.26247400  0.19303100  0.53321500  1
  B  B14  1  0.80696900  0.73752600  0.71678500  1
  B  B15  1  0.80696900  0.26247400  0.78321500  1
  B  B16  1  0.19303100  0.73752600  0.28321500  1
  B  B17  1  0.26247400  0.80696900  0.96678500  1
  B  B18  1  0.73752600  0.19303100  0.46678500  1
  B  B19  1  0.19303100  0.26247400  0.21678500  1
  B  B20  1  0.63285500  0.55714400  0.11008100  1
  B  B21  1  0.36714500  0.44285600  0.61008100  1
  B  B22  1  0.55714400  0.63285500  0.63991900  1
  B  B23  1  0.55714400  0.36714500  0.86008100  1
  B  B24  1  0.44285600  0.63285500  0.36008100  1
  B  B25  1  0.36714500  0.55714400  0.88991900  1
  B  B26  1  0.63285500  0.44285600  0.38991900  1
  B  B27  1  0.44285600  0.36714500  0.13991900  1
  B  B28  1  0.87036300  0.87036300  0.87500000  1
  B  B29  1  0.12963700  0.87036300  0.12500000  1
  B  B30  1  0.87036300  0.12963700  0.62500000  1
  B  B31  1  0.12963700  0.12963700  0.37500000  1
  B  B32  1  0.28205800  0.71794200  0.62500000  1
  B  B33  1  0.28205800  0.28205800  0.87500000  1
  B  B34  1  0.71794200  0.71794200  0.37500000  1
  B  B35  1  0.71794200  0.28205800  0.12500000  1
  O  O36  1  0.70034500  0.95963800  0.05249700  1
  O  O37  1  0.29965500  0.04036200  0.55249700  1
  O  O38  1  0.95963800  0.70034500  0.69750300  1
  O  O39  1  0.95963800  0.29965500  0.80249700  1
  O  O40  1  0.04036200  0.70034500  0.30249700  1
  O  O41  1  0.29965500  0.95963800  0.94750300  1
  O  O42  1  0.70034500  0.04036200  0.44750300  1
  O  O43  1  0.04036200  0.29965500  0.19750300  1
  O  O44  1  0.84927700  0.02924400  0.90987800  1
  O  O45  1  0.15072300  0.97075600  0.40987800  1
  O  O46  1  0.02924400  0.84927700  0.84012200  1
  O  O47  1  0.02924400  0.15072300  0.65987800  1
  O  O48  1  0.97075600  0.84927700  0.15987800  1
  O  O49  1  0.15072300  0.02924400  0.09012200  1
  O  O50  1  0.84927700  0.97075600  0.59012200  1
  O  O51  1  0.97075600  0.15072300  0.34012200  1
  O  O52  1  0.83333200  0.76094800  0.95861900  1
  O  O53  1  0.16666800  0.23905200  0.45861900  1
  O  O54  1  0.76094800  0.83333200  0.79138100  1
  O  O55  1  0.76094800  0.16666800  0.70861900  1
  O  O56  1  0.23905200  0.83333200  0.20861900  1
  O  O57  1  0.16666800  0.76094800  0.04138100  1
  O  O58  1  0.83333200  0.23905200  0.54138100  1
  O  O59  1  0.23905200  0.16666800  0.29138100  1
  O  O60  1  0.74689900  0.45076400  0.11714800  1
  O  O61  1  0.25310100  0.54923600  0.61714800  1
  O  O62  1  0.45076400  0.74689900  0.63285200  1
  O  O63  1  0.45076400  0.25310100  0.86714800  1
  O  O64  1  0.54923600  0.74689900  0.36714800  1
  O  O65  1  0.25310100  0.45076400  0.88285200  1
  O  O66  1  0.74689900  0.54923600  0.38285200  1
  O  O67  1  0.54923600  0.25310100  0.13285200  1
  O  O68  1  0.78633500  0.21729800  0.03348900  1
  O  O69  1  0.21366500  0.78270200  0.53348900  1
  O  O70  1  0.21729800  0.78633500  0.71651100  1
  O  O71  1  0.21729800  0.21366500  0.78348900  1
  O  O72  1  0.78270200  0.78633500  0.28348900  1
  O  O73  1  0.21366500  0.21729800  0.96651100  1
  O  O74  1  0.78633500  0.78270200  0.46651100  1
  O  O75  1  0.78270200  0.21366500  0.21651100  1
  O  O76  1  0.65680400  0.70832100  0.09274600  1
  O  O77  1  0.34319600  0.29167900  0.59274600  1
  O  O78  1  0.70832100  0.65680400  0.65725400  1
  O  O79  1  0.70832100  0.34319600  0.84274600  1
  O  O80  1  0.29167900  0.65680400  0.34274600  1
  O  O81  1  0.34319600  0.70832100  0.90725400  1
  O  O82  1  0.65680400  0.29167900  0.40725400  1
  O  O83  1  0.29167900  0.34319600  0.15725400  1
  O  O84  1  0.51818600  0.48181400  0.62500000  1
  O  O85  1  0.51818600  0.51818600  0.87500000  1
  O  O86  1  0.48181400  0.48181400  0.37500000  1
  O  O87  1  0.48181400  0.51818600  0.12500000  1
