# generated using pymatgen
data_Cd3(ClO)2
_symmetry_space_group_name_H-M   'P 1'
_cell_length_a   6.83139600
_cell_length_b   6.54679300
_cell_length_c   6.76852371
_cell_angle_alpha   63.87090414
_cell_angle_beta   90.00000000
_cell_angle_gamma   90.00000000
_symmetry_Int_Tables_number   1
_chemical_formula_structural   Cd3(ClO)2
_chemical_formula_sum   'Cd6 Cl4 O4'
_cell_volume   271.77755376
_cell_formula_units_Z   2
loop_
 _symmetry_equiv_pos_site_id
 _symmetry_equiv_pos_as_xyz
  1  'x, y, z'
loop_
 _atom_site_type_symbol
 _atom_site_label
 _atom_site_symmetry_multiplicity
 _atom_site_fract_x
 _atom_site_fract_y
 _atom_site_fract_z
 _atom_site_occupancy
  Cd  Cd0  1  0.87316600  0.41171800  0.22967100  1
  Cd  Cd1  1  0.37316600  0.58828200  0.27032900  1
  Cd  Cd2  1  0.12683400  0.58828200  0.77032900  1
  Cd  Cd3  1  0.62683400  0.41171800  0.72967100  1
  Cd  Cd4  1  0.50000000  0.00000000  0.50000000  1
  Cd  Cd5  1  0.00000000  0.00000000  0.00000000  1
  Cl  Cl6  1  0.63506500  0.80861200  0.93524200  1
  Cl  Cl7  1  0.13506500  0.19138800  0.56475800  1
  Cl  Cl8  1  0.86493500  0.80861200  0.43524200  1
  Cl  Cl9  1  0.36493500  0.19138800  0.06475800  1
  O  O10  1  0.61250500  0.33143000  0.43662000  1
  O  O11  1  0.11250500  0.66857000  0.06338000  1
  O  O12  1  0.38749500  0.66857000  0.56338000  1
  O  O13  1  0.88749500  0.33143000  0.93662000  1
