# generated using pymatgen
data_Cs2PbO3
_symmetry_space_group_name_H-M   'P 1'
_cell_length_a   7.02035996
_cell_length_b   7.02035996
_cell_length_c   6.21160200
_cell_angle_alpha   90.00000000
_cell_angle_beta   90.00000000
_cell_angle_gamma   111.50227445
_symmetry_Int_Tables_number   1
_chemical_formula_structural   Cs2PbO3
_chemical_formula_sum   'Cs4 Pb2 O6'
_cell_volume   284.83509146
_cell_formula_units_Z   2
loop_
 _symmetry_equiv_pos_site_id
 _symmetry_equiv_pos_as_xyz
  1  'x, y, z'
loop_
 _atom_site_type_symbol
 _atom_site_label
 _atom_site_symmetry_multiplicity
 _atom_site_fract_x
 _atom_site_fract_y
 _atom_site_fract_z
 _atom_site_occupancy
  Cs  Cs0  1  0.80785300  0.48264800  0.25404800  1
  Cs  Cs1  1  0.51735200  0.19214700  0.75404900  1
  Cs  Cs2  1  0.19214700  0.51735200  0.75404900  1
  Cs  Cs3  1  0.48264800  0.80785300  0.25404900  1
  Pb  Pb4  1  0.91216000  0.91216000  0.73480300  1
  Pb  Pb5  1  0.08784000  0.08784000  0.23480300  1
  O  O6  1  0.65185600  0.65185600  0.69037900  1
  O  O7  1  0.34814400  0.34814400  0.19037900  1
  O  O8  1  0.10906800  0.86135700  0.99186100  1
  O  O9  1  0.89093200  0.13864300  0.49186100  1
  O  O10  1  0.86135700  0.10906800  0.99186100  1
  O  O11  1  0.13864300  0.89093200  0.49186100  1
