# generated using pymatgen
data_Er(PO3)3
_symmetry_space_group_name_H-M   'P 1'
_cell_length_a   9.77455600
_cell_length_b   7.07072900
_cell_length_c   11.08716194
_cell_angle_alpha   87.89623395
_cell_angle_beta   90.00000000
_cell_angle_gamma   90.00000000
_symmetry_Int_Tables_number   1
_chemical_formula_structural   Er(PO3)3
_chemical_formula_sum   'Er4 P12 O36'
_cell_volume   765.75316699
_cell_formula_units_Z   4
loop_
 _symmetry_equiv_pos_site_id
 _symmetry_equiv_pos_as_xyz
  1  'x, y, z'
loop_
 _atom_site_type_symbol
 _atom_site_label
 _atom_site_symmetry_multiplicity
 _atom_site_fract_x
 _atom_site_fract_y
 _atom_site_fract_z
 _atom_site_occupancy
  Er  Er0  1  0.75000000  0.82350100  0.46186800  1
  Er  Er1  1  0.75000000  0.68809400  0.98020200  1
  Er  Er2  1  0.25000000  0.31190600  0.01979800  1
  Er  Er3  1  0.25000000  0.17649900  0.53813200  1
  P  P4  1  0.75000000  0.31271500  0.37524300  1
  P  P5  1  0.46503400  0.32648300  0.28439900  1
  P  P6  1  0.03496600  0.32648300  0.28439900  1
  P  P7  1  0.51100000  0.73202200  0.23077300  1
  P  P8  1  0.98900000  0.73202200  0.23077300  1
  P  P9  1  0.25000000  0.82049700  0.10047800  1
  P  P10  1  0.48900000  0.26797800  0.76922700  1
  P  P11  1  0.01100000  0.26797800  0.76922700  1
  P  P12  1  0.75000000  0.17950300  0.89952200  1
  P  P13  1  0.53496600  0.67351700  0.71560100  1
  P  P14  1  0.96503400  0.67351700  0.71560100  1
  P  P15  1  0.25000000  0.68728500  0.62475700  1
  O  O16  1  0.75000000  0.50619600  0.42674100  1
  O  O17  1  0.75000000  0.14173200  0.46002000  1
  O  O18  1  0.62739700  0.29532100  0.27873400  1
  O  O19  1  0.87260300  0.29532100  0.27873400  1
  O  O20  1  0.40621400  0.22983600  0.39533100  1
  O  O21  1  0.09378600  0.22983600  0.39533100  1
  O  O22  1  0.40926700  0.28000700  0.16334200  1
  O  O23  1  0.09073300  0.28000700  0.16334200  1
  O  O24  1  0.44863600  0.55030700  0.30403400  1
  O  O25  1  0.05136400  0.55030700  0.30403400  1
  O  O26  1  0.58622500  0.84715000  0.32029000  1
  O  O27  1  0.91377500  0.84715000  0.32029000  1
  O  O28  1  0.58704000  0.67161400  0.12082000  1
  O  O29  1  0.91296000  0.67161400  0.12082000  1
  O  O30  1  0.37561600  0.84654500  0.19327200  1
  O  O31  1  0.12438400  0.84654500  0.19327200  1
  O  O32  1  0.25000000  0.49380400  0.57325900  1
  O  O33  1  0.25000000  0.85826800  0.53998000  1
  O  O34  1  0.90621400  0.77016400  0.60466900  1
  O  O35  1  0.59378600  0.77016400  0.60466900  1
  O  O36  1  0.94863600  0.44969300  0.69596600  1
  O  O37  1  0.55136400  0.44969300  0.69596600  1
  O  O38  1  0.90926700  0.71999300  0.83665800  1
  O  O39  1  0.59073300  0.71999300  0.83665800  1
  O  O40  1  0.12739700  0.70467900  0.72126600  1
  O  O41  1  0.37260300  0.70467900  0.72126600  1
  O  O42  1  0.08622500  0.15285000  0.67971000  1
  O  O43  1  0.41377500  0.15285000  0.67971000  1
  O  O44  1  0.87561600  0.15345500  0.80672800  1
  O  O45  1  0.62438400  0.15345500  0.80672800  1
  O  O46  1  0.08704000  0.32838600  0.87918000  1
  O  O47  1  0.41296000  0.32838600  0.87918000  1
  O  O48  1  0.75000000  0.00824500  0.98168100  1
  O  O49  1  0.75000000  0.37349200  0.94499000  1
  O  O50  1  0.25000000  0.99175500  0.01831900  1
  O  O51  1  0.25000000  0.62650800  0.05501000  1
