# generated using pymatgen
data_Li3TiF6
_symmetry_space_group_name_H-M   'P 1'
_cell_length_a   8.57734181
_cell_length_b   8.57734181
_cell_length_c   10.28997109
_cell_angle_alpha   84.46300213
_cell_angle_beta   84.46300213
_cell_angle_gamma   62.50878959
_symmetry_Int_Tables_number   1
_chemical_formula_structural   Li3TiF6
_chemical_formula_sum   'Li18 Ti6 F36'
_cell_volume   667.26614732
_cell_formula_units_Z   6
loop_
 _symmetry_equiv_pos_site_id
 _symmetry_equiv_pos_as_xyz
  1  'x, y, z'
loop_
 _atom_site_type_symbol
 _atom_site_label
 _atom_site_symmetry_multiplicity
 _atom_site_fract_x
 _atom_site_fract_y
 _atom_site_fract_z
 _atom_site_occupancy
  Li  Li0  1  0.70587200  0.01346800  0.78043700  1
  Li  Li1  1  0.98653200  0.29412800  0.71956300  1
  Li  Li2  1  0.29412800  0.98653200  0.21956300  1
  Li  Li3  1  0.01346800  0.70587200  0.28043700  1
  Li  Li4  1  0.05844600  0.34504300  0.07131600  1
  Li  Li5  1  0.65495700  0.94155400  0.42868400  1
  Li  Li6  1  0.32892800  0.63322600  0.02638800  1
  Li  Li7  1  0.36677400  0.67107200  0.47361200  1
  Li  Li8  1  0.67107200  0.36677400  0.97361200  1
  Li  Li9  1  0.63322600  0.32892800  0.52638800  1
  Li  Li10  1  0.86940300  0.46980100  0.45186000  1
  Li  Li11  1  0.53019900  0.13059700  0.04814000  1
  Li  Li12  1  0.13059700  0.53019900  0.54814000  1
  Li  Li13  1  0.46980100  0.86940300  0.95186000  1
  Li  Li14  1  0.19735400  0.80264600  0.75000000  1
  Li  Li15  1  0.80264600  0.19735400  0.25000000  1
  Li  Li16  1  0.94155400  0.65495700  0.92868400  1
  Li  Li17  1  0.34504300  0.05844600  0.57131600  1
  Ti  Ti18  1  0.66442300  0.65868800  0.20786200  1
  Ti  Ti19  1  0.34131200  0.33557700  0.29213800  1
  Ti  Ti20  1  0.33557700  0.34131200  0.79213800  1
  Ti  Ti21  1  0.65868800  0.66442300  0.70786200  1
  Ti  Ti22  1  0.00000000  0.00000000  0.50000000  1
  Ti  Ti23  1  0.00000000  0.00000000  0.00000000  1
  F  F24  1  0.24250500  0.55800400  0.18922000  1
  F  F25  1  0.90427500  0.24755400  0.56083000  1
  F  F26  1  0.24755400  0.90427500  0.06083000  1
  F  F27  1  0.09572500  0.75244600  0.43917000  1
  F  F28  1  0.58851300  0.56939400  0.56487900  1
  F  F29  1  0.43060600  0.41148700  0.93512100  1
  F  F30  1  0.41148700  0.43060600  0.43512100  1
  F  F31  1  0.56939400  0.58851300  0.06487900  1
  F  F32  1  0.75244600  0.09572500  0.93917000  1
  F  F33  1  0.07381700  0.07077800  0.33264000  1
  F  F34  1  0.07077800  0.07381700  0.83264000  1
  F  F35  1  0.92618300  0.92922200  0.66736000  1
  F  F36  1  0.44199600  0.75749500  0.31078000  1
  F  F37  1  0.22290400  0.27078500  0.65617400  1
  F  F38  1  0.27078500  0.22290400  0.15617400  1
  F  F39  1  0.77709600  0.72921500  0.34382600  1
  F  F40  1  0.90340900  0.24296600  0.07077700  1
  F  F41  1  0.75703400  0.09659100  0.42922300  1
  F  F42  1  0.09659100  0.75703400  0.92922300  1
  F  F43  1  0.24296600  0.90340900  0.57077700  1
  F  F44  1  0.58562700  0.89254100  0.60694900  1
  F  F45  1  0.10745800  0.41437300  0.89305100  1
  F  F46  1  0.41437300  0.10745900  0.39305100  1
  F  F47  1  0.89254100  0.58562700  0.10694900  1
  F  F48  1  0.75749500  0.44199600  0.81078000  1
  F  F49  1  0.55800400  0.24250500  0.68922000  1
  F  F50  1  0.10223300  0.43574800  0.38698700  1
  F  F51  1  0.72921500  0.77709600  0.84382600  1
  F  F52  1  0.89776700  0.56425200  0.61301300  1
  F  F53  1  0.43574800  0.10223300  0.88698700  1
  F  F54  1  0.24541500  0.57303800  0.68803600  1
  F  F55  1  0.42696200  0.75458500  0.81196400  1
  F  F56  1  0.75458500  0.42696200  0.31196400  1
  F  F57  1  0.57303800  0.24541500  0.18803600  1
  F  F58  1  0.92922200  0.92618300  0.16736000  1
  F  F59  1  0.56425200  0.89776700  0.11301300  1
