# generated using pymatgen
data_Na2H2Pd
_symmetry_space_group_name_H-M   'P 1'
_cell_length_a   6.25529470
_cell_length_b   6.25529470
_cell_length_c   6.25529470
_cell_angle_alpha   146.65260645
_cell_angle_beta   146.65260645
_cell_angle_gamma   47.87843190
_symmetry_Int_Tables_number   1
_chemical_formula_structural   Na2H2Pd
_chemical_formula_sum   'Na2 H2 Pd1'
_cell_volume   73.66518904
_cell_formula_units_Z   1
loop_
 _symmetry_equiv_pos_site_id
 _symmetry_equiv_pos_as_xyz
  1  'x, y, z'
loop_
 _atom_site_type_symbol
 _atom_site_label
 _atom_site_symmetry_multiplicity
 _atom_site_fract_x
 _atom_site_fract_y
 _atom_site_fract_z
 _atom_site_occupancy
  Na  Na0  1  0.63983600  0.63983600  0.00000000  1
  Na  Na1  1  0.36016400  0.36016400  0.00000000  1
  H  H2  1  0.85130800  0.85130800  0.00000000  1
  H  H3  1  0.14869200  0.14869200  0.00000000  1
  Pd  Pd4  1  0.00000000  0.00000000  0.00000000  1
