# generated using pymatgen
data_Tl2Au4S3
_symmetry_space_group_name_H-M   'P 1'
_cell_length_a   4.88507700
_cell_length_b   7.67382100
_cell_length_c   12.48051900
_cell_angle_alpha   90.00000000
_cell_angle_beta   90.00000000
_cell_angle_gamma   90.00000000
_symmetry_Int_Tables_number   1
_chemical_formula_structural   Tl2Au4S3
_chemical_formula_sum   'Tl4 Au8 S6'
_cell_volume   467.85979260
_cell_formula_units_Z   2
loop_
 _symmetry_equiv_pos_site_id
 _symmetry_equiv_pos_as_xyz
  1  'x, y, z'
loop_
 _atom_site_type_symbol
 _atom_site_label
 _atom_site_symmetry_multiplicity
 _atom_site_fract_x
 _atom_site_fract_y
 _atom_site_fract_z
 _atom_site_occupancy
  Tl  Tl0  1  0.74666400  0.77274800  0.50000000  1
  Tl  Tl1  1  0.74666400  0.22725200  0.50000000  1
  Tl  Tl2  1  0.25333600  0.72725200  0.00000000  1
  Tl  Tl3  1  0.25333600  0.27274800  0.00000000  1
  Au  Au4  1  0.00000000  0.25000000  0.75000000  1
  Au  Au5  1  0.00000000  0.75000000  0.75000000  1
  Au  Au6  1  0.00000000  0.75000000  0.25000000  1
  Au  Au7  1  0.55157800  0.00000000  0.15607300  1
  Au  Au8  1  0.44842200  0.50000000  0.34392700  1
  Au  Au9  1  0.55157800  0.00000000  0.84392700  1
  Au  Au10  1  0.00000000  0.25000000  0.25000000  1
  Au  Au11  1  0.44842200  0.50000000  0.65607300  1
  S  S12  1  0.18151600  0.50000000  0.50000000  1
  S  S13  1  0.75164500  0.50000000  0.19745200  1
  S  S14  1  0.75164500  0.50000000  0.80254800  1
  S  S15  1  0.24835500  0.00000000  0.69745200  1
  S  S16  1  0.81848400  0.00000000  0.00000000  1
  S  S17  1  0.24835500  0.00000000  0.30254800  1
