# generated using pymatgen
data_EuCuSb
_symmetry_space_group_name_H-M   'P 1'
_cell_length_a   4.52805195
_cell_length_b   4.52805195
_cell_length_c   8.61371800
_cell_angle_alpha   90.00000000
_cell_angle_beta   90.00000000
_cell_angle_gamma   119.99999922
_symmetry_Int_Tables_number   1
_chemical_formula_structural   EuCuSb
_chemical_formula_sum   'Eu2 Cu2 Sb2'
_cell_volume   152.94809976
_cell_formula_units_Z   2
loop_
 _symmetry_equiv_pos_site_id
 _symmetry_equiv_pos_as_xyz
  1  'x, y, z'
loop_
 _atom_site_type_symbol
 _atom_site_label
 _atom_site_symmetry_multiplicity
 _atom_site_fract_x
 _atom_site_fract_y
 _atom_site_fract_z
 _atom_site_occupancy
  Eu  Eu0  1  0.00000000  0.00000000  0.00000000  1
  Eu  Eu1  1  0.00000000  0.00000000  0.50000000  1
  Cu  Cu2  1  0.33333300  0.66666700  0.75000000  1
  Cu  Cu3  1  0.66666700  0.33333300  0.25000000  1
  Sb  Sb4  1  0.66666700  0.33333300  0.75000000  1
  Sb  Sb5  1  0.33333300  0.66666700  0.25000000  1
