# generated using pymatgen
data_CsMoF7
_symmetry_space_group_name_H-M   'P 1'
_cell_length_a   10.81704500
_cell_length_b   10.81704500
_cell_length_c   10.81704500
_cell_angle_alpha   90.00000000
_cell_angle_beta   90.00000000
_cell_angle_gamma   90.00000000
_symmetry_Int_Tables_number   1
_chemical_formula_structural   CsMoF7
_chemical_formula_sum   'Cs8 Mo8 F56'
_cell_volume   1265.68580459
_cell_formula_units_Z   8
loop_
 _symmetry_equiv_pos_site_id
 _symmetry_equiv_pos_as_xyz
  1  'x, y, z'
loop_
 _atom_site_type_symbol
 _atom_site_label
 _atom_site_symmetry_multiplicity
 _atom_site_fract_x
 _atom_site_fract_y
 _atom_site_fract_z
 _atom_site_occupancy
  Cs  Cs0  1  0.00000000  0.50000000  0.00000000  1
  Cs  Cs1  1  0.00000000  0.00000000  0.50000000  1
  Cs  Cs2  1  0.50000000  0.50000000  0.50000000  1
  Cs  Cs3  1  0.50000000  0.00000000  0.00000000  1
  Cs  Cs4  1  0.00000000  0.00000000  0.00000000  1
  Cs  Cs5  1  0.00000000  0.50000000  0.50000000  1
  Cs  Cs6  1  0.50000000  0.00000000  0.50000000  1
  Cs  Cs7  1  0.50000000  0.50000000  0.00000000  1
  Mo  Mo8  1  0.77623600  0.22376400  0.72376400  1
  Mo  Mo9  1  0.22376400  0.72376400  0.77623600  1
  Mo  Mo10  1  0.72376400  0.77623600  0.22376400  1
  Mo  Mo11  1  0.27623600  0.27623600  0.27623600  1
  Mo  Mo12  1  0.22376400  0.77623600  0.27623600  1
  Mo  Mo13  1  0.77623600  0.27623600  0.22376400  1
  Mo  Mo14  1  0.27623600  0.22376400  0.77623600  1
  Mo  Mo15  1  0.72376400  0.72376400  0.72376400  1
  F  F16  1  0.88381700  0.35629700  0.77122400  1
  F  F17  1  0.11618300  0.85629700  0.72877600  1
  F  F18  1  0.61618300  0.64370300  0.27122400  1
  F  F19  1  0.38381700  0.14370300  0.22877600  1
  F  F20  1  0.77122400  0.88381700  0.35629700  1
  F  F21  1  0.72877600  0.11618300  0.85629700  1
  F  F22  1  0.27122400  0.61618300  0.64370300  1
  F  F23  1  0.22877600  0.38381700  0.14370300  1
  F  F24  1  0.35629700  0.77122400  0.88381700  1
  F  F25  1  0.85629700  0.72877600  0.11618300  1
  F  F26  1  0.64370300  0.27122400  0.61618300  1
  F  F27  1  0.14370300  0.22877600  0.38381700  1
  F  F28  1  0.11618300  0.64370300  0.22877600  1
  F  F29  1  0.88381700  0.14370300  0.27122400  1
  F  F30  1  0.38381700  0.35629700  0.72877600  1
  F  F31  1  0.61618300  0.85629700  0.77122400  1
  F  F32  1  0.22877600  0.11618300  0.64370300  1
  F  F33  1  0.27122400  0.88381700  0.14370300  1
  F  F34  1  0.72877600  0.38381700  0.35629700  1
  F  F35  1  0.77122400  0.61618300  0.85629700  1
  F  F36  1  0.64370300  0.22877600  0.11618300  1
  F  F37  1  0.14370300  0.27122400  0.88381700  1
  F  F38  1  0.35629700  0.72877600  0.38381700  1
  F  F39  1  0.85629700  0.77122400  0.61618300  1
  F  F40  1  0.92987100  0.13558000  0.75687900  1
  F  F41  1  0.07012900  0.63558000  0.74312100  1
  F  F42  1  0.57012900  0.86442000  0.25687900  1
  F  F43  1  0.42987100  0.36442000  0.24312100  1
  F  F44  1  0.75687900  0.92987100  0.13558000  1
  F  F45  1  0.74312100  0.07012900  0.63558000  1
  F  F46  1  0.25687900  0.57012900  0.86442000  1
  F  F47  1  0.24312100  0.42987100  0.36442000  1
  F  F48  1  0.13558000  0.75687900  0.92987100  1
  F  F49  1  0.63558000  0.74312100  0.07012900  1
  F  F50  1  0.86442000  0.25687900  0.57012900  1
  F  F51  1  0.36442000  0.24312100  0.42987100  1
  F  F52  1  0.07012900  0.86442000  0.24312100  1
  F  F53  1  0.92987100  0.36442000  0.25687900  1
  F  F54  1  0.42987100  0.13558000  0.74312100  1
  F  F55  1  0.57012900  0.63558000  0.75687900  1
  F  F56  1  0.24312100  0.07012900  0.86442000  1
  F  F57  1  0.25687900  0.92987100  0.36442000  1
  F  F58  1  0.74312100  0.42987100  0.13558000  1
  F  F59  1  0.75687900  0.57012900  0.63558000  1
  F  F60  1  0.86442000  0.24312100  0.07012900  1
  F  F61  1  0.36442000  0.25687900  0.92987100  1
  F  F62  1  0.13558000  0.74312100  0.42987100  1
  F  F63  1  0.63558000  0.75687900  0.57012900  1
  F  F64  1  0.67409700  0.32590300  0.82590300  1
  F  F65  1  0.32590300  0.82590300  0.67409700  1
  F  F66  1  0.82590300  0.67409700  0.32590300  1
  F  F67  1  0.17409700  0.17409700  0.17409700  1
  F  F68  1  0.32590300  0.67409700  0.17409700  1
  F  F69  1  0.67409700  0.17409700  0.32590300  1
  F  F70  1  0.17409700  0.32590300  0.67409700  1
  F  F71  1  0.82590300  0.82590300  0.82590300  1
