# generated using pymatgen
data_Na2PbO2
_symmetry_space_group_name_H-M   'P 1'
_cell_length_a   6.05667100
_cell_length_b   7.02271900
_cell_length_c   17.17160900
_cell_angle_alpha   90.00000000
_cell_angle_beta   90.00000000
_cell_angle_gamma   90.00000000
_symmetry_Int_Tables_number   1
_chemical_formula_structural   Na2PbO2
_chemical_formula_sum   'Na16 Pb8 O16'
_cell_volume   730.38234308
_cell_formula_units_Z   8
loop_
 _symmetry_equiv_pos_site_id
 _symmetry_equiv_pos_as_xyz
  1  'x, y, z'
loop_
 _atom_site_type_symbol
 _atom_site_label
 _atom_site_symmetry_multiplicity
 _atom_site_fract_x
 _atom_site_fract_y
 _atom_site_fract_z
 _atom_site_occupancy
  Na  Na0  1  0.91589700  0.62497400  0.36643400  1
  Na  Na1  1  0.41589700  0.87502600  0.13356600  1
  Na  Na2  1  0.58410300  0.62497400  0.63356600  1
  Na  Na3  1  0.08410300  0.87502600  0.86643400  1
  Na  Na4  1  0.08410300  0.37502600  0.63356600  1
  Na  Na5  1  0.58410300  0.12497400  0.86643400  1
  Na  Na6  1  0.41589700  0.37502600  0.36643400  1
  Na  Na7  1  0.91589700  0.12497400  0.13356600  1
  Na  Na8  1  0.25000000  0.12268000  0.50000000  1
  Na  Na9  1  0.75000000  0.37732000  0.00000000  1
  Na  Na10  1  0.75000000  0.35756300  0.50000000  1
  Na  Na11  1  0.25000000  0.14243700  0.00000000  1
  Na  Na12  1  0.25000000  0.64243700  0.50000000  1
  Na  Na13  1  0.75000000  0.85756300  0.00000000  1
  Na  Na14  1  0.75000000  0.87732000  0.50000000  1
  Na  Na15  1  0.25000000  0.62268000  0.00000000  1
  Pb  Pb16  1  0.93328600  0.13351100  0.33785700  1
  Pb  Pb17  1  0.43328600  0.36648900  0.16214300  1
  Pb  Pb18  1  0.56671400  0.13351100  0.66214300  1
  Pb  Pb19  1  0.06671400  0.36648900  0.83785700  1
  Pb  Pb20  1  0.06671400  0.86648900  0.66214300  1
  Pb  Pb21  1  0.56671400  0.63351100  0.83785700  1
  Pb  Pb22  1  0.43328600  0.86648900  0.33785700  1
  Pb  Pb23  1  0.93328600  0.63351100  0.16214300  1
  O  O24  1  0.56297900  0.14901100  0.08647500  1
  O  O25  1  0.06297900  0.35098900  0.41352500  1
  O  O26  1  0.93702100  0.14901100  0.91352500  1
  O  O27  1  0.43702100  0.35098900  0.58647500  1
  O  O28  1  0.43702100  0.85098900  0.91352500  1
  O  O29  1  0.93702100  0.64901100  0.58647500  1
  O  O30  1  0.06297900  0.85098900  0.08647500  1
  O  O31  1  0.56297900  0.64901100  0.41352500  1
  O  O32  1  0.88928100  0.10396300  0.59691600  1
  O  O33  1  0.38928100  0.39603700  0.90308400  1
  O  O34  1  0.38928100  0.89603700  0.59691600  1
  O  O35  1  0.88928100  0.60396300  0.90308400  1
  O  O36  1  0.11071900  0.89603700  0.40308400  1
  O  O37  1  0.61071900  0.60396300  0.09691600  1
  O  O38  1  0.61071900  0.10396300  0.40308400  1
  O  O39  1  0.11071900  0.39603700  0.09691600  1
