# generated using pymatgen
data_NaP(HO2)2
_symmetry_space_group_name_H-M   'P 1'
_cell_length_a   13.50379600
_cell_length_b   6.90121900
_cell_length_c   7.54728941
_cell_angle_alpha   86.30094337
_cell_angle_beta   90.00000000
_cell_angle_gamma   90.00000000
_symmetry_Int_Tables_number   1
_chemical_formula_structural   NaP(HO2)2
_chemical_formula_sum   'Na8 P8 H16 O32'
_cell_volume   701.88662076
_cell_formula_units_Z   8
loop_
 _symmetry_equiv_pos_site_id
 _symmetry_equiv_pos_as_xyz
  1  'x, y, z'
loop_
 _atom_site_type_symbol
 _atom_site_label
 _atom_site_symmetry_multiplicity
 _atom_site_fract_x
 _atom_site_fract_y
 _atom_site_fract_z
 _atom_site_occupancy
  Na  Na0  1  0.59998800  0.86313000  0.99619700  1
  Na  Na1  1  0.09998800  0.13687000  0.50380300  1
  Na  Na2  1  0.40001200  0.13687000  0.00380300  1
  Na  Na3  1  0.90001200  0.86313000  0.49619700  1
  Na  Na4  1  0.59996100  0.36757100  0.73940600  1
  Na  Na5  1  0.09996100  0.63242900  0.76059400  1
  Na  Na6  1  0.40003900  0.63242900  0.26059400  1
  Na  Na7  1  0.90003900  0.36757100  0.23940600  1
  P  P8  1  0.63252300  0.33234800  0.14006300  1
  P  P9  1  0.13252300  0.66765200  0.35993700  1
  P  P10  1  0.36747700  0.66765200  0.85993700  1
  P  P11  1  0.86747700  0.33234800  0.64006300  1
  P  P12  1  0.62694200  0.82478400  0.48064100  1
  P  P13  1  0.12694200  0.17521600  0.01935900  1
  P  P14  1  0.37305800  0.17521600  0.51935900  1
  P  P15  1  0.87305800  0.82478400  0.98064100  1
  H  H16  1  0.96804500  0.00400300  0.15193700  1
  H  H17  1  0.46804500  0.99599700  0.34806300  1
  H  H18  1  0.03195500  0.99599700  0.84806300  1
  H  H19  1  0.53195500  0.00400300  0.65193700  1
  H  H20  1  0.77775100  0.05754000  0.84169300  1
  H  H21  1  0.27775100  0.94246000  0.65830700  1
  H  H22  1  0.22224900  0.94246000  0.15830700  1
  H  H23  1  0.72224900  0.05754000  0.34169300  1
  H  H24  1  0.90316900  0.48884800  0.87396400  1
  H  H25  1  0.40316900  0.51115200  0.62603600  1
  H  H26  1  0.09683100  0.51115200  0.12603600  1
  H  H27  1  0.59683100  0.48884800  0.37396400  1
  H  H28  1  0.76206700  0.55319700  0.51847100  1
  H  H29  1  0.26206700  0.44680300  0.98152900  1
  H  H30  1  0.23793300  0.44680300  0.48152900  1
  H  H31  1  0.73793300  0.55319700  0.01847100  1
  O  O32  1  0.83681500  0.52325700  0.51731900  1
  O  O33  1  0.22513300  0.75248500  0.27017200  1
  O  O34  1  0.27486700  0.75248500  0.77017200  1
  O  O35  1  0.77486700  0.24751500  0.72982800  1
  O  O36  1  0.66318500  0.52325700  0.01731900  1
  O  O37  1  0.16318500  0.47674300  0.48268100  1
  O  O38  1  0.33681500  0.47674300  0.98268100  1
  O  O39  1  0.72513300  0.24751500  0.22982800  1
  O  O40  1  0.57177000  0.20502400  0.02522800  1
  O  O41  1  0.07177000  0.79497600  0.47477200  1
  O  O42  1  0.42823000  0.79497600  0.97477200  1
  O  O43  1  0.92823000  0.20502400  0.52522800  1
  O  O44  1  0.55901500  0.41342200  0.28466600  1
  O  O45  1  0.05901500  0.58657800  0.21533400  1
  O  O46  1  0.44098500  0.58657800  0.71533400  1
  O  O47  1  0.94098500  0.41342200  0.78466600  1
  O  O48  1  0.84751300  0.60922700  0.02182500  1
  O  O49  1  0.22720200  0.07559400  0.08455300  1
  O  O50  1  0.27279800  0.07559400  0.58455300  1
  O  O51  1  0.77279800  0.92440600  0.91544700  1
  O  O52  1  0.54664800  0.85389200  0.33849100  1
  O  O53  1  0.04664800  0.14610800  0.16150900  1
  O  O54  1  0.45335200  0.14610800  0.66150900  1
  O  O55  1  0.95335200  0.85389200  0.83849100  1
  O  O56  1  0.59551900  0.91634900  0.65844000  1
  O  O57  1  0.09551900  0.08365100  0.84156000  1
  O  O58  1  0.40448100  0.08365100  0.34156000  1
  O  O59  1  0.90448100  0.91634900  0.15844000  1
  O  O60  1  0.65248700  0.60922700  0.52182500  1
  O  O61  1  0.15248700  0.39077300  0.97817500  1
  O  O62  1  0.34751300  0.39077300  0.47817500  1
  O  O63  1  0.72720200  0.92440600  0.41544700  1
