# generated using pymatgen
data_HgH2SeO5
_symmetry_space_group_name_H-M   'P 1'
_cell_length_a   7.79172900
_cell_length_b   8.07932200
_cell_length_c   8.61446848
_cell_angle_alpha   58.51679644
_cell_angle_beta   90.00000000
_cell_angle_gamma   90.00000000
_symmetry_Int_Tables_number   1
_chemical_formula_structural   HgH2SeO5
_chemical_formula_sum   'Hg4 H8 Se4 O20'
_cell_volume   462.46729141
_cell_formula_units_Z   4
loop_
 _symmetry_equiv_pos_site_id
 _symmetry_equiv_pos_as_xyz
  1  'x, y, z'
loop_
 _atom_site_type_symbol
 _atom_site_label
 _atom_site_symmetry_multiplicity
 _atom_site_fract_x
 _atom_site_fract_y
 _atom_site_fract_z
 _atom_site_occupancy
  Hg  Hg0  1  0.73218100  0.20757200  0.24282800  1
  Hg  Hg1  1  0.23218100  0.79242800  0.25717200  1
  Hg  Hg2  1  0.26781900  0.79242800  0.75717200  1
  Hg  Hg3  1  0.76781900  0.20757200  0.74282800  1
  H  H4  1  0.56534000  0.41613800  0.87825200  1
  H  H5  1  0.06534000  0.58386200  0.62174800  1
  H  H6  1  0.43466000  0.58386200  0.12174800  1
  H  H7  1  0.93466000  0.41613800  0.37825200  1
  H  H8  1  0.47821800  0.20764500  0.98043400  1
  H  H9  1  0.97821800  0.79235500  0.51956600  1
  H  H10  1  0.52178200  0.79235500  0.01956600  1
  H  H11  1  0.02178200  0.20764500  0.48043400  1
  Se  Se12  1  0.11410800  0.26411800  0.98424400  1
  Se  Se13  1  0.61410800  0.73588200  0.51575600  1
  Se  Se14  1  0.88589200  0.73588200  0.01575600  1
  Se  Se15  1  0.38589200  0.26411800  0.48424400  1
  O  O16  1  0.51600300  0.11780600  0.65924200  1
  O  O17  1  0.01600300  0.88219400  0.84075800  1
  O  O18  1  0.48399700  0.88219400  0.34075800  1
  O  O19  1  0.98399700  0.11780600  0.15924200  1
  O  O20  1  0.49238900  0.35048000  0.28427700  1
  O  O21  1  0.99238900  0.64952000  0.21572300  1
  O  O22  1  0.50761100  0.64952000  0.71572300  1
  O  O23  1  0.00761100  0.35048000  0.78427700  1
  O  O24  1  0.30500200  0.44940500  0.49194400  1
  O  O25  1  0.80500200  0.55059500  0.00805600  1
  O  O26  1  0.69499800  0.55059500  0.50805600  1
  O  O27  1  0.19499800  0.44940500  0.99194400  1
  O  O28  1  0.22595300  0.11411100  0.49915700  1
  O  O29  1  0.72595300  0.88588900  0.00084300  1
  O  O30  1  0.77404700  0.88588900  0.50084300  1
  O  O31  1  0.27404700  0.11411100  0.99915700  1
  O  O32  1  0.90771200  0.27435600  0.45669000  1
  O  O33  1  0.40771200  0.72564400  0.04331000  1
  O  O34  1  0.09228800  0.72564400  0.54331000  1
  O  O35  1  0.59228800  0.27435600  0.95669000  1
