# generated using pymatgen
data_BaGdCuSe3
_symmetry_space_group_name_H-M   'P 1'
_cell_length_a   7.37170499
_cell_length_b   7.37170499
_cell_length_c   10.77255200
_cell_angle_alpha   90.00000000
_cell_angle_beta   90.00000000
_cell_angle_gamma   146.77137506
_symmetry_Int_Tables_number   1
_chemical_formula_structural   BaGdCuSe3
_chemical_formula_sum   'Ba2 Gd2 Cu2 Se6'
_cell_volume   320.78950623
_cell_formula_units_Z   2
loop_
 _symmetry_equiv_pos_site_id
 _symmetry_equiv_pos_as_xyz
  1  'x, y, z'
loop_
 _atom_site_type_symbol
 _atom_site_label
 _atom_site_symmetry_multiplicity
 _atom_site_fract_x
 _atom_site_fract_y
 _atom_site_fract_z
 _atom_site_occupancy
  Ba  Ba0  1  0.25118900  0.74881100  0.75000000  1
  Ba  Ba1  1  0.74881100  0.25118900  0.25000000  1
  Gd  Gd2  1  0.00000000  0.00000000  0.00000000  1
  Gd  Gd3  1  0.00000000  0.00000000  0.50000000  1
  Cu  Cu4  1  0.52746000  0.47254000  0.75000000  1
  Cu  Cu5  1  0.47254000  0.52746000  0.25000000  1
  Se  Se6  1  0.63297100  0.36702900  0.56590500  1
  Se  Se7  1  0.36702900  0.63297100  0.43409500  1
  Se  Se8  1  0.07156700  0.92843300  0.25000000  1
  Se  Se9  1  0.92843300  0.07156700  0.75000000  1
  Se  Se10  1  0.63297100  0.36702900  0.93409500  1
  Se  Se11  1  0.36702900  0.63297100  0.06590500  1
