# generated using pymatgen
data_Cs2Ni3S4
_symmetry_space_group_name_H-M   'P 1'
_cell_length_a   5.89162842
_cell_length_b   5.89162842
_cell_length_c   15.23618400
_cell_angle_alpha   90.00000000
_cell_angle_beta   90.00000000
_cell_angle_gamma   120.00000469
_symmetry_Int_Tables_number   1
_chemical_formula_structural   Cs2Ni3S4
_chemical_formula_sum   'Cs4 Ni6 S8'
_cell_volume   458.01269580
_cell_formula_units_Z   2
loop_
 _symmetry_equiv_pos_site_id
 _symmetry_equiv_pos_as_xyz
  1  'x, y, z'
loop_
 _atom_site_type_symbol
 _atom_site_label
 _atom_site_symmetry_multiplicity
 _atom_site_fract_x
 _atom_site_fract_y
 _atom_site_fract_z
 _atom_site_occupancy
  Cs  Cs0  1  0.33333300  0.66666700  0.90919300  1
  Cs  Cs1  1  0.66666700  0.33333300  0.40919300  1
  Cs  Cs2  1  0.66666700  0.33333300  0.09080700  1
  Cs  Cs3  1  0.33333300  0.66666700  0.59080700  1
  Ni  Ni4  1  0.16648600  0.83351400  0.25000000  1
  Ni  Ni5  1  0.83351400  0.66702800  0.75000000  1
  Ni  Ni6  1  0.83351400  0.16648600  0.75000000  1
  Ni  Ni7  1  0.16648600  0.33297200  0.25000000  1
  Ni  Ni8  1  0.33297200  0.16648600  0.75000000  1
  Ni  Ni9  1  0.66702800  0.83351400  0.25000000  1
  S  S10  1  0.33333300  0.66666700  0.34346300  1
  S  S11  1  0.66666700  0.33333300  0.84346300  1
  S  S12  1  0.66666700  0.33333300  0.65653700  1
  S  S13  1  0.33333300  0.66666700  0.15653700  1
  S  S14  1  0.00000000  0.00000000  0.65711100  1
  S  S15  1  0.00000000  0.00000000  0.15711100  1
  S  S16  1  0.00000000  0.00000000  0.84288900  1
  S  S17  1  0.00000000  0.00000000  0.34288900  1
