# generated using pymatgen
data_Eu(In4Rh)2
_symmetry_space_group_name_H-M   'P 1'
_cell_length_a   4.42265800
_cell_length_b   14.07511900
_cell_length_c   16.39822600
_cell_angle_alpha   90.00000000
_cell_angle_beta   90.00000000
_cell_angle_gamma   90.00000000
_symmetry_Int_Tables_number   1
_chemical_formula_structural   Eu(In4Rh)2
_chemical_formula_sum   'Eu4 In32 Rh8'
_cell_volume   1020.78034690
_cell_formula_units_Z   4
loop_
 _symmetry_equiv_pos_site_id
 _symmetry_equiv_pos_as_xyz
  1  'x, y, z'
loop_
 _atom_site_type_symbol
 _atom_site_label
 _atom_site_symmetry_multiplicity
 _atom_site_fract_x
 _atom_site_fract_y
 _atom_site_fract_z
 _atom_site_occupancy
  Eu  Eu0  1  0.50000000  0.65663200  0.81937600  1
  Eu  Eu1  1  0.50000000  0.34336800  0.18062400  1
  Eu  Eu2  1  0.50000000  0.15663200  0.68062400  1
  Eu  Eu3  1  0.50000000  0.84336800  0.31937600  1
  In  In4  1  0.00000000  0.51923100  0.13332300  1
  In  In5  1  0.00000000  0.98076900  0.63332300  1
  In  In6  1  0.00000000  0.01923100  0.36667700  1
  In  In7  1  0.00000000  0.48076900  0.86667700  1
  In  In8  1  0.00000000  0.83269600  0.87676800  1
  In  In9  1  0.00000000  0.16730400  0.12323200  1
  In  In10  1  0.00000000  0.33269600  0.62323200  1
  In  In11  1  0.00000000  0.66730400  0.37676800  1
  In  In12  1  0.00000000  0.55076100  0.68406600  1
  In  In13  1  0.00000000  0.44923900  0.31593400  1
  In  In14  1  0.00000000  0.05076100  0.81593400  1
  In  In15  1  0.00000000  0.94923900  0.18406600  1
  In  In16  1  0.00000000  0.00000000  0.00000000  1
  In  In17  1  0.00000000  0.50000000  0.50000000  1
  In  In18  1  0.00000000  0.76000400  0.67790600  1
  In  In19  1  0.00000000  0.23999600  0.32209400  1
  In  In20  1  0.00000000  0.26000400  0.82209400  1
  In  In21  1  0.00000000  0.73999600  0.17790600  1
  In  In22  1  0.50000000  0.84020800  0.04402900  1
  In  In23  1  0.50000000  0.15979200  0.95597100  1
  In  In24  1  0.50000000  0.34020800  0.45597100  1
  In  In25  1  0.50000000  0.65979200  0.54402900  1
  In  In26  1  0.00000000  0.66986900  0.98814200  1
  In  In27  1  0.00000000  0.33013100  0.01185800  1
  In  In28  1  0.00000000  0.16986900  0.51185800  1
  In  In29  1  0.00000000  0.83013100  0.48814200  1
  In  In30  1  0.50000000  0.60083400  0.25323100  1
  In  In31  1  0.50000000  0.39916600  0.74676900  1
  In  In32  1  0.50000000  0.10083400  0.24676900  1
  In  In33  1  0.50000000  0.89916600  0.75323100  1
  In  In34  1  0.50000000  0.50000000  0.00000000  1
  In  In35  1  0.50000000  0.00000000  0.50000000  1
  Rh  Rh36  1  0.50000000  0.65432800  0.09611600  1
  Rh  Rh37  1  0.50000000  0.96551100  0.90449300  1
  Rh  Rh38  1  0.50000000  0.03448900  0.09550700  1
  Rh  Rh39  1  0.50000000  0.46551100  0.59550700  1
  Rh  Rh40  1  0.50000000  0.53448900  0.40449300  1
  Rh  Rh41  1  0.50000000  0.34567200  0.90388400  1
  Rh  Rh42  1  0.50000000  0.15432800  0.40388400  1
  Rh  Rh43  1  0.50000000  0.84567200  0.59611600  1
