# generated using pymatgen
data_KTlF4
_symmetry_space_group_name_H-M   'P 1'
_cell_length_a   8.21665392
_cell_length_b   8.21665392
_cell_length_c   10.38701800
_cell_angle_alpha   90.00000000
_cell_angle_beta   90.00000000
_cell_angle_gamma   119.99999932
_symmetry_Int_Tables_number   1
_chemical_formula_structural   KTlF4
_chemical_formula_sum   'K6 Tl6 F24'
_cell_volume   607.31150525
_cell_formula_units_Z   6
loop_
 _symmetry_equiv_pos_site_id
 _symmetry_equiv_pos_as_xyz
  1  'x, y, z'
loop_
 _atom_site_type_symbol
 _atom_site_label
 _atom_site_symmetry_multiplicity
 _atom_site_fract_x
 _atom_site_fract_y
 _atom_site_fract_z
 _atom_site_occupancy
  K  K0  1  0.48398000  0.31537700  0.01780000  1
  K  K1  1  0.68462300  0.16860300  0.35113300  1
  K  K2  1  0.83139700  0.51602000  0.68446600  1
  K  K3  1  0.31027600  0.48032500  0.70627900  1
  K  K4  1  0.51967500  0.82995100  0.03961200  1
  K  K5  1  0.17004900  0.68972400  0.37294500  1
  Tl  Tl6  1  0.99351000  0.35604000  0.02960400  1
  Tl  Tl7  1  0.64396000  0.63746900  0.36293700  1
  Tl  Tl8  1  0.36253100  0.00649000  0.69627100  1
  Tl  Tl9  1  0.17894300  0.17752900  0.36027000  1
  Tl  Tl10  1  0.82247100  0.00141400  0.69360400  1
  Tl  Tl11  1  0.99858600  0.82105700  0.02693700  1
  F  F12  1  0.11388100  0.05167700  0.70019300  1
  F  F13  1  0.93779600  0.88611900  0.36686000  1
  F  F14  1  0.94832300  0.06220400  0.03352700  1
  F  F15  1  0.81241200  0.79657000  0.84820600  1
  F  F16  1  0.98415800  0.18758800  0.51487300  1
  F  F17  1  0.20343000  0.01584200  0.18154000  1
  F  F18  1  0.70873300  0.19998800  0.09482000  1
  F  F19  1  0.49125600  0.29126700  0.76148700  1
  F  F20  1  0.80001200  0.50874400  0.42815300  1
  F  F21  1  0.19373400  0.72237900  0.63362100  1
  F  F22  1  0.52864400  0.80626600  0.30028800  1
  F  F23  1  0.27762100  0.47135600  0.96695400  1
  F  F24  1  0.05770900  0.32102400  0.24712000  1
  F  F25  1  0.67897600  0.73668500  0.58045300  1
  F  F26  1  0.26331500  0.94229100  0.91378700  1
  F  F27  1  0.47023200  0.35024300  0.26801400  1
  F  F28  1  0.64975700  0.11998900  0.60134800  1
  F  F29  1  0.88001100  0.52976800  0.93468100  1
  F  F30  1  0.32834800  0.06238200  0.47379800  1
  F  F31  1  0.93761800  0.26596600  0.80713200  1
  F  F32  1  0.73403400  0.67165200  0.14046500  1
  F  F33  1  0.34846200  0.46856400  0.45594100  1
  F  F34  1  0.53143600  0.87989700  0.78927500  1
  F  F35  1  0.12010300  0.65153800  0.12260800  1
