# generated using pymatgen
data_ErNiB4
_symmetry_space_group_name_H-M   'P 1'
_cell_length_a   6.79174492
_cell_length_b   6.79174492
_cell_length_c   6.79174492
_cell_angle_alpha   112.98662975
_cell_angle_beta   112.98662975
_cell_angle_gamma   102.64838908
_symmetry_Int_Tables_number   1
_chemical_formula_structural   ErNiB4
_chemical_formula_sum   'Er4 Ni4 B16'
_cell_volume   238.64688629
_cell_formula_units_Z   4
loop_
 _symmetry_equiv_pos_site_id
 _symmetry_equiv_pos_as_xyz
  1  'x, y, z'
loop_
 _atom_site_type_symbol
 _atom_site_label
 _atom_site_symmetry_multiplicity
 _atom_site_fract_x
 _atom_site_fract_y
 _atom_site_fract_z
 _atom_site_occupancy
  Er  Er0  1  0.25000000  0.75000000  0.50000000  1
  Er  Er1  1  0.75000000  0.25000000  0.50000000  1
  Er  Er2  1  0.79662200  0.79662200  0.00000000  1
  Er  Er3  1  0.20337800  0.20337800  0.00000000  1
  Ni  Ni4  1  0.50000000  0.72844100  0.22844100  1
  Ni  Ni5  1  0.72844100  0.50000000  0.22844100  1
  Ni  Ni6  1  0.27155900  0.50000000  0.77155900  1
  Ni  Ni7  1  0.50000000  0.27155900  0.77155900  1
  B  B8  1  0.11370800  0.11370800  0.53361500  1
  B  B9  1  0.58009300  0.58009300  0.46638500  1
  B  B10  1  0.88629200  0.88629200  0.46638500  1
  B  B11  1  0.58009300  0.11370800  0.00000000  1
  B  B12  1  0.11370800  0.58009300  0.00000000  1
  B  B13  1  0.88629200  0.41990700  0.00000000  1
  B  B14  1  0.41990700  0.88629200  0.00000000  1
  B  B15  1  0.41990700  0.41990700  0.53361500  1
  B  B16  1  0.11149000  0.27563300  0.38712300  1
  B  B17  1  0.27563300  0.88851000  0.16414300  1
  B  B18  1  0.72436700  0.11149000  0.83585700  1
  B  B19  1  0.11149000  0.72436700  0.83585700  1
  B  B20  1  0.88851000  0.27563300  0.16414300  1
  B  B21  1  0.88851000  0.72436700  0.61287700  1
  B  B22  1  0.72436700  0.88851000  0.61287700  1
  B  B23  1  0.27563300  0.11149000  0.38712300  1
