# generated using pymatgen
data_HoAlNi
_symmetry_space_group_name_H-M   'P 1'
_cell_length_a   6.90920744
_cell_length_b   6.90920744
_cell_length_c   3.90123600
_cell_angle_alpha   90.00000000
_cell_angle_beta   90.00000000
_cell_angle_gamma   119.99999463
_symmetry_Int_Tables_number   1
_chemical_formula_structural   HoAlNi
_chemical_formula_sum   'Ho3 Al3 Ni3'
_cell_volume   161.28327821
_cell_formula_units_Z   3
loop_
 _symmetry_equiv_pos_site_id
 _symmetry_equiv_pos_as_xyz
  1  'x, y, z'
loop_
 _atom_site_type_symbol
 _atom_site_label
 _atom_site_symmetry_multiplicity
 _atom_site_fract_x
 _atom_site_fract_y
 _atom_site_fract_z
 _atom_site_occupancy
  Ho  Ho0  1  0.00000000  0.58317300  0.50000000  1
  Ho  Ho1  1  0.58317300  0.00000000  0.50000000  1
  Ho  Ho2  1  0.41682700  0.41682700  0.50000000  1
  Al  Al3  1  0.23545600  0.00000000  0.00000000  1
  Al  Al4  1  0.76454400  0.76454400  0.00000000  1
  Al  Al5  1  0.00000000  0.23545600  0.00000000  1
  Ni  Ni6  1  0.33333300  0.66666700  0.00000000  1
  Ni  Ni7  1  0.66666700  0.33333300  0.00000000  1
  Ni  Ni8  1  0.00000000  0.00000000  0.50000000  1
