# generated using pymatgen
data_Cs3InO3
_symmetry_space_group_name_H-M   'P 1'
_cell_length_a   7.45801400
_cell_length_b   8.30634900
_cell_length_c   11.99646967
_cell_angle_alpha   84.38507648
_cell_angle_beta   90.00000000
_cell_angle_gamma   90.00000000
_symmetry_Int_Tables_number   1
_chemical_formula_structural   Cs3InO3
_chemical_formula_sum   'Cs12 In4 O12'
_cell_volume   739.60194928
_cell_formula_units_Z   4
loop_
 _symmetry_equiv_pos_site_id
 _symmetry_equiv_pos_as_xyz
  1  'x, y, z'
loop_
 _atom_site_type_symbol
 _atom_site_label
 _atom_site_symmetry_multiplicity
 _atom_site_fract_x
 _atom_site_fract_y
 _atom_site_fract_z
 _atom_site_occupancy
  Cs  Cs0  1  0.83238400  0.65266800  0.42704500  1
  Cs  Cs1  1  0.82099200  0.37500000  0.19396200  1
  Cs  Cs2  1  0.32099200  0.62500000  0.30603800  1
  Cs  Cs3  1  0.67900800  0.37500000  0.69396200  1
  Cs  Cs4  1  0.62223500  0.95191000  0.15615700  1
  Cs  Cs5  1  0.16761600  0.34733200  0.57295500  1
  Cs  Cs6  1  0.87776500  0.95191000  0.65615700  1
  Cs  Cs7  1  0.17900800  0.62500000  0.80603800  1
  Cs  Cs8  1  0.66761600  0.65266800  0.92704500  1
  Cs  Cs9  1  0.37776500  0.04809000  0.84384300  1
  Cs  Cs10  1  0.12223500  0.04809000  0.34384300  1
  Cs  Cs11  1  0.33238400  0.34733200  0.07295500  1
  In  In12  1  0.41655200  0.84362700  0.56670600  1
  In  In13  1  0.08344800  0.84362700  0.06670600  1
  In  In14  1  0.58344800  0.15637300  0.43329400  1
  In  In15  1  0.91655200  0.15637300  0.93329400  1
  O  O16  1  0.94271800  0.70772600  0.19151700  1
  O  O17  1  0.16168400  0.75447700  0.53931100  1
  O  O18  1  0.44642000  0.09920300  0.59136500  1
  O  O19  1  0.33831600  0.75447700  0.03931100  1
  O  O20  1  0.55728200  0.70772600  0.69151700  1
  O  O21  1  0.55358000  0.90079700  0.40863500  1
  O  O22  1  0.05728200  0.29227400  0.80848300  1
  O  O23  1  0.44271800  0.29227400  0.30848300  1
  O  O24  1  0.83831600  0.24552300  0.46068900  1
  O  O25  1  0.66168400  0.24552300  0.96068900  1
  O  O26  1  0.05358000  0.09920300  0.09136500  1
  O  O27  1  0.94642000  0.90079700  0.90863500  1
