# generated using pymatgen
data_Ce3Te4
_symmetry_space_group_name_H-M   'P 1'
_cell_length_a   8.26339616
_cell_length_b   8.26339616
_cell_length_c   8.26339616
_cell_angle_alpha   109.47122063
_cell_angle_beta   109.47122063
_cell_angle_gamma   109.47122063
_symmetry_Int_Tables_number   1
_chemical_formula_structural   Ce3Te4
_chemical_formula_sum   'Ce6 Te8'
_cell_volume   434.36400814
_cell_formula_units_Z   2
loop_
 _symmetry_equiv_pos_site_id
 _symmetry_equiv_pos_as_xyz
  1  'x, y, z'
loop_
 _atom_site_type_symbol
 _atom_site_label
 _atom_site_symmetry_multiplicity
 _atom_site_fract_x
 _atom_site_fract_y
 _atom_site_fract_z
 _atom_site_occupancy
  Ce  Ce0  1  0.87500000  0.12500000  0.75000000  1
  Ce  Ce1  1  0.37500000  0.25000000  0.62500000  1
  Ce  Ce2  1  0.12500000  0.75000000  0.87500000  1
  Ce  Ce3  1  0.75000000  0.87500000  0.12500000  1
  Ce  Ce4  1  0.25000000  0.62500000  0.37500000  1
  Ce  Ce5  1  0.62500000  0.37500000  0.25000000  1
  Te  Te6  1  0.65290400  0.65290400  0.65290400  1
  Te  Te7  1  0.50000000  0.00000000  0.34709600  1
  Te  Te8  1  0.00000000  0.34709600  0.50000000  1
  Te  Te9  1  0.34709600  0.50000000  0.00000000  1
  Te  Te10  1  0.00000000  0.84709600  0.50000000  1
  Te  Te11  1  0.84709600  0.50000000  0.00000000  1
  Te  Te12  1  0.15290400  0.15290400  0.15290400  1
  Te  Te13  1  0.50000000  0.00000000  0.84709600  1
