# generated using pymatgen
data_Sn2OF2
_symmetry_space_group_name_H-M   'P 1'
_cell_length_a   6.22903426
_cell_length_b   6.22903426
_cell_length_c   5.22798905
_cell_angle_alpha   84.55252319
_cell_angle_beta   84.55252319
_cell_angle_gamma   81.99217162
_symmetry_Int_Tables_number   1
_chemical_formula_structural   Sn2OF2
_chemical_formula_sum   'Sn4 O2 F4'
_cell_volume   199.27722064
_cell_formula_units_Z   2
loop_
 _symmetry_equiv_pos_site_id
 _symmetry_equiv_pos_as_xyz
  1  'x, y, z'
loop_
 _atom_site_type_symbol
 _atom_site_label
 _atom_site_symmetry_multiplicity
 _atom_site_fract_x
 _atom_site_fract_y
 _atom_site_fract_z
 _atom_site_occupancy
  Sn  Sn0  1  0.29727200  0.70272800  0.50000000  1
  Sn  Sn1  1  0.70272800  0.29727200  0.50000000  1
  Sn  Sn2  1  0.21878100  0.21878100  0.98782600  1
  Sn  Sn3  1  0.78121900  0.78121900  0.01217400  1
  O  O4  1  0.39204000  0.39204000  0.69445600  1
  O  O5  1  0.60796000  0.60796000  0.30554400  1
  F  F6  1  0.85766900  0.49132400  0.79889300  1
  F  F7  1  0.14233100  0.50867600  0.20110700  1
  F  F8  1  0.49132400  0.85766900  0.79889300  1
  F  F9  1  0.50867600  0.14233100  0.20110700  1
