# generated using pymatgen
data_US2
_symmetry_space_group_name_H-M   'P 1'
_cell_length_a   7.24970191
_cell_length_b   7.24970191
_cell_length_c   3.93395500
_cell_angle_alpha   90.00000000
_cell_angle_beta   90.00000000
_cell_angle_gamma   119.99999919
_symmetry_Int_Tables_number   1
_chemical_formula_structural   US2
_chemical_formula_sum   'U3 S6'
_cell_volume   179.06071851
_cell_formula_units_Z   3
loop_
 _symmetry_equiv_pos_site_id
 _symmetry_equiv_pos_as_xyz
  1  'x, y, z'
loop_
 _atom_site_type_symbol
 _atom_site_label
 _atom_site_symmetry_multiplicity
 _atom_site_fract_x
 _atom_site_fract_y
 _atom_site_fract_z
 _atom_site_occupancy
  U  U0  1  0.66666700  0.33333300  0.50000000  1
  U  U1  1  0.33333300  0.66666700  0.50000000  1
  U  U2  1  0.00000000  0.00000000  0.00000000  1
  S  S3  1  0.00000000  0.59194000  0.00000000  1
  S  S4  1  0.40806000  0.40806000  0.00000000  1
  S  S5  1  0.59194000  0.00000000  0.00000000  1
  S  S6  1  0.25785900  0.00000000  0.50000000  1
  S  S7  1  0.74214100  0.74214100  0.50000000  1
  S  S8  1  0.00000000  0.25785900  0.50000000  1
