# generated using pymatgen
data_CsBiO2
_symmetry_space_group_name_H-M   'P 1'
_cell_length_a   6.42141372
_cell_length_b   6.42141372
_cell_length_c   6.09595929
_cell_angle_alpha   68.77118438
_cell_angle_beta   68.77118438
_cell_angle_gamma   97.35696954
_symmetry_Int_Tables_number   1
_chemical_formula_structural   CsBiO2
_chemical_formula_sum   'Cs2 Bi2 O4'
_cell_volume   208.46589695
_cell_formula_units_Z   2
loop_
 _symmetry_equiv_pos_site_id
 _symmetry_equiv_pos_as_xyz
  1  'x, y, z'
loop_
 _atom_site_type_symbol
 _atom_site_label
 _atom_site_symmetry_multiplicity
 _atom_site_fract_x
 _atom_site_fract_y
 _atom_site_fract_z
 _atom_site_occupancy
  Cs  Cs0  1  0.35896300  0.64103700  0.75000000  1
  Cs  Cs1  1  0.64103700  0.35896300  0.25000000  1
  Bi  Bi2  1  0.08221100  0.91778900  0.25000000  1
  Bi  Bi3  1  0.91778900  0.08221100  0.75000000  1
  O  O4  1  0.76762200  0.87785100  0.20948300  1
  O  O5  1  0.12214900  0.23237800  0.29051700  1
  O  O6  1  0.87785100  0.76762200  0.70948300  1
  O  O7  1  0.23237800  0.12214900  0.79051700  1
