# generated using pymatgen
data_Li3VF6
_symmetry_space_group_name_H-M   'P 1'
_cell_length_a   8.54750277
_cell_length_b   8.54750277
_cell_length_c   10.27292026
_cell_angle_alpha   84.85735393
_cell_angle_beta   84.85735393
_cell_angle_gamma   62.21739462
_symmetry_Int_Tables_number   1
_chemical_formula_structural   Li3VF6
_chemical_formula_sum   'Li18 V6 F36'
_cell_volume   660.36852384
_cell_formula_units_Z   6
loop_
 _symmetry_equiv_pos_site_id
 _symmetry_equiv_pos_as_xyz
  1  'x, y, z'
loop_
 _atom_site_type_symbol
 _atom_site_label
 _atom_site_symmetry_multiplicity
 _atom_site_fract_x
 _atom_site_fract_y
 _atom_site_fract_z
 _atom_site_occupancy
  Li  Li0  1  0.81016900  0.18983100  0.25000000  1
  Li  Li1  1  0.99117800  0.29215600  0.72568200  1
  Li  Li2  1  0.70784400  0.00882200  0.77431800  1
  Li  Li3  1  0.00882200  0.70784400  0.27431800  1
  Li  Li4  1  0.29215600  0.99117800  0.22568200  1
  Li  Li5  1  0.67437800  0.37165500  0.97026300  1
  Li  Li6  1  0.62834500  0.32562200  0.52973700  1
  Li  Li7  1  0.18983100  0.81016900  0.75000000  1
  Li  Li8  1  0.65422300  0.94283100  0.42979700  1
  Li  Li9  1  0.05716900  0.34577700  0.07020300  1
  Li  Li10  1  0.34577700  0.05716900  0.57020300  1
  Li  Li11  1  0.94283100  0.65422300  0.92979700  1
  Li  Li12  1  0.52945000  0.13283800  0.04930300  1
  Li  Li13  1  0.86716200  0.47055000  0.45069700  1
  Li  Li14  1  0.47055000  0.86716200  0.95069700  1
  Li  Li15  1  0.13283800  0.52945000  0.54930300  1
  Li  Li16  1  0.37165500  0.67437800  0.47026300  1
  Li  Li17  1  0.32562200  0.62834500  0.02973700  1
  V  V18  1  0.66375100  0.66029700  0.20625900  1
  V  V19  1  0.33970300  0.33624900  0.29374100  1
  V  V20  1  0.33624900  0.33970300  0.79374100  1
  V  V21  1  0.66029700  0.66375100  0.70625900  1
  V  V22  1  0.00000000  0.00000000  0.50000000  1
  V  V23  1  0.00000000  0.00000000  0.00000000  1
  F  F24  1  0.92518800  0.92990300  0.16924100  1
  F  F25  1  0.58687800  0.89427600  0.60669800  1
  F  F26  1  0.10572400  0.41312200  0.89330200  1
  F  F27  1  0.92990300  0.92518800  0.66924100  1
  F  F28  1  0.07481200  0.07009700  0.83075900  1
  F  F29  1  0.07009700  0.07481200  0.33075900  1
  F  F30  1  0.56948800  0.24690400  0.19336800  1
  F  F31  1  0.75309600  0.43051200  0.30663200  1
  F  F32  1  0.43051200  0.75309600  0.80663200  1
  F  F33  1  0.24690400  0.56948800  0.69336800  1
  F  F34  1  0.43432400  0.10312300  0.88701400  1
  F  F35  1  0.89687700  0.56567600  0.61298600  1
  F  F36  1  0.56567600  0.89687700  0.11298600  1
  F  F37  1  0.10312300  0.43432400  0.38701400  1
  F  F38  1  0.56172100  0.24024000  0.69110400  1
  F  F39  1  0.75976000  0.43827900  0.80889600  1
  F  F40  1  0.43827900  0.75976000  0.30889600  1
  F  F41  1  0.24024000  0.56172100  0.19110400  1
  F  F42  1  0.77259400  0.73021500  0.34209400  1
  F  F43  1  0.26978500  0.22740600  0.15790600  1
  F  F44  1  0.22740600  0.26978500  0.65790600  1
  F  F45  1  0.73021500  0.77259400  0.84209400  1
  F  F46  1  0.91582100  0.24051900  0.56027800  1
  F  F47  1  0.75948100  0.08417900  0.93972200  1
  F  F48  1  0.08417900  0.75948100  0.43972200  1
  F  F49  1  0.24051900  0.91582100  0.06027800  1
  F  F50  1  0.75591900  0.09817200  0.43117800  1
  F  F51  1  0.90182800  0.24408100  0.06882200  1
  F  F52  1  0.24408100  0.90182800  0.56882200  1
  F  F53  1  0.09817200  0.75591900  0.93117800  1
  F  F54  1  0.43384800  0.40716000  0.93599700  1
  F  F55  1  0.59284000  0.56615200  0.56400300  1
  F  F56  1  0.56615200  0.59284000  0.06400300  1
  F  F57  1  0.40716000  0.43384800  0.43599700  1
  F  F58  1  0.41312200  0.10572400  0.39330200  1
  F  F59  1  0.89427600  0.58687800  0.10669800  1
