# generated using pymatgen
data_Na3In2(AsO4)3
_symmetry_space_group_name_H-M   'P 1'
_cell_length_a   9.28109447
_cell_length_b   9.28109447
_cell_length_c   6.97385986
_cell_angle_alpha   73.77617971
_cell_angle_beta   73.77617971
_cell_angle_gamma   92.77833041
_symmetry_Int_Tables_number   1
_chemical_formula_structural   Na3In2(AsO4)3
_chemical_formula_sum   'Na6 In4 As6 O24'
_cell_volume   548.58707536
_cell_formula_units_Z   2
loop_
 _symmetry_equiv_pos_site_id
 _symmetry_equiv_pos_as_xyz
  1  'x, y, z'
loop_
 _atom_site_type_symbol
 _atom_site_label
 _atom_site_symmetry_multiplicity
 _atom_site_fract_x
 _atom_site_fract_y
 _atom_site_fract_z
 _atom_site_occupancy
  Na  Na0  1  0.50000000  0.50000000  0.00000000  1
  Na  Na1  1  0.27595900  0.72404100  0.75000000  1
  Na  Na2  1  0.00464300  0.99535700  0.75000000  1
  Na  Na3  1  0.99535700  0.00464300  0.25000000  1
  Na  Na4  1  0.72404100  0.27595900  0.25000000  1
  Na  Na5  1  0.50000000  0.50000000  0.50000000  1
  In  In6  1  0.37871800  0.06603800  0.85458900  1
  In  In7  1  0.06603800  0.37871800  0.35458900  1
  In  In8  1  0.62128200  0.93396200  0.14541100  1
  In  In9  1  0.93396200  0.62128200  0.64541100  1
  As  As10  1  0.86414500  0.65729300  0.13226600  1
  As  As11  1  0.72345400  0.27654600  0.75000000  1
  As  As12  1  0.65729300  0.86414500  0.63226600  1
  As  As13  1  0.27654600  0.72345400  0.25000000  1
  As  As14  1  0.13585500  0.34270700  0.86773400  1
  As  As15  1  0.34270700  0.13585500  0.36773400  1
  O  O16  1  0.15489700  0.16133200  0.38520200  1
  O  O17  1  0.00088100  0.33153300  0.10162000  1
  O  O18  1  0.83866800  0.84510300  0.11479800  1
  O  O19  1  0.66846700  0.99911900  0.39838000  1
  O  O20  1  0.75128900  0.15508300  0.96970300  1
  O  O21  1  0.70267700  0.54380200  0.18219100  1
  O  O22  1  0.40888600  0.05212200  0.16891400  1
  O  O23  1  0.33153300  0.00088100  0.60162000  1
  O  O24  1  0.94787800  0.59111400  0.33108600  1
  O  O25  1  0.45623900  0.73741700  0.27580600  1
  O  O26  1  0.59111400  0.94787800  0.83108600  1
  O  O27  1  0.26258300  0.54376100  0.22419400  1
  O  O28  1  0.84510300  0.83866800  0.61479800  1
  O  O29  1  0.05212300  0.40888600  0.66891400  1
  O  O30  1  0.29732300  0.45619800  0.81780900  1
  O  O31  1  0.73741700  0.45623900  0.77580600  1
  O  O32  1  0.15508300  0.75128900  0.46970300  1
  O  O33  1  0.84491700  0.24871100  0.53029700  1
  O  O34  1  0.99911900  0.66846700  0.89838000  1
  O  O35  1  0.54380200  0.70267700  0.68219100  1
  O  O36  1  0.54376100  0.26258300  0.72419400  1
  O  O37  1  0.16133200  0.15489700  0.88520200  1
  O  O38  1  0.24871100  0.84491700  0.03029700  1
  O  O39  1  0.45619800  0.29732300  0.31780900  1
