# generated using pymatgen
data_Pt3I8
_symmetry_space_group_name_H-M   'P 1'
_cell_length_a   11.09447105
_cell_length_b   12.00844380
_cell_length_c   12.00844380
_cell_angle_alpha   90.00000000
_cell_angle_beta   90.00000000
_cell_angle_gamma   90.00000000
_symmetry_Int_Tables_number   1
_chemical_formula_structural   Pt3I8
_chemical_formula_sum   'Pt12 I32'
_cell_volume   1599.85293008
_cell_formula_units_Z   4
loop_
 _symmetry_equiv_pos_site_id
 _symmetry_equiv_pos_as_xyz
  1  'x, y, z'
loop_
 _atom_site_type_symbol
 _atom_site_label
 _atom_site_symmetry_multiplicity
 _atom_site_fract_x
 _atom_site_fract_y
 _atom_site_fract_z
 _atom_site_occupancy
  I  I0  1  0.49782335  0.12989962  0.35461621  1
  I  I1  1  0.99782335  0.87010038  0.64538379  1
  I  I2  1  0.24782335  0.85461621  0.37010038  1
  I  I3  1  0.74782335  0.14538379  0.62989962  1
  I  I4  1  0.50217665  0.35461621  0.12989962  1
  I  I5  1  0.75217665  0.37010038  0.85461621  1
  I  I6  1  0.25217665  0.62989962  0.14538379  1
  I  I7  1  0.00217665  0.64538379  0.87010038  1
  I  I8  1  0.47653637  0.12581146  0.89820052  1
  I  I9  1  0.97653637  0.87418854  0.10179948  1
  I  I10  1  0.22653637  0.39820052  0.37418854  1
  I  I11  1  0.72653637  0.60179948  0.62581146  1
  I  I12  1  0.97510584  0.37667539  0.09161044  1
  I  I13  1  0.22510584  0.40838956  0.87667539  1
  I  I14  1  0.72510584  0.59161044  0.12332461  1
  I  I15  1  0.47510584  0.62332461  0.90838956  1
  I  I16  1  0.77489416  0.87667539  0.40838956  1
  I  I17  1  0.27489416  0.12332461  0.59161044  1
  I  I18  1  0.02489416  0.09161044  0.37667539  1
  I  I19  1  0.52489416  0.90838956  0.62332461  1
  I  I20  1  0.98968873  0.38284852  0.64976820  1
  I  I21  1  0.23968873  0.85023180  0.88284852  1
  I  I22  1  0.73968873  0.14976820  0.11715148  1
  I  I23  1  0.48968873  0.61715148  0.35023180  1
  I  I24  1  0.76031127  0.88284852  0.85023180  1
  I  I25  1  0.26031127  0.11715148  0.14976820  1
  I  I26  1  0.01031127  0.64976820  0.38284852  1
  I  I27  1  0.51031127  0.35023180  0.61715148  1
  I  I28  1  0.02346363  0.10179948  0.87418854  1
  I  I29  1  0.27346363  0.62581146  0.60179948  1
  I  I30  1  0.77346363  0.37418854  0.39820052  1
  I  I31  1  0.52346363  0.89820052  0.12581146  1
  Pt  Pt32  1  0.51207236  0.12979539  0.62102638  1
  Pt  Pt33  1  0.01207236  0.87020461  0.37897362  1
  Pt  Pt34  1  0.26207236  0.12102638  0.37020461  1
  Pt  Pt35  1  0.76207236  0.87897362  0.62979539  1
  Pt  Pt36  1  0.48792764  0.62102638  0.12979539  1
  Pt  Pt37  1  0.73792764  0.37020461  0.12102638  1
  Pt  Pt38  1  0.23792764  0.62979539  0.87897362  1
  Pt  Pt39  1  0.98792764  0.37897362  0.87020461  1
  Pt  Pt40  1  0.50000000  0.12554355  0.12554355  1
  Pt  Pt41  1  0.75000000  0.37445645  0.62554355  1
  Pt  Pt42  1  0.25000000  0.62554355  0.37445645  1
  Pt  Pt43  1  0.00000000  0.87445645  0.87445645  1
