# generated using pymatgen
data_Na3H6Rh
_symmetry_space_group_name_H-M   'P 1'
_cell_length_a   5.23909900
_cell_length_b   9.37873100
_cell_length_c   9.60292600
_cell_angle_alpha   90.00000000
_cell_angle_beta   90.00000000
_cell_angle_gamma   90.00000000
_symmetry_Int_Tables_number   1
_chemical_formula_structural   Na3H6Rh
_chemical_formula_sum   'Na12 H24 Rh4'
_cell_volume   471.85033418
_cell_formula_units_Z   4
loop_
 _symmetry_equiv_pos_site_id
 _symmetry_equiv_pos_as_xyz
  1  'x, y, z'
loop_
 _atom_site_type_symbol
 _atom_site_label
 _atom_site_symmetry_multiplicity
 _atom_site_fract_x
 _atom_site_fract_y
 _atom_site_fract_z
 _atom_site_occupancy
  Na  Na0  1  0.25000000  0.72079000  0.75026300  1
  Na  Na1  1  0.75000000  0.27921000  0.24973700  1
  Na  Na2  1  0.25000000  0.22079000  0.74973700  1
  Na  Na3  1  0.75000000  0.77921000  0.25026300  1
  Na  Na4  1  0.25000000  0.89810800  0.03320700  1
  Na  Na5  1  0.75000000  0.10189200  0.96679300  1
  Na  Na6  1  0.25000000  0.39810800  0.46679300  1
  Na  Na7  1  0.75000000  0.60189200  0.53320700  1
  Na  Na8  1  0.25000000  0.54456600  0.12769600  1
  Na  Na9  1  0.75000000  0.45543400  0.87230400  1
  Na  Na10  1  0.25000000  0.04456600  0.37230400  1
  Na  Na11  1  0.75000000  0.95543400  0.62769600  1
  H  H12  1  0.25000000  0.81321700  0.25130000  1
  H  H13  1  0.75000000  0.18678300  0.74870000  1
  H  H14  1  0.25000000  0.31321700  0.24870000  1
  H  H15  1  0.75000000  0.68678300  0.75130000  1
  H  H16  1  0.25000000  0.62599900  0.54580400  1
  H  H17  1  0.75000000  0.37400100  0.45419600  1
  H  H18  1  0.25000000  0.12599900  0.95419600  1
  H  H19  1  0.75000000  0.87400100  0.04580400  1
  H  H20  1  0.53056100  0.38966800  0.66257700  1
  H  H21  1  0.03056100  0.61033200  0.33742300  1
  H  H22  1  0.96943900  0.88966800  0.83742300  1
  H  H23  1  0.46943900  0.11033200  0.16257700  1
  H  H24  1  0.46943900  0.61033200  0.33742300  1
  H  H25  1  0.96943900  0.38966800  0.66257700  1
  H  H26  1  0.03056100  0.11033200  0.16257700  1
  H  H27  1  0.53056100  0.88966800  0.83742300  1
  H  H28  1  0.52148400  0.66985400  0.96500100  1
  H  H29  1  0.02148400  0.33014600  0.03499900  1
  H  H30  1  0.97851600  0.16985400  0.53499900  1
  H  H31  1  0.47851600  0.83014600  0.46500100  1
  H  H32  1  0.47851600  0.33014600  0.03499900  1
  H  H33  1  0.97851600  0.66985400  0.96500100  1
  H  H34  1  0.02148400  0.83014600  0.46500100  1
  H  H35  1  0.52148400  0.16985400  0.53499900  1
  Rh  Rh36  1  0.25000000  0.72223900  0.40054600  1
  Rh  Rh37  1  0.75000000  0.27776100  0.59945400  1
  Rh  Rh38  1  0.25000000  0.22223900  0.09945400  1
  Rh  Rh39  1  0.75000000  0.77776100  0.90054600  1
