# generated using pymatgen
data_VPO5
_symmetry_space_group_name_H-M   'P 1'
_cell_length_a   6.23485900
_cell_length_b   7.23894600
_cell_length_c   7.81434100
_cell_angle_alpha   90.00000000
_cell_angle_beta   90.00000000
_cell_angle_gamma   90.00000000
_symmetry_Int_Tables_number   1
_chemical_formula_structural   VPO5
_chemical_formula_sum   'V4 P4 O20'
_cell_volume   352.69096336
_cell_formula_units_Z   4
loop_
 _symmetry_equiv_pos_site_id
 _symmetry_equiv_pos_as_xyz
  1  'x, y, z'
loop_
 _atom_site_type_symbol
 _atom_site_label
 _atom_site_symmetry_multiplicity
 _atom_site_fract_x
 _atom_site_fract_y
 _atom_site_fract_z
 _atom_site_occupancy
  V  V0  1  0.25000000  0.72803500  0.67321100  1
  V  V1  1  0.75000000  0.22803500  0.82678900  1
  V  V2  1  0.25000000  0.77196500  0.17321100  1
  V  V3  1  0.75000000  0.27196500  0.32678900  1
  P  P4  1  0.75000000  0.61290900  0.62190400  1
  P  P5  1  0.25000000  0.11290900  0.87809600  1
  P  P6  1  0.75000000  0.88709100  0.12190400  1
  P  P7  1  0.25000000  0.38709100  0.37809600  1
  O  O8  1  0.25000000  0.49897900  0.54548800  1
  O  O9  1  0.55203200  0.74000600  0.62885900  1
  O  O10  1  0.94796800  0.74000600  0.62885900  1
  O  O11  1  0.75000000  0.15084200  0.63310700  1
  O  O12  1  0.25000000  0.98219500  0.71898400  1
  O  O13  1  0.75000000  0.48219500  0.78101600  1
  O  O14  1  0.25000000  0.65084200  0.86689300  1
  O  O15  1  0.05203200  0.24000600  0.87114100  1
  O  O16  1  0.44796800  0.24000600  0.87114100  1
  O  O17  1  0.75000000  0.99897900  0.95451200  1
  O  O18  1  0.25000000  0.00102100  0.04548800  1
  O  O19  1  0.55203200  0.75999400  0.12885900  1
  O  O20  1  0.94796800  0.75999400  0.12885900  1
  O  O21  1  0.75000000  0.34915800  0.13310700  1
  O  O22  1  0.75000000  0.50102100  0.45451200  1
  O  O23  1  0.75000000  0.01780500  0.28101600  1
  O  O24  1  0.25000000  0.84915800  0.36689300  1
  O  O25  1  0.05203200  0.25999400  0.37114100  1
  O  O26  1  0.44796800  0.25999400  0.37114100  1
  O  O27  1  0.25000000  0.51780500  0.21898400  1
