# generated using pymatgen
data_SrIn4Pt
_symmetry_space_group_name_H-M   'P 1'
_cell_length_a   8.95915244
_cell_length_b   8.95915244
_cell_length_c   7.62327500
_cell_angle_alpha   90.00000000
_cell_angle_beta   90.00000000
_cell_angle_gamma   150.16974120
_symmetry_Int_Tables_number   1
_chemical_formula_structural   SrIn4Pt
_chemical_formula_sum   'Sr2 In8 Pt2'
_cell_volume   304.37523202
_cell_formula_units_Z   2
loop_
 _symmetry_equiv_pos_site_id
 _symmetry_equiv_pos_as_xyz
  1  'x, y, z'
loop_
 _atom_site_type_symbol
 _atom_site_label
 _atom_site_symmetry_multiplicity
 _atom_site_fract_x
 _atom_site_fract_y
 _atom_site_fract_z
 _atom_site_occupancy
  Sr  Sr0  1  0.12571700  0.87428300  0.75000000  1
  Sr  Sr1  1  0.87428300  0.12571700  0.25000000  1
  In  In2  1  0.31537900  0.68462100  0.95035300  1
  In  In3  1  0.50000000  0.50000000  0.50000000  1
  In  In4  1  0.68462100  0.31537900  0.45035300  1
  In  In5  1  0.68462100  0.31537900  0.04964700  1
  In  In6  1  0.31537900  0.68462100  0.54964700  1
  In  In7  1  0.06744000  0.93256000  0.25000000  1
  In  In8  1  0.93256000  0.06744000  0.75000000  1
  In  In9  1  0.50000000  0.50000000  0.00000000  1
  Pt  Pt10  1  0.77527300  0.22472700  0.75000000  1
  Pt  Pt11  1  0.22472700  0.77527300  0.25000000  1
