# generated using pymatgen
data_Bi3B5O12
_symmetry_space_group_name_H-M   'P 1'
_cell_length_a   6.64616400
_cell_length_b   7.88841900
_cell_length_c   18.67183800
_cell_angle_alpha   90.00000000
_cell_angle_beta   90.00000000
_cell_angle_gamma   90.00000000
_symmetry_Int_Tables_number   1
_chemical_formula_structural   Bi3B5O12
_chemical_formula_sum   'Bi12 B20 O48'
_cell_volume   978.92201358
_cell_formula_units_Z   4
loop_
 _symmetry_equiv_pos_site_id
 _symmetry_equiv_pos_as_xyz
  1  'x, y, z'
loop_
 _atom_site_type_symbol
 _atom_site_label
 _atom_site_symmetry_multiplicity
 _atom_site_fract_x
 _atom_site_fract_y
 _atom_site_fract_z
 _atom_site_occupancy
  Bi  Bi0  1  0.48447600  0.51852100  0.40405100  1
  Bi  Bi1  1  0.98447600  0.98147900  0.09594900  1
  Bi  Bi2  1  0.51552400  0.01852100  0.59594900  1
  Bi  Bi3  1  0.01552400  0.48147900  0.90405100  1
  Bi  Bi4  1  0.51552400  0.48147900  0.59594900  1
  Bi  Bi5  1  0.01552400  0.01852100  0.90405100  1
  Bi  Bi6  1  0.48447600  0.98147900  0.40405100  1
  Bi  Bi7  1  0.98447600  0.51852100  0.09594900  1
  Bi  Bi8  1  0.03979900  0.75000000  0.31449300  1
  Bi  Bi9  1  0.53979900  0.75000000  0.18550700  1
  Bi  Bi10  1  0.96020100  0.25000000  0.68550700  1
  Bi  Bi11  1  0.46020100  0.25000000  0.81449300  1
  B  B12  1  0.93135000  0.75000000  0.61001700  1
  B  B13  1  0.43135000  0.75000000  0.88998300  1
  B  B14  1  0.06865000  0.25000000  0.38998300  1
  B  B15  1  0.56865000  0.25000000  0.11001700  1
  B  B16  1  0.12384900  0.40277400  0.27019200  1
  B  B17  1  0.62384900  0.09722600  0.22980800  1
  B  B18  1  0.87615100  0.90277400  0.72980800  1
  B  B19  1  0.37615100  0.59722600  0.77019200  1
  B  B20  1  0.87615100  0.59722600  0.72980800  1
  B  B21  1  0.37615100  0.90277400  0.77019200  1
  B  B22  1  0.12384900  0.09722600  0.27019200  1
  B  B23  1  0.62384900  0.40277400  0.22980800  1
  B  B24  1  0.83340400  0.75000000  0.48068800  1
  B  B25  1  0.33340400  0.75000000  0.01931200  1
  B  B26  1  0.16659600  0.25000000  0.51931200  1
  B  B27  1  0.66659600  0.25000000  0.98068800  1
  B  B28  1  0.20255000  0.75000000  0.51245900  1
  B  B29  1  0.70255000  0.75000000  0.98754100  1
  B  B30  1  0.79745000  0.25000000  0.48754100  1
  B  B31  1  0.29745000  0.25000000  0.01245900  1
  O  O32  1  0.77575300  0.75000000  0.55213200  1
  O  O33  1  0.27575300  0.75000000  0.94786800  1
  O  O34  1  0.22424700  0.25000000  0.44786800  1
  O  O35  1  0.72424700  0.25000000  0.05213200  1
  O  O36  1  0.88622500  0.75000000  0.76733800  1
  O  O37  1  0.38622500  0.75000000  0.73266200  1
  O  O38  1  0.11377500  0.25000000  0.23266200  1
  O  O39  1  0.61377500  0.25000000  0.26733800  1
  O  O40  1  0.13291800  0.75000000  0.58608700  1
  O  O41  1  0.63291800  0.75000000  0.91391300  1
  O  O42  1  0.86708200  0.25000000  0.41391300  1
  O  O43  1  0.36708200  0.25000000  0.08608700  1
  O  O44  1  0.02996700  0.75000000  0.46004800  1
  O  O45  1  0.52996700  0.75000000  0.03995200  1
  O  O46  1  0.97003300  0.25000000  0.53995200  1
  O  O47  1  0.47003300  0.25000000  0.96004800  1
  O  O48  1  0.11762300  0.40477900  0.34437100  1
  O  O49  1  0.61762300  0.09522100  0.15562900  1
  O  O50  1  0.88237700  0.90477900  0.65562900  1
  O  O51  1  0.38237700  0.59522100  0.84437100  1
  O  O52  1  0.88237700  0.59522100  0.65562900  1
  O  O53  1  0.38237700  0.90477900  0.84437100  1
  O  O54  1  0.11762300  0.09522100  0.34437100  1
  O  O55  1  0.61762300  0.40477900  0.15562900  1
  O  O56  1  0.13781900  0.55259600  0.23431900  1
  O  O57  1  0.63781900  0.94740400  0.26568100  1
  O  O58  1  0.86218100  0.05259600  0.76568100  1
  O  O59  1  0.36218100  0.44740400  0.73431900  1
  O  O60  1  0.86218100  0.44740400  0.76568100  1
  O  O61  1  0.36218100  0.05259600  0.73431900  1
  O  O62  1  0.13781900  0.94740400  0.23431900  1
  O  O63  1  0.63781900  0.55259600  0.26568100  1
  O  O64  1  0.67482400  0.40626200  0.49959900  1
  O  O65  1  0.17482400  0.09373800  0.00040100  1
  O  O66  1  0.32517600  0.90626200  0.50040100  1
  O  O67  1  0.82517600  0.59373800  0.99959900  1
  O  O68  1  0.32517600  0.59373800  0.50040100  1
  O  O69  1  0.82517600  0.90626200  0.99959900  1
  O  O70  1  0.67482400  0.09373800  0.49959900  1
  O  O71  1  0.17482400  0.40626200  0.00040100  1
  O  O72  1  0.34143200  0.75000000  0.35161800  1
  O  O73  1  0.84143200  0.75000000  0.14838200  1
  O  O74  1  0.65856800  0.25000000  0.64838200  1
  O  O75  1  0.15856800  0.25000000  0.85161800  1
  O  O76  1  0.68972200  0.75000000  0.42554500  1
  O  O77  1  0.18972200  0.75000000  0.07445500  1
  O  O78  1  0.31027800  0.25000000  0.57445500  1
  O  O79  1  0.81027800  0.25000000  0.92554500  1
