# generated using pymatgen
data_CaH2
_symmetry_space_group_name_H-M   'P 1'
_cell_length_a   3.57168100
_cell_length_b   5.90137300
_cell_length_c   6.77097100
_cell_angle_alpha   90.00000000
_cell_angle_beta   90.00000000
_cell_angle_gamma   90.00000000
_symmetry_Int_Tables_number   1
_chemical_formula_structural   CaH2
_chemical_formula_sum   'Ca4 H8'
_cell_volume   142.71732027
_cell_formula_units_Z   4
loop_
 _symmetry_equiv_pos_site_id
 _symmetry_equiv_pos_as_xyz
  1  'x, y, z'
loop_
 _atom_site_type_symbol
 _atom_site_label
 _atom_site_symmetry_multiplicity
 _atom_site_fract_x
 _atom_site_fract_y
 _atom_site_fract_z
 _atom_site_occupancy
  Ca  Ca0  1  0.25000000  0.73934900  0.61030100  1
  Ca  Ca1  1  0.75000000  0.26065100  0.38969900  1
  Ca  Ca2  1  0.25000000  0.23934900  0.88969900  1
  Ca  Ca3  1  0.75000000  0.76065100  0.11030100  1
  H  H4  1  0.25000000  0.47414500  0.17707300  1
  H  H5  1  0.75000000  0.52585500  0.82292700  1
  H  H6  1  0.25000000  0.97414500  0.32292700  1
  H  H7  1  0.75000000  0.02585500  0.67707300  1
  H  H8  1  0.75000000  0.64440700  0.42754300  1
  H  H9  1  0.25000000  0.35559300  0.57245700  1
  H  H10  1  0.75000000  0.14440700  0.07245700  1
  H  H11  1  0.25000000  0.85559300  0.92754300  1
