# generated using pymatgen
data_Be3P2(H2O5)2
_symmetry_space_group_name_H-M   'P 1'
_cell_length_a   8.40993268
_cell_length_b   8.40993268
_cell_length_c   9.64631995
_cell_angle_alpha   85.36159719
_cell_angle_beta   85.36159719
_cell_angle_gamma   31.91254212
_symmetry_Int_Tables_number   1
_chemical_formula_structural   Be3P2(H2O5)2
_chemical_formula_sum   'Be6 P4 H8 O20'
_cell_volume   359.37853785
_cell_formula_units_Z   2
loop_
 _symmetry_equiv_pos_site_id
 _symmetry_equiv_pos_as_xyz
  1  'x, y, z'
loop_
 _atom_site_type_symbol
 _atom_site_label
 _atom_site_symmetry_multiplicity
 _atom_site_fract_x
 _atom_site_fract_y
 _atom_site_fract_z
 _atom_site_occupancy
  Be  Be0  1  0.29312800  0.20223200  0.34244100  1
  Be  Be1  1  0.79776800  0.70687200  0.15755900  1
  Be  Be2  1  0.70687200  0.79776800  0.65755900  1
  Be  Be3  1  0.20223200  0.29312800  0.84244100  1
  Be  Be4  1  0.18842100  0.81157900  0.25000000  1
  Be  Be5  1  0.81157900  0.18842100  0.75000000  1
  P  P6  1  0.19771700  0.11347500  0.10530300  1
  P  P7  1  0.11347500  0.19771700  0.60530300  1
  P  P8  1  0.80228300  0.88652500  0.89469700  1
  P  P9  1  0.88652500  0.80228300  0.39469700  1
  H  H10  1  0.66353700  0.46884200  0.31139300  1
  H  H11  1  0.76527700  0.41751300  0.90422600  1
  H  H12  1  0.58248700  0.23472300  0.59577400  1
  H  H13  1  0.23472300  0.58248700  0.09577400  1
  H  H14  1  0.41751300  0.76527700  0.40422600  1
  H  H15  1  0.46884200  0.66353700  0.81139300  1
  H  H16  1  0.33646300  0.53115800  0.68860700  1
  H  H17  1  0.53115800  0.33646300  0.18860700  1
  O  O18  1  0.54092600  0.81267000  0.10843200  1
  O  O19  1  0.81267000  0.54092600  0.60843200  1
  O  O20  1  0.45907400  0.18733000  0.89156800  1
  O  O21  1  0.18733000  0.45907400  0.39156800  1
  O  O22  1  0.91372400  0.75130000  0.04379400  1
  O  O23  1  0.63072400  0.46154900  0.85432800  1
  O  O24  1  0.08627600  0.24870000  0.95620600  1
  O  O25  1  0.75130000  0.91372400  0.54379400  1
  O  O26  1  0.90049500  0.66279100  0.80092900  1
  O  O27  1  0.33720900  0.09950500  0.69907100  1
  O  O28  1  0.09950500  0.33720900  0.19907100  1
  O  O29  1  0.66279100  0.90049500  0.30092900  1
  O  O30  1  0.24870000  0.08627600  0.45620600  1
  O  O31  1  0.53845100  0.36927600  0.64567200  1
  O  O32  1  0.36927600  0.53845100  0.14567200  1
  O  O33  1  0.46154900  0.63072400  0.35432800  1
  O  O34  1  0.04756100  0.08631200  0.16781000  1
  O  O35  1  0.08631200  0.04756100  0.66781000  1
  O  O36  1  0.95243900  0.91368800  0.83219000  1
  O  O37  1  0.91368800  0.95243900  0.33219000  1
