# generated using pymatgen
data_Pb2ClOF
_symmetry_space_group_name_H-M   'P 1'
_cell_length_a   7.04173970
_cell_length_b   7.04173970
_cell_length_c   5.86879300
_cell_angle_alpha   90.00000000
_cell_angle_beta   90.00000000
_cell_angle_gamma   131.09023895
_symmetry_Int_Tables_number   1
_chemical_formula_structural   Pb2ClOF
_chemical_formula_sum   'Pb4 Cl2 O2 F2'
_cell_volume   219.32748114
_cell_formula_units_Z   2
loop_
 _symmetry_equiv_pos_site_id
 _symmetry_equiv_pos_as_xyz
  1  'x, y, z'
loop_
 _atom_site_type_symbol
 _atom_site_label
 _atom_site_symmetry_multiplicity
 _atom_site_fract_x
 _atom_site_fract_y
 _atom_site_fract_z
 _atom_site_occupancy
  Pb  Pb0  1  0.60232400  0.39767600  0.78125000  1
  Pb  Pb1  1  0.39767600  0.60232400  0.21875000  1
  Pb  Pb2  1  0.89767600  0.10232400  0.78125000  1
  Pb  Pb3  1  0.10232400  0.89767600  0.21875000  1
  Cl  Cl4  1  0.75000000  0.25000000  0.21349600  1
  Cl  Cl5  1  0.25000000  0.75000000  0.78650400  1
  O  O6  1  0.25000000  0.25000000  0.00000000  1
  O  O7  1  0.75000000  0.75000000  0.00000000  1
  F  F8  1  0.75000000  0.75000000  0.50000000  1
  F  F9  1  0.25000000  0.25000000  0.50000000  1
