# generated using pymatgen
data_CuW3Br7
_symmetry_space_group_name_H-M   'P 1'
_cell_length_a   13.77470400
_cell_length_b   13.77470400
_cell_length_c   13.77470400
_cell_angle_alpha   90.00000000
_cell_angle_beta   90.00000000
_cell_angle_gamma   90.00000000
_symmetry_Int_Tables_number   1
_chemical_formula_structural   CuW3Br7
_chemical_formula_sum   'Cu8 W24 Br56'
_cell_volume   2613.64636444
_cell_formula_units_Z   8
loop_
 _symmetry_equiv_pos_site_id
 _symmetry_equiv_pos_as_xyz
  1  'x, y, z'
loop_
 _atom_site_type_symbol
 _atom_site_label
 _atom_site_symmetry_multiplicity
 _atom_site_fract_x
 _atom_site_fract_y
 _atom_site_fract_z
 _atom_site_occupancy
  Cu  Cu0  1  0.68799400  0.68799400  0.68799400  1
  Cu  Cu1  1  0.31200600  0.31200600  0.68799400  1
  Cu  Cu2  1  0.68799400  0.31200600  0.31200600  1
  Cu  Cu3  1  0.31200600  0.68799400  0.31200600  1
  Cu  Cu4  1  0.81200600  0.81200600  0.81200600  1
  Cu  Cu5  1  0.18799400  0.18799400  0.81200600  1
  Cu  Cu6  1  0.81200600  0.18799400  0.18799400  1
  Cu  Cu7  1  0.18799400  0.81200600  0.18799400  1
  W  W8  1  0.27394400  0.88084400  0.77979500  1
  W  W9  1  0.77979500  0.27394400  0.88084400  1
  W  W10  1  0.88084400  0.77979500  0.27394400  1
  W  W11  1  0.11915600  0.22020500  0.27394400  1
  W  W12  1  0.77979500  0.72605600  0.11915600  1
  W  W13  1  0.11915600  0.77979500  0.72605600  1
  W  W14  1  0.22020500  0.72605600  0.88084400  1
  W  W15  1  0.22020500  0.27394400  0.11915600  1
  W  W16  1  0.88084400  0.22020500  0.72605600  1
  W  W17  1  0.27394400  0.11915600  0.22020500  1
  W  W18  1  0.72605600  0.88084400  0.22020500  1
  W  W19  1  0.72605600  0.11915600  0.77979500  1
  W  W20  1  0.22605600  0.61915600  0.72020500  1
  W  W21  1  0.72020500  0.22605600  0.61915600  1
  W  W22  1  0.61915600  0.72020500  0.22605600  1
  W  W23  1  0.38084400  0.27979500  0.22605600  1
  W  W24  1  0.72020500  0.77394400  0.38084400  1
  W  W25  1  0.38084400  0.72020500  0.77394400  1
  W  W26  1  0.27979500  0.77394400  0.61915600  1
  W  W27  1  0.27979500  0.22605600  0.38084400  1
  W  W28  1  0.61915600  0.27979500  0.77394400  1
  W  W29  1  0.22605600  0.38084400  0.27979500  1
  W  W30  1  0.77394400  0.61915600  0.27979500  1
  W  W31  1  0.77394400  0.38084400  0.72020500  1
  Br  Br32  1  0.17409500  0.93393000  0.62465200  1
  Br  Br33  1  0.62465200  0.17409500  0.93393000  1
  Br  Br34  1  0.93393000  0.62465200  0.17409500  1
  Br  Br35  1  0.06607000  0.37534800  0.17409500  1
  Br  Br36  1  0.62465200  0.82590500  0.06607000  1
  Br  Br37  1  0.06607000  0.62465200  0.82590500  1
  Br  Br38  1  0.37534800  0.82590500  0.93393000  1
  Br  Br39  1  0.37534800  0.17409500  0.06607000  1
  Br  Br40  1  0.93393000  0.37534800  0.82590500  1
  Br  Br41  1  0.17409500  0.06607000  0.37534800  1
  Br  Br42  1  0.82590500  0.93393000  0.37534800  1
  Br  Br43  1  0.82590500  0.06607000  0.62465200  1
  Br  Br44  1  0.32590500  0.56607000  0.87534800  1
  Br  Br45  1  0.87534800  0.32590500  0.56607000  1
  Br  Br46  1  0.56607000  0.87534800  0.32590500  1
  Br  Br47  1  0.43393000  0.12465200  0.32590500  1
  Br  Br48  1  0.87534800  0.67409500  0.43393000  1
  Br  Br49  1  0.43393000  0.87534800  0.67409500  1
  Br  Br50  1  0.12465200  0.67409500  0.56607000  1
  Br  Br51  1  0.12465200  0.32590500  0.43393000  1
  Br  Br52  1  0.56607000  0.12465200  0.67409500  1
  Br  Br53  1  0.32590500  0.43393000  0.12465200  1
  Br  Br54  1  0.67409500  0.56607000  0.12465200  1
  Br  Br55  1  0.67409500  0.43393000  0.87534800  1
  Br  Br56  1  0.56464100  0.67350500  0.81053700  1
  Br  Br57  1  0.81053700  0.56464100  0.67350500  1
  Br  Br58  1  0.67350500  0.81053700  0.56464100  1
  Br  Br59  1  0.32649500  0.18946300  0.56464100  1
  Br  Br60  1  0.81053700  0.43535900  0.32649500  1
  Br  Br61  1  0.32649500  0.81053700  0.43535900  1
  Br  Br62  1  0.18946300  0.43535900  0.67350500  1
  Br  Br63  1  0.18946300  0.56464100  0.32649500  1
  Br  Br64  1  0.67350500  0.18946300  0.43535900  1
  Br  Br65  1  0.56464100  0.32649500  0.18946300  1
  Br  Br66  1  0.43535900  0.67350500  0.18946300  1
  Br  Br67  1  0.43535900  0.32649500  0.81053700  1
  Br  Br68  1  0.93535900  0.82649500  0.68946300  1
  Br  Br69  1  0.68946300  0.93535900  0.82649500  1
  Br  Br70  1  0.82649500  0.68946300  0.93535900  1
  Br  Br71  1  0.17350500  0.31053700  0.93535900  1
  Br  Br72  1  0.68946300  0.06464100  0.17350500  1
  Br  Br73  1  0.17350500  0.68946300  0.06464100  1
  Br  Br74  1  0.31053700  0.06464100  0.82649500  1
  Br  Br75  1  0.31053700  0.93535900  0.17350500  1
  Br  Br76  1  0.82649500  0.31053700  0.06464100  1
  Br  Br77  1  0.93535900  0.17350500  0.31053700  1
  Br  Br78  1  0.06464100  0.82649500  0.31053700  1
  Br  Br79  1  0.06464100  0.17350500  0.68946300  1
  Br  Br80  1  0.38663100  0.38663100  0.38663100  1
  Br  Br81  1  0.61336900  0.61336900  0.38663100  1
  Br  Br82  1  0.38663100  0.61336900  0.61336900  1
  Br  Br83  1  0.61336900  0.38663100  0.61336900  1
  Br  Br84  1  0.11336900  0.11336900  0.11336900  1
  Br  Br85  1  0.88663100  0.88663100  0.11336900  1
  Br  Br86  1  0.11336900  0.88663100  0.88663100  1
  Br  Br87  1  0.88663100  0.11336900  0.88663100  1
