# generated using pymatgen
data_CsXeF7
_symmetry_space_group_name_H-M   'P 1'
_cell_length_a   8.80969900
_cell_length_b   8.80969900
_cell_length_c   8.80969900
_cell_angle_alpha   90.00000000
_cell_angle_beta   90.00000000
_cell_angle_gamma   90.00000000
_symmetry_Int_Tables_number   1
_chemical_formula_structural   CsXeF7
_chemical_formula_sum   'Cs4 Xe4 F28'
_cell_volume   683.72775606
_cell_formula_units_Z   4
loop_
 _symmetry_equiv_pos_site_id
 _symmetry_equiv_pos_as_xyz
  1  'x, y, z'
loop_
 _atom_site_type_symbol
 _atom_site_label
 _atom_site_symmetry_multiplicity
 _atom_site_fract_x
 _atom_site_fract_y
 _atom_site_fract_z
 _atom_site_occupancy
  Cs  Cs0  1  0.90000700  0.59999300  0.40000700  1
  Cs  Cs1  1  0.59999300  0.40000700  0.90000700  1
  Cs  Cs2  1  0.40000700  0.90000700  0.59999300  1
  Cs  Cs3  1  0.09999300  0.09999300  0.09999300  1
  Xe  Xe4  1  0.59689900  0.90310100  0.09689900  1
  Xe  Xe5  1  0.90310100  0.09689900  0.59689900  1
  Xe  Xe6  1  0.09689900  0.59689900  0.90310100  1
  Xe  Xe7  1  0.40310100  0.40310100  0.40310100  1
  F  F8  1  0.10490900  0.69618800  0.11690400  1
  F  F9  1  0.60490900  0.80381200  0.88309600  1
  F  F10  1  0.89509100  0.19618800  0.38309600  1
  F  F11  1  0.80381200  0.88309600  0.60490900  1
  F  F12  1  0.38309600  0.89509100  0.19618800  1
  F  F13  1  0.88309600  0.60490900  0.80381200  1
  F  F14  1  0.69618800  0.11690400  0.10490900  1
  F  F15  1  0.11690400  0.10490900  0.69618800  1
  F  F16  1  0.17623700  0.34836300  0.41456700  1
  F  F17  1  0.41456700  0.17623700  0.34836300  1
  F  F18  1  0.34836300  0.41456700  0.17623700  1
  F  F19  1  0.15163700  0.58543300  0.67623700  1
  F  F20  1  0.91456700  0.32376300  0.65163700  1
  F  F21  1  0.65163700  0.91456700  0.32376300  1
  F  F22  1  0.08543300  0.82376300  0.84836300  1
  F  F23  1  0.58543300  0.67623700  0.15163700  1
  F  F24  1  0.84836300  0.08543300  0.82376300  1
  F  F25  1  0.67623700  0.15163700  0.58543300  1
  F  F26  1  0.82376300  0.84836300  0.08543300  1
  F  F27  1  0.32376300  0.65163700  0.91456700  1
  F  F28  1  0.54327200  0.54327200  0.54327200  1
  F  F29  1  0.95672800  0.45672800  0.04327200  1
  F  F30  1  0.04327200  0.95672800  0.45672800  1
  F  F31  1  0.45672800  0.04327200  0.95672800  1
  F  F32  1  0.39509100  0.30381200  0.61690400  1
  F  F33  1  0.61690400  0.39509100  0.30381200  1
  F  F34  1  0.30381200  0.61690400  0.39509100  1
  F  F35  1  0.19618800  0.38309600  0.89509100  1
