# generated using pymatgen
data_Cs6Cl4O
_symmetry_space_group_name_H-M   'P 1'
_cell_length_a   9.66044439
_cell_length_b   9.66044439
_cell_length_c   9.66044454
_cell_angle_alpha   89.25403268
_cell_angle_beta   89.25403268
_cell_angle_gamma   89.25403030
_symmetry_Int_Tables_number   1
_chemical_formula_structural   Cs6Cl4O
_chemical_formula_sum   'Cs12 Cl8 O2'
_cell_volume   901.32586202
_cell_formula_units_Z   2
loop_
 _symmetry_equiv_pos_site_id
 _symmetry_equiv_pos_as_xyz
  1  'x, y, z'
loop_
 _atom_site_type_symbol
 _atom_site_label
 _atom_site_symmetry_multiplicity
 _atom_site_fract_x
 _atom_site_fract_y
 _atom_site_fract_z
 _atom_site_occupancy
  Cs  Cs0  1  0.05526700  0.93371600  0.71399300  1
  Cs  Cs1  1  0.93371600  0.71399300  0.05526700  1
  Cs  Cs2  1  0.71399300  0.05526700  0.93371600  1
  Cs  Cs3  1  0.56628400  0.44473300  0.78600700  1
  Cs  Cs4  1  0.78600700  0.56628400  0.44473300  1
  Cs  Cs5  1  0.44473300  0.78600700  0.56628400  1
  Cs  Cs6  1  0.06628400  0.28600700  0.94473300  1
  Cs  Cs7  1  0.94473300  0.06628400  0.28600700  1
  Cs  Cs8  1  0.28600700  0.94473300  0.06628400  1
  Cs  Cs9  1  0.43371600  0.55526700  0.21399300  1
  Cs  Cs10  1  0.21399300  0.43371600  0.55526700  1
  Cs  Cs11  1  0.55526700  0.21399300  0.43371600  1
  Cl  Cl12  1  0.75000000  0.75000000  0.75000000  1
  Cl  Cl13  1  0.25000000  0.25000000  0.25000000  1
  Cl  Cl14  1  0.75000000  0.36782700  0.13217300  1
  Cl  Cl15  1  0.13217300  0.75000000  0.36782700  1
  Cl  Cl16  1  0.36782700  0.13217300  0.75000000  1
  Cl  Cl17  1  0.25000000  0.63217300  0.86782700  1
  Cl  Cl18  1  0.86782700  0.25000000  0.63217300  1
  Cl  Cl19  1  0.63217300  0.86782700  0.25000000  1
  O  O20  1  0.50000000  0.50000000  0.50000000  1
  O  O21  1  0.00000000  0.00000000  0.00000000  1
