# generated using pymatgen
data_Li3Zr4F19
_symmetry_space_group_name_H-M   'P 1'
_cell_length_a   5.53204500
_cell_length_b   11.02619084
_cell_length_c   12.96372029
_cell_angle_alpha   107.75879104
_cell_angle_beta   92.36135497
_cell_angle_gamma   103.11908163
_symmetry_Int_Tables_number   1
_chemical_formula_structural   Li3Zr4F19
_chemical_formula_sum   'Li6 Zr8 F38'
_cell_volume   728.20081166
_cell_formula_units_Z   2
loop_
 _symmetry_equiv_pos_site_id
 _symmetry_equiv_pos_as_xyz
  1  'x, y, z'
loop_
 _atom_site_type_symbol
 _atom_site_label
 _atom_site_symmetry_multiplicity
 _atom_site_fract_x
 _atom_site_fract_y
 _atom_site_fract_z
 _atom_site_occupancy
  Li  Li0  1  0.71657200  0.73970500  0.48835400  1
  Li  Li1  1  0.40956800  0.51007400  0.20746400  1
  Li  Li2  1  0.59043200  0.48992600  0.79253600  1
  Li  Li3  1  0.47495800  0.16410800  0.05884700  1
  Li  Li4  1  0.52504200  0.83589200  0.94115300  1
  Li  Li5  1  0.28342800  0.26029500  0.51164600  1
  Zr  Zr6  1  0.86267000  0.38324400  0.36630300  1
  Zr  Zr7  1  0.13733000  0.61675600  0.63369700  1
  Zr  Zr8  1  0.89953500  0.05193600  0.20890500  1
  Zr  Zr9  1  0.10046500  0.94806400  0.79109500  1
  Zr  Zr10  1  0.93804000  0.66186400  0.05305700  1
  Zr  Zr11  1  0.06196000  0.33813600  0.94694300  1
  Zr  Zr12  1  0.66549000  0.12293400  0.63072400  1
  Zr  Zr13  1  0.33451000  0.87706600  0.36927600  1
  F  F14  1  0.83000500  0.24696400  0.78645400  1
  F  F15  1  0.16999500  0.75303600  0.21354600  1
  F  F16  1  0.63794800  0.45104600  0.28774100  1
  F  F17  1  0.33482200  0.40838800  0.86825000  1
  F  F18  1  0.66517800  0.59161200  0.13175000  1
  F  F19  1  0.29916100  0.32284600  0.06297600  1
  F  F20  1  0.70083900  0.67715400  0.93702400  1
  F  F21  1  0.36205200  0.54895400  0.71225900  1
  F  F22  1  0.37385400  0.07029500  0.49485900  1
  F  F23  1  0.62614600  0.92970500  0.50514100  1
  F  F24  1  0.50740500  0.27550800  0.65304200  1
  F  F25  1  0.49259500  0.72449200  0.34695800  1
  F  F26  1  0.87146300  0.57083700  0.48682300  1
  F  F27  1  0.12853700  0.42916300  0.51317700  1
  F  F28  1  0.66027200  0.00175600  0.07357000  1
  F  F29  1  0.33972800  0.99824400  0.92643000  1
  F  F30  1  0.96540300  0.78251300  0.64426600  1
  F  F31  1  0.03459700  0.21748700  0.35573400  1
  F  F32  1  0.24389600  0.74643900  0.99781500  1
  F  F33  1  0.75610400  0.25356100  0.00218500  1
  F  F34  1  0.14846400  0.45873400  0.29652100  1
  F  F35  1  0.85153600  0.54126600  0.70347900  1
  F  F36  1  0.87339500  0.48035700  0.91727400  1
  F  F37  1  0.12660500  0.51964300  0.08272600  1
  F  F38  1  0.41464700  0.69869000  0.56034300  1
  F  F39  1  0.58535300  0.30131000  0.43965700  1
  F  F40  1  0.61209400  0.98109700  0.29655200  1
  F  F41  1  0.38790600  0.01890300  0.70344800  1
  F  F42  1  0.73425200  0.21639600  0.21845500  1
  F  F43  1  0.26574800  0.78360400  0.78154500  1
  F  F44  1  0.11898000  0.98721900  0.31045900  1
  F  F45  1  0.88102000  0.01278100  0.68954100  1
  F  F46  1  0.20064500  0.11117200  0.14418700  1
  F  F47  1  0.79935500  0.88882800  0.85581300  1
  F  F48  1  0.95513500  0.19052400  0.56244800  1
  F  F49  1  0.04486500  0.80947600  0.43755200  1
  F  F50  1  0.12406500  0.14837500  0.87485400  1
  F  F51  1  0.87593500  0.85162500  0.12514600  1
