# generated using pymatgen
data_BaHClO
_symmetry_space_group_name_H-M   'P 1'
_cell_length_a   4.46309200
_cell_length_b   7.48101400
_cell_length_c   9.38150300
_cell_angle_alpha   90.00000000
_cell_angle_beta   90.00000000
_cell_angle_gamma   90.00000000
_symmetry_Int_Tables_number   1
_chemical_formula_structural   BaHClO
_chemical_formula_sum   'Ba4 H4 Cl4 O4'
_cell_volume   313.23387888
_cell_formula_units_Z   4
loop_
 _symmetry_equiv_pos_site_id
 _symmetry_equiv_pos_as_xyz
  1  'x, y, z'
loop_
 _atom_site_type_symbol
 _atom_site_label
 _atom_site_symmetry_multiplicity
 _atom_site_fract_x
 _atom_site_fract_y
 _atom_site_fract_z
 _atom_site_occupancy
  Ba  Ba0  1  0.25000000  0.19094400  0.88778600  1
  Ba  Ba1  1  0.75000000  0.80905600  0.11221400  1
  Ba  Ba2  1  0.25000000  0.69094400  0.61221400  1
  Ba  Ba3  1  0.75000000  0.30905600  0.38778600  1
  H  H4  1  0.75000000  0.28096100  0.06868100  1
  H  H5  1  0.25000000  0.71903900  0.93131900  1
  H  H6  1  0.25000000  0.21903900  0.56868100  1
  H  H7  1  0.75000000  0.78096100  0.43131900  1
  Cl  Cl8  1  0.75000000  0.02000800  0.66420300  1
  Cl  Cl9  1  0.25000000  0.97999200  0.33579700  1
  Cl  Cl10  1  0.25000000  0.47999200  0.16420300  1
  Cl  Cl11  1  0.75000000  0.52000800  0.83579700  1
  O  O12  1  0.75000000  0.15216800  0.05242700  1
  O  O13  1  0.25000000  0.34783200  0.55242700  1
  O  O14  1  0.75000000  0.65216800  0.44757300  1
  O  O15  1  0.25000000  0.84783200  0.94757300  1
