# generated using pymatgen
data_Br
_symmetry_space_group_name_H-M   'P 1'
_cell_length_a   4.73221932
_cell_length_b   4.73221932
_cell_length_c   8.74379600
_cell_angle_alpha   90.00000000
_cell_angle_beta   90.00000000
_cell_angle_gamma   126.51736896
_symmetry_Int_Tables_number   1
_chemical_formula_structural   Br
_chemical_formula_sum   Br4
_cell_volume   157.36604024
_cell_formula_units_Z   4
loop_
 _symmetry_equiv_pos_site_id
 _symmetry_equiv_pos_as_xyz
  1  'x, y, z'
loop_
 _atom_site_type_symbol
 _atom_site_label
 _atom_site_symmetry_multiplicity
 _atom_site_fract_x
 _atom_site_fract_y
 _atom_site_fract_z
 _atom_site_occupancy
  Br  Br0  1  0.64247300  0.64247300  0.11775100  1
  Br  Br1  1  0.35752700  0.35752700  0.88224900  1
  Br  Br2  1  0.85752700  0.85752700  0.61775100  1
  Br  Br3  1  0.14247300  0.14247300  0.38224900  1
