# generated using pymatgen
data_NaSnP
_symmetry_space_group_name_H-M   'P 1'
_cell_length_a   3.92585821
_cell_length_b   3.92585821
_cell_length_c   11.76502700
_cell_angle_alpha   90.00000000
_cell_angle_beta   90.00000000
_cell_angle_gamma   120.00000351
_symmetry_Int_Tables_number   1
_chemical_formula_structural   NaSnP
_chemical_formula_sum   'Na2 Sn2 P2'
_cell_volume   157.03366415
_cell_formula_units_Z   2
loop_
 _symmetry_equiv_pos_site_id
 _symmetry_equiv_pos_as_xyz
  1  'x, y, z'
loop_
 _atom_site_type_symbol
 _atom_site_label
 _atom_site_symmetry_multiplicity
 _atom_site_fract_x
 _atom_site_fract_y
 _atom_site_fract_z
 _atom_site_occupancy
  Na  Na0  1  0.33333300  0.66666700  0.27754500  1
  Na  Na1  1  0.66666700  0.33333300  0.77754500  1
  Sn  Sn2  1  0.00000000  0.00000000  0.00015800  1
  Sn  Sn3  1  0.00000000  0.00000000  0.50015800  1
  P  P4  1  0.33333300  0.66666700  0.61309700  1
  P  P5  1  0.66666700  0.33333300  0.11309700  1
