# generated using pymatgen
data_H4CN2O
_symmetry_space_group_name_H-M   'P 1'
_cell_length_a   5.64448800
_cell_length_b   5.64448800
_cell_length_c   4.70584400
_cell_angle_alpha   90.00000000
_cell_angle_beta   90.00000000
_cell_angle_gamma   90.00000000
_symmetry_Int_Tables_number   1
_chemical_formula_structural   H4CN2O
_chemical_formula_sum   'H8 C2 N4 O2'
_cell_volume   149.92934175
_cell_formula_units_Z   2
loop_
 _symmetry_equiv_pos_site_id
 _symmetry_equiv_pos_as_xyz
  1  'x, y, z'
loop_
 _atom_site_type_symbol
 _atom_site_label
 _atom_site_symmetry_multiplicity
 _atom_site_fract_x
 _atom_site_fract_y
 _atom_site_fract_z
 _atom_site_occupancy
  H  H0  1  0.85724300  0.64275700  0.96153500  1
  H  H1  1  0.35724300  0.85724300  0.03846500  1
  H  H2  1  0.64275700  0.14275700  0.03846500  1
  H  H3  1  0.14275700  0.35724300  0.96153500  1
  H  H4  1  0.25681000  0.24319000  0.28179600  1
  H  H5  1  0.24319000  0.74319000  0.71820400  1
  H  H6  1  0.75681000  0.25681000  0.71820400  1
  H  H7  1  0.74319000  0.75681000  0.28179600  1
  C  C8  1  0.50000000  0.00000000  0.67264800  1
  C  C9  1  0.00000000  0.50000000  0.32735200  1
  N  N10  1  0.35538600  0.85538600  0.82194700  1
  N  N11  1  0.14461400  0.35538600  0.17805300  1
  N  N12  1  0.64461400  0.14461400  0.82194700  1
  N  N13  1  0.85538600  0.64461400  0.17805300  1
  O  O14  1  0.00000000  0.50000000  0.59872300  1
  O  O15  1  0.50000000  0.00000000  0.40127700  1
