# generated using pymatgen
data_YbIn2Pd
_symmetry_space_group_name_H-M   'P 1'
_cell_length_a   5.59470073
_cell_length_b   5.59470113
_cell_length_c   7.95835300
_cell_angle_alpha   90.00000000
_cell_angle_beta   90.00000000
_cell_angle_gamma   132.72738316
_symmetry_Int_Tables_number   1
_chemical_formula_structural   YbIn2Pd
_chemical_formula_sum   'Yb2 In4 Pd2'
_cell_volume   182.98782682
_cell_formula_units_Z   2
loop_
 _symmetry_equiv_pos_site_id
 _symmetry_equiv_pos_as_xyz
  1  'x, y, z'
loop_
 _atom_site_type_symbol
 _atom_site_label
 _atom_site_symmetry_multiplicity
 _atom_site_fract_x
 _atom_site_fract_y
 _atom_site_fract_z
 _atom_site_occupancy
  Yb  Yb0  1  0.06667300  0.93332700  0.25000000  1
  Yb  Yb1  1  0.93332700  0.06667300  0.75000000  1
  In  In2  1  0.64355700  0.35644300  0.55285000  1
  In  In3  1  0.35644300  0.64355700  0.44715000  1
  In  In4  1  0.64355700  0.35644300  0.94715000  1
  In  In5  1  0.35644300  0.64355700  0.05285000  1
  Pd  Pd6  1  0.21729400  0.78270600  0.75000000  1
  Pd  Pd7  1  0.78270600  0.21729400  0.25000000  1
