# generated using pymatgen
data_LaIn2
_symmetry_space_group_name_H-M   'P 1'
_cell_length_a   6.47837417
_cell_length_b   6.47837417
_cell_length_c   6.47837417
_cell_angle_alpha   135.81898626
_cell_angle_beta   107.37060670
_cell_angle_gamma   89.10083142
_symmetry_Int_Tables_number   1
_chemical_formula_structural   LaIn2
_chemical_formula_sum   'La2 In4'
_cell_volume   172.61431181
_cell_formula_units_Z   2
loop_
 _symmetry_equiv_pos_site_id
 _symmetry_equiv_pos_as_xyz
  1  'x, y, z'
loop_
 _atom_site_type_symbol
 _atom_site_label
 _atom_site_symmetry_multiplicity
 _atom_site_fract_x
 _atom_site_fract_y
 _atom_site_fract_z
 _atom_site_occupancy
  La  La0  1  0.69955900  0.44955900  0.25000000  1
  La  La1  1  0.30044100  0.55044100  0.75000000  1
  In  In2  1  0.70764500  0.16134200  0.54630200  1
  In  In3  1  0.29235500  0.83865800  0.45369800  1
  In  In4  1  0.11504000  0.16134200  0.95369800  1
  In  In5  1  0.88496000  0.83865800  0.04630200  1
