# generated using pymatgen
data_Ba2Bi2O5
_symmetry_space_group_name_H-M   'P 1'
_cell_length_a   7.59682600
_cell_length_b   6.29630400
_cell_length_c   7.60207088
_cell_angle_alpha   79.59995661
_cell_angle_beta   90.00000000
_cell_angle_gamma   90.00000000
_symmetry_Int_Tables_number   1
_chemical_formula_structural   Ba2Bi2O5
_chemical_formula_sum   'Ba4 Bi4 O10'
_cell_volume   357.64787210
_cell_formula_units_Z   2
loop_
 _symmetry_equiv_pos_site_id
 _symmetry_equiv_pos_as_xyz
  1  'x, y, z'
loop_
 _atom_site_type_symbol
 _atom_site_label
 _atom_site_symmetry_multiplicity
 _atom_site_fract_x
 _atom_site_fract_y
 _atom_site_fract_z
 _atom_site_occupancy
  Ba  Ba0  1  0.92713000  0.22041100  0.13666200  1
  Ba  Ba1  1  0.42713000  0.27958900  0.86333800  1
  Ba  Ba2  1  0.07287000  0.77958900  0.86333800  1
  Ba  Ba3  1  0.57287000  0.72041100  0.13666200  1
  Bi  Bi4  1  0.88220200  0.26961000  0.63201000  1
  Bi  Bi5  1  0.38220200  0.23039000  0.36799000  1
  Bi  Bi6  1  0.11779800  0.73039000  0.36799000  1
  Bi  Bi7  1  0.61779800  0.76961000  0.63201000  1
  O  O8  1  0.77607400  0.53915800  0.80271400  1
  O  O9  1  0.27607400  0.96084200  0.19728600  1
  O  O10  1  0.22392600  0.46084200  0.19728600  1
  O  O11  1  0.72392600  0.03915800  0.80271400  1
  O  O12  1  0.58824300  0.26856200  0.17997300  1
  O  O13  1  0.08824300  0.23143800  0.82002700  1
  O  O14  1  0.41175700  0.73143800  0.82002700  1
  O  O15  1  0.91175700  0.76856200  0.17997300  1
  O  O16  1  0.00000000  0.00000000  0.50000000  1
  O  O17  1  0.50000000  0.50000000  0.50000000  1
