# generated using pymatgen
data_Ga2TeS2
_symmetry_space_group_name_H-M   'P 1'
_cell_length_a   7.26434882
_cell_length_b   7.26434882
_cell_length_c   7.26434882
_cell_angle_alpha   120.41914466
_cell_angle_beta   120.41914466
_cell_angle_gamma   89.27554044
_symmetry_Int_Tables_number   1
_chemical_formula_structural   Ga2TeS2
_chemical_formula_sum   'Ga4 Te2 S4'
_cell_volume   269.32537258
_cell_formula_units_Z   2
loop_
 _symmetry_equiv_pos_site_id
 _symmetry_equiv_pos_as_xyz
  1  'x, y, z'
loop_
 _atom_site_type_symbol
 _atom_site_label
 _atom_site_symmetry_multiplicity
 _atom_site_fract_x
 _atom_site_fract_y
 _atom_site_fract_z
 _atom_site_occupancy
  Ga  Ga0  1  0.16072800  0.88282600  0.72209800  1
  Ga  Ga1  1  0.18863000  0.41072800  0.77790200  1
  Ga  Ga2  1  0.16072800  0.43863000  0.27790200  1
  Ga  Ga3  1  0.63282600  0.41072800  0.22209800  1
  Te  Te4  1  0.75255900  0.25255900  0.50000000  1
  Te  Te5  1  0.00255900  0.00255900  0.00000000  1
  S  S6  1  0.37300700  0.63379200  0.73921400  1
  S  S7  1  0.38379200  0.14457800  0.76078600  1
  S  S8  1  0.38379200  0.62300700  0.23921400  1
  S  S9  1  0.89457800  0.63379200  0.26078600  1
