# generated using pymatgen
data_Ca4GeN4
_symmetry_space_group_name_H-M   'P 1'
_cell_length_a   6.07214400
_cell_length_b   9.30557800
_cell_length_c   11.21541495
_cell_angle_alpha   63.58692712
_cell_angle_beta   90.00000000
_cell_angle_gamma   90.00000000
_symmetry_Int_Tables_number   1
_chemical_formula_structural   Ca4GeN4
_chemical_formula_sum   'Ca16 Ge4 N16'
_cell_volume   567.57052740
_cell_formula_units_Z   4
loop_
 _symmetry_equiv_pos_site_id
 _symmetry_equiv_pos_as_xyz
  1  'x, y, z'
loop_
 _atom_site_type_symbol
 _atom_site_label
 _atom_site_symmetry_multiplicity
 _atom_site_fract_x
 _atom_site_fract_y
 _atom_site_fract_z
 _atom_site_occupancy
  Ca  Ca0  1  0.58354700  0.65496700  0.84597100  1
  Ca  Ca1  1  0.08354700  0.34503300  0.65402900  1
  Ca  Ca2  1  0.41645300  0.34503300  0.15402900  1
  Ca  Ca3  1  0.91645300  0.65496700  0.34597100  1
  Ca  Ca4  1  0.07626000  0.45352900  0.87909500  1
  Ca  Ca5  1  0.57626000  0.54647100  0.62090500  1
  Ca  Ca6  1  0.84323700  0.14523200  0.23094900  1
  Ca  Ca7  1  0.34323700  0.85476800  0.26905100  1
  Ca  Ca8  1  0.15676300  0.85476800  0.76905100  1
  Ca  Ca9  1  0.65676300  0.14523200  0.73094900  1
  Ca  Ca10  1  0.25559800  0.07861200  0.45567800  1
  Ca  Ca11  1  0.75559800  0.92138800  0.04432200  1
  Ca  Ca12  1  0.74440200  0.92138800  0.54432200  1
  Ca  Ca13  1  0.24440200  0.07861200  0.95567800  1
  Ca  Ca14  1  0.92374000  0.54647100  0.12090500  1
  Ca  Ca15  1  0.42374000  0.45352900  0.37909500  1
  Ge  Ge16  1  0.85881600  0.26942200  0.44703500  1
  Ge  Ge17  1  0.35881600  0.73057800  0.05296500  1
  Ge  Ge18  1  0.14118400  0.73057800  0.55296500  1
  Ge  Ge19  1  0.64118400  0.26942200  0.94703500  1
  N  N20  1  0.74689200  0.41159500  0.01448000  1
  N  N21  1  0.24689200  0.58840500  0.48552000  1
  N  N22  1  0.25310800  0.58840500  0.98552000  1
  N  N23  1  0.75310800  0.41159500  0.51448000  1
  N  N24  1  0.91459900  0.66374300  0.68645400  1
  N  N25  1  0.41459900  0.33625700  0.81354600  1
  N  N26  1  0.61145400  0.19734100  0.38307200  1
  N  N27  1  0.11145400  0.80265900  0.11692800  1
  N  N28  1  0.38854600  0.80265900  0.61692800  1
  N  N29  1  0.88854600  0.19734100  0.88307200  1
  N  N30  1  0.51958100  0.09555300  0.10994400  1
  N  N31  1  0.01958100  0.90444700  0.39005600  1
  N  N32  1  0.48041900  0.90444700  0.89005600  1
  N  N33  1  0.98041900  0.09555300  0.60994400  1
  N  N34  1  0.08540100  0.33625700  0.31354600  1
  N  N35  1  0.58540100  0.66374300  0.18645400  1
