# generated using pymatgen
data_Yb5Ge4
_symmetry_space_group_name_H-M   'P 1'
_cell_length_a   7.49618800
_cell_length_b   7.86745600
_cell_length_c   15.51623600
_cell_angle_alpha   90.00000000
_cell_angle_beta   90.00000000
_cell_angle_gamma   90.00000000
_symmetry_Int_Tables_number   1
_chemical_formula_structural   Yb5Ge4
_chemical_formula_sum   'Yb20 Ge16'
_cell_volume   915.08443668
_cell_formula_units_Z   4
loop_
 _symmetry_equiv_pos_site_id
 _symmetry_equiv_pos_as_xyz
  1  'x, y, z'
loop_
 _atom_site_type_symbol
 _atom_site_label
 _atom_site_symmetry_multiplicity
 _atom_site_fract_x
 _atom_site_fract_y
 _atom_site_fract_z
 _atom_site_occupancy
  Yb  Yb0  1  0.32168800  0.17684200  0.12231800  1
  Yb  Yb1  1  0.82168800  0.32315800  0.37768200  1
  Yb  Yb2  1  0.17831200  0.67684200  0.87768200  1
  Yb  Yb3  1  0.67831200  0.82315800  0.62231800  1
  Yb  Yb4  1  0.32168800  0.17684200  0.37768200  1
  Yb  Yb5  1  0.82168800  0.32315800  0.12231800  1
  Yb  Yb6  1  0.17831200  0.67684200  0.62231800  1
  Yb  Yb7  1  0.67831200  0.82315800  0.87768200  1
  Yb  Yb8  1  0.97806400  0.82089900  0.40246900  1
  Yb  Yb9  1  0.47806400  0.67910100  0.09753100  1
  Yb  Yb10  1  0.52193600  0.32089900  0.59753100  1
  Yb  Yb11  1  0.02193600  0.17910100  0.90246900  1
  Yb  Yb12  1  0.02193600  0.17910100  0.59753100  1
  Yb  Yb13  1  0.52193600  0.32089900  0.90246900  1
  Yb  Yb14  1  0.47806400  0.67910100  0.40246900  1
  Yb  Yb15  1  0.97806400  0.82089900  0.09753100  1
  Yb  Yb16  1  0.35110900  0.00837400  0.75000000  1
  Yb  Yb17  1  0.85110900  0.49162600  0.75000000  1
  Yb  Yb18  1  0.14889100  0.50837400  0.25000000  1
  Yb  Yb19  1  0.64889100  0.99162600  0.25000000  1
  Ge  Ge20  1  0.85018800  0.52595100  0.53821700  1
  Ge  Ge21  1  0.35018800  0.97404900  0.96178300  1
  Ge  Ge22  1  0.64981200  0.02595100  0.46178300  1
  Ge  Ge23  1  0.14981200  0.47404900  0.03821700  1
  Ge  Ge24  1  0.14981200  0.47404900  0.46178300  1
  Ge  Ge25  1  0.64981200  0.02595100  0.03821700  1
  Ge  Ge26  1  0.35018800  0.97404900  0.53821700  1
  Ge  Ge27  1  0.85018800  0.52595100  0.96178300  1
  Ge  Ge28  1  0.97189200  0.89764300  0.75000000  1
  Ge  Ge29  1  0.47189200  0.60235700  0.75000000  1
  Ge  Ge30  1  0.52810800  0.39764300  0.25000000  1
  Ge  Ge31  1  0.02810800  0.10235700  0.25000000  1
  Ge  Ge32  1  0.23896000  0.37242400  0.75000000  1
  Ge  Ge33  1  0.73896000  0.12757600  0.75000000  1
  Ge  Ge34  1  0.26104000  0.87242400  0.25000000  1
  Ge  Ge35  1  0.76104000  0.62757600  0.25000000  1
