# generated using pymatgen
data_NaTe3
_symmetry_space_group_name_H-M   'P 1'
_cell_length_a   9.13363394
_cell_length_b   9.13363394
_cell_length_c   22.19016700
_cell_angle_alpha   90.00000000
_cell_angle_beta   90.00000000
_cell_angle_gamma   119.99999954
_symmetry_Int_Tables_number   1
_chemical_formula_structural   NaTe3
_chemical_formula_sum   'Na12 Te36'
_cell_volume   1603.16568272
_cell_formula_units_Z   12
loop_
 _symmetry_equiv_pos_site_id
 _symmetry_equiv_pos_as_xyz
  1  'x, y, z'
loop_
 _atom_site_type_symbol
 _atom_site_label
 _atom_site_symmetry_multiplicity
 _atom_site_fract_x
 _atom_site_fract_y
 _atom_site_fract_z
 _atom_site_occupancy
  Na  Na0  1  0.00000000  0.00000000  0.12361100  1
  Na  Na1  1  0.00000000  0.00000000  0.37638900  1
  Na  Na2  1  0.00000000  0.00000000  0.87638900  1
  Na  Na3  1  0.00000000  0.00000000  0.62361100  1
  Na  Na4  1  0.33333300  0.66666700  0.95894400  1
  Na  Na5  1  0.66666700  0.33333300  0.54105600  1
  Na  Na6  1  0.66666700  0.33333300  0.04105600  1
  Na  Na7  1  0.33333300  0.66666700  0.45894400  1
  Na  Na8  1  0.33333300  0.66666700  0.20676800  1
  Na  Na9  1  0.66666700  0.33333300  0.29323200  1
  Na  Na10  1  0.66666700  0.33333300  0.79323200  1
  Na  Na11  1  0.33333300  0.66666700  0.70676800  1
  Te  Te12  1  0.79475100  0.66237200  0.20668500  1
  Te  Te13  1  0.33762800  0.13237900  0.20668500  1
  Te  Te14  1  0.86762100  0.20524900  0.20668500  1
  Te  Te15  1  0.13237900  0.33762800  0.29331500  1
  Te  Te16  1  0.20524900  0.86762100  0.29331500  1
  Te  Te17  1  0.66237200  0.79475100  0.29331500  1
  Te  Te18  1  0.20524900  0.33762800  0.79331500  1
  Te  Te19  1  0.66237200  0.86762100  0.79331500  1
  Te  Te20  1  0.13237900  0.79475100  0.79331500  1
  Te  Te21  1  0.86762100  0.66237200  0.70668500  1
  Te  Te22  1  0.79475100  0.13237900  0.70668500  1
  Te  Te23  1  0.33762800  0.20524900  0.70668500  1
  Te  Te24  1  0.67098300  0.84041100  0.54040900  1
  Te  Te25  1  0.15958900  0.83057200  0.54040900  1
  Te  Te26  1  0.16942800  0.32901700  0.54040900  1
  Te  Te27  1  0.83057200  0.15958900  0.95959100  1
  Te  Te28  1  0.32901700  0.16942800  0.95959100  1
  Te  Te29  1  0.84041100  0.67098300  0.95959100  1
  Te  Te30  1  0.32901700  0.15958900  0.45959100  1
  Te  Te31  1  0.84041100  0.16942800  0.45959100  1
  Te  Te32  1  0.83057200  0.67098300  0.45959100  1
  Te  Te33  1  0.16942800  0.84041100  0.04040900  1
  Te  Te34  1  0.67098300  0.83057200  0.04040900  1
  Te  Te35  1  0.15958900  0.32901700  0.04040900  1
  Te  Te36  1  0.00823500  0.52758100  0.62145600  1
  Te  Te37  1  0.47241900  0.48065400  0.62145600  1
  Te  Te38  1  0.51934600  0.99176500  0.62145600  1
  Te  Te39  1  0.48065400  0.47241900  0.87854400  1
  Te  Te40  1  0.99176500  0.51934600  0.87854400  1
  Te  Te41  1  0.52758100  0.00823500  0.87854400  1
  Te  Te42  1  0.99176500  0.47241900  0.37854400  1
  Te  Te43  1  0.52758100  0.51934600  0.37854400  1
  Te  Te44  1  0.48065400  0.00823500  0.37854400  1
  Te  Te45  1  0.51934600  0.52758100  0.12145600  1
  Te  Te46  1  0.00823500  0.48065400  0.12145600  1
  Te  Te47  1  0.47241900  0.99176500  0.12145600  1
