# generated using pymatgen
data_Na6S2ClO8F
_symmetry_space_group_name_H-M   'P 1'
_cell_length_a   7.21007511
_cell_length_b   7.21007511
_cell_length_c   7.21007511
_cell_angle_alpha   60.00000000
_cell_angle_beta   60.00000000
_cell_angle_gamma   60.00000000
_symmetry_Int_Tables_number   1
_chemical_formula_structural   Na6S2ClO8F
_chemical_formula_sum   'Na6 S2 Cl1 O8 F1'
_cell_volume   265.03569473
_cell_formula_units_Z   1
loop_
 _symmetry_equiv_pos_site_id
 _symmetry_equiv_pos_as_xyz
  1  'x, y, z'
loop_
 _atom_site_type_symbol
 _atom_site_label
 _atom_site_symmetry_multiplicity
 _atom_site_fract_x
 _atom_site_fract_y
 _atom_site_fract_z
 _atom_site_occupancy
  Na  Na0  1  0.77696500  0.22303500  0.22303500  1
  Na  Na1  1  0.22303500  0.77696500  0.22303500  1
  Na  Na2  1  0.22303500  0.22303500  0.77696500  1
  Na  Na3  1  0.22303500  0.77696500  0.77696500  1
  Na  Na4  1  0.77696500  0.77696500  0.22303500  1
  Na  Na5  1  0.77696500  0.22303500  0.77696500  1
  S  S6  1  0.75000000  0.75000000  0.75000000  1
  S  S7  1  0.25000000  0.25000000  0.25000000  1
  Cl  Cl8  1  0.50000000  0.50000000  0.50000000  1
  O  O9  1  0.16535200  0.50394400  0.16535200  1
  O  O10  1  0.83464800  0.83464800  0.49605600  1
  O  O11  1  0.83464800  0.83464800  0.83464800  1
  O  O12  1  0.49605600  0.83464800  0.83464800  1
  O  O13  1  0.16535200  0.16535200  0.16535200  1
  O  O14  1  0.50394400  0.16535200  0.16535200  1
  O  O15  1  0.16535200  0.16535200  0.50394400  1
  O  O16  1  0.83464800  0.49605600  0.83464800  1
  F  F17  1  0.00000000  0.00000000  0.00000000  1
