# generated using pymatgen
data_TiF4
_symmetry_space_group_name_H-M   'P 1'
_cell_length_a   3.91322100
_cell_length_b   9.86683200
_cell_length_c   23.59772500
_cell_angle_alpha   90.00000000
_cell_angle_beta   90.00000000
_cell_angle_gamma   90.00000000
_symmetry_Int_Tables_number   1
_chemical_formula_structural   TiF4
_chemical_formula_sum   'Ti12 F48'
_cell_volume   911.13398255
_cell_formula_units_Z   12
loop_
 _symmetry_equiv_pos_site_id
 _symmetry_equiv_pos_as_xyz
  1  'x, y, z'
loop_
 _atom_site_type_symbol
 _atom_site_label
 _atom_site_symmetry_multiplicity
 _atom_site_fract_x
 _atom_site_fract_y
 _atom_site_fract_z
 _atom_site_occupancy
  Ti  Ti0  1  0.25000000  0.65237000  0.57675500  1
  Ti  Ti1  1  0.75000000  0.34763000  0.42324500  1
  Ti  Ti2  1  0.75000000  0.15237000  0.92324500  1
  Ti  Ti3  1  0.25000000  0.84763000  0.07675500  1
  Ti  Ti4  1  0.25000000  0.45152800  0.09906400  1
  Ti  Ti5  1  0.75000000  0.54847200  0.90093600  1
  Ti  Ti6  1  0.75000000  0.95152800  0.40093600  1
  Ti  Ti7  1  0.25000000  0.04847200  0.59906400  1
  Ti  Ti8  1  0.25000000  0.80500700  0.73135700  1
  Ti  Ti9  1  0.75000000  0.19499300  0.26864300  1
  Ti  Ti10  1  0.75000000  0.30500700  0.76864300  1
  Ti  Ti11  1  0.25000000  0.69499300  0.23135700  1
  F  F12  1  0.25000000  0.64374800  0.07254300  1
  F  F13  1  0.75000000  0.35625200  0.92745700  1
  F  F14  1  0.75000000  0.14374800  0.42745700  1
  F  F15  1  0.25000000  0.85625200  0.57254300  1
  F  F16  1  0.25000000  0.64306100  0.50200000  1
  F  F17  1  0.75000000  0.35693900  0.49800000  1
  F  F18  1  0.75000000  0.14306100  0.99800000  1
  F  F19  1  0.25000000  0.85693900  0.00200000  1
  F  F20  1  0.25000000  0.92279400  0.78753000  1
  F  F21  1  0.75000000  0.07720600  0.21247000  1
  F  F22  1  0.75000000  0.42279400  0.71247000  1
  F  F23  1  0.25000000  0.57720600  0.28753000  1
  F  F24  1  0.25000000  0.30688100  0.77560800  1
  F  F25  1  0.75000000  0.69311900  0.22439200  1
  F  F26  1  0.75000000  0.80688100  0.72439200  1
  F  F27  1  0.25000000  0.19311900  0.27560800  1
  F  F28  1  0.25000000  0.33327700  0.41893500  1
  F  F29  1  0.75000000  0.66672300  0.58106500  1
  F  F30  1  0.75000000  0.83327700  0.08106500  1
  F  F31  1  0.25000000  0.16672300  0.91893500  1
  F  F32  1  0.25000000  0.10676400  0.52831300  1
  F  F33  1  0.75000000  0.89323600  0.47168700  1
  F  F34  1  0.75000000  0.60676400  0.97168700  1
  F  F35  1  0.25000000  0.39323600  0.02831300  1
  F  F36  1  0.25000000  0.02175800  0.09232300  1
  F  F37  1  0.75000000  0.97824200  0.90767700  1
  F  F38  1  0.75000000  0.52175800  0.40767700  1
  F  F39  1  0.25000000  0.47824200  0.59232300  1
  F  F40  1  0.25000000  0.80552700  0.15979200  1
  F  F41  1  0.75000000  0.19447300  0.84020800  1
  F  F42  1  0.75000000  0.30552700  0.34020800  1
  F  F43  1  0.25000000  0.69447300  0.65979200  1
  F  F44  1  0.25000000  0.96713500  0.39849300  1
  F  F45  1  0.75000000  0.03286500  0.60150700  1
  F  F46  1  0.75000000  0.46713500  0.10150700  1
  F  F47  1  0.25000000  0.53286500  0.89849300  1
  F  F48  1  0.25000000  0.84785100  0.27036600  1
  F  F49  1  0.75000000  0.15214900  0.72963400  1
  F  F50  1  0.75000000  0.34785100  0.22963400  1
  F  F51  1  0.25000000  0.65214900  0.77036600  1
  F  F52  1  0.25000000  0.20567500  0.63444100  1
  F  F53  1  0.75000000  0.79432500  0.36555900  1
  F  F54  1  0.75000000  0.70567500  0.86555900  1
  F  F55  1  0.25000000  0.29432500  0.13444100  1
  F  F56  1  0.25000000  0.54534600  0.17469000  1
  F  F57  1  0.75000000  0.45465400  0.82531000  1
  F  F58  1  0.75000000  0.04534600  0.32531000  1
  F  F59  1  0.25000000  0.95465400  0.67469000  1
