# generated using pymatgen
data_Ga2P3(HO3)3
_symmetry_space_group_name_H-M   'P 1'
_cell_length_a   8.06471469
_cell_length_b   8.06471469
_cell_length_c   7.36137700
_cell_angle_alpha   90.00000000
_cell_angle_beta   90.00000000
_cell_angle_gamma   120.00000570
_symmetry_Int_Tables_number   1
_chemical_formula_structural   Ga2P3(HO3)3
_chemical_formula_sum   'Ga4 P6 H6 O18'
_cell_volume   414.63664577
_cell_formula_units_Z   2
loop_
 _symmetry_equiv_pos_site_id
 _symmetry_equiv_pos_as_xyz
  1  'x, y, z'
loop_
 _atom_site_type_symbol
 _atom_site_label
 _atom_site_symmetry_multiplicity
 _atom_site_fract_x
 _atom_site_fract_y
 _atom_site_fract_z
 _atom_site_occupancy
  Ga  Ga0  1  0.33333300  0.66666700  0.54938600  1
  Ga  Ga1  1  0.66666700  0.33333300  0.04938600  1
  Ga  Ga2  1  0.66666700  0.33333300  0.45061400  1
  Ga  Ga3  1  0.33333300  0.66666700  0.95061400  1
  P  P4  1  0.95199400  0.31056900  0.75000000  1
  P  P5  1  0.64142400  0.95199400  0.25000000  1
  P  P6  1  0.31056900  0.35857600  0.25000000  1
  P  P7  1  0.68943100  0.64142400  0.75000000  1
  P  P8  1  0.35857600  0.04800600  0.75000000  1
  P  P9  1  0.04800600  0.68943100  0.25000000  1
  H  H10  1  0.81823900  0.83925000  0.75000000  1
  H  H11  1  0.97898900  0.81823900  0.25000000  1
  H  H12  1  0.83925000  0.02101100  0.25000000  1
  H  H13  1  0.16075000  0.97898900  0.75000000  1
  H  H14  1  0.02101100  0.18176100  0.75000000  1
  H  H15  1  0.18176100  0.16075000  0.25000000  1
  O  O16  1  0.13072600  0.51731500  0.75000000  1
  O  O17  1  0.61341100  0.13072600  0.25000000  1
  O  O18  1  0.51731500  0.38658900  0.25000000  1
  O  O19  1  0.48268500  0.61341100  0.75000000  1
  O  O20  1  0.16287500  0.72904700  0.07467900  1
  O  O21  1  0.43382800  0.16287500  0.57467900  1
  O  O22  1  0.72904700  0.56617200  0.57467900  1
  O  O23  1  0.27095300  0.43382800  0.07467900  1
  O  O24  1  0.56617200  0.83712500  0.07467900  1
  O  O25  1  0.83712500  0.27095300  0.57467900  1
  O  O26  1  0.83712500  0.27095300  0.92532100  1
  O  O27  1  0.56617200  0.83712500  0.42532100  1
  O  O28  1  0.27095300  0.43382800  0.42532100  1
  O  O29  1  0.72904700  0.56617200  0.92532100  1
  O  O30  1  0.43382800  0.16287500  0.92532100  1
  O  O31  1  0.16287500  0.72904700  0.42532100  1
  O  O32  1  0.86927400  0.48268500  0.25000000  1
  O  O33  1  0.38658900  0.86927400  0.75000000  1
