# generated using pymatgen
data_Cs2HgI4
_symmetry_space_group_name_H-M   'P 1'
_cell_length_a   8.61498600
_cell_length_b   8.14143200
_cell_length_c   11.28658528
_cell_angle_alpha   69.96286877
_cell_angle_beta   90.00000000
_cell_angle_gamma   90.00000000
_symmetry_Int_Tables_number   1
_chemical_formula_structural   Cs2HgI4
_chemical_formula_sum   'Cs4 Hg2 I8'
_cell_volume   743.70588327
_cell_formula_units_Z   2
loop_
 _symmetry_equiv_pos_site_id
 _symmetry_equiv_pos_as_xyz
  1  'x, y, z'
loop_
 _atom_site_type_symbol
 _atom_site_label
 _atom_site_symmetry_multiplicity
 _atom_site_fract_x
 _atom_site_fract_y
 _atom_site_fract_z
 _atom_site_occupancy
  Cs  Cs0  1  0.75000000  0.80227500  0.53489200  1
  Cs  Cs1  1  0.25000000  0.29979200  0.90969700  1
  Cs  Cs2  1  0.25000000  0.19772500  0.46510800  1
  Cs  Cs3  1  0.75000000  0.70020800  0.09030300  1
  Hg  Hg4  1  0.75000000  0.18485800  0.72347800  1
  Hg  Hg5  1  0.25000000  0.81514200  0.27652200  1
  I  I6  1  0.98633100  0.03951500  0.21483400  1
  I  I7  1  0.75000000  0.42470300  0.85520200  1
  I  I8  1  0.25000000  0.64392400  0.54654900  1
  I  I9  1  0.75000000  0.35607600  0.45345100  1
  I  I10  1  0.51366900  0.03951500  0.21483400  1
  I  I11  1  0.25000000  0.57529700  0.14479800  1
  I  I12  1  0.48633100  0.96048500  0.78516600  1
  I  I13  1  0.01366900  0.96048500  0.78516600  1
