# generated using pymatgen
data_CoBiPO5
_symmetry_space_group_name_H-M   'P 1'
_cell_length_a   11.41856800
_cell_length_b   5.30407000
_cell_length_c   7.64591574
_cell_angle_alpha   66.64773580
_cell_angle_beta   90.00000000
_cell_angle_gamma   90.00000000
_symmetry_Int_Tables_number   1
_chemical_formula_structural   CoBiPO5
_chemical_formula_sum   'Co4 Bi4 P4 O20'
_cell_volume   425.14138066
_cell_formula_units_Z   4
loop_
 _symmetry_equiv_pos_site_id
 _symmetry_equiv_pos_as_xyz
  1  'x, y, z'
loop_
 _atom_site_type_symbol
 _atom_site_label
 _atom_site_symmetry_multiplicity
 _atom_site_fract_x
 _atom_site_fract_y
 _atom_site_fract_z
 _atom_site_occupancy
  Co  Co0  1  0.58195000  0.44314600  0.68256100  1
  Co  Co1  1  0.08195000  0.55685400  0.81743900  1
  Co  Co2  1  0.41805000  0.55685400  0.31743900  1
  Co  Co3  1  0.91805000  0.44314600  0.18256100  1
  Bi  Bi4  1  0.60021900  0.07151000  0.31053300  1
  Bi  Bi5  1  0.10021900  0.92849000  0.18946700  1
  Bi  Bi6  1  0.39978100  0.92849000  0.68946700  1
  Bi  Bi7  1  0.89978100  0.07151000  0.81053300  1
  P  P8  1  0.84868100  0.81549200  0.47272300  1
  P  P9  1  0.34868100  0.18450800  0.02727700  1
  P  P10  1  0.15131900  0.18450800  0.52727700  1
  P  P11  1  0.65131900  0.81549200  0.97272300  1
  O  O12  1  0.67355600  0.13235400  0.87931300  1
  O  O13  1  0.17355600  0.86764600  0.62068700  1
  O  O14  1  0.32644400  0.86764600  0.12068700  1
  O  O15  1  0.82644400  0.13235400  0.37931300  1
  O  O16  1  0.97783400  0.24284800  0.01383100  1
  O  O17  1  0.47783400  0.75715200  0.48616900  1
  O  O18  1  0.02216600  0.75715200  0.98616900  1
  O  O19  1  0.52216600  0.24284800  0.51383100  1
  O  O20  1  0.91720600  0.74072800  0.66237300  1
  O  O21  1  0.41720600  0.25927200  0.83762700  1
  O  O22  1  0.08279400  0.25927200  0.33762700  1
  O  O23  1  0.58279400  0.74072800  0.16237300  1
  O  O24  1  0.08063400  0.28472800  0.66140400  1
  O  O25  1  0.58063400  0.71527200  0.83859600  1
  O  O26  1  0.91936600  0.71527200  0.33859600  1
  O  O27  1  0.41936600  0.28472800  0.16140400  1
  O  O28  1  0.77645700  0.68745600  0.00869200  1
  O  O29  1  0.27645700  0.31254400  0.49130800  1
  O  O30  1  0.22354300  0.31254400  0.99130800  1
  O  O31  1  0.72354300  0.68745600  0.50869200  1
