# generated using pymatgen
data_Sn4P3
_symmetry_space_group_name_H-M   'P 1'
_cell_length_a   12.18490282
_cell_length_b   12.18490282
_cell_length_c   12.18490219
_cell_angle_alpha   18.98199666
_cell_angle_beta   18.98199666
_cell_angle_gamma   18.98199750
_symmetry_Int_Tables_number   1
_chemical_formula_structural   Sn4P3
_chemical_formula_sum   'Sn4 P3'
_cell_volume   167.27883096
_cell_formula_units_Z   1
loop_
 _symmetry_equiv_pos_site_id
 _symmetry_equiv_pos_as_xyz
  1  'x, y, z'
loop_
 _atom_site_type_symbol
 _atom_site_label
 _atom_site_symmetry_multiplicity
 _atom_site_fract_x
 _atom_site_fract_y
 _atom_site_fract_z
 _atom_site_occupancy
  Sn  Sn0  1  0.70990800  0.70990800  0.70990800  1
  Sn  Sn1  1  0.29009200  0.29009200  0.29009200  1
  Sn  Sn2  1  0.86692500  0.86692500  0.86692500  1
  Sn  Sn3  1  0.13307500  0.13307500  0.13307500  1
  P  P4  1  0.00000000  0.00000000  0.00000000  1
  P  P5  1  0.57097200  0.57097200  0.57097200  1
  P  P6  1  0.42902800  0.42902800  0.42902800  1
