# generated using pymatgen
data_Rb2AgI3
_symmetry_space_group_name_H-M   'P 1'
_cell_length_a   4.98677100
_cell_length_b   10.55360700
_cell_length_c   20.38396300
_cell_angle_alpha   90.00000000
_cell_angle_beta   90.00000000
_cell_angle_gamma   90.00000000
_symmetry_Int_Tables_number   1
_chemical_formula_structural   Rb2AgI3
_chemical_formula_sum   'Rb8 Ag4 I12'
_cell_volume   1072.77579320
_cell_formula_units_Z   4
loop_
 _symmetry_equiv_pos_site_id
 _symmetry_equiv_pos_as_xyz
  1  'x, y, z'
loop_
 _atom_site_type_symbol
 _atom_site_label
 _atom_site_symmetry_multiplicity
 _atom_site_fract_x
 _atom_site_fract_y
 _atom_site_fract_z
 _atom_site_occupancy
  Rb  Rb0  1  0.75000000  0.92075900  0.71261800  1
  Rb  Rb1  1  0.25000000  0.07924100  0.28738200  1
  Rb  Rb2  1  0.75000000  0.42075900  0.78738200  1
  Rb  Rb3  1  0.25000000  0.57924100  0.21261800  1
  Rb  Rb4  1  0.75000000  0.24468000  0.04182200  1
  Rb  Rb5  1  0.25000000  0.75532000  0.95817800  1
  Rb  Rb6  1  0.75000000  0.74468000  0.45817800  1
  Rb  Rb7  1  0.25000000  0.25532000  0.54182200  1
  Ag  Ag8  1  0.75000000  0.36227900  0.36409800  1
  Ag  Ag9  1  0.25000000  0.63772100  0.63590200  1
  Ag  Ag10  1  0.75000000  0.86227900  0.13590200  1
  Ag  Ag11  1  0.25000000  0.13772100  0.86409800  1
  I  I12  1  0.75000000  0.31497500  0.22463400  1
  I  I13  1  0.25000000  0.68502500  0.77536600  1
  I  I14  1  0.75000000  0.81497500  0.27536600  1
  I  I15  1  0.25000000  0.18502500  0.72463400  1
  I  I16  1  0.75000000  0.12249900  0.42933500  1
  I  I17  1  0.25000000  0.87750100  0.57066500  1
  I  I18  1  0.75000000  0.62249900  0.07066500  1
  I  I19  1  0.25000000  0.37750100  0.92933500  1
  I  I20  1  0.75000000  0.00563200  0.89704100  1
  I  I21  1  0.25000000  0.99436800  0.10295900  1
  I  I22  1  0.75000000  0.50563200  0.60295900  1
  I  I23  1  0.25000000  0.49436800  0.39704100  1
