# generated using pymatgen
data_LaC2
_symmetry_space_group_name_H-M   'P 1'
_cell_length_a   4.31381491
_cell_length_b   4.31381491
_cell_length_c   4.31381491
_cell_angle_alpha   125.68217346
_cell_angle_beta   125.68217346
_cell_angle_gamma   80.41114003
_symmetry_Int_Tables_number   1
_chemical_formula_structural   LaC2
_chemical_formula_sum   'La1 C2'
_cell_volume   51.09656428
_cell_formula_units_Z   1
loop_
 _symmetry_equiv_pos_site_id
 _symmetry_equiv_pos_as_xyz
  1  'x, y, z'
loop_
 _atom_site_type_symbol
 _atom_site_label
 _atom_site_symmetry_multiplicity
 _atom_site_fract_x
 _atom_site_fract_y
 _atom_site_fract_z
 _atom_site_occupancy
  La  La0  1  0.00000000  0.00000000  0.00000000  1
  C  C1  1  0.59871200  0.59871200  0.00000000  1
  C  C2  1  0.40128800  0.40128800  0.00000000  1
