# generated using pymatgen
data_K3BiTe3
_symmetry_space_group_name_H-M   'P 1'
_cell_length_a   10.53869600
_cell_length_b   10.53869600
_cell_length_c   10.53869600
_cell_angle_alpha   90.00000000
_cell_angle_beta   90.00000000
_cell_angle_gamma   90.00000000
_symmetry_Int_Tables_number   1
_chemical_formula_structural   K3BiTe3
_chemical_formula_sum   'K12 Bi4 Te12'
_cell_volume   1170.47092743
_cell_formula_units_Z   4
loop_
 _symmetry_equiv_pos_site_id
 _symmetry_equiv_pos_as_xyz
  1  'x, y, z'
loop_
 _atom_site_type_symbol
 _atom_site_label
 _atom_site_symmetry_multiplicity
 _atom_site_fract_x
 _atom_site_fract_y
 _atom_site_fract_z
 _atom_site_occupancy
  K  K0  1  0.57495000  0.57495000  0.57495000  1
  K  K1  1  0.92505000  0.42505000  0.07495000  1
  K  K2  1  0.07495000  0.92505000  0.42505000  1
  K  K3  1  0.42505000  0.07495000  0.92505000  1
  K  K4  1  0.32595900  0.32595900  0.32595900  1
  K  K5  1  0.17404100  0.67404100  0.82595900  1
  K  K6  1  0.82595900  0.17404100  0.67404100  1
  K  K7  1  0.67404100  0.82595900  0.17404100  1
  K  K8  1  0.81733600  0.81733600  0.81733600  1
  K  K9  1  0.68266400  0.18266400  0.31733600  1
  K  K10  1  0.31733600  0.68266400  0.18266400  1
  K  K11  1  0.18266400  0.31733600  0.68266400  1
  Bi  Bi12  1  0.96499800  0.53500200  0.46499800  1
  Bi  Bi13  1  0.46499800  0.96499800  0.53500200  1
  Bi  Bi14  1  0.03500200  0.03500200  0.03500200  1
  Bi  Bi15  1  0.53500200  0.46499800  0.96499800  1
  Te  Te16  1  0.77287600  0.11728100  0.99999000  1
  Te  Te17  1  0.72712400  0.88271900  0.49999000  1
  Te  Te18  1  0.27287600  0.38271900  0.00001000  1
  Te  Te19  1  0.11728100  0.99999000  0.77287600  1
  Te  Te20  1  0.22712400  0.61728100  0.50001000  1
  Te  Te21  1  0.50001000  0.22712400  0.61728100  1
  Te  Te22  1  0.61728100  0.50001000  0.22712400  1
  Te  Te23  1  0.88271900  0.49999000  0.72712400  1
  Te  Te24  1  0.00001000  0.27287600  0.38271900  1
  Te  Te25  1  0.38271900  0.00001000  0.27287600  1
  Te  Te26  1  0.99999000  0.77287600  0.11728100  1
  Te  Te27  1  0.49999000  0.72712400  0.88271900  1
