# generated using pymatgen
data_ZnGeN2
_symmetry_space_group_name_H-M   'P 1'
_cell_length_a   5.24963000
_cell_length_b   5.51051000
_cell_length_c   6.49692500
_cell_angle_alpha   90.00000000
_cell_angle_beta   90.00000000
_cell_angle_gamma   90.00000000
_symmetry_Int_Tables_number   1
_chemical_formula_structural   ZnGeN2
_chemical_formula_sum   'Zn4 Ge4 N8'
_cell_volume   187.94394695
_cell_formula_units_Z   4
loop_
 _symmetry_equiv_pos_site_id
 _symmetry_equiv_pos_as_xyz
  1  'x, y, z'
loop_
 _atom_site_type_symbol
 _atom_site_label
 _atom_site_symmetry_multiplicity
 _atom_site_fract_x
 _atom_site_fract_y
 _atom_site_fract_z
 _atom_site_occupancy
  Zn  Zn0  1  0.99956500  0.58425500  0.87533400  1
  Zn  Zn1  1  0.49956500  0.91574500  0.37533400  1
  Zn  Zn2  1  0.49956500  0.41574500  0.12466600  1
  Zn  Zn3  1  0.99956500  0.08425500  0.62466600  1
  Ge  Ge4  1  0.00016900  0.07635700  0.12547700  1
  Ge  Ge5  1  0.50016900  0.92364300  0.87452300  1
  Ge  Ge6  1  0.50016900  0.42364300  0.62547700  1
  Ge  Ge7  1  0.00016900  0.57635700  0.37452300  1
  N  N8  1  0.39258700  0.59827100  0.85964800  1
  N  N9  1  0.89258700  0.40172900  0.14035200  1
  N  N10  1  0.89258700  0.90172900  0.35964800  1
  N  N11  1  0.39258700  0.09827100  0.64035200  1
  N  N12  1  0.35867900  0.56579200  0.39007800  1
  N  N13  1  0.35867900  0.06579200  0.10992200  1
  N  N14  1  0.85867900  0.93420800  0.89007800  1
  N  N15  1  0.85867900  0.43420800  0.60992200  1
