# generated using pymatgen
data_Ce(Ni2B)6
_symmetry_space_group_name_H-M   'P 1'
_cell_length_a   6.03855494
_cell_length_b   6.03855494
_cell_length_c   10.98364200
_cell_angle_alpha   90.00000000
_cell_angle_beta   90.00000000
_cell_angle_gamma   104.80673253
_symmetry_Int_Tables_number   1
_chemical_formula_structural   Ce(Ni2B)6
_chemical_formula_sum   'Ce2 Ni24 B12'
_cell_volume   387.20956319
_cell_formula_units_Z   2
loop_
 _symmetry_equiv_pos_site_id
 _symmetry_equiv_pos_as_xyz
  1  'x, y, z'
loop_
 _atom_site_type_symbol
 _atom_site_label
 _atom_site_symmetry_multiplicity
 _atom_site_fract_x
 _atom_site_fract_y
 _atom_site_fract_z
 _atom_site_occupancy
  Ce  Ce0  1  0.83195700  0.83195700  0.49704100  1
  Ce  Ce1  1  0.16804300  0.16804300  0.99704100  1
  Ni  Ni2  1  0.14588500  0.87957100  0.75526800  1
  Ni  Ni3  1  0.12042900  0.85411500  0.25526800  1
  Ni  Ni4  1  0.34228300  0.73056400  0.06785900  1
  Ni  Ni5  1  0.65771700  0.26943600  0.56785900  1
  Ni  Ni6  1  0.26943600  0.65771700  0.56785900  1
  Ni  Ni7  1  0.87957100  0.14588500  0.75526800  1
  Ni  Ni8  1  0.63021200  0.99474300  0.93716500  1
  Ni  Ni9  1  0.36978800  0.00525700  0.43716500  1
  Ni  Ni10  1  0.00525700  0.36978800  0.43716500  1
  Ni  Ni11  1  0.99474300  0.63021200  0.93716500  1
  Ni  Ni12  1  0.52826900  0.78869600  0.27663100  1
  Ni  Ni13  1  0.47173100  0.21130400  0.77663100  1
  Ni  Ni14  1  0.21130400  0.47173100  0.77663100  1
  Ni  Ni15  1  0.78869600  0.52826900  0.27663100  1
  Ni  Ni16  1  0.19620900  0.45783100  0.23392700  1
  Ni  Ni17  1  0.80379100  0.54216900  0.73392700  1
  Ni  Ni18  1  0.54216900  0.80379100  0.73392700  1
  Ni  Ni19  1  0.45783100  0.19620900  0.23392700  1
  Ni  Ni20  1  0.21881700  0.21881700  0.59786400  1
  Ni  Ni21  1  0.78118300  0.78118300  0.09786400  1
  Ni  Ni22  1  0.43608900  0.43608900  0.41872400  1
  Ni  Ni23  1  0.56391100  0.56391100  0.91872400  1
  Ni  Ni24  1  0.73056400  0.34228300  0.06785900  1
  Ni  Ni25  1  0.85411500  0.12042900  0.25526800  1
  B  B26  1  0.01334300  0.60097800  0.12251600  1
  B  B27  1  0.98665700  0.39902200  0.62251600  1
  B  B28  1  0.24487400  0.67533000  0.38565400  1
  B  B29  1  0.75512600  0.32467000  0.88565400  1
  B  B30  1  0.32467000  0.75512600  0.88565400  1
  B  B31  1  0.67533000  0.24487400  0.38565400  1
  B  B32  1  0.48715600  0.48715600  0.65554100  1
  B  B33  1  0.51284400  0.51284400  0.15554100  1
  B  B34  1  0.83663800  0.83663800  0.83579400  1
  B  B35  1  0.16336200  0.16336200  0.33579400  1
  B  B36  1  0.39902200  0.98665700  0.62251600  1
  B  B37  1  0.60097800  0.01334300  0.12251600  1
