# generated using pymatgen
data_PaBr4
_symmetry_space_group_name_H-M   'P 1'
_cell_length_a   7.52414257
_cell_length_b   7.52414257
_cell_length_c   7.52414257
_cell_angle_alpha   107.25530372
_cell_angle_beta   107.25530372
_cell_angle_gamma   114.00021337
_symmetry_Int_Tables_number   1
_chemical_formula_structural   PaBr4
_chemical_formula_sum   'Pa2 Br8'
_cell_volume   326.35661402
_cell_formula_units_Z   2
loop_
 _symmetry_equiv_pos_site_id
 _symmetry_equiv_pos_as_xyz
  1  'x, y, z'
loop_
 _atom_site_type_symbol
 _atom_site_label
 _atom_site_symmetry_multiplicity
 _atom_site_fract_x
 _atom_site_fract_y
 _atom_site_fract_z
 _atom_site_occupancy
  Pa  Pa0  1  0.00000000  0.00000000  0.00000000  1
  Pa  Pa1  1  0.25000000  0.75000000  0.50000000  1
  Br  Br2  1  0.38280900  0.07157700  0.31123200  1
  Br  Br3  1  0.32157700  0.51034500  0.18876800  1
  Br  Br4  1  0.32157700  0.13280900  0.81123200  1
  Br  Br5  1  0.76034500  0.07157700  0.68876800  1
  Br  Br6  1  0.92842300  0.61719100  0.68876800  1
  Br  Br7  1  0.48965500  0.67842300  0.81123200  1
  Br  Br8  1  0.86719100  0.67842300  0.18876800  1
  Br  Br9  1  0.92842300  0.23965500  0.31123200  1
