# generated using pymatgen
data_Sb2Se3
_symmetry_space_group_name_H-M   'P 1'
_cell_length_a   4.02993700
_cell_length_b   11.54142700
_cell_length_c   12.84294600
_cell_angle_alpha   90.00000000
_cell_angle_beta   90.00000000
_cell_angle_gamma   90.00000000
_symmetry_Int_Tables_number   1
_chemical_formula_structural   Sb2Se3
_chemical_formula_sum   'Sb8 Se12'
_cell_volume   597.34113437
_cell_formula_units_Z   4
loop_
 _symmetry_equiv_pos_site_id
 _symmetry_equiv_pos_as_xyz
  1  'x, y, z'
loop_
 _atom_site_type_symbol
 _atom_site_label
 _atom_site_symmetry_multiplicity
 _atom_site_fract_x
 _atom_site_fract_y
 _atom_site_fract_z
 _atom_site_occupancy
  Sb  Sb0  1  0.75000000  0.03644200  0.13758900  1
  Sb  Sb1  1  0.25000000  0.96355800  0.86241100  1
  Sb  Sb2  1  0.25000000  0.53644200  0.36241100  1
  Sb  Sb3  1  0.75000000  0.46355800  0.63758900  1
  Sb  Sb4  1  0.25000000  0.33179900  0.03578300  1
  Sb  Sb5  1  0.75000000  0.66820100  0.96421700  1
  Sb  Sb6  1  0.75000000  0.83179900  0.46421700  1
  Sb  Sb7  1  0.25000000  0.16820100  0.53578300  1
  Se  Se8  1  0.75000000  0.13286000  0.95268900  1
  Se  Se9  1  0.25000000  0.86714000  0.04731100  1
  Se  Se10  1  0.25000000  0.63286000  0.54731100  1
  Se  Se11  1  0.75000000  0.36714000  0.45268900  1
  Se  Se12  1  0.25000000  0.19062500  0.20417100  1
  Se  Se13  1  0.75000000  0.80937500  0.79582900  1
  Se  Se14  1  0.75000000  0.69062500  0.29582900  1
  Se  Se15  1  0.25000000  0.30937500  0.70417100  1
  Se  Se16  1  0.75000000  0.04747000  0.62748800  1
  Se  Se17  1  0.25000000  0.95253000  0.37251200  1
  Se  Se18  1  0.25000000  0.54747000  0.87251200  1
  Se  Se19  1  0.75000000  0.45253000  0.12748800  1
