# generated using pymatgen
data_Zr6CCl14
_symmetry_space_group_name_H-M   'P 1'
_cell_length_a   9.67774642
_cell_length_b   9.67774642
_cell_length_c   11.69334400
_cell_angle_alpha   90.00000000
_cell_angle_beta   90.00000000
_cell_angle_gamma   95.63665349
_symmetry_Int_Tables_number   1
_chemical_formula_structural   Zr6CCl14
_chemical_formula_sum   'Zr12 C2 Cl28'
_cell_volume   1089.88881501
_cell_formula_units_Z   2
loop_
 _symmetry_equiv_pos_site_id
 _symmetry_equiv_pos_as_xyz
  1  'x, y, z'
loop_
 _atom_site_type_symbol
 _atom_site_label
 _atom_site_symmetry_multiplicity
 _atom_site_fract_x
 _atom_site_fract_y
 _atom_site_fract_z
 _atom_site_occupancy
  Zr  Zr0  1  0.64405900  0.64405900  0.10504600  1
  Zr  Zr1  1  0.85594100  0.85594100  0.60504600  1
  Zr  Zr2  1  0.14405900  0.14405900  0.39495400  1
  Zr  Zr3  1  0.35594100  0.35594100  0.89495400  1
  Zr  Zr4  1  0.45396000  0.68355900  0.88324600  1
  Zr  Zr5  1  0.04604000  0.81644100  0.38324600  1
  Zr  Zr6  1  0.18355900  0.95396000  0.61675400  1
  Zr  Zr7  1  0.31644100  0.54604000  0.11675400  1
  Zr  Zr8  1  0.54604000  0.31644100  0.11675400  1
  Zr  Zr9  1  0.95396000  0.18355900  0.61675400  1
  Zr  Zr10  1  0.81644100  0.04604000  0.38324600  1
  Zr  Zr11  1  0.68355900  0.45396000  0.88324600  1
  C  C12  1  0.50000000  0.50000000  0.00000000  1
  C  C13  1  0.00000000  0.00000000  0.50000000  1
  Cl  Cl14  1  0.24857100  0.75142900  0.50000000  1
  Cl  Cl15  1  0.25142900  0.74857100  0.00000000  1
  Cl  Cl16  1  0.75142900  0.24857100  0.50000000  1
  Cl  Cl17  1  0.74857100  0.25142900  0.00000000  1
  Cl  Cl18  1  0.84316200  0.84316200  0.23966700  1
  Cl  Cl19  1  0.65683800  0.65683800  0.73966700  1
  Cl  Cl20  1  0.34316200  0.34316200  0.26033300  1
  Cl  Cl21  1  0.15683800  0.15683800  0.76033300  1
  Cl  Cl22  1  0.60330700  0.10330700  0.25000000  1
  Cl  Cl23  1  0.89669300  0.39669300  0.75000000  1
  Cl  Cl24  1  0.96462300  0.20968700  0.25268200  1
  Cl  Cl25  1  0.53537700  0.29031300  0.75268200  1
  Cl  Cl26  1  0.70968700  0.46462300  0.24731800  1
  Cl  Cl27  1  0.79031300  0.03537700  0.74731800  1
  Cl  Cl28  1  0.03537700  0.79031300  0.74731800  1
  Cl  Cl29  1  0.46462300  0.70968700  0.24731800  1
  Cl  Cl30  1  0.29031300  0.53537700  0.75268200  1
  Cl  Cl31  1  0.20968700  0.96462300  0.25268200  1
  Cl  Cl32  1  0.13795600  0.38452800  0.00887700  1
  Cl  Cl33  1  0.36204400  0.11547200  0.50887700  1
  Cl  Cl34  1  0.88452800  0.63795600  0.49112300  1
  Cl  Cl35  1  0.61547200  0.86204400  0.99112300  1
  Cl  Cl36  1  0.86204400  0.61547200  0.99112300  1
  Cl  Cl37  1  0.63795600  0.88452800  0.49112300  1
  Cl  Cl38  1  0.11547200  0.36204400  0.50887700  1
  Cl  Cl39  1  0.38452800  0.13795600  0.00887700  1
  Cl  Cl40  1  0.10330700  0.60330700  0.25000000  1
  Cl  Cl41  1  0.39669300  0.89669300  0.75000000  1
