# generated using pymatgen
data_SrTi11O20
_symmetry_space_group_name_H-M   'P 1'
_cell_length_a   7.18400200
_cell_length_b   7.70659117
_cell_length_c   13.28018424
_cell_angle_alpha   90.28528896
_cell_angle_beta   92.73433213
_cell_angle_gamma   103.73561094
_symmetry_Int_Tables_number   1
_chemical_formula_structural   SrTi11O20
_chemical_formula_sum   'Sr2 Ti22 O40'
_cell_volume   713.30564639
_cell_formula_units_Z   2
loop_
 _symmetry_equiv_pos_site_id
 _symmetry_equiv_pos_as_xyz
  1  'x, y, z'
loop_
 _atom_site_type_symbol
 _atom_site_label
 _atom_site_symmetry_multiplicity
 _atom_site_fract_x
 _atom_site_fract_y
 _atom_site_fract_z
 _atom_site_occupancy
  Sr  Sr0  1  0.46138100  0.81241700  0.76115300  1
  Sr  Sr1  1  0.53861900  0.18758300  0.23884700  1
  Ti  Ti2  1  0.03473500  0.43091300  0.70845000  1
  Ti  Ti3  1  0.69715500  0.79654500  0.41588600  1
  Ti  Ti4  1  0.68194000  0.92172900  0.99854100  1
  Ti  Ti5  1  0.35528200  0.63527600  0.28657000  1
  Ti  Ti6  1  0.67831800  0.06651200  0.56301600  1
  Ti  Ti7  1  0.32168200  0.93348800  0.43698400  1
  Ti  Ti8  1  0.99407800  0.70422600  0.87356600  1
  Ti  Ti9  1  0.98187500  0.79279200  0.63286200  1
  Ti  Ti10  1  0.32369000  0.57914400  0.51200600  1
  Ti  Ti11  1  0.30284500  0.20345500  0.58411400  1
  Ti  Ti12  1  0.33669500  0.43262400  0.93013400  1
  Ti  Ti13  1  0.00851700  0.92923700  0.20332200  1
  Ti  Ti14  1  0.31832100  0.71179500  0.08295600  1
  Ti  Ti15  1  0.66330500  0.56737600  0.06986600  1
  Ti  Ti16  1  0.96526500  0.56908700  0.29155000  1
  Ti  Ti17  1  0.31806000  0.07827100  0.00145900  1
  Ti  Ti18  1  0.67631000  0.42085600  0.48799400  1
  Ti  Ti19  1  0.99148300  0.07076300  0.79667800  1
  Ti  Ti20  1  0.68167900  0.28820500  0.91704400  1
  Ti  Ti21  1  0.00592200  0.29577400  0.12643400  1
  Ti  Ti22  1  0.64471800  0.36472400  0.71343000  1
  Ti  Ti23  1  0.01812500  0.20720800  0.36713800  1
  O  O24  1  0.50277100  0.31798800  0.03324100  1
  O  O25  1  0.85032400  0.59745200  0.73203600  1
  O  O26  1  0.87765500  0.11676100  0.23342700  1
  O  O27  1  0.84130500  0.26362600  0.79935900  1
  O  O28  1  0.50317600  0.82185800  0.53214700  1
  O  O29  1  0.83274100  0.81882800  0.09679600  1
  O  O30  1  0.51525300  0.04533300  0.90458600  1
  O  O31  1  0.49506600  0.59479200  0.17493700  1
  O  O32  1  0.84918800  0.76661700  0.30539000  1
  O  O33  1  0.48942200  0.45288000  0.60321000  1
  O  O34  1  0.17465600  0.66995800  0.40467200  1
  O  O35  1  0.16892700  0.82496600  0.97676700  1
  O  O36  1  0.14967600  0.40254800  0.26796400  1
  O  O37  1  0.82696700  0.53525000  0.95218400  1
  O  O38  1  0.83399700  0.04619900  0.44714300  1
  O  O39  1  0.83107300  0.17503400  0.02323300  1
  O  O40  1  0.17303300  0.46475000  0.04781600  1
  O  O41  1  0.49682400  0.17814200  0.46785300  1
  O  O42  1  0.50493400  0.40520800  0.82506300  1
  O  O43  1  0.49722900  0.68201200  0.96675900  1
  O  O44  1  0.15869500  0.73637400  0.20064100  1
  O  O45  1  0.15081200  0.23338300  0.69461000  1
  O  O46  1  0.83070000  0.44853700  0.16750200  1
  O  O47  1  0.17582100  0.04417000  0.33338100  1
  O  O48  1  0.17567100  0.62288700  0.62716400  1
  O  O49  1  0.16600300  0.95380100  0.55285700  1
  O  O50  1  0.51057800  0.54712000  0.39679000  1
  O  O51  1  0.82432900  0.37711300  0.37283600  1
  O  O52  1  0.82417900  0.95583000  0.66661900  1
  O  O53  1  0.82301800  0.67186100  0.52061000  1
  O  O54  1  0.17541000  0.11669800  0.12441400  1
  O  O55  1  0.16725900  0.18117200  0.90320400  1
  O  O56  1  0.48474700  0.95466700  0.09541400  1
  O  O57  1  0.12234500  0.88323900  0.76657300  1
  O  O58  1  0.82534400  0.33004200  0.59532800  1
  O  O59  1  0.49562200  0.87905700  0.33218900  1
  O  O60  1  0.17698200  0.32813900  0.47939000  1
  O  O61  1  0.82459000  0.88330200  0.87558600  1
  O  O62  1  0.50437800  0.12094300  0.66781100  1
  O  O63  1  0.16930000  0.55146300  0.83249800  1
