# generated using pymatgen
data_Er10Ru10C19
_symmetry_space_group_name_H-M   'P 1'
_cell_length_a   8.16678269
_cell_length_b   8.16678269
_cell_length_c   10.03641125
_cell_angle_alpha   70.90534608
_cell_angle_beta   70.90534608
_cell_angle_gamma   52.65757154
_symmetry_Int_Tables_number   1
_chemical_formula_structural   Er10Ru10C19
_chemical_formula_sum   'Er10 Ru10 C19'
_cell_volume   495.46786378
_cell_formula_units_Z   1
loop_
 _symmetry_equiv_pos_site_id
 _symmetry_equiv_pos_as_xyz
  1  'x, y, z'
loop_
 _atom_site_type_symbol
 _atom_site_label
 _atom_site_symmetry_multiplicity
 _atom_site_fract_x
 _atom_site_fract_y
 _atom_site_fract_z
 _atom_site_occupancy
  Er  Er0  1  0.00029400  0.00029400  0.01068600  1
  Er  Er1  1  0.47818200  0.47818200  0.01078500  1
  Er  Er2  1  0.32307300  0.32307300  0.38664500  1
  Er  Er3  1  0.51080200  0.51080200  0.63598300  1
  Er  Er4  1  0.01611400  0.01611400  0.61928000  1
  Er  Er5  1  0.82144000  0.82144000  0.39992600  1
  Er  Er6  1  0.62571200  0.62571200  0.26212600  1
  Er  Er7  1  0.75130600  0.75130600  0.75986400  1
  Er  Er8  1  0.14191100  0.14191100  0.23580000  1
  Er  Er9  1  0.25477600  0.25477600  0.78491700  1
  Ru  Ru10  1  0.46101000  0.89365400  0.01047200  1
  Ru  Ru11  1  0.21966200  0.72613000  0.41687300  1
  Ru  Ru12  1  0.72613000  0.21966200  0.41687300  1
  Ru  Ru13  1  0.41785600  0.93572400  0.60382700  1
  Ru  Ru14  1  0.02295300  0.59768800  0.15668100  1
  Ru  Ru15  1  0.59768800  0.02295300  0.15668100  1
  Ru  Ru16  1  0.67037100  0.09679500  0.86446400  1
  Ru  Ru17  1  0.09679500  0.67037100  0.86446400  1
  Ru  Ru18  1  0.93572400  0.41785600  0.60382700  1
  Ru  Ru19  1  0.89365400  0.46101000  0.01047200  1
  C  C20  1  0.78849100  0.78849100  0.01052400  1
  C  C21  1  0.39196700  0.18781000  0.01068600  1
  C  C22  1  0.18781000  0.39196700  0.01068600  1
  C  C23  1  0.35461700  0.86075200  0.44421300  1
  C  C24  1  0.86075200  0.35461700  0.44421300  1
  C  C25  1  0.08519300  0.56387800  0.57725900  1
  C  C26  1  0.56387800  0.08519300  0.57725900  1
  C  C27  1  0.45881200  0.95461300  0.36855400  1
  C  C28  1  0.95461300  0.45881200  0.36855400  1
  C  C29  1  0.63619700  0.13531100  0.65254800  1
  C  C30  1  0.18207400  0.68772500  0.21729500  1
  C  C31  1  0.28563600  0.79146500  0.80388100  1
  C  C32  1  0.79146500  0.28563600  0.80388100  1
  C  C33  1  0.28566300  0.78513700  0.17602100  1
  C  C34  1  0.68772500  0.18207400  0.21729500  1
  C  C35  1  0.78513700  0.28566300  0.17602100  1
  C  C36  1  0.36838200  0.86827400  0.84513800  1
  C  C37  1  0.86827400  0.36838200  0.84513800  1
  C  C38  1  0.13531100  0.63619700  0.65254800  1
