# generated using pymatgen
data_Tm5(Ge5Rh2)2
_symmetry_space_group_name_H-M   'P 1'
_cell_length_a   13.01158000
_cell_length_b   13.01158000
_cell_length_c   4.26821800
_cell_angle_alpha   90.00000000
_cell_angle_beta   90.00000000
_cell_angle_gamma   90.00000000
_symmetry_Int_Tables_number   1
_chemical_formula_structural   Tm5(Ge5Rh2)2
_chemical_formula_sum   'Tm10 Ge20 Rh8'
_cell_volume   722.61448943
_cell_formula_units_Z   2
loop_
 _symmetry_equiv_pos_site_id
 _symmetry_equiv_pos_as_xyz
  1  'x, y, z'
loop_
 _atom_site_type_symbol
 _atom_site_label
 _atom_site_symmetry_multiplicity
 _atom_site_fract_x
 _atom_site_fract_y
 _atom_site_fract_z
 _atom_site_occupancy
  Tm  Tm0  1  0.11330600  0.61330600  0.50000000  1
  Tm  Tm1  1  0.61330600  0.88669400  0.50000000  1
  Tm  Tm2  1  0.38669400  0.11330600  0.50000000  1
  Tm  Tm3  1  0.88669400  0.38669400  0.50000000  1
  Tm  Tm4  1  0.32612800  0.82612800  0.50000000  1
  Tm  Tm5  1  0.82612800  0.67387200  0.50000000  1
  Tm  Tm6  1  0.17387200  0.32612800  0.50000000  1
  Tm  Tm7  1  0.67387200  0.17387200  0.50000000  1
  Tm  Tm8  1  0.50000000  0.50000000  0.00000000  1
  Tm  Tm9  1  0.00000000  0.00000000  0.00000000  1
  Ge  Ge10  1  0.34355300  0.49575500  0.50000000  1
  Ge  Ge11  1  0.65644700  0.50424500  0.50000000  1
  Ge  Ge12  1  0.50424500  0.34355300  0.50000000  1
  Ge  Ge13  1  0.49575500  0.65644700  0.50000000  1
  Ge  Ge14  1  0.99575500  0.84355300  0.50000000  1
  Ge  Ge15  1  0.84355300  0.00424500  0.50000000  1
  Ge  Ge16  1  0.15644700  0.99575500  0.50000000  1
  Ge  Ge17  1  0.00424500  0.15644700  0.50000000  1
  Ge  Ge18  1  0.33733800  0.29996500  0.00000000  1
  Ge  Ge19  1  0.66266200  0.70003500  0.00000000  1
  Ge  Ge20  1  0.70003500  0.33733800  0.00000000  1
  Ge  Ge21  1  0.29996500  0.66266200  0.00000000  1
  Ge  Ge22  1  0.79996500  0.83733800  0.00000000  1
  Ge  Ge23  1  0.83733800  0.20003500  0.00000000  1
  Ge  Ge24  1  0.16266200  0.79996500  0.00000000  1
  Ge  Ge25  1  0.20003500  0.16266200  0.00000000  1
  Ge  Ge26  1  0.43320100  0.93320100  0.00000000  1
  Ge  Ge27  1  0.93320100  0.56679900  0.00000000  1
  Ge  Ge28  1  0.56679900  0.06679900  0.00000000  1
  Ge  Ge29  1  0.06679900  0.43320100  0.00000000  1
  Rh  Rh30  1  0.24614400  0.97937600  0.00000000  1
  Rh  Rh31  1  0.75385600  0.02062400  0.00000000  1
  Rh  Rh32  1  0.02062400  0.24614400  0.00000000  1
  Rh  Rh33  1  0.97937600  0.75385600  0.00000000  1
  Rh  Rh34  1  0.47937600  0.74614400  0.00000000  1
  Rh  Rh35  1  0.74614400  0.52062400  0.00000000  1
  Rh  Rh36  1  0.25385600  0.47937600  0.00000000  1
  Rh  Rh37  1  0.52062400  0.25385600  0.00000000  1
