# generated using pymatgen
data_Rb5Zr4F21
_symmetry_space_group_name_H-M   'P 1'
_cell_length_a   11.45095300
_cell_length_b   8.02553500
_cell_length_c   11.75179577
_cell_angle_alpha   81.75543873
_cell_angle_beta   90.00000000
_cell_angle_gamma   90.00000000
_symmetry_Int_Tables_number   1
_chemical_formula_structural   Rb5Zr4F21
_chemical_formula_sum   'Rb10 Zr8 F42'
_cell_volume   1068.82861802
_cell_formula_units_Z   2
loop_
 _symmetry_equiv_pos_site_id
 _symmetry_equiv_pos_as_xyz
  1  'x, y, z'
loop_
 _atom_site_type_symbol
 _atom_site_label
 _atom_site_symmetry_multiplicity
 _atom_site_fract_x
 _atom_site_fract_y
 _atom_site_fract_z
 _atom_site_occupancy
  Rb  Rb0  1  0.52149700  0.68473200  0.11441600  1
  Rb  Rb1  1  0.02149700  0.31526800  0.88558400  1
  Rb  Rb2  1  0.48991100  0.97590400  0.74429400  1
  Rb  Rb3  1  0.98991100  0.02409600  0.25570600  1
  Rb  Rb4  1  0.82647900  0.83388300  0.90475200  1
  Rb  Rb5  1  0.32647900  0.16611700  0.09524800  1
  Rb  Rb6  1  0.64014600  0.80656400  0.45577100  1
  Rb  Rb7  1  0.14014600  0.19343600  0.54422900  1
  Rb  Rb8  1  0.97587200  0.71778000  0.60834600  1
  Rb  Rb9  1  0.47587200  0.28222000  0.39165400  1
  Zr  Zr10  1  0.84190800  0.53427000  0.27631000  1
  Zr  Zr11  1  0.34190800  0.46573000  0.72369000  1
  Zr  Zr12  1  0.69466300  0.17432000  0.09247800  1
  Zr  Zr13  1  0.19466300  0.82568000  0.90752200  1
  Zr  Zr14  1  0.66008200  0.50242500  0.77149900  1
  Zr  Zr15  1  0.16008200  0.49757500  0.22850100  1
  Zr  Zr16  1  0.80179100  0.21611400  0.59355600  1
  Zr  Zr17  1  0.30179100  0.78388600  0.40644400  1
  F  F18  1  0.89607900  0.05874000  0.71230900  1
  F  F19  1  0.39607900  0.94126000  0.28769100  1
  F  F20  1  0.93625500  0.37635900  0.60237800  1
  F  F21  1  0.43625500  0.62364100  0.39762200  1
  F  F22  1  0.87749500  0.05233000  0.49722700  1
  F  F23  1  0.37749500  0.94767000  0.50277300  1
  F  F24  1  0.83220800  0.51994300  0.80994300  1
  F  F25  1  0.33220800  0.48005700  0.19005700  1
  F  F26  1  0.64362100  0.11326000  0.55981100  1
  F  F27  1  0.14362100  0.88674000  0.44018900  1
  F  F28  1  0.66806200  0.56536000  0.30161700  1
  F  F29  1  0.16806200  0.43464000  0.69838300  1
  F  F30  1  0.69659200  0.45629500  0.59857000  1
  F  F31  1  0.19659200  0.54370500  0.40143000  1
  F  F32  1  0.79381100  0.67164300  0.12620300  1
  F  F33  1  0.59629200  0.65520800  0.88226800  1
  F  F34  1  0.87007800  0.70438200  0.38300600  1
  F  F35  1  0.37007800  0.29561800  0.61699400  1
  F  F36  1  0.99757900  0.38930500  0.32377100  1
  F  F37  1  0.49757900  0.61069500  0.67622900  1
  F  F38  1  0.10654700  0.98687900  0.99013300  1
  F  F39  1  0.60654700  0.01312100  0.00986700  1
  F  F40  1  0.20581000  0.99328200  0.76401900  1
  F  F41  1  0.70581000  0.00671800  0.23598100  1
  F  F42  1  0.00440100  0.65321300  0.19884200  1
  F  F43  1  0.50440100  0.34678700  0.80115800  1
  F  F44  1  0.35125900  0.89626400  0.96644200  1
  F  F45  1  0.85125900  0.10373600  0.03355800  1
  F  F46  1  0.22068400  0.76340300  0.24147600  1
  F  F47  1  0.72068400  0.23659700  0.75852400  1
  F  F48  1  0.05486300  0.71455300  0.84443600  1
  F  F49  1  0.55486300  0.28544700  0.15556400  1
  F  F50  1  0.30671700  0.67038000  0.81963700  1
  F  F51  1  0.80671700  0.32962000  0.18036300  1
  F  F52  1  0.29386200  0.65314200  0.58116100  1
  F  F53  1  0.79386200  0.34685800  0.41883900  1
  F  F54  1  0.20618500  0.26039400  0.31067300  1
  F  F55  1  0.70618500  0.73960600  0.68932700  1
  F  F56  1  0.18224900  0.63806200  0.04776800  1
  F  F57  1  0.68224900  0.36193800  0.95223200  1
  F  F58  1  0.29381100  0.32835700  0.87379700  1
  F  F59  1  0.09629200  0.34479200  0.11773200  1
