# generated using pymatgen
data_DySi
_symmetry_space_group_name_H-M   'P 1'
_cell_length_a   5.68876860
_cell_length_b   5.68876860
_cell_length_c   3.83474500
_cell_angle_alpha   90.00000000
_cell_angle_beta   90.00000000
_cell_angle_gamma   135.74611625
_symmetry_Int_Tables_number   1
_chemical_formula_structural   DySi
_chemical_formula_sum   'Dy2 Si2'
_cell_volume   86.60206973
_cell_formula_units_Z   2
loop_
 _symmetry_equiv_pos_site_id
 _symmetry_equiv_pos_as_xyz
  1  'x, y, z'
loop_
 _atom_site_type_symbol
 _atom_site_label
 _atom_site_symmetry_multiplicity
 _atom_site_fract_x
 _atom_site_fract_y
 _atom_site_fract_z
 _atom_site_occupancy
  Dy  Dy0  1  0.14013800  0.85986200  0.25000000  1
  Dy  Dy1  1  0.85986200  0.14013800  0.75000000  1
  Si  Si2  1  0.42373400  0.57626600  0.25000000  1
  Si  Si3  1  0.57626600  0.42373400  0.75000000  1
