# generated using pymatgen
data_EuInPd
_symmetry_space_group_name_H-M   'P 1'
_cell_length_a   4.50945700
_cell_length_b   7.51366500
_cell_length_c   8.64743300
_cell_angle_alpha   90.00000000
_cell_angle_beta   90.00000000
_cell_angle_gamma   90.00000000
_symmetry_Int_Tables_number   1
_chemical_formula_structural   EuInPd
_chemical_formula_sum   'Eu4 In4 Pd4'
_cell_volume   292.99707433
_cell_formula_units_Z   4
loop_
 _symmetry_equiv_pos_site_id
 _symmetry_equiv_pos_as_xyz
  1  'x, y, z'
loop_
 _atom_site_type_symbol
 _atom_site_label
 _atom_site_symmetry_multiplicity
 _atom_site_fract_x
 _atom_site_fract_y
 _atom_site_fract_z
 _atom_site_occupancy
  Eu  Eu0  1  0.25000000  0.53468800  0.17894300  1
  Eu  Eu1  1  0.75000000  0.46531200  0.82105700  1
  Eu  Eu2  1  0.25000000  0.03468800  0.32105700  1
  Eu  Eu3  1  0.75000000  0.96531200  0.67894300  1
  In  In4  1  0.25000000  0.14629300  0.93784800  1
  In  In5  1  0.75000000  0.35370700  0.43784800  1
  In  In6  1  0.25000000  0.64629300  0.56215200  1
  In  In7  1  0.75000000  0.85370700  0.06215200  1
  Pd  Pd8  1  0.75000000  0.23163800  0.12529500  1
  Pd  Pd9  1  0.25000000  0.26836200  0.62529500  1
  Pd  Pd10  1  0.75000000  0.73163800  0.37470500  1
  Pd  Pd11  1  0.25000000  0.76836200  0.87470500  1
