# generated using pymatgen
data_Rb6Si10O23
_symmetry_space_group_name_H-M   'P 1'
_cell_length_a   9.54380418
_cell_length_b   9.54380418
_cell_length_c   8.19073700
_cell_angle_alpha   90.00000000
_cell_angle_beta   90.00000000
_cell_angle_gamma   120.47732000
_symmetry_Int_Tables_number   1
_chemical_formula_structural   Rb6Si10O23
_chemical_formula_sum   'Rb6 Si10 O23'
_cell_volume   642.96543584
_cell_formula_units_Z   1
loop_
 _symmetry_equiv_pos_site_id
 _symmetry_equiv_pos_as_xyz
  1  'x, y, z'
loop_
 _atom_site_type_symbol
 _atom_site_label
 _atom_site_symmetry_multiplicity
 _atom_site_fract_x
 _atom_site_fract_y
 _atom_site_fract_z
 _atom_site_occupancy
  Rb  Rb0  1  0.22827500  0.98973600  0.50000000  1
  Rb  Rb1  1  0.98973600  0.22827500  0.50000000  1
  Rb  Rb2  1  0.24158900  0.99961400  0.00000000  1
  Rb  Rb3  1  0.99961400  0.24158900  0.00000000  1
  Rb  Rb4  1  0.74967900  0.74967900  0.50000000  1
  Rb  Rb5  1  0.75590300  0.75590300  0.00000000  1
  Si  Si6  1  0.31089300  0.65476000  0.68860000  1
  Si  Si7  1  0.65476000  0.31089300  0.31140000  1
  Si  Si8  1  0.31089300  0.65476000  0.31140000  1
  Si  Si9  1  0.65476000  0.31089300  0.68860000  1
  Si  Si10  1  0.58963100  0.98059400  0.80919200  1
  Si  Si11  1  0.98059400  0.58963100  0.19080800  1
  Si  Si12  1  0.58963100  0.98059400  0.19080800  1
  Si  Si13  1  0.98059400  0.58963100  0.80919200  1
  Si  Si14  1  0.39841200  0.39841200  0.19853000  1
  Si  Si15  1  0.39841200  0.39841200  0.80147000  1
  O  O16  1  0.57981000  0.15062800  0.80482700  1
  O  O17  1  0.15062800  0.57981000  0.19517300  1
  O  O18  1  0.57981000  0.15062800  0.19517300  1
  O  O19  1  0.15062800  0.57981000  0.80482700  1
  O  O20  1  0.42340800  0.85171000  0.70365500  1
  O  O21  1  0.85171000  0.42340800  0.29634500  1
  O  O22  1  0.42340800  0.85171000  0.29634500  1
  O  O23  1  0.85171000  0.42340800  0.70365500  1
  O  O24  1  0.75584000  0.99833900  0.75008200  1
  O  O25  1  0.99833900  0.75584000  0.24991800  1
  O  O26  1  0.75584000  0.99833900  0.24991800  1
  O  O27  1  0.99833900  0.75584000  0.75008200  1
  O  O28  1  0.41999100  0.57311800  0.73258100  1
  O  O29  1  0.57311800  0.41999100  0.26741900  1
  O  O30  1  0.41999100  0.57311800  0.26741900  1
  O  O31  1  0.57311800  0.41999100  0.73258100  1
  O  O32  1  0.42762100  0.42762100  0.00000000  1
  O  O33  1  0.91573000  0.53963500  0.00000000  1
  O  O34  1  0.53963500  0.91573000  0.00000000  1
  O  O35  1  0.61043100  0.24480800  0.50000000  1
  O  O36  1  0.24480800  0.61043100  0.50000000  1
  O  O37  1  0.23695600  0.23695600  0.75173600  1
  O  O38  1  0.23695600  0.23695600  0.24826400  1
