# generated using pymatgen
data_MnPH2O5
_symmetry_space_group_name_H-M   'P 1'
_cell_length_a   5.17940057
_cell_length_b   8.02274460
_cell_length_c   10.12727522
_cell_angle_alpha   68.42710570
_cell_angle_beta   97.02172545
_cell_angle_gamma   107.65625576
_symmetry_Int_Tables_number   1
_chemical_formula_structural   MnPH2O5
_chemical_formula_sum   'Mn4 P4 H8 O20'
_cell_volume   372.87855328
_cell_formula_units_Z   4
loop_
 _symmetry_equiv_pos_site_id
 _symmetry_equiv_pos_as_xyz
  1  'x, y, z'
loop_
 _atom_site_type_symbol
 _atom_site_label
 _atom_site_symmetry_multiplicity
 _atom_site_fract_x
 _atom_site_fract_y
 _atom_site_fract_z
 _atom_site_occupancy
  Mn  Mn0  1  0.00005300  0.00010300  0.49991800  1
  Mn  Mn1  1  0.49994900  0.00000000  0.99994800  1
  Mn  Mn2  1  0.00011200  0.49990700  0.00007200  1
  Mn  Mn3  1  0.50002500  0.50012100  0.50005000  1
  P  P4  1  0.42617800  0.41227000  0.83783700  1
  P  P5  1  0.42617000  0.91230600  0.33780500  1
  P  P6  1  0.57381900  0.58772800  0.16217000  1
  P  P7  1  0.57385200  0.08773000  0.66215200  1
  H  H8  1  0.88185000  0.61519500  0.67942900  1
  H  H9  1  0.88181600  0.11516600  0.17942400  1
  H  H10  1  0.06405900  0.16174300  0.04355300  1
  H  H11  1  0.06410100  0.66176000  0.54358200  1
  H  H12  1  0.11825800  0.38482000  0.32058700  1
  H  H13  1  0.11821600  0.88477300  0.82058000  1
  H  H14  1  0.93586300  0.83825100  0.95637500  1
  H  H15  1  0.93591600  0.33827600  0.45640500  1
  O  O16  1  0.10243100  0.82382700  0.92616900  1
  O  O17  1  0.10244300  0.32383000  0.42617800  1
  O  O18  1  0.89755200  0.17616500  0.07382200  1
  O  O19  1  0.89756300  0.67616500  0.57383200  1
  O  O20  1  0.34844500  0.41293100  0.68575700  1
  O  O21  1  0.34842900  0.91290400  0.18575700  1
  O  O22  1  0.27345000  0.52746100  0.87397300  1
  O  O23  1  0.27348500  0.02754300  0.37391100  1
  O  O24  1  0.65159500  0.58710100  0.31423600  1
  O  O25  1  0.65155500  0.08707000  0.81425000  1
  O  O26  1  0.72651600  0.47247600  0.12610300  1
  O  O27  1  0.72659300  0.97252800  0.62607000  1
  O  O28  1  0.73877100  0.50018100  0.84296800  1
  O  O29  1  0.73876200  0.00021600  0.34292000  1
  O  O30  1  0.34193100  0.20917200  0.94741800  1
  O  O31  1  0.34215400  0.70927900  0.44747400  1
  O  O32  1  0.26116700  0.49979900  0.15714600  1
  O  O33  1  0.26127100  0.99976700  0.65702400  1
  O  O34  1  0.65773300  0.79069000  0.05249900  1
  O  O35  1  0.65791800  0.29074600  0.55260800  1
