# generated using pymatgen
data_Rb2Te3
_symmetry_space_group_name_H-M   'P 1'
_cell_length_a   4.72986600
_cell_length_b   10.92892700
_cell_length_c   16.27565700
_cell_angle_alpha   90.00000000
_cell_angle_beta   90.00000000
_cell_angle_gamma   90.00000000
_symmetry_Int_Tables_number   1
_chemical_formula_structural   Rb2Te3
_chemical_formula_sum   'Rb8 Te12'
_cell_volume   841.32712469
_cell_formula_units_Z   4
loop_
 _symmetry_equiv_pos_site_id
 _symmetry_equiv_pos_as_xyz
  1  'x, y, z'
loop_
 _atom_site_type_symbol
 _atom_site_label
 _atom_site_symmetry_multiplicity
 _atom_site_fract_x
 _atom_site_fract_y
 _atom_site_fract_z
 _atom_site_occupancy
  Rb  Rb0  1  0.72172000  0.96983100  0.37648100  1
  Rb  Rb1  1  0.22172000  0.03016900  0.12351900  1
  Rb  Rb2  1  0.27828000  0.46983100  0.62351900  1
  Rb  Rb3  1  0.77828000  0.53016900  0.87648100  1
  Rb  Rb4  1  0.27828000  0.03016900  0.62351900  1
  Rb  Rb5  1  0.77828000  0.96983100  0.87648100  1
  Rb  Rb6  1  0.72172000  0.53016900  0.37648100  1
  Rb  Rb7  1  0.22172000  0.46983100  0.12351900  1
  Te  Te8  1  0.20048100  0.75000000  0.48531800  1
  Te  Te9  1  0.70048100  0.25000000  0.01468200  1
  Te  Te10  1  0.79951900  0.25000000  0.51468200  1
  Te  Te11  1  0.29951900  0.75000000  0.98531800  1
  Te  Te12  1  0.28756600  0.75000000  0.25913000  1
  Te  Te13  1  0.78756600  0.25000000  0.24087000  1
  Te  Te14  1  0.71243400  0.25000000  0.74087000  1
  Te  Te15  1  0.21243400  0.75000000  0.75913000  1
  Te  Te16  1  0.67846800  0.75000000  0.12359300  1
  Te  Te17  1  0.17846800  0.25000000  0.37640700  1
  Te  Te18  1  0.32153200  0.25000000  0.87640700  1
  Te  Te19  1  0.82153200  0.75000000  0.62359300  1
