# generated using pymatgen
data_Ca2Si
_symmetry_space_group_name_H-M   'P 1'
_cell_length_a   4.81988700
_cell_length_b   7.61475300
_cell_length_c   9.04721000
_cell_angle_alpha   90.00000000
_cell_angle_beta   90.00000000
_cell_angle_gamma   90.00000000
_symmetry_Int_Tables_number   1
_chemical_formula_structural   Ca2Si
_chemical_formula_sum   'Ca8 Si4'
_cell_volume   332.05295411
_cell_formula_units_Z   4
loop_
 _symmetry_equiv_pos_site_id
 _symmetry_equiv_pos_as_xyz
  1  'x, y, z'
loop_
 _atom_site_type_symbol
 _atom_site_label
 _atom_site_symmetry_multiplicity
 _atom_site_fract_x
 _atom_site_fract_y
 _atom_site_fract_z
 _atom_site_occupancy
  Ca  Ca0  1  0.75000000  0.34616800  0.07405300  1
  Ca  Ca1  1  0.25000000  0.65383200  0.92594700  1
  Ca  Ca2  1  0.75000000  0.84616800  0.42594700  1
  Ca  Ca3  1  0.25000000  0.15383200  0.57405300  1
  Ca  Ca4  1  0.25000000  0.01988800  0.17758300  1
  Ca  Ca5  1  0.75000000  0.98011200  0.82241700  1
  Ca  Ca6  1  0.25000000  0.51988800  0.32241700  1
  Ca  Ca7  1  0.75000000  0.48011200  0.67758300  1
  Si  Si8  1  0.25000000  0.75242800  0.60559400  1
  Si  Si9  1  0.75000000  0.24757200  0.39440600  1
  Si  Si10  1  0.25000000  0.25242800  0.89440600  1
  Si  Si11  1  0.75000000  0.74757200  0.10559400  1
