# generated using pymatgen
data_P4S7
_symmetry_space_group_name_H-M   'P 1'
_cell_length_a   18.73190700
_cell_length_b   7.50331200
_cell_length_c   11.65516898
_cell_angle_alpha   56.34819437
_cell_angle_beta   90.00000000
_cell_angle_gamma   90.00000000
_symmetry_Int_Tables_number   1
_chemical_formula_structural   P4S7
_chemical_formula_sum   'P16 S28'
_cell_volume   1363.62940677
_cell_formula_units_Z   4
loop_
 _symmetry_equiv_pos_site_id
 _symmetry_equiv_pos_as_xyz
  1  'x, y, z'
loop_
 _atom_site_type_symbol
 _atom_site_label
 _atom_site_symmetry_multiplicity
 _atom_site_fract_x
 _atom_site_fract_y
 _atom_site_fract_z
 _atom_site_occupancy
  P  P0  1  0.62377900  0.39779000  0.28521600  1
  P  P1  1  0.12377900  0.60221000  0.21478400  1
  P  P2  1  0.37622100  0.60221000  0.71478400  1
  P  P3  1  0.87622100  0.39779000  0.78521600  1
  P  P4  1  0.70436100  0.11158700  0.34879300  1
  P  P5  1  0.20436100  0.88841300  0.15120700  1
  P  P6  1  0.29563900  0.88841300  0.65120700  1
  P  P7  1  0.79563900  0.11158700  0.84879300  1
  P  P8  1  0.54616100  0.02212100  0.26146200  1
  P  P9  1  0.04616100  0.97787900  0.23853800  1
  P  P10  1  0.45383900  0.97787900  0.73853800  1
  P  P11  1  0.95383900  0.02212100  0.76146200  1
  P  P12  1  0.66994300  0.38833700  0.01461400  1
  P  P13  1  0.16994300  0.61166300  0.48538600  1
  P  P14  1  0.33005700  0.61166300  0.98538600  1
  P  P15  1  0.83005700  0.38833700  0.51461400  1
  S  S16  1  0.58224300  0.18226500  0.05314000  1
  S  S17  1  0.08224300  0.81773500  0.44686000  1
  S  S18  1  0.41775700  0.81773500  0.94686000  1
  S  S19  1  0.91775700  0.18226500  0.55314000  1
  S  S20  1  0.46749200  0.84024800  0.28396900  1
  S  S21  1  0.96749200  0.15975200  0.21603100  1
  S  S22  1  0.53250800  0.15975200  0.71603100  1
  S  S23  1  0.03250800  0.84024800  0.78396900  1
  S  S24  1  0.69669600  0.52672700  0.82318000  1
  S  S25  1  0.19669600  0.47327300  0.67682000  1
  S  S26  1  0.30330400  0.47327300  0.17682000  1
  S  S27  1  0.80330400  0.52672700  0.32318000  1
  S  S28  1  0.52307500  0.25388000  0.30540700  1
  S  S29  1  0.02307500  0.74612000  0.19459300  1
  S  S30  1  0.47692500  0.74612000  0.69459300  1
  S  S31  1  0.97692500  0.25388000  0.80540700  1
  S  S32  1  0.63339900  0.85988900  0.39446400  1
  S  S33  1  0.13339900  0.14011100  0.10553600  1
  S  S34  1  0.36660100  0.14011100  0.60553600  1
  S  S35  1  0.86660100  0.85988900  0.89446400  1
  S  S36  1  0.75226600  0.21090100  0.15698000  1
  S  S37  1  0.25226600  0.78909900  0.34302000  1
  S  S38  1  0.24773400  0.78909900  0.84302000  1
  S  S39  1  0.74773400  0.21090100  0.65698000  1
  S  S40  1  0.64206100  0.60398400  0.06985400  1
  S  S41  1  0.14206100  0.39601600  0.43014600  1
  S  S42  1  0.35793900  0.39601600  0.93014600  1
  S  S43  1  0.85793900  0.60398400  0.56985400  1
