# generated using pymatgen
data_K2CdO2
_symmetry_space_group_name_H-M   'P 1'
_cell_length_a   6.28542500
_cell_length_b   6.30258700
_cell_length_c   10.14686600
_cell_angle_alpha   90.00000000
_cell_angle_beta   90.00000000
_cell_angle_gamma   90.00000000
_symmetry_Int_Tables_number   1
_chemical_formula_structural   K2CdO2
_chemical_formula_sum   'K8 Cd4 O8'
_cell_volume   401.96239298
_cell_formula_units_Z   4
loop_
 _symmetry_equiv_pos_site_id
 _symmetry_equiv_pos_as_xyz
  1  'x, y, z'
loop_
 _atom_site_type_symbol
 _atom_site_label
 _atom_site_symmetry_multiplicity
 _atom_site_fract_x
 _atom_site_fract_y
 _atom_site_fract_z
 _atom_site_occupancy
  K  K0  1  0.89706100  0.60851500  0.34420500  1
  K  K1  1  0.60293900  0.39148500  0.84420500  1
  K  K2  1  0.10293900  0.10851500  0.34420500  1
  K  K3  1  0.39706100  0.89148500  0.84420500  1
  K  K4  1  0.10293900  0.39148500  0.65579500  1
  K  K5  1  0.39706100  0.60851500  0.15579500  1
  K  K6  1  0.60293900  0.10851500  0.15579500  1
  K  K7  1  0.89706100  0.89148500  0.65579500  1
  Cd  Cd8  1  0.53790400  0.25000000  0.50000000  1
  Cd  Cd9  1  0.46209600  0.75000000  0.50000000  1
  Cd  Cd10  1  0.03790400  0.25000000  0.00000000  1
  Cd  Cd11  1  0.96209600  0.75000000  0.00000000  1
  O  O12  1  0.79905300  0.48031800  0.09907800  1
  O  O13  1  0.20094700  0.98031800  0.09907800  1
  O  O14  1  0.29905300  0.48031800  0.40092200  1
  O  O15  1  0.70094700  0.51968200  0.59907800  1
  O  O16  1  0.20094700  0.51968200  0.90092200  1
  O  O17  1  0.79905300  0.01968200  0.90092200  1
  O  O18  1  0.70094700  0.98031800  0.40092200  1
  O  O19  1  0.29905300  0.01968200  0.59907800  1
