# generated using pymatgen
data_Cu6As4S9
_symmetry_space_group_name_H-M   'P 1'
_cell_length_a   9.13662000
_cell_length_b   9.14343629
_cell_length_c   9.89847616
_cell_angle_alpha   107.73607733
_cell_angle_beta   90.07916720
_cell_angle_gamma   109.43125983
_symmetry_Int_Tables_number   1
_chemical_formula_structural   Cu6As4S9
_chemical_formula_sum   'Cu12 As8 S18'
_cell_volume   737.88105733
_cell_formula_units_Z   2
loop_
 _symmetry_equiv_pos_site_id
 _symmetry_equiv_pos_as_xyz
  1  'x, y, z'
loop_
 _atom_site_type_symbol
 _atom_site_label
 _atom_site_symmetry_multiplicity
 _atom_site_fract_x
 _atom_site_fract_y
 _atom_site_fract_z
 _atom_site_occupancy
  Cu  Cu0  1  0.51089400  0.60501500  0.98566600  1
  Cu  Cu1  1  0.20467500  0.72178400  0.60247200  1
  Cu  Cu2  1  0.33353000  0.03220400  0.38902500  1
  Cu  Cu3  1  0.65991100  0.07545300  0.19456200  1
  Cu  Cu4  1  0.60962400  0.91166300  0.79780900  1
  Cu  Cu5  1  0.93868000  0.83365200  0.19117700  1
  Cu  Cu6  1  0.05879600  0.27962700  0.39795100  1
  Cu  Cu7  1  0.16973500  0.55756000  0.18268400  1
  Cu  Cu8  1  0.10453600  0.41083400  0.79382600  1
  Cu  Cu9  1  0.96421600  0.96349800  0.60299700  1
  Cu  Cu10  1  0.75548500  0.36617000  0.98658000  1
  Cu  Cu11  1  0.58151800  0.76179100  0.40673700  1
  As  As12  1  0.82287500  0.53897400  0.42137700  1
  As  As13  1  0.71742600  0.23475100  0.57673000  1
  As  As14  1  0.85270200  0.65453700  0.79142100  1
  As  As15  1  0.49867500  0.48275700  0.59015600  1
  As  As16  1  0.35200100  0.15424400  0.79555200  1
  As  As17  1  0.27692700  0.90258400  0.00987000  1
  As  As18  1  0.40891800  0.31813700  0.18018800  1
  As  As19  1  0.04407800  0.13028100  0.01226700  1
  S  S20  1  0.45522300  0.71223800  0.59642600  1
  S  S21  1  0.77162100  0.62707700  0.99891800  1
  S  S22  1  0.83424200  0.77637500  0.38890100  1
  S  S23  1  0.57595300  0.00888900  0.39632300  1
  S  S24  1  0.91247300  0.07537300  0.19515000  1
  S  S25  1  0.00407800  0.35664300  0.99339300  1
  S  S26  1  0.86482500  0.92268800  0.80532400  1
  S  S27  1  0.18212800  0.81738900  0.19476400  1
  S  S28  1  0.35829900  0.41448200  0.78292100  1
  S  S29  1  0.22135600  0.97432700  0.58702200  1
  S  S30  1  0.06692700  0.53190700  0.39201900  1
  S  S31  1  0.95671100  0.20944600  0.59201700  1
  S  S32  1  0.11949200  0.67079400  0.80687100  1
  S  S33  1  0.61479700  0.16019100  0.78496000  1
  S  S34  1  0.42513800  0.57336900  0.19777600  1
  S  S35  1  0.51073800  0.86242600  0.99964300  1
  S  S36  1  0.67031100  0.32978900  0.19608700  1
  S  S37  1  0.31248400  0.27907900  0.40043600  1
