# generated using pymatgen
data_Ba2Nb15O32
_symmetry_space_group_name_H-M   'P 1'
_cell_length_a   12.91664183
_cell_length_b   12.91664183
_cell_length_c   12.91664252
_cell_angle_alpha   35.60894895
_cell_angle_beta   35.60894895
_cell_angle_gamma   35.60894728
_symmetry_Int_Tables_number   1
_chemical_formula_structural   Ba2Nb15O32
_chemical_formula_sum   'Ba2 Nb15 O32'
_cell_volume   653.00517730
_cell_formula_units_Z   1
loop_
 _symmetry_equiv_pos_site_id
 _symmetry_equiv_pos_as_xyz
  1  'x, y, z'
loop_
 _atom_site_type_symbol
 _atom_site_label
 _atom_site_symmetry_multiplicity
 _atom_site_fract_x
 _atom_site_fract_y
 _atom_site_fract_z
 _atom_site_occupancy
  Ba  Ba0  1  0.63862500  0.63862500  0.63862500  1
  Ba  Ba1  1  0.36137500  0.36137500  0.36137500  1
  Nb  Nb2  1  0.86077600  0.86077600  0.86077600  1
  Nb  Nb3  1  0.13922400  0.13922400  0.13922400  1
  Nb  Nb4  1  0.72633200  0.55635800  0.31592800  1
  Nb  Nb5  1  0.31592800  0.72633200  0.55635800  1
  Nb  Nb6  1  0.55635800  0.31592800  0.72633200  1
  Nb  Nb7  1  0.27366800  0.44364200  0.68407200  1
  Nb  Nb8  1  0.68407200  0.27366800  0.44364200  1
  Nb  Nb9  1  0.44364200  0.68407200  0.27366800  1
  Nb  Nb10  1  0.92156900  0.81067700  0.46931600  1
  Nb  Nb11  1  0.46931600  0.92156900  0.81067700  1
  Nb  Nb12  1  0.81067700  0.46931600  0.92156900  1
  Nb  Nb13  1  0.07843100  0.18932300  0.53068400  1
  Nb  Nb14  1  0.53068400  0.07843100  0.18932300  1
  Nb  Nb15  1  0.18932300  0.53068400  0.07843100  1
  Nb  Nb16  1  0.00000000  0.00000000  0.00000000  1
  O  O17  1  0.95636500  0.18432700  0.76369300  1
  O  O18  1  0.76369300  0.95636500  0.18432700  1
  O  O19  1  0.18432700  0.76369300  0.95636500  1
  O  O20  1  0.04363500  0.81567300  0.23630700  1
  O  O21  1  0.23630700  0.04363500  0.81567300  1
  O  O22  1  0.81567300  0.23630700  0.04363500  1
  O  O23  1  0.47026800  0.35239300  0.05737800  1
  O  O24  1  0.05737800  0.47026800  0.35239300  1
  O  O25  1  0.35239300  0.05737800  0.47026800  1
  O  O26  1  0.52973200  0.64760700  0.94262200  1
  O  O27  1  0.94262200  0.52973200  0.64760700  1
  O  O28  1  0.64760700  0.94262200  0.52973200  1
  O  O29  1  0.06960000  0.95832000  0.65960900  1
  O  O30  1  0.65960900  0.06960000  0.95832000  1
  O  O31  1  0.95832000  0.65960900  0.06960000  1
  O  O32  1  0.93040000  0.04168000  0.34039100  1
  O  O33  1  0.34039100  0.93040000  0.04168000  1
  O  O34  1  0.53708400  0.80072600  0.36629100  1
  O  O35  1  0.80072600  0.36629100  0.53708400  1
  O  O36  1  0.36629100  0.53708400  0.80072600  1
  O  O37  1  0.46291600  0.19927400  0.63370900  1
  O  O38  1  0.19927400  0.63370900  0.46291600  1
  O  O39  1  0.63370900  0.46291600  0.19927400  1
  O  O40  1  0.76273800  0.07305800  0.66336900  1
  O  O41  1  0.07305800  0.66336900  0.76273800  1
  O  O42  1  0.66336900  0.76273800  0.07305800  1
  O  O43  1  0.23726200  0.92694200  0.33663100  1
  O  O44  1  0.92694200  0.33663100  0.23726200  1
  O  O45  1  0.33663100  0.23726200  0.92694200  1
  O  O46  1  0.23809400  0.23809400  0.23809400  1
  O  O47  1  0.76190600  0.76190600  0.76190600  1
  O  O48  1  0.04168000  0.34039100  0.93040000  1
