# generated using pymatgen
data_CsTcO4
_symmetry_space_group_name_H-M   'P 1'
_cell_length_a   5.91515000
_cell_length_b   6.08746700
_cell_length_c   14.78408200
_cell_angle_alpha   90.00000000
_cell_angle_beta   90.00000000
_cell_angle_gamma   90.00000000
_symmetry_Int_Tables_number   1
_chemical_formula_structural   CsTcO4
_chemical_formula_sum   'Cs4 Tc4 O16'
_cell_volume   532.34937048
_cell_formula_units_Z   4
loop_
 _symmetry_equiv_pos_site_id
 _symmetry_equiv_pos_as_xyz
  1  'x, y, z'
loop_
 _atom_site_type_symbol
 _atom_site_label
 _atom_site_symmetry_multiplicity
 _atom_site_fract_x
 _atom_site_fract_y
 _atom_site_fract_z
 _atom_site_occupancy
  Cs  Cs0  1  0.47344500  0.75000000  0.62644600  1
  Cs  Cs1  1  0.97344500  0.75000000  0.87355400  1
  Cs  Cs2  1  0.52655500  0.25000000  0.37355400  1
  Cs  Cs3  1  0.02655500  0.25000000  0.12644600  1
  Tc  Tc4  1  0.53643900  0.75000000  0.12151100  1
  Tc  Tc5  1  0.03643900  0.75000000  0.37848900  1
  Tc  Tc6  1  0.46356100  0.25000000  0.87848900  1
  Tc  Tc7  1  0.96356100  0.25000000  0.62151100  1
  O  O8  1  0.49324900  0.98434400  0.18698600  1
  O  O9  1  0.99324900  0.51565600  0.31301400  1
  O  O10  1  0.50675100  0.48434400  0.81301400  1
  O  O11  1  0.00675100  0.01565600  0.68698600  1
  O  O12  1  0.50675100  0.01565600  0.81301400  1
  O  O13  1  0.00675100  0.48434400  0.68698600  1
  O  O14  1  0.49324900  0.51565600  0.18698600  1
  O  O15  1  0.99324900  0.98434400  0.31301400  1
  O  O16  1  0.18667600  0.25000000  0.91964700  1
  O  O17  1  0.68667600  0.25000000  0.58035300  1
  O  O18  1  0.81332400  0.75000000  0.08035300  1
  O  O19  1  0.31332400  0.75000000  0.41964700  1
  O  O20  1  0.65417300  0.25000000  0.96808800  1
  O  O21  1  0.15417300  0.25000000  0.53191200  1
  O  O22  1  0.34582700  0.75000000  0.03191200  1
  O  O23  1  0.84582700  0.75000000  0.46808800  1
