# generated using pymatgen
data_V2Pb3O8
_symmetry_space_group_name_H-M   'P 1'
_cell_length_a   6.57058900
_cell_length_b   7.50825400
_cell_length_c   9.53470756
_cell_angle_alpha   65.47803257
_cell_angle_beta   90.00000000
_cell_angle_gamma   90.00000000
_symmetry_Int_Tables_number   1
_chemical_formula_structural   V2Pb3O8
_chemical_formula_sum   'V4 Pb6 O16'
_cell_volume   427.95452489
_cell_formula_units_Z   2
loop_
 _symmetry_equiv_pos_site_id
 _symmetry_equiv_pos_as_xyz
  1  'x, y, z'
loop_
 _atom_site_type_symbol
 _atom_site_label
 _atom_site_symmetry_multiplicity
 _atom_site_fract_x
 _atom_site_fract_y
 _atom_site_fract_z
 _atom_site_occupancy
  V  V0  1  0.51873300  0.19933300  0.09981900  1
  V  V1  1  0.01873300  0.80066700  0.40018100  1
  V  V2  1  0.48126700  0.80066700  0.90018100  1
  V  V3  1  0.98126700  0.19933300  0.59981900  1
  Pb  Pb4  1  0.11186200  0.38511500  0.21340500  1
  Pb  Pb5  1  0.61186200  0.61488500  0.28659500  1
  Pb  Pb6  1  0.88813800  0.61488500  0.78659500  1
  Pb  Pb7  1  0.38813800  0.38511500  0.71340500  1
  Pb  Pb8  1  0.50000000  0.00000000  0.50000000  1
  Pb  Pb9  1  0.00000000  0.00000000  0.00000000  1
  O  O10  1  0.53952400  0.95755700  0.22925200  1
  O  O11  1  0.03952400  0.04244300  0.27074800  1
  O  O12  1  0.46047600  0.04244300  0.77074800  1
  O  O13  1  0.96047600  0.95755700  0.72925200  1
  O  O14  1  0.47483100  0.32793500  0.21660700  1
  O  O15  1  0.97483100  0.67206500  0.28339300  1
  O  O16  1  0.52516900  0.67206500  0.78339300  1
  O  O17  1  0.02516900  0.32793500  0.71660700  1
  O  O18  1  0.30222500  0.24199400  0.97932100  1
  O  O19  1  0.80222500  0.75800600  0.52067900  1
  O  O20  1  0.76598400  0.27174300  0.48553400  1
  O  O21  1  0.26598400  0.72825700  0.01446600  1
  O  O22  1  0.23401600  0.72825700  0.51446600  1
  O  O23  1  0.73401600  0.27174300  0.98553400  1
  O  O24  1  0.19777500  0.24199400  0.47932100  1
  O  O25  1  0.69777500  0.75800600  0.02067900  1
