# generated using pymatgen
data_BaIn2Ir
_symmetry_space_group_name_H-M   'P 1'
_cell_length_a   6.31947421
_cell_length_b   6.31947421
_cell_length_c   8.18888700
_cell_angle_alpha   90.00000000
_cell_angle_beta   90.00000000
_cell_angle_gamma   138.62204243
_symmetry_Int_Tables_number   1
_chemical_formula_structural   BaIn2Ir
_chemical_formula_sum   'Ba2 In4 Ir2'
_cell_volume   216.17401948
_cell_formula_units_Z   2
loop_
 _symmetry_equiv_pos_site_id
 _symmetry_equiv_pos_as_xyz
  1  'x, y, z'
loop_
 _atom_site_type_symbol
 _atom_site_label
 _atom_site_symmetry_multiplicity
 _atom_site_fract_x
 _atom_site_fract_y
 _atom_site_fract_z
 _atom_site_occupancy
  Ba  Ba0  1  0.05385900  0.94614100  0.25000000  1
  Ba  Ba1  1  0.94614100  0.05385900  0.75000000  1
  In  In2  1  0.66492800  0.33507200  0.55552300  1
  In  In3  1  0.33507200  0.66492800  0.44447700  1
  In  In4  1  0.66492800  0.33507200  0.94447700  1
  In  In5  1  0.33507200  0.66492800  0.05552300  1
  Ir  Ir6  1  0.22034800  0.77965200  0.75000000  1
  Ir  Ir7  1  0.77965200  0.22034800  0.25000000  1
