# generated using pymatgen
data_CeGePd
_symmetry_space_group_name_H-M   'P 1'
_cell_length_a   4.48406700
_cell_length_b   7.71625100
_cell_length_c   21.66169400
_cell_angle_alpha   90.00000000
_cell_angle_beta   90.00000000
_cell_angle_gamma   90.00000000
_symmetry_Int_Tables_number   1
_chemical_formula_structural   CeGePd
_chemical_formula_sum   'Ce12 Ge12 Pd12'
_cell_volume   749.49865172
_cell_formula_units_Z   12
loop_
 _symmetry_equiv_pos_site_id
 _symmetry_equiv_pos_as_xyz
  1  'x, y, z'
loop_
 _atom_site_type_symbol
 _atom_site_label
 _atom_site_symmetry_multiplicity
 _atom_site_fract_x
 _atom_site_fract_y
 _atom_site_fract_z
 _atom_site_occupancy
  Ce  Ce0  1  0.25000000  0.78562300  0.83302000  1
  Ce  Ce1  1  0.75000000  0.21437700  0.16698000  1
  Ce  Ce2  1  0.75000000  0.28562300  0.66698000  1
  Ce  Ce3  1  0.25000000  0.71437700  0.33302000  1
  Ce  Ce4  1  0.25000000  0.71056300  0.66618400  1
  Ce  Ce5  1  0.75000000  0.28943700  0.33381600  1
  Ce  Ce6  1  0.75000000  0.21056300  0.83381600  1
  Ce  Ce7  1  0.25000000  0.78943700  0.16618400  1
  Ce  Ce8  1  0.25000000  0.77985600  0.50199000  1
  Ce  Ce9  1  0.75000000  0.22014400  0.49801000  1
  Ce  Ce10  1  0.75000000  0.27985600  0.99801000  1
  Ce  Ce11  1  0.25000000  0.72014400  0.00199000  1
  Ge  Ge12  1  0.25000000  0.41275500  0.89803500  1
  Ge  Ge13  1  0.75000000  0.58724500  0.10196500  1
  Ge  Ge14  1  0.75000000  0.91275500  0.60196500  1
  Ge  Ge15  1  0.25000000  0.08724500  0.39803500  1
  Ge  Ge16  1  0.25000000  0.41133800  0.76633500  1
  Ge  Ge17  1  0.75000000  0.58866200  0.23366500  1
  Ge  Ge18  1  0.75000000  0.91133800  0.73366500  1
  Ge  Ge19  1  0.25000000  0.08866200  0.26633500  1
  Ge  Ge20  1  0.25000000  0.40976700  0.57266600  1
  Ge  Ge21  1  0.75000000  0.59023300  0.42733400  1
  Ge  Ge22  1  0.75000000  0.90976700  0.92733400  1
  Ge  Ge23  1  0.25000000  0.09023300  0.07266600  1
  Pd  Pd24  1  0.25000000  0.42166200  0.09265300  1
  Pd  Pd25  1  0.75000000  0.57833800  0.90734700  1
  Pd  Pd26  1  0.75000000  0.92166200  0.40734700  1
  Pd  Pd27  1  0.25000000  0.07833800  0.59265300  1
  Pd  Pd28  1  0.25000000  0.41963800  0.23882400  1
  Pd  Pd29  1  0.75000000  0.58036200  0.76117600  1
  Pd  Pd30  1  0.75000000  0.91963800  0.26117600  1
  Pd  Pd31  1  0.25000000  0.08036200  0.73882400  1
  Pd  Pd32  1  0.25000000  0.41611700  0.43271900  1
  Pd  Pd33  1  0.75000000  0.58388300  0.56728100  1
  Pd  Pd34  1  0.75000000  0.91611700  0.06728100  1
  Pd  Pd35  1  0.25000000  0.08388300  0.93271900  1
