# generated using pymatgen
data_Ag3SnP7
_symmetry_space_group_name_H-M   'P 1'
_cell_length_a   11.20545300
_cell_length_b   6.44169300
_cell_length_c   6.60259729
_cell_angle_alpha   71.69281341
_cell_angle_beta   90.00000000
_cell_angle_gamma   90.00000000
_symmetry_Int_Tables_number   1
_chemical_formula_structural   Ag3SnP7
_chemical_formula_sum   'Ag6 Sn2 P14'
_cell_volume   452.46721192
_cell_formula_units_Z   2
loop_
 _symmetry_equiv_pos_site_id
 _symmetry_equiv_pos_as_xyz
  1  'x, y, z'
loop_
 _atom_site_type_symbol
 _atom_site_label
 _atom_site_symmetry_multiplicity
 _atom_site_fract_x
 _atom_site_fract_y
 _atom_site_fract_z
 _atom_site_occupancy
  Ag  Ag0  1  0.75000000  0.92273900  0.32727200  1
  Ag  Ag1  1  0.25000000  0.07726100  0.67272800  1
  Ag  Ag2  1  0.89734000  0.30972500  0.31727100  1
  Ag  Ag3  1  0.39734000  0.69027500  0.68272900  1
  Ag  Ag4  1  0.10266000  0.69027500  0.68272900  1
  Ag  Ag5  1  0.60266000  0.30972500  0.31727100  1
  Sn  Sn6  1  0.75000000  0.30773700  0.95835600  1
  Sn  Sn7  1  0.25000000  0.69226300  0.04164400  1
  P  P8  1  0.91937700  0.83339700  0.84205800  1
  P  P9  1  0.41937700  0.16660300  0.15794200  1
  P  P10  1  0.08062300  0.16660300  0.15794200  1
  P  P11  1  0.58062300  0.83339700  0.84205800  1
  P  P12  1  0.91120700  0.72224200  0.19469400  1
  P  P13  1  0.41120700  0.27775800  0.80530600  1
  P  P14  1  0.08879300  0.27775800  0.80530600  1
  P  P15  1  0.58879300  0.72224200  0.19469400  1
  P  P16  1  0.90975900  0.19462400  0.71772600  1
  P  P17  1  0.40975900  0.80537600  0.28227400  1
  P  P18  1  0.09024100  0.80537600  0.28227400  1
  P  P19  1  0.59024100  0.19462400  0.71772600  1
  P  P20  1  0.75000000  0.73143100  0.72708700  1
  P  P21  1  0.25000000  0.26856900  0.27291300  1
