# generated using pymatgen
data_Ce3(CuGe)4
_symmetry_space_group_name_H-M   'P 1'
_cell_length_a   8.12160271
_cell_length_b   8.12160271
_cell_length_c   8.12160271
_cell_angle_alpha   148.87628465
_cell_angle_beta   131.53328978
_cell_angle_gamma   58.72754270
_symmetry_Int_Tables_number   1
_chemical_formula_structural   Ce3(CuGe)4
_chemical_formula_sum   'Ce3 Cu4 Ge4'
_cell_volume   205.64351876
_cell_formula_units_Z   1
loop_
 _symmetry_equiv_pos_site_id
 _symmetry_equiv_pos_as_xyz
  1  'x, y, z'
loop_
 _atom_site_type_symbol
 _atom_site_label
 _atom_site_symmetry_multiplicity
 _atom_site_fract_x
 _atom_site_fract_y
 _atom_site_fract_z
 _atom_site_occupancy
  Ce  Ce0  1  0.50000000  0.00000000  0.50000000  1
  Ce  Ce1  1  0.86792400  0.86792400  0.00000000  1
  Ce  Ce2  1  0.13207600  0.13207600  0.00000000  1
  Cu  Cu3  1  0.85401700  0.66659600  0.18742100  1
  Cu  Cu4  1  0.14598300  0.33340400  0.81257900  1
  Cu  Cu5  1  0.47917500  0.66659600  0.81257900  1
  Cu  Cu6  1  0.52082500  0.33340400  0.18742100  1
  Ge  Ge7  1  0.28355300  0.78355300  0.50000000  1
  Ge  Ge8  1  0.80941000  0.50000000  0.30941000  1
  Ge  Ge9  1  0.19059000  0.50000000  0.69059000  1
  Ge  Ge10  1  0.71644700  0.21644700  0.50000000  1
