# generated using pymatgen
data_Ag2Hg7(As2I3)2
_symmetry_space_group_name_H-M   'P 1'
_cell_length_a   13.58181600
_cell_length_b   13.58181600
_cell_length_c   13.58181600
_cell_angle_alpha   90.00000000
_cell_angle_beta   90.00000000
_cell_angle_gamma   90.00000000
_symmetry_Int_Tables_number   1
_chemical_formula_structural   Ag2Hg7(As2I3)2
_chemical_formula_sum   'Ag8 Hg28 As16 I24'
_cell_volume   2505.37954691
_cell_formula_units_Z   4
loop_
 _symmetry_equiv_pos_site_id
 _symmetry_equiv_pos_as_xyz
  1  'x, y, z'
loop_
 _atom_site_type_symbol
 _atom_site_label
 _atom_site_symmetry_multiplicity
 _atom_site_fract_x
 _atom_site_fract_y
 _atom_site_fract_z
 _atom_site_occupancy
  Ag  Ag0  1  0.22063000  0.22063000  0.22063000  1
  Ag  Ag1  1  0.27937000  0.77937000  0.72063000  1
  Ag  Ag2  1  0.72063000  0.27937000  0.77937000  1
  Ag  Ag3  1  0.77937000  0.72063000  0.27937000  1
  Ag  Ag4  1  0.77937000  0.77937000  0.77937000  1
  Ag  Ag5  1  0.72063000  0.22063000  0.27937000  1
  Ag  Ag6  1  0.27937000  0.72063000  0.22063000  1
  Ag  Ag7  1  0.22063000  0.27937000  0.72063000  1
  Hg  Hg8  1  0.21054200  0.41901600  0.44739200  1
  Hg  Hg9  1  0.44739200  0.21054200  0.41901600  1
  Hg  Hg10  1  0.41901600  0.44739200  0.21054200  1
  Hg  Hg11  1  0.08098400  0.55260800  0.71054200  1
  Hg  Hg12  1  0.94739200  0.28945800  0.58098400  1
  Hg  Hg13  1  0.58098400  0.94739200  0.28945800  1
  Hg  Hg14  1  0.05260800  0.78945800  0.91901600  1
  Hg  Hg15  1  0.55260800  0.71054200  0.08098400  1
  Hg  Hg16  1  0.91901600  0.05260800  0.78945800  1
  Hg  Hg17  1  0.71054200  0.08098400  0.55260800  1
  Hg  Hg18  1  0.78945800  0.91901600  0.05260800  1
  Hg  Hg19  1  0.28945800  0.58098400  0.94739200  1
  Hg  Hg20  1  0.78945800  0.58098400  0.55260800  1
  Hg  Hg21  1  0.55260800  0.78945800  0.58098400  1
  Hg  Hg22  1  0.58098400  0.55260800  0.78945800  1
  Hg  Hg23  1  0.91901600  0.44739200  0.28945800  1
  Hg  Hg24  1  0.05260800  0.71054200  0.41901600  1
  Hg  Hg25  1  0.41901600  0.05260800  0.71054200  1
  Hg  Hg26  1  0.94739200  0.21054200  0.08098400  1
  Hg  Hg27  1  0.44739200  0.28945800  0.91901600  1
  Hg  Hg28  1  0.08098400  0.94739200  0.21054200  1
  Hg  Hg29  1  0.28945800  0.91901600  0.44739200  1
  Hg  Hg30  1  0.21054200  0.08098400  0.94739200  1
  Hg  Hg31  1  0.71054200  0.41901600  0.05260800  1
  Hg  Hg32  1  0.50000000  0.50000000  0.50000000  1
  Hg  Hg33  1  0.00000000  0.50000000  0.00000000  1
  Hg  Hg34  1  0.00000000  0.00000000  0.50000000  1
  Hg  Hg35  1  0.50000000  0.00000000  0.00000000  1
  As  As36  1  0.05235000  0.05235000  0.05235000  1
  As  As37  1  0.44765000  0.94765000  0.55235000  1
  As  As38  1  0.55235000  0.44765000  0.94765000  1
  As  As39  1  0.94765000  0.55235000  0.44765000  1
  As  As40  1  0.94765000  0.94765000  0.94765000  1
  As  As41  1  0.55235000  0.05235000  0.44765000  1
  As  As42  1  0.44765000  0.55235000  0.05235000  1
  As  As43  1  0.05235000  0.44765000  0.55235000  1
  As  As44  1  0.39037200  0.39037200  0.39037200  1
  As  As45  1  0.10962800  0.60962800  0.89037200  1
  As  As46  1  0.89037200  0.10962800  0.60962800  1
  As  As47  1  0.60962800  0.89037200  0.10962800  1
  As  As48  1  0.60962800  0.60962800  0.60962800  1
  As  As49  1  0.89037200  0.39037200  0.10962800  1
  As  As50  1  0.10962800  0.89037200  0.39037200  1
  As  As51  1  0.39037200  0.10962800  0.89037200  1
  I  I52  1  0.16400900  0.55742500  0.25382700  1
  I  I53  1  0.25382700  0.16400900  0.55742500  1
  I  I54  1  0.55742500  0.25382700  0.16400900  1
  I  I55  1  0.94257500  0.74617300  0.66400900  1
  I  I56  1  0.75382700  0.33599100  0.44257500  1
  I  I57  1  0.44257500  0.75382700  0.33599100  1
  I  I58  1  0.24617300  0.83599100  0.05742500  1
  I  I59  1  0.74617300  0.66400900  0.94257500  1
  I  I60  1  0.05742500  0.24617300  0.83599100  1
  I  I61  1  0.66400900  0.94257500  0.74617300  1
  I  I62  1  0.83599100  0.05742500  0.24617300  1
  I  I63  1  0.33599100  0.44257500  0.75382700  1
  I  I64  1  0.83599100  0.44257500  0.74617300  1
  I  I65  1  0.74617300  0.83599100  0.44257500  1
  I  I66  1  0.44257500  0.74617300  0.83599100  1
  I  I67  1  0.05742500  0.25382700  0.33599100  1
  I  I68  1  0.24617300  0.66400900  0.55742500  1
  I  I69  1  0.55742500  0.24617300  0.66400900  1
  I  I70  1  0.75382700  0.16400900  0.94257500  1
  I  I71  1  0.25382700  0.33599100  0.05742500  1
  I  I72  1  0.94257500  0.75382700  0.16400900  1
  I  I73  1  0.33599100  0.05742500  0.25382700  1
  I  I74  1  0.16400900  0.94257500  0.75382700  1
  I  I75  1  0.66400900  0.55742500  0.24617300  1
