# generated using pymatgen
data_Ag2BiO3
_symmetry_space_group_name_H-M   'P 1'
_cell_length_a   6.16040000
_cell_length_b   6.34977200
_cell_length_c   9.76762000
_cell_angle_alpha   90.00000000
_cell_angle_beta   90.00000000
_cell_angle_gamma   90.00000000
_symmetry_Int_Tables_number   1
_chemical_formula_structural   Ag2BiO3
_chemical_formula_sum   'Ag8 Bi4 O12'
_cell_volume   382.08131436
_cell_formula_units_Z   4
loop_
 _symmetry_equiv_pos_site_id
 _symmetry_equiv_pos_as_xyz
  1  'x, y, z'
loop_
 _atom_site_type_symbol
 _atom_site_label
 _atom_site_symmetry_multiplicity
 _atom_site_fract_x
 _atom_site_fract_y
 _atom_site_fract_z
 _atom_site_occupancy
  Ag  Ag0  1  0.97054600  0.75154700  0.25195400  1
  Ag  Ag1  1  0.74659100  0.00038200  0.49642200  1
  Ag  Ag2  1  0.24659100  0.49961800  0.99642200  1
  Ag  Ag3  1  0.75340900  0.50038200  0.99642200  1
  Ag  Ag4  1  0.52945400  0.25154700  0.75195400  1
  Ag  Ag5  1  0.47054600  0.74845300  0.75195400  1
  Ag  Ag6  1  0.02945400  0.24845300  0.25195400  1
  Ag  Ag7  1  0.25340900  0.99961800  0.49642200  1
  Bi  Bi8  1  0.00000000  0.00000000  0.89674100  1
  Bi  Bi9  1  0.50000000  0.50000000  0.39674100  1
  Bi  Bi10  1  0.00000000  0.50000000  0.60415600  1
  Bi  Bi11  1  0.50000000  0.00000000  0.10415600  1
  O  O12  1  0.89107600  0.22308800  0.74485900  1
  O  O13  1  0.10892400  0.77691200  0.74485900  1
  O  O14  1  0.60892400  0.72308800  0.24485900  1
  O  O15  1  0.39107600  0.27691200  0.24485900  1
  O  O16  1  0.69474000  0.81938700  0.93287100  1
  O  O17  1  0.30526000  0.18061300  0.93287100  1
  O  O18  1  0.80526000  0.31938700  0.43287100  1
  O  O19  1  0.19474000  0.68061300  0.43287100  1
  O  O20  1  0.32332100  0.31624700  0.55837500  1
  O  O21  1  0.82332100  0.18375300  0.05837500  1
  O  O22  1  0.17667900  0.81624700  0.05837500  1
  O  O23  1  0.67667900  0.68375300  0.55837500  1
