# generated using pymatgen
data_NbSeF9
_symmetry_space_group_name_H-M   'P 1'
_cell_length_a   9.14131980
_cell_length_b   9.14131980
_cell_length_c   9.14131960
_cell_angle_alpha   93.27253760
_cell_angle_beta   93.27253760
_cell_angle_gamma   93.27253841
_symmetry_Int_Tables_number   1
_chemical_formula_structural   NbSeF9
_chemical_formula_sum   'Nb4 Se4 F36'
_cell_volume   759.99679245
_cell_formula_units_Z   4
loop_
 _symmetry_equiv_pos_site_id
 _symmetry_equiv_pos_as_xyz
  1  'x, y, z'
loop_
 _atom_site_type_symbol
 _atom_site_label
 _atom_site_symmetry_multiplicity
 _atom_site_fract_x
 _atom_site_fract_y
 _atom_site_fract_z
 _atom_site_occupancy
  Nb  Nb0  1  0.00108400  0.78500200  0.33181900  1
  Nb  Nb1  1  0.33181900  0.00108400  0.78500200  1
  Nb  Nb2  1  0.78500200  0.33181900  0.00108400  1
  Nb  Nb3  1  0.39603700  0.39603700  0.39603700  1
  Se  Se4  1  0.44721400  0.93983000  0.24553700  1
  Se  Se5  1  0.24553700  0.44721400  0.93983000  1
  Se  Se6  1  0.93983000  0.24553700  0.44721400  1
  Se  Se7  1  0.88015600  0.88015600  0.88015600  1
  F  F8  1  0.90825300  0.42547600  0.50053700  1
  F  F9  1  0.42547600  0.50053700  0.90825300  1
  F  F10  1  0.50053700  0.90825300  0.42547600  1
  F  F11  1  0.82913800  0.12364300  0.94886500  1
  F  F12  1  0.12364300  0.94886500  0.82913800  1
  F  F13  1  0.94886500  0.82913800  0.12364300  1
  F  F14  1  0.85172500  0.28958600  0.20573700  1
  F  F15  1  0.28958600  0.20573700  0.85172500  1
  F  F16  1  0.44686800  0.35261500  0.59117600  1
  F  F17  1  0.59117600  0.44686800  0.35261500  1
  F  F18  1  0.35261500  0.59117600  0.44686800  1
  F  F19  1  0.42248400  0.18741300  0.32802200  1
  F  F20  1  0.32802200  0.42248400  0.18741300  1
  F  F21  1  0.18741300  0.32802200  0.42248400  1
  F  F22  1  0.80062500  0.74361100  0.36059000  1
  F  F23  1  0.36059000  0.80062500  0.74361100  1
  F  F24  1  0.74361100  0.36059000  0.80062500  1
  F  F25  1  0.03814500  0.59111000  0.26762200  1
  F  F26  1  0.26762200  0.03814500  0.59111000  1
  F  F27  1  0.59111000  0.26762200  0.03814500  1
  F  F28  1  0.47160000  0.76047500  0.18350600  1
  F  F29  1  0.18350600  0.47160000  0.76047500  1
  F  F30  1  0.76047500  0.18350600  0.47160000  1
  F  F31  1  0.62395700  0.99840200  0.20583100  1
  F  F32  1  0.20583100  0.62395700  0.99840200  1
  F  F33  1  0.99840200  0.20583100  0.62395700  1
  F  F34  1  0.06107700  0.76080400  0.52942800  1
  F  F35  1  0.52942800  0.06107700  0.76080400  1
  F  F36  1  0.76080400  0.52942800  0.06107700  1
  F  F37  1  0.97474800  0.99841300  0.37873400  1
  F  F38  1  0.37873400  0.97474800  0.99841300  1
  F  F39  1  0.99841300  0.37873400  0.97474800  1
  F  F40  1  0.91956500  0.70168100  0.82795900  1
  F  F41  1  0.82795900  0.91956500  0.70168100  1
  F  F42  1  0.70168100  0.82795900  0.91956500  1
  F  F43  1  0.20573700  0.85172500  0.28958600  1
