# generated using pymatgen
data_NdNiSn
_symmetry_space_group_name_H-M   'P 1'
_cell_length_a   4.60145200
_cell_length_b   7.45094700
_cell_length_c   7.70021200
_cell_angle_alpha   90.00000000
_cell_angle_beta   90.00000000
_cell_angle_gamma   90.00000000
_symmetry_Int_Tables_number   1
_chemical_formula_structural   NdNiSn
_chemical_formula_sum   'Nd4 Ni4 Sn4'
_cell_volume   264.00311576
_cell_formula_units_Z   4
loop_
 _symmetry_equiv_pos_site_id
 _symmetry_equiv_pos_as_xyz
  1  'x, y, z'
loop_
 _atom_site_type_symbol
 _atom_site_label
 _atom_site_symmetry_multiplicity
 _atom_site_fract_x
 _atom_site_fract_y
 _atom_site_fract_z
 _atom_site_occupancy
  Nd  Nd0  1  0.25000000  0.01683400  0.29979700  1
  Nd  Nd1  1  0.25000000  0.51683400  0.20020300  1
  Nd  Nd2  1  0.75000000  0.98316600  0.70020300  1
  Nd  Nd3  1  0.75000000  0.48316600  0.79979700  1
  Ni  Ni4  1  0.25000000  0.30691000  0.58380100  1
  Ni  Ni5  1  0.25000000  0.80691000  0.91619900  1
  Ni  Ni6  1  0.75000000  0.69309000  0.41619900  1
  Ni  Ni7  1  0.75000000  0.19309000  0.08380100  1
  Sn  Sn8  1  0.25000000  0.18663800  0.91203100  1
  Sn  Sn9  1  0.25000000  0.68663800  0.58796900  1
  Sn  Sn10  1  0.75000000  0.81336200  0.08796900  1
  Sn  Sn11  1  0.75000000  0.31336200  0.41203100  1
