# generated using pymatgen
data_Ba2EuTaO6
_symmetry_space_group_name_H-M   'P 1'
_cell_length_a   6.10301173
_cell_length_b   6.10301173
_cell_length_c   6.10301173
_cell_angle_alpha   120.16496379
_cell_angle_beta   120.16496379
_cell_angle_gamma   89.71451102
_symmetry_Int_Tables_number   1
_chemical_formula_structural   Ba2EuTaO6
_chemical_formula_sum   'Ba2 Eu1 Ta1 O6'
_cell_volume   160.33470638
_cell_formula_units_Z   1
loop_
 _symmetry_equiv_pos_site_id
 _symmetry_equiv_pos_as_xyz
  1  'x, y, z'
loop_
 _atom_site_type_symbol
 _atom_site_label
 _atom_site_symmetry_multiplicity
 _atom_site_fract_x
 _atom_site_fract_y
 _atom_site_fract_z
 _atom_site_occupancy
  Ba  Ba0  1  0.25000000  0.75000000  0.50000000  1
  Ba  Ba1  1  0.75000000  0.25000000  0.50000000  1
  Eu  Eu2  1  0.00000000  0.00000000  0.00000000  1
  Ta  Ta3  1  0.50000000  0.50000000  0.00000000  1
  O  O4  1  0.24918800  0.28448400  0.53367200  1
  O  O5  1  0.73214700  0.73214700  0.00000000  1
  O  O6  1  0.28448400  0.75081200  0.03529600  1
  O  O7  1  0.26785300  0.26785300  0.00000000  1
  O  O8  1  0.75081200  0.71551600  0.46632800  1
  O  O9  1  0.71551600  0.24918800  0.96470400  1
