# generated using pymatgen
data_Eu(Sb3Ru)4
_symmetry_space_group_name_H-M   'P 1'
_cell_length_a   8.14671829
_cell_length_b   8.14671829
_cell_length_c   8.14671829
_cell_angle_alpha   109.47122063
_cell_angle_beta   109.47122063
_cell_angle_gamma   109.47122063
_symmetry_Int_Tables_number   1
_chemical_formula_structural   Eu(Sb3Ru)4
_chemical_formula_sum   'Eu1 Sb12 Ru4'
_cell_volume   416.22312583
_cell_formula_units_Z   1
loop_
 _symmetry_equiv_pos_site_id
 _symmetry_equiv_pos_as_xyz
  1  'x, y, z'
loop_
 _atom_site_type_symbol
 _atom_site_label
 _atom_site_symmetry_multiplicity
 _atom_site_fract_x
 _atom_site_fract_y
 _atom_site_fract_z
 _atom_site_occupancy
  Eu  Eu0  1  0.00000000  0.00000000  0.00000000  1
  Sb  Sb1  1  0.65870600  0.84113800  0.49984400  1
  Sb  Sb2  1  0.34129400  0.15886200  0.50015600  1
  Sb  Sb3  1  0.84113800  0.18243200  0.34129400  1
  Sb  Sb4  1  0.81756800  0.65870600  0.15886200  1
  Sb  Sb5  1  0.84113800  0.49984400  0.65870600  1
  Sb  Sb6  1  0.18243200  0.34129400  0.84113800  1
  Sb  Sb7  1  0.15886200  0.81756800  0.65870600  1
  Sb  Sb8  1  0.49984400  0.65870600  0.84113800  1
  Sb  Sb9  1  0.50015600  0.34129400  0.15886200  1
  Sb  Sb10  1  0.15886200  0.50015600  0.34129400  1
  Sb  Sb11  1  0.34129400  0.84113800  0.18243200  1
  Sb  Sb12  1  0.65870600  0.15886200  0.81756800  1
  Ru  Ru13  1  0.50000000  0.50000000  0.50000000  1
  Ru  Ru14  1  0.00000000  0.00000000  0.50000000  1
  Ru  Ru15  1  0.50000000  0.00000000  0.00000000  1
  Ru  Ru16  1  0.00000000  0.50000000  0.00000000  1
