# generated using pymatgen
data_Nd(AlBr4)3
_symmetry_space_group_name_H-M   'P 1'
_cell_length_a   10.88746675
_cell_length_b   10.88746675
_cell_length_c   18.90611300
_cell_angle_alpha   90.00000000
_cell_angle_beta   90.00000000
_cell_angle_gamma   120.00000453
_symmetry_Int_Tables_number   1
_chemical_formula_structural   Nd(AlBr4)3
_chemical_formula_sum   'Nd3 Al9 Br36'
_cell_volume   1940.82574390
_cell_formula_units_Z   3
loop_
 _symmetry_equiv_pos_site_id
 _symmetry_equiv_pos_as_xyz
  1  'x, y, z'
loop_
 _atom_site_type_symbol
 _atom_site_label
 _atom_site_symmetry_multiplicity
 _atom_site_fract_x
 _atom_site_fract_y
 _atom_site_fract_z
 _atom_site_occupancy
  Nd  Nd0  1  0.00000000  0.73392400  0.66666700  1
  Nd  Nd1  1  0.73392400  0.00000000  0.33333300  1
  Nd  Nd2  1  0.26607600  0.26607600  0.00000000  1
  Al  Al3  1  0.90289600  0.90289600  0.50000000  1
  Al  Al4  1  0.34032100  0.70302900  0.38730100  1
  Al  Al5  1  0.29697100  0.63729200  0.72063500  1
  Al  Al6  1  0.36270800  0.65967900  0.05396800  1
  Al  Al7  1  0.09710400  0.00000000  0.83333300  1
  Al  Al8  1  0.00000000  0.09710400  0.16666700  1
  Al  Al9  1  0.70302900  0.34032100  0.61269900  1
  Al  Al10  1  0.65967900  0.36270800  0.94603200  1
  Al  Al11  1  0.63729200  0.29697100  0.27936500  1
  Br  Br12  1  0.29112000  0.51314900  0.45619700  1
  Br  Br13  1  0.22203000  0.70888000  0.12286400  1
  Br  Br14  1  0.48685100  0.77797000  0.78953100  1
  Br  Br15  1  0.71591500  0.48613600  0.71021700  1
  Br  Br16  1  0.51386400  0.22977800  0.04355100  1
  Br  Br17  1  0.77022200  0.28408500  0.37688400  1
  Br  Br18  1  0.22977800  0.51386400  0.95644900  1
  Br  Br19  1  0.28408500  0.77022200  0.62311600  1
  Br  Br20  1  0.48613600  0.71591500  0.28978300  1
  Br  Br21  1  0.92007800  0.51292600  0.55597700  1
  Br  Br22  1  0.48707400  0.40715100  0.88931100  1
  Br  Br23  1  0.59284900  0.07992200  0.22264400  1
  Br  Br24  1  0.40715100  0.48707400  0.11068900  1
  Br  Br25  1  0.07992200  0.59284900  0.77735600  1
  Br  Br26  1  0.51292600  0.92007800  0.44402300  1
  Br  Br27  1  0.12069200  0.92632600  0.53100400  1
  Br  Br28  1  0.07367400  0.19436600  0.86433700  1
  Br  Br29  1  0.80563400  0.87930800  0.19767000  1
  Br  Br30  1  0.19436600  0.07367400  0.13566300  1
  Br  Br31  1  0.87930800  0.80563400  0.80233000  1
  Br  Br32  1  0.92632600  0.12069200  0.46899600  1
  Br  Br33  1  0.22850400  0.02721100  0.73092900  1
  Br  Br34  1  0.97278900  0.20129300  0.06426300  1
  Br  Br35  1  0.79870700  0.77149600  0.39759600  1
  Br  Br36  1  0.20129300  0.97278900  0.93573700  1
  Br  Br37  1  0.77149600  0.79870700  0.60240400  1
  Br  Br38  1  0.02721100  0.22850400  0.26907100  1
  Br  Br39  1  0.15272300  0.72283800  0.34981000  1
  Br  Br40  1  0.27716200  0.42988500  0.68314300  1
  Br  Br41  1  0.57011500  0.84727700  0.01647700  1
  Br  Br42  1  0.42988500  0.27716200  0.31685700  1
  Br  Br43  1  0.84727700  0.57011500  0.98352300  1
  Br  Br44  1  0.72283800  0.15272300  0.65019000  1
  Br  Br45  1  0.51314900  0.29112000  0.54380200  1
  Br  Br46  1  0.70888000  0.22203000  0.87713600  1
  Br  Br47  1  0.77797000  0.48685100  0.21046900  1
