# generated using pymatgen
data_Al2Te3
_symmetry_space_group_name_H-M   'P 1'
_cell_length_a   13.13512900
_cell_length_b   7.28180900
_cell_length_c   15.32495763
_cell_angle_alpha   89.94670823
_cell_angle_beta   90.00000000
_cell_angle_gamma   90.00000000
_symmetry_Int_Tables_number   1
_chemical_formula_structural   Al2Te3
_chemical_formula_sum   'Al16 Te24'
_cell_volume   1465.79325948
_cell_formula_units_Z   8
loop_
 _symmetry_equiv_pos_site_id
 _symmetry_equiv_pos_as_xyz
  1  'x, y, z'
loop_
 _atom_site_type_symbol
 _atom_site_label
 _atom_site_symmetry_multiplicity
 _atom_site_fract_x
 _atom_site_fract_y
 _atom_site_fract_z
 _atom_site_occupancy
  Al  Al0  1  0.25056800  0.42009900  0.30767800  1
  Al  Al1  1  0.75056800  0.57990100  0.19232200  1
  Al  Al2  1  0.74943200  0.57990100  0.69232200  1
  Al  Al3  1  0.24943200  0.42009900  0.80767800  1
  Al  Al4  1  0.09374500  0.93099100  0.31783500  1
  Al  Al5  1  0.59374500  0.06900900  0.18216500  1
  Al  Al6  1  0.90625500  0.06900900  0.68216500  1
  Al  Al7  1  0.40625500  0.93099100  0.81783500  1
  Al  Al8  1  0.40998800  0.92108800  0.30278700  1
  Al  Al9  1  0.90998800  0.07891200  0.19721300  1
  Al  Al10  1  0.59001200  0.07891200  0.69721300  1
  Al  Al11  1  0.09001200  0.92108800  0.80278700  1
  Al  Al12  1  0.06741900  0.56916200  0.18883800  1
  Al  Al13  1  0.56741900  0.43083800  0.31116200  1
  Al  Al14  1  0.93258100  0.43083800  0.81116200  1
  Al  Al15  1  0.43258100  0.56916200  0.68883800  1
  Te  Te16  1  0.25773500  0.08954200  0.38895800  1
  Te  Te17  1  0.75773500  0.91045800  0.11104200  1
  Te  Te18  1  0.74226500  0.91045800  0.61104200  1
  Te  Te19  1  0.24226500  0.08954200  0.88895800  1
  Te  Te20  1  0.23670800  0.41860100  0.14018900  1
  Te  Te21  1  0.73670800  0.58139900  0.35981100  1
  Te  Te22  1  0.76329200  0.58139900  0.85981100  1
  Te  Te23  1  0.26329200  0.41860100  0.64018900  1
  Te  Te24  1  0.08416400  0.92399400  0.14221200  1
  Te  Te25  1  0.58416400  0.07600600  0.35778800  1
  Te  Te26  1  0.91583600  0.07600600  0.85778800  1
  Te  Te27  1  0.41583600  0.92399400  0.64221200  1
  Te  Te28  1  0.42403900  0.91688000  0.13507100  1
  Te  Te29  1  0.92403900  0.08312000  0.36492900  1
  Te  Te30  1  0.57596100  0.08312000  0.86492900  1
  Te  Te31  1  0.07596100  0.91688000  0.63507100  1
  Te  Te32  1  0.40658400  0.59212300  0.38628900  1
  Te  Te33  1  0.90658400  0.40787700  0.11371100  1
  Te  Te34  1  0.59341600  0.40787700  0.61371100  1
  Te  Te35  1  0.09341600  0.59212300  0.88628900  1
  Te  Te36  1  0.07725100  0.57566600  0.36447000  1
  Te  Te37  1  0.57725100  0.42433400  0.13553000  1
  Te  Te38  1  0.92274900  0.42433400  0.63553000  1
  Te  Te39  1  0.42274900  0.57566600  0.86447000  1
