# generated using pymatgen
data_BaIn2
_symmetry_space_group_name_H-M   'P 1'
_cell_length_a   6.69575886
_cell_length_b   6.69575886
_cell_length_c   6.69575886
_cell_angle_alpha   132.96376759
_cell_angle_beta   99.43231824
_cell_angle_gamma   98.89254540
_symmetry_Int_Tables_number   1
_chemical_formula_structural   BaIn2
_chemical_formula_sum   'Ba2 In4'
_cell_volume   201.42539708
_cell_formula_units_Z   2
loop_
 _symmetry_equiv_pos_site_id
 _symmetry_equiv_pos_as_xyz
  1  'x, y, z'
loop_
 _atom_site_type_symbol
 _atom_site_label
 _atom_site_symmetry_multiplicity
 _atom_site_fract_x
 _atom_site_fract_y
 _atom_site_fract_z
 _atom_site_occupancy
  Ba  Ba0  1  0.20137700  0.45137700  0.75000000  1
  Ba  Ba1  1  0.79862300  0.54862300  0.25000000  1
  In  In2  1  0.22973200  0.16181900  0.06791300  1
  In  In3  1  0.77026800  0.83818100  0.93208700  1
  In  In4  1  0.59390700  0.16181900  0.43208700  1
  In  In5  1  0.40609300  0.83818100  0.56791300  1
