# generated using pymatgen
data_P2Pb3S8
_symmetry_space_group_name_H-M   'P 1'
_cell_length_a   11.19321300
_cell_length_b   11.19321300
_cell_length_c   11.19321300
_cell_angle_alpha   90.00000000
_cell_angle_beta   90.00000000
_cell_angle_gamma   90.00000000
_symmetry_Int_Tables_number   1
_chemical_formula_structural   P2Pb3S8
_chemical_formula_sum   'P8 Pb12 S32'
_cell_volume   1402.37546358
_cell_formula_units_Z   4
loop_
 _symmetry_equiv_pos_site_id
 _symmetry_equiv_pos_as_xyz
  1  'x, y, z'
loop_
 _atom_site_type_symbol
 _atom_site_label
 _atom_site_symmetry_multiplicity
 _atom_site_fract_x
 _atom_site_fract_y
 _atom_site_fract_z
 _atom_site_occupancy
  P  P0  1  0.15280600  0.34719400  0.65280600  1
  P  P1  1  0.34719400  0.65280600  0.15280600  1
  P  P2  1  0.65280600  0.15280600  0.34719400  1
  P  P3  1  0.84719400  0.84719400  0.84719400  1
  P  P4  1  0.42585700  0.07414300  0.92585700  1
  P  P5  1  0.07414300  0.92585700  0.42585700  1
  P  P6  1  0.92585700  0.42585700  0.07414300  1
  P  P7  1  0.57414300  0.57414300  0.57414300  1
  Pb  Pb8  1  0.03121100  0.73612700  0.14108300  1
  Pb  Pb9  1  0.53121100  0.76387300  0.85891700  1
  Pb  Pb10  1  0.96878900  0.23612700  0.35891700  1
  Pb  Pb11  1  0.76387300  0.85891700  0.53121100  1
  Pb  Pb12  1  0.35891700  0.96878900  0.23612700  1
  Pb  Pb13  1  0.85891700  0.53121100  0.76387300  1
  Pb  Pb14  1  0.73612700  0.14108300  0.03121100  1
  Pb  Pb15  1  0.14108300  0.03121100  0.73612700  1
  Pb  Pb16  1  0.23612700  0.35891700  0.96878900  1
  Pb  Pb17  1  0.26387300  0.64108300  0.46878900  1
  Pb  Pb18  1  0.64108300  0.46878900  0.26387300  1
  Pb  Pb19  1  0.46878900  0.26387300  0.64108300  1
  S  S20  1  0.44473400  0.72878700  0.29046000  1
  S  S21  1  0.05526600  0.27121300  0.79046000  1
  S  S22  1  0.27121300  0.79046000  0.05526600  1
  S  S23  1  0.79046000  0.05526600  0.27121300  1
  S  S24  1  0.77121300  0.70954000  0.94473400  1
  S  S25  1  0.94473400  0.77121300  0.70954000  1
  S  S26  1  0.22878700  0.20954000  0.55526600  1
  S  S27  1  0.72878700  0.29046000  0.44473400  1
  S  S28  1  0.55526600  0.22878700  0.20954000  1
  S  S29  1  0.29046000  0.44473400  0.72878700  1
  S  S30  1  0.20954000  0.55526600  0.22878700  1
  S  S31  1  0.70954000  0.94473400  0.77121300  1
  S  S32  1  0.46617500  0.46617500  0.46617500  1
  S  S33  1  0.03382500  0.53382500  0.96617500  1
  S  S34  1  0.96617500  0.03382500  0.53382500  1
  S  S35  1  0.53382500  0.96617500  0.03382500  1
  S  S36  1  0.95194200  0.95194200  0.95194200  1
  S  S37  1  0.54805800  0.04805800  0.45194200  1
  S  S38  1  0.45194200  0.54805800  0.04805800  1
  S  S39  1  0.04805800  0.45194200  0.54805800  1
  S  S40  1  0.09244500  0.00430100  0.26124000  1
  S  S41  1  0.26124000  0.09244500  0.00430100  1
  S  S42  1  0.00430100  0.26124000  0.09244500  1
  S  S43  1  0.49569900  0.73876000  0.59244500  1
  S  S44  1  0.76124000  0.40755500  0.99569900  1
  S  S45  1  0.99569900  0.76124000  0.40755500  1
  S  S46  1  0.23876000  0.90755500  0.50430100  1
  S  S47  1  0.73876000  0.59244500  0.49569900  1
  S  S48  1  0.50430100  0.23876000  0.90755500  1
  S  S49  1  0.59244500  0.49569900  0.73876000  1
  S  S50  1  0.90755500  0.50430100  0.23876000  1
  S  S51  1  0.40755500  0.99569900  0.76124000  1
