# generated using pymatgen
data_RbAg5S3
_symmetry_space_group_name_H-M   'P 1'
_cell_length_a   13.71242441
_cell_length_b   13.71242441
_cell_length_c   8.15911000
_cell_angle_alpha   90.00000000
_cell_angle_beta   90.00000000
_cell_angle_gamma   120.00000196
_symmetry_Int_Tables_number   1
_chemical_formula_structural   RbAg5S3
_chemical_formula_sum   'Rb6 Ag30 S18'
_cell_volume   1328.62342182
_cell_formula_units_Z   6
loop_
 _symmetry_equiv_pos_site_id
 _symmetry_equiv_pos_as_xyz
  1  'x, y, z'
loop_
 _atom_site_type_symbol
 _atom_site_label
 _atom_site_symmetry_multiplicity
 _atom_site_fract_x
 _atom_site_fract_y
 _atom_site_fract_z
 _atom_site_occupancy
  Rb  Rb0  1  0.33333300  0.66666700  0.50101200  1
  Rb  Rb1  1  0.33333300  0.66666700  0.99898800  1
  Rb  Rb2  1  0.00000000  0.00000000  0.50000000  1
  Rb  Rb3  1  0.00000000  0.00000000  0.00000000  1
  Rb  Rb4  1  0.66666700  0.33333300  0.49898800  1
  Rb  Rb5  1  0.66666700  0.33333300  0.00101200  1
  Ag  Ag6  1  0.63103800  0.63404200  0.25000000  1
  Ag  Ag7  1  0.00300400  0.36896200  0.25000000  1
  Ag  Ag8  1  0.36595800  0.99699600  0.25000000  1
  Ag  Ag9  1  0.63404200  0.63103800  0.75000000  1
  Ag  Ag10  1  0.99699600  0.36595800  0.75000000  1
  Ag  Ag11  1  0.36896200  0.00300400  0.75000000  1
  Ag  Ag12  1  0.00000000  0.53657000  0.50000000  1
  Ag  Ag13  1  0.53657000  0.00000000  0.00000000  1
  Ag  Ag14  1  0.46343000  0.46343000  0.00000000  1
  Ag  Ag15  1  0.46343000  0.46343000  0.50000000  1
  Ag  Ag16  1  0.53657000  0.00000000  0.50000000  1
  Ag  Ag17  1  0.00000000  0.53657000  0.00000000  1
  Ag  Ag18  1  0.18432700  0.85165100  0.50060300  1
  Ag  Ag19  1  0.66732400  0.81567300  0.99939700  1
  Ag  Ag20  1  0.14834900  0.33267600  0.99939700  1
  Ag  Ag21  1  0.14834900  0.33267600  0.50060300  1
  Ag  Ag22  1  0.66732400  0.81567300  0.50060300  1
  Ag  Ag23  1  0.18432700  0.85165100  0.99939700  1
  Ag  Ag24  1  0.81567300  0.66732400  0.49939700  1
  Ag  Ag25  1  0.85165100  0.18432700  0.00060300  1
  Ag  Ag26  1  0.33267600  0.14834900  0.00060300  1
  Ag  Ag27  1  0.33267600  0.14834900  0.49939700  1
  Ag  Ag28  1  0.85165100  0.18432700  0.49939700  1
  Ag  Ag29  1  0.81567300  0.66732400  0.00060300  1
  Ag  Ag30  1  0.29673300  0.29148700  0.75000000  1
  Ag  Ag31  1  0.70851300  0.00524600  0.75000000  1
  Ag  Ag32  1  0.99475400  0.70326700  0.75000000  1
  Ag  Ag33  1  0.29148700  0.29673300  0.25000000  1
  Ag  Ag34  1  0.70326700  0.99475400  0.25000000  1
  Ag  Ag35  1  0.00524600  0.70851300  0.25000000  1
  S  S36  1  0.08778400  0.22505000  0.75000000  1
  S  S37  1  0.77495000  0.86273400  0.75000000  1
  S  S38  1  0.13726600  0.91221600  0.75000000  1
  S  S39  1  0.42113000  0.52871700  0.75000000  1
  S  S40  1  0.47128300  0.89241300  0.75000000  1
  S  S41  1  0.10758700  0.57887000  0.75000000  1
  S  S42  1  0.43857600  0.21987400  0.75000000  1
  S  S43  1  0.78012600  0.21870200  0.75000000  1
  S  S44  1  0.78129800  0.56142400  0.75000000  1
  S  S45  1  0.22505000  0.08778400  0.25000000  1
  S  S46  1  0.91221600  0.13726600  0.25000000  1
  S  S47  1  0.86273400  0.77495000  0.25000000  1
  S  S48  1  0.21987400  0.43857600  0.25000000  1
  S  S49  1  0.56142400  0.78129800  0.25000000  1
  S  S50  1  0.21870200  0.78012600  0.25000000  1
  S  S51  1  0.52871700  0.42113000  0.25000000  1
  S  S52  1  0.57887000  0.10758700  0.25000000  1
  S  S53  1  0.89241300  0.47128300  0.25000000  1
