# generated using pymatgen
data_P4Ru
_symmetry_space_group_name_H-M   'P 1'
_cell_length_a   4.74580500
_cell_length_b   7.20179095
_cell_length_c   7.57953248
_cell_angle_alpha   111.19388889
_cell_angle_beta   90.36262090
_cell_angle_gamma   100.43713603
_symmetry_Int_Tables_number   1
_chemical_formula_structural   P4Ru
_chemical_formula_sum   'P12 Ru3'
_cell_volume   236.80745251
_cell_formula_units_Z   3
loop_
 _symmetry_equiv_pos_site_id
 _symmetry_equiv_pos_as_xyz
  1  'x, y, z'
loop_
 _atom_site_type_symbol
 _atom_site_label
 _atom_site_symmetry_multiplicity
 _atom_site_fract_x
 _atom_site_fract_y
 _atom_site_fract_z
 _atom_site_occupancy
  P  P0  1  0.60853000  0.83137700  0.76856200  1
  P  P1  1  0.39147000  0.16862300  0.23143800  1
  P  P2  1  0.79466700  0.29596600  0.12462600  1
  P  P3  1  0.59869900  0.36818500  0.90076400  1
  P  P4  1  0.40130100  0.63181500  0.09923600  1
  P  P5  1  0.17763800  0.16224500  0.78550100  1
  P  P6  1  0.82236200  0.83775500  0.21449900  1
  P  P7  1  0.27261400  0.42734500  0.45134700  1
  P  P8  1  0.72738600  0.57265500  0.54865300  1
  P  P9  1  0.65927800  0.08591800  0.43735200  1
  P  P10  1  0.34072200  0.91408200  0.56264800  1
  P  P11  1  0.20533300  0.70403400  0.87537400  1
  Ru  Ru12  1  0.05848600  0.62655700  0.32846200  1
  Ru  Ru13  1  0.94151400  0.37344300  0.67153800  1
  Ru  Ru14  1  0.00000000  0.00000000  0.00000000  1
