# generated using pymatgen
data_Hf3Te2
_symmetry_space_group_name_H-M   'P 1'
_cell_length_a   9.93336229
_cell_length_b   9.93336229
_cell_length_c   9.93336229
_cell_angle_alpha   158.47411781
_cell_angle_beta   158.47411781
_cell_angle_gamma   30.62680026
_symmetry_Int_Tables_number   1
_chemical_formula_structural   Hf3Te2
_chemical_formula_sum   'Hf3 Te2'
_cell_volume   131.87163908
_cell_formula_units_Z   1
loop_
 _symmetry_equiv_pos_site_id
 _symmetry_equiv_pos_as_xyz
  1  'x, y, z'
loop_
 _atom_site_type_symbol
 _atom_site_label
 _atom_site_symmetry_multiplicity
 _atom_site_fract_x
 _atom_site_fract_y
 _atom_site_fract_z
 _atom_site_occupancy
  Hf  Hf0  1  0.41137300  0.41137300  0.00000000  1
  Hf  Hf1  1  0.58862700  0.58862700  0.00000000  1
  Hf  Hf2  1  0.00000000  0.00000000  0.00000000  1
  Te  Te3  1  0.84117000  0.84117000  0.00000000  1
  Te  Te4  1  0.15883000  0.15883000  0.00000000  1
