# generated using pymatgen
data_MoPbO4
_symmetry_space_group_name_H-M   'P 1'
_cell_length_a   7.30242508
_cell_length_b   7.30242508
_cell_length_c   7.30242508
_cell_angle_alpha   135.54999764
_cell_angle_beta   135.54999764
_cell_angle_gamma   64.67681848
_symmetry_Int_Tables_number   1
_chemical_formula_structural   MoPbO4
_chemical_formula_sum   'Mo2 Pb2 O8'
_cell_volume   188.28435212
_cell_formula_units_Z   2
loop_
 _symmetry_equiv_pos_site_id
 _symmetry_equiv_pos_as_xyz
  1  'x, y, z'
loop_
 _atom_site_type_symbol
 _atom_site_label
 _atom_site_symmetry_multiplicity
 _atom_site_fract_x
 _atom_site_fract_y
 _atom_site_fract_z
 _atom_site_occupancy
  Mo  Mo0  1  0.25000000  0.75000000  0.50000000  1
  Mo  Mo1  1  0.50000000  0.50000000  0.00000000  1
  Pb  Pb2  1  0.75000000  0.25000000  0.50000000  1
  Pb  Pb3  1  0.00000000  0.00000000  0.00000000  1
  O  O4  1  0.56748000  0.96626400  0.87248500  1
  O  O5  1  0.09377900  0.69499500  0.12751500  1
  O  O6  1  0.44499500  0.81748000  0.10121700  1
  O  O7  1  0.71626400  0.34377900  0.89878300  1
  O  O8  1  0.18252000  0.28373600  0.62751500  1
  O  O9  1  0.65622100  0.55500500  0.37248500  1
  O  O10  1  0.30500500  0.43252000  0.39878300  1
  O  O11  1  0.03373600  0.90622100  0.60121700  1
