# generated using pymatgen
data_NdAl3(PbO4)2
_symmetry_space_group_name_H-M   'P 1'
_cell_length_a   9.63269300
_cell_length_b   9.63269300
_cell_length_c   9.63269300
_cell_angle_alpha   90.00000000
_cell_angle_beta   90.00000000
_cell_angle_gamma   90.00000000
_symmetry_Int_Tables_number   1
_chemical_formula_structural   NdAl3(PbO4)2
_chemical_formula_sum   'Nd4 Al12 Pb8 O32'
_cell_volume   893.80577795
_cell_formula_units_Z   4
loop_
 _symmetry_equiv_pos_site_id
 _symmetry_equiv_pos_as_xyz
  1  'x, y, z'
loop_
 _atom_site_type_symbol
 _atom_site_label
 _atom_site_symmetry_multiplicity
 _atom_site_fract_x
 _atom_site_fract_y
 _atom_site_fract_z
 _atom_site_occupancy
  Nd  Nd0  1  0.75000000  0.75000000  0.75000000  1
  Nd  Nd1  1  0.25000000  0.25000000  0.75000000  1
  Nd  Nd2  1  0.75000000  0.25000000  0.25000000  1
  Nd  Nd3  1  0.25000000  0.75000000  0.25000000  1
  Al  Al4  1  0.50000000  0.00000000  0.25000000  1
  Al  Al5  1  0.50000000  0.25000000  0.00000000  1
  Al  Al6  1  0.50000000  0.75000000  0.00000000  1
  Al  Al7  1  0.50000000  0.00000000  0.75000000  1
  Al  Al8  1  0.00000000  0.50000000  0.25000000  1
  Al  Al9  1  0.25000000  0.50000000  0.00000000  1
  Al  Al10  1  0.25000000  0.00000000  0.50000000  1
  Al  Al11  1  0.00000000  0.50000000  0.75000000  1
  Al  Al12  1  0.75000000  0.00000000  0.50000000  1
  Al  Al13  1  0.00000000  0.75000000  0.50000000  1
  Al  Al14  1  0.75000000  0.50000000  0.00000000  1
  Al  Al15  1  0.00000000  0.25000000  0.50000000  1
  Pb  Pb16  1  0.86723100  0.13276900  0.86723100  1
  Pb  Pb17  1  0.86723100  0.86723100  0.13276900  1
  Pb  Pb18  1  0.13276900  0.13276900  0.13276900  1
  Pb  Pb19  1  0.36723100  0.63276900  0.63276900  1
  Pb  Pb20  1  0.13276900  0.86723100  0.86723100  1
  Pb  Pb21  1  0.63276900  0.36723100  0.63276900  1
  Pb  Pb22  1  0.36723100  0.36723100  0.36723100  1
  Pb  Pb23  1  0.63276900  0.63276900  0.36723100  1
  O  O24  1  0.84356300  0.51365900  0.84356300  1
  O  O25  1  0.98634100  0.34356300  0.34356300  1
  O  O26  1  0.15643700  0.48634100  0.84356300  1
  O  O27  1  0.84356300  0.15643700  0.48634100  1
  O  O28  1  0.34356300  0.34356300  0.98634100  1
  O  O29  1  0.34356300  0.65643700  0.01365900  1
  O  O30  1  0.60923500  0.39076500  0.39076500  1
  O  O31  1  0.39076500  0.60923500  0.39076500  1
  O  O32  1  0.10923500  0.89076500  0.10923500  1
  O  O33  1  0.89076500  0.89076500  0.89076500  1
  O  O34  1  0.84356300  0.48634100  0.15643700  1
  O  O35  1  0.65643700  0.01365900  0.34356300  1
  O  O36  1  0.10923500  0.10923500  0.89076500  1
  O  O37  1  0.89076500  0.10923500  0.10923500  1
  O  O38  1  0.60923500  0.60923500  0.60923500  1
  O  O39  1  0.15643700  0.15643700  0.51365900  1
  O  O40  1  0.65643700  0.34356300  0.01365900  1
  O  O41  1  0.98634100  0.65643700  0.65643700  1
  O  O42  1  0.65643700  0.98634100  0.65643700  1
  O  O43  1  0.48634100  0.84356300  0.15643700  1
  O  O44  1  0.51365900  0.84356300  0.84356300  1
  O  O45  1  0.15643700  0.51365900  0.15643700  1
  O  O46  1  0.34356300  0.01365900  0.65643700  1
  O  O47  1  0.84356300  0.84356300  0.51365900  1
  O  O48  1  0.34356300  0.98634100  0.34356300  1
  O  O49  1  0.15643700  0.84356300  0.48634100  1
  O  O50  1  0.65643700  0.65643700  0.98634100  1
  O  O51  1  0.39076500  0.39076500  0.60923500  1
  O  O52  1  0.51365900  0.15643700  0.15643700  1
  O  O53  1  0.01365900  0.65643700  0.34356300  1
  O  O54  1  0.01365900  0.34356300  0.65643700  1
  O  O55  1  0.48634100  0.15643700  0.84356300  1
