# generated using pymatgen
data_BH3NF3
_symmetry_space_group_name_H-M   'P 1'
_cell_length_a   8.00041100
_cell_length_b   8.11172600
_cell_length_c   9.41484600
_cell_angle_alpha   90.00000000
_cell_angle_beta   90.00000000
_cell_angle_gamma   90.00000000
_symmetry_Int_Tables_number   1
_chemical_formula_structural   BH3NF3
_chemical_formula_sum   'B8 H24 N8 F24'
_cell_volume   610.99659701
_cell_formula_units_Z   8
loop_
 _symmetry_equiv_pos_site_id
 _symmetry_equiv_pos_as_xyz
  1  'x, y, z'
loop_
 _atom_site_type_symbol
 _atom_site_label
 _atom_site_symmetry_multiplicity
 _atom_site_fract_x
 _atom_site_fract_y
 _atom_site_fract_z
 _atom_site_occupancy
  B  B0  1  0.89642500  0.16132700  0.33075100  1
  B  B1  1  0.39642500  0.83867300  0.16924900  1
  B  B2  1  0.60357500  0.66132700  0.66924900  1
  B  B3  1  0.10357500  0.33867300  0.83075100  1
  B  B4  1  0.10357500  0.83867300  0.66924900  1
  B  B5  1  0.60357500  0.16132700  0.83075100  1
  B  B6  1  0.39642500  0.33867300  0.33075100  1
  B  B7  1  0.89642500  0.66132700  0.16924900  1
  H  H8  1  0.79408900  0.02569400  0.51188500  1
  H  H9  1  0.29408900  0.97430600  0.98811500  1
  H  H10  1  0.70591100  0.52569400  0.48811500  1
  H  H11  1  0.20591100  0.47430600  0.01188500  1
  H  H12  1  0.20591100  0.97430600  0.48811500  1
  H  H13  1  0.70591100  0.02569400  0.01188500  1
  H  H14  1  0.29408900  0.47430600  0.51188500  1
  H  H15  1  0.79408900  0.52569400  0.98811500  1
  H  H16  1  0.75336400  0.93559200  0.35802000  1
  H  H17  1  0.25336400  0.06440800  0.14198000  1
  H  H18  1  0.74663600  0.43559200  0.64198000  1
  H  H19  1  0.24663600  0.56440800  0.85802000  1
  H  H20  1  0.24663600  0.06440800  0.64198000  1
  H  H21  1  0.74663600  0.93559200  0.85802000  1
  H  H22  1  0.25336400  0.56440800  0.35802000  1
  H  H23  1  0.75336400  0.43559200  0.14198000  1
  H  H24  1  0.64454500  0.09980900  0.40771700  1
  H  H25  1  0.14454500  0.90019100  0.09228300  1
  H  H26  1  0.85545500  0.59980900  0.59228300  1
  H  H27  1  0.35545500  0.40019100  0.90771700  1
  H  H28  1  0.35545500  0.90019100  0.59228300  1
  H  H29  1  0.85545500  0.09980900  0.90771700  1
  H  H30  1  0.14454500  0.40019100  0.40771700  1
  H  H31  1  0.64454500  0.59980900  0.09228300  1
  N  N32  1  0.76241900  0.04829000  0.40778300  1
  N  N33  1  0.26241900  0.95171000  0.09221700  1
  N  N34  1  0.73758100  0.54829000  0.59221700  1
  N  N35  1  0.23758100  0.45171000  0.90778300  1
  N  N36  1  0.23758100  0.95171000  0.59221700  1
  N  N37  1  0.73758100  0.04829000  0.90778300  1
  N  N38  1  0.26241900  0.45171000  0.40778300  1
  N  N39  1  0.76241900  0.54829000  0.09221700  1
  F  F40  1  0.04893900  0.07395200  0.32654200  1
  F  F41  1  0.54893900  0.92604800  0.17345800  1
  F  F42  1  0.45106100  0.57395200  0.67345800  1
  F  F43  1  0.95106100  0.42604800  0.82654200  1
  F  F44  1  0.95106100  0.92604800  0.67345800  1
  F  F45  1  0.45106100  0.07395200  0.82654200  1
  F  F46  1  0.54893900  0.42604800  0.32654200  1
  F  F47  1  0.04893900  0.57395200  0.17345800  1
  F  F48  1  0.83872500  0.19735000  0.19292400  1
  F  F49  1  0.33872500  0.80265000  0.30707600  1
  F  F50  1  0.66127500  0.69735000  0.80707600  1
  F  F51  1  0.16127500  0.30265000  0.69292400  1
  F  F52  1  0.16127500  0.80265000  0.80707600  1
  F  F53  1  0.66127500  0.19735000  0.69292400  1
  F  F54  1  0.33872500  0.30265000  0.19292400  1
  F  F55  1  0.83872500  0.69735000  0.30707600  1
  F  F56  1  0.91713300  0.30808000  0.40978700  1
  F  F57  1  0.41713300  0.69192000  0.09021300  1
  F  F58  1  0.58286700  0.80808000  0.59021300  1
  F  F59  1  0.08286700  0.19192000  0.90978700  1
  F  F60  1  0.08286700  0.69192000  0.59021300  1
  F  F61  1  0.58286700  0.30808000  0.90978700  1
  F  F62  1  0.41713300  0.19192000  0.40978700  1
  F  F63  1  0.91713300  0.80808000  0.09021300  1
