# generated using pymatgen
data_Ce(CrB3)2
_symmetry_space_group_name_H-M   'P 1'
_cell_length_a   5.51042221
_cell_length_b   5.51042221
_cell_length_c   5.51042221
_cell_angle_alpha   147.62180163
_cell_angle_beta   107.24297550
_cell_angle_gamma   81.89681658
_symmetry_Int_Tables_number   1
_chemical_formula_structural   Ce(CrB3)2
_chemical_formula_sum   'Ce1 Cr2 B6'
_cell_volume   83.59500516
_cell_formula_units_Z   1
loop_
 _symmetry_equiv_pos_site_id
 _symmetry_equiv_pos_as_xyz
  1  'x, y, z'
loop_
 _atom_site_type_symbol
 _atom_site_label
 _atom_site_symmetry_multiplicity
 _atom_site_fract_x
 _atom_site_fract_y
 _atom_site_fract_z
 _atom_site_occupancy
  Ce  Ce0  1  0.00000000  0.00000000  0.00000000  1
  Cr  Cr1  1  0.65441600  0.15441600  0.50000000  1
  Cr  Cr2  1  0.34558400  0.84558500  0.50000000  1
  B  B3  1  0.54097000  0.30363800  0.23733200  1
  B  B4  1  0.45903000  0.69636200  0.76266800  1
  B  B5  1  0.93369300  0.69636200  0.23733200  1
  B  B6  1  0.35759600  0.50000000  0.85759500  1
  B  B7  1  0.64240500  0.50000000  0.14240500  1
  B  B8  1  0.06630700  0.30363800  0.76266800  1
