# generated using pymatgen
data_Rb2MnCl4
_symmetry_space_group_name_H-M   'P 1'
_cell_length_a   8.91200916
_cell_length_b   8.91200916
_cell_length_c   8.91200916
_cell_angle_alpha   146.67783407
_cell_angle_beta   146.67783407
_cell_angle_gamma   47.84103945
_symmetry_Int_Tables_number   1
_chemical_formula_structural   Rb2MnCl4
_chemical_formula_sum   'Rb2 Mn1 Cl4'
_cell_volume   212.75023363
_cell_formula_units_Z   1
loop_
 _symmetry_equiv_pos_site_id
 _symmetry_equiv_pos_as_xyz
  1  'x, y, z'
loop_
 _atom_site_type_symbol
 _atom_site_label
 _atom_site_symmetry_multiplicity
 _atom_site_fract_x
 _atom_site_fract_y
 _atom_site_fract_z
 _atom_site_occupancy
  Rb  Rb0  1  0.35791200  0.35791200  0.00000000  1
  Rb  Rb1  1  0.64208800  0.64208800  0.00000000  1
  Mn  Mn2  1  0.00000000  0.00000000  0.00000000  1
  Cl  Cl3  1  0.84447800  0.84447800  0.00000000  1
  Cl  Cl4  1  0.15552200  0.15552200  0.00000000  1
  Cl  Cl5  1  0.50000000  0.00000000  0.50000000  1
  Cl  Cl6  1  0.00000000  0.50000000  0.50000000  1
