# generated using pymatgen
data_YBO3
_symmetry_space_group_name_H-M   'P 1'
_cell_length_a   6.60470983
_cell_length_b   6.60470983
_cell_length_c   8.90402300
_cell_angle_alpha   90.00000000
_cell_angle_beta   90.00000000
_cell_angle_gamma   120.08248128
_symmetry_Int_Tables_number   1
_chemical_formula_structural   YBO3
_chemical_formula_sum   'Y6 B6 O18'
_cell_volume   336.09560307
_cell_formula_units_Z   6
loop_
 _symmetry_equiv_pos_site_id
 _symmetry_equiv_pos_as_xyz
  1  'x, y, z'
loop_
 _atom_site_type_symbol
 _atom_site_label
 _atom_site_symmetry_multiplicity
 _atom_site_fract_x
 _atom_site_fract_y
 _atom_site_fract_z
 _atom_site_occupancy
  Y  Y0  1  0.32929500  0.67070500  0.50000000  1
  Y  Y1  1  0.32929500  0.67070500  0.00000000  1
  Y  Y2  1  0.00000000  0.00000000  0.50000000  1
  Y  Y3  1  0.00000000  0.00000000  0.00000000  1
  Y  Y4  1  0.67070500  0.32929500  0.50000000  1
  Y  Y5  1  0.67070500  0.32929500  0.00000000  1
  B  B6  1  0.33418100  0.09388600  0.75000000  1
  B  B7  1  0.09388600  0.33418100  0.75000000  1
  B  B8  1  0.57562900  0.57562900  0.75000000  1
  B  B9  1  0.42437100  0.42437100  0.25000000  1
  B  B10  1  0.66581900  0.90611400  0.25000000  1
  B  B11  1  0.90611400  0.66581900  0.25000000  1
  O  O12  1  0.44835000  0.66547400  0.25000000  1
  O  O13  1  0.66547400  0.44835000  0.25000000  1
  O  O14  1  0.88199200  0.88199200  0.25000000  1
  O  O15  1  0.11800800  0.11800800  0.75000000  1
  O  O16  1  0.55165000  0.33452600  0.75000000  1
  O  O17  1  0.33452600  0.55165000  0.75000000  1
  O  O18  1  0.01587800  0.66646700  0.10849000  1
  O  O19  1  0.01587800  0.66646700  0.39151000  1
  O  O20  1  0.66646700  0.01587800  0.10849000  1
  O  O21  1  0.66646700  0.01587800  0.39151000  1
  O  O22  1  0.31606600  0.31606600  0.10687600  1
  O  O23  1  0.31606600  0.31606600  0.39312400  1
  O  O24  1  0.68393400  0.68393400  0.60687600  1
  O  O25  1  0.68393400  0.68393400  0.89312400  1
  O  O26  1  0.98412200  0.33353300  0.60849000  1
  O  O27  1  0.98412200  0.33353300  0.89151000  1
  O  O28  1  0.33353300  0.98412200  0.60849000  1
  O  O29  1  0.33353300  0.98412200  0.89151000  1
