# generated using pymatgen
data_Na3TlO2
_symmetry_space_group_name_H-M   'P 1'
_cell_length_a   5.41190700
_cell_length_b   6.81945200
_cell_length_c   11.65283000
_cell_angle_alpha   90.00000000
_cell_angle_beta   90.00000000
_cell_angle_gamma   90.00000000
_symmetry_Int_Tables_number   1
_chemical_formula_structural   Na3TlO2
_chemical_formula_sum   'Na12 Tl4 O8'
_cell_volume   430.06214083
_cell_formula_units_Z   4
loop_
 _symmetry_equiv_pos_site_id
 _symmetry_equiv_pos_as_xyz
  1  'x, y, z'
loop_
 _atom_site_type_symbol
 _atom_site_label
 _atom_site_symmetry_multiplicity
 _atom_site_fract_x
 _atom_site_fract_y
 _atom_site_fract_z
 _atom_site_occupancy
  Na  Na0  1  0.74725000  0.00144100  0.33380300  1
  Na  Na1  1  0.24725000  0.50144100  0.16619700  1
  Na  Na2  1  0.75275000  0.00144100  0.83380300  1
  Na  Na3  1  0.25275000  0.99855900  0.66619700  1
  Na  Na4  1  0.74825600  0.25000000  0.07707800  1
  Na  Na5  1  0.24825600  0.75000000  0.42292200  1
  Na  Na6  1  0.25174400  0.75000000  0.92292200  1
  Na  Na7  1  0.75174400  0.25000000  0.57707800  1
  Na  Na8  1  0.25275000  0.50144100  0.66619700  1
  Na  Na9  1  0.75275000  0.49855900  0.83380300  1
  Na  Na10  1  0.74725000  0.49855900  0.33380300  1
  Na  Na11  1  0.24725000  0.99855900  0.16619700  1
  Tl  Tl12  1  0.73800800  0.75000000  0.59070800  1
  Tl  Tl13  1  0.23800800  0.25000000  0.90929200  1
  Tl  Tl14  1  0.26199200  0.25000000  0.40929200  1
  Tl  Tl15  1  0.76199200  0.75000000  0.09070800  1
  O  O16  1  0.49079200  0.75000000  0.75791300  1
  O  O17  1  0.99079200  0.25000000  0.74208700  1
  O  O18  1  0.50920800  0.25000000  0.24208700  1
  O  O19  1  0.00920800  0.75000000  0.25791300  1
  O  O20  1  0.50000000  0.50000000  0.50000000  1
  O  O21  1  0.00000000  0.50000000  0.00000000  1
  O  O22  1  0.50000000  0.00000000  0.50000000  1
  O  O23  1  0.00000000  0.00000000  0.00000000  1
