# generated using pymatgen
data_Ca2Os2O7
_symmetry_space_group_name_H-M   'P 1'
_cell_length_a   7.30664484
_cell_length_b   7.30664484
_cell_length_c   7.30664484
_cell_angle_alpha   120.44969891
_cell_angle_beta   118.36065570
_cell_angle_gamma   91.04273879
_symmetry_Int_Tables_number   1
_chemical_formula_structural   Ca2Os2O7
_chemical_formula_sum   'Ca4 Os4 O14'
_cell_volume   278.14536984
_cell_formula_units_Z   2
loop_
 _symmetry_equiv_pos_site_id
 _symmetry_equiv_pos_as_xyz
  1  'x, y, z'
loop_
 _atom_site_type_symbol
 _atom_site_label
 _atom_site_symmetry_multiplicity
 _atom_site_fract_x
 _atom_site_fract_y
 _atom_site_fract_z
 _atom_site_occupancy
  Ca  Ca0  1  0.50000000  0.50000000  0.00000000  1
  Ca  Ca1  1  0.00000000  0.00000000  0.00000000  1
  Ca  Ca2  1  0.50000000  0.50000000  0.50000000  1
  Ca  Ca3  1  0.50000000  0.00000000  0.00000000  1
  Os  Os4  1  0.00000000  0.50000000  0.00000000  1
  Os  Os5  1  0.00000000  0.00000000  0.50000000  1
  Os  Os6  1  0.00000000  0.50000000  0.50000000  1
  Os  Os7  1  0.50000000  0.00000000  0.50000000  1
  O  O8  1  0.95071800  0.58508300  0.76936000  1
  O  O9  1  0.04928200  0.81864100  0.63436500  1
  O  O10  1  0.68427600  0.91491700  0.36563500  1
  O  O11  1  0.31572400  0.68135900  0.23064000  1
  O  O12  1  0.04928200  0.41491700  0.23064000  1
  O  O13  1  0.95071800  0.18135900  0.36563500  1
  O  O14  1  0.31572400  0.08508300  0.63436500  1
  O  O15  1  0.68427600  0.31864100  0.76936000  1
  O  O16  1  0.08594200  0.25000000  0.83594200  1
  O  O17  1  0.91405800  0.75000000  0.16405800  1
  O  O18  1  0.36545900  0.09662400  0.26883500  1
  O  O19  1  0.63454100  0.90337600  0.73116500  1
  O  O20  1  0.67221000  0.40337600  0.26883500  1
  O  O21  1  0.32779000  0.59662400  0.73116500  1
