# generated using pymatgen
data_NaTeF5
_symmetry_space_group_name_H-M   'P 1'
_cell_length_a   6.04090200
_cell_length_b   7.40470800
_cell_length_c   10.39531500
_cell_angle_alpha   90.00000000
_cell_angle_beta   90.00000000
_cell_angle_gamma   90.00000000
_symmetry_Int_Tables_number   1
_chemical_formula_structural   NaTeF5
_chemical_formula_sum   'Na4 Te4 F20'
_cell_volume   464.99403454
_cell_formula_units_Z   4
loop_
 _symmetry_equiv_pos_site_id
 _symmetry_equiv_pos_as_xyz
  1  'x, y, z'
loop_
 _atom_site_type_symbol
 _atom_site_label
 _atom_site_symmetry_multiplicity
 _atom_site_fract_x
 _atom_site_fract_y
 _atom_site_fract_z
 _atom_site_occupancy
  Na  Na0  1  0.25000000  0.31582300  0.99549700  1
  Na  Na1  1  0.75000000  0.68417700  0.00450300  1
  Na  Na2  1  0.75000000  0.81582300  0.50450300  1
  Na  Na3  1  0.25000000  0.18417700  0.49549700  1
  Te  Te4  1  0.25000000  0.84922900  0.76512400  1
  Te  Te5  1  0.75000000  0.15077100  0.23487600  1
  Te  Te6  1  0.75000000  0.34922900  0.73487600  1
  Te  Te7  1  0.25000000  0.65077100  0.26512400  1
  F  F8  1  0.01889700  0.84830800  0.90051700  1
  F  F9  1  0.02524500  0.94315800  0.63607800  1
  F  F10  1  0.47475500  0.55684200  0.13607800  1
  F  F11  1  0.97475500  0.44315800  0.86392200  1
  F  F12  1  0.25000000  0.39812300  0.30805600  1
  F  F13  1  0.75000000  0.60187700  0.69194400  1
  F  F14  1  0.75000000  0.89812300  0.19194400  1
  F  F15  1  0.25000000  0.10187700  0.80805600  1
  F  F16  1  0.01889700  0.65169200  0.40051700  1
  F  F17  1  0.51889700  0.34830800  0.59948300  1
  F  F18  1  0.98110300  0.15169200  0.09948300  1
  F  F19  1  0.47475500  0.94315800  0.63607800  1
  F  F20  1  0.98110300  0.34830800  0.59948300  1
  F  F21  1  0.48110300  0.65169200  0.40051700  1
  F  F22  1  0.48110300  0.84830800  0.90051700  1
  F  F23  1  0.51889700  0.15169200  0.09948300  1
  F  F24  1  0.02524500  0.55684200  0.13607800  1
  F  F25  1  0.52524500  0.44315800  0.86392200  1
  F  F26  1  0.97475500  0.05684200  0.36392200  1
  F  F27  1  0.52524500  0.05684200  0.36392200  1
