# generated using pymatgen
data_Ga3B4Pt9
_symmetry_space_group_name_H-M   'P 1'
_cell_length_a   8.80039917
_cell_length_b   8.80039917
_cell_length_c   6.57707200
_cell_angle_alpha   90.00000000
_cell_angle_beta   90.00000000
_cell_angle_gamma   119.99999373
_symmetry_Int_Tables_number   1
_chemical_formula_structural   Ga3B4Pt9
_chemical_formula_sum   'Ga6 B8 Pt18'
_cell_volume   441.13142585
_cell_formula_units_Z   2
loop_
 _symmetry_equiv_pos_site_id
 _symmetry_equiv_pos_as_xyz
  1  'x, y, z'
loop_
 _atom_site_type_symbol
 _atom_site_label
 _atom_site_symmetry_multiplicity
 _atom_site_fract_x
 _atom_site_fract_y
 _atom_site_fract_z
 _atom_site_occupancy
  Ga  Ga0  1  0.49074900  0.05146200  0.75000000  1
  Ga  Ga1  1  0.43928600  0.94853800  0.25000000  1
  Ga  Ga2  1  0.50925100  0.56071400  0.25000000  1
  Ga  Ga3  1  0.56071400  0.50925100  0.75000000  1
  Ga  Ga4  1  0.94853800  0.43928600  0.75000000  1
  Ga  Ga5  1  0.05146200  0.49074900  0.25000000  1
  B  B6  1  0.82046300  0.00000000  0.50000000  1
  B  B7  1  0.82046300  0.00000000  0.00000000  1
  B  B8  1  0.00000000  0.82046300  0.50000000  1
  B  B9  1  0.17953700  0.17953700  0.50000000  1
  B  B10  1  0.17953700  0.17953700  0.00000000  1
  B  B11  1  0.00000000  0.82046300  0.00000000  1
  B  B12  1  0.66666700  0.33333300  0.25000000  1
  B  B13  1  0.33333300  0.66666700  0.75000000  1
  Pt  Pt14  1  0.81460300  0.54114300  0.47849800  1
  Pt  Pt15  1  0.54114300  0.81460300  0.52150200  1
  Pt  Pt16  1  0.99257300  0.17741900  0.75000000  1
  Pt  Pt17  1  0.27345900  0.45885700  0.52150200  1
  Pt  Pt18  1  0.00742700  0.18484600  0.25000000  1
  Pt  Pt19  1  0.72654100  0.18539700  0.47849800  1
  Pt  Pt20  1  0.81515400  0.82258100  0.25000000  1
  Pt  Pt21  1  0.18539700  0.72654100  0.52150200  1
  Pt  Pt22  1  0.45885700  0.27345900  0.47849800  1
  Pt  Pt23  1  0.81460300  0.54114300  0.02150200  1
  Pt  Pt24  1  0.45885700  0.27345900  0.02150200  1
  Pt  Pt25  1  0.18484600  0.00742700  0.75000000  1
  Pt  Pt26  1  0.17741900  0.99257300  0.25000000  1
  Pt  Pt27  1  0.18539700  0.72654100  0.97849800  1
  Pt  Pt28  1  0.82258100  0.81515400  0.75000000  1
  Pt  Pt29  1  0.72654100  0.18539700  0.02150200  1
  Pt  Pt30  1  0.27345900  0.45885700  0.97849800  1
  Pt  Pt31  1  0.54114300  0.81460300  0.97849800  1
