# generated using pymatgen
data_K2GeSe4
_symmetry_space_group_name_H-M   'P 1'
_cell_length_a   8.47277300
_cell_length_b   9.20015300
_cell_length_c   12.22371147
_cell_angle_alpha   73.68557769
_cell_angle_beta   90.00000000
_cell_angle_gamma   90.00000000
_symmetry_Int_Tables_number   1
_chemical_formula_structural   K2GeSe4
_chemical_formula_sum   'K8 Ge4 Se16'
_cell_volume   914.48138435
_cell_formula_units_Z   4
loop_
 _symmetry_equiv_pos_site_id
 _symmetry_equiv_pos_as_xyz
  1  'x, y, z'
loop_
 _atom_site_type_symbol
 _atom_site_label
 _atom_site_symmetry_multiplicity
 _atom_site_fract_x
 _atom_site_fract_y
 _atom_site_fract_z
 _atom_site_occupancy
  K  K0  1  0.08838200  0.69264000  0.15752700  1
  K  K1  1  0.07418200  0.22757300  0.45489000  1
  K  K2  1  0.57418200  0.27242700  0.54511000  1
  K  K3  1  0.92581800  0.77242700  0.54511000  1
  K  K4  1  0.58838200  0.80736000  0.84247300  1
  K  K5  1  0.42581800  0.72757300  0.45489000  1
  K  K6  1  0.91161800  0.30736000  0.84247300  1
  K  K7  1  0.41161800  0.19264000  0.15752700  1
  Ge  Ge8  1  0.63416700  0.54860400  0.24181100  1
  Ge  Ge9  1  0.13416700  0.95139600  0.75818900  1
  Ge  Ge10  1  0.36583300  0.45139600  0.75818900  1
  Ge  Ge11  1  0.86583300  0.04860400  0.24181100  1
  Se  Se12  1  0.55451000  0.80852200  0.13757300  1
  Se  Se13  1  0.28681600  0.54586900  0.92128000  1
  Se  Se14  1  0.78681600  0.95413100  0.07872000  1
  Se  Se15  1  0.71318400  0.45413100  0.07872000  1
  Se  Se16  1  0.12232500  0.96790500  0.30007200  1
  Se  Se17  1  0.62232500  0.53209500  0.69992800  1
  Se  Se18  1  0.87767500  0.03209500  0.69992800  1
  Se  Se19  1  0.37767500  0.46790500  0.30007200  1
  Se  Se20  1  0.05451000  0.69147800  0.86242700  1
  Se  Se21  1  0.44549000  0.19147800  0.86242700  1
  Se  Se22  1  0.94549000  0.30852200  0.13757300  1
  Se  Se23  1  0.83087500  0.53479000  0.37433400  1
  Se  Se24  1  0.33087500  0.96521000  0.62566600  1
  Se  Se25  1  0.16912500  0.46521000  0.62566600  1
  Se  Se26  1  0.66912500  0.03479000  0.37433400  1
  Se  Se27  1  0.21318400  0.04586900  0.92128000  1
