# generated using pymatgen
data_SbCl2F3
_symmetry_space_group_name_H-M   'P 1'
_cell_length_a   10.82246400
_cell_length_b   11.93148000
_cell_length_c   17.59915189
_cell_angle_alpha   51.34062544
_cell_angle_beta   90.00000000
_cell_angle_gamma   90.00000000
_symmetry_Int_Tables_number   1
_chemical_formula_structural   SbCl2F3
_chemical_formula_sum   'Sb12 Cl24 F36'
_cell_volume   1774.56909059
_cell_formula_units_Z   12
loop_
 _symmetry_equiv_pos_site_id
 _symmetry_equiv_pos_as_xyz
  1  'x, y, z'
loop_
 _atom_site_type_symbol
 _atom_site_label
 _atom_site_symmetry_multiplicity
 _atom_site_fract_x
 _atom_site_fract_y
 _atom_site_fract_z
 _atom_site_occupancy
  Sb  Sb0  1  0.45042900  0.24628900  0.52918700  1
  Sb  Sb1  1  0.95042900  0.75371100  0.97081300  1
  Sb  Sb2  1  0.54957100  0.75371100  0.47081300  1
  Sb  Sb3  1  0.04957100  0.24628900  0.02918700  1
  Sb  Sb4  1  0.11703200  0.29818300  0.39643800  1
  Sb  Sb5  1  0.61703200  0.70181700  0.10356200  1
  Sb  Sb6  1  0.88296800  0.70181700  0.60356200  1
  Sb  Sb7  1  0.38296800  0.29818300  0.89643800  1
  Sb  Sb8  1  0.34980500  0.78122800  0.83155800  1
  Sb  Sb9  1  0.84980500  0.21877200  0.66844200  1
  Sb  Sb10  1  0.65019500  0.21877200  0.16844200  1
  Sb  Sb11  1  0.15019500  0.78122800  0.33155800  1
  Cl  Cl12  1  0.06668300  0.80746000  0.05487600  1
  Cl  Cl13  1  0.56668300  0.19254000  0.44512400  1
  Cl  Cl14  1  0.93331700  0.19254000  0.94512400  1
  Cl  Cl15  1  0.43331700  0.80746000  0.55487600  1
  Cl  Cl16  1  0.20037000  0.37398700  0.24948800  1
  Cl  Cl17  1  0.70037000  0.62601300  0.25051200  1
  Cl  Cl18  1  0.79963000  0.62601300  0.75051200  1
  Cl  Cl19  1  0.29963000  0.37398700  0.74948800  1
  Cl  Cl20  1  0.04461500  0.23309400  0.71086900  1
  Cl  Cl21  1  0.54461500  0.76690600  0.78913100  1
  Cl  Cl22  1  0.95538500  0.76690600  0.28913100  1
  Cl  Cl23  1  0.45538500  0.23309400  0.21086900  1
  Cl  Cl24  1  0.33863600  0.97283400  0.83003100  1
  Cl  Cl25  1  0.83863600  0.02716600  0.66996900  1
  Cl  Cl26  1  0.66136400  0.02716600  0.16996900  1
  Cl  Cl27  1  0.16136400  0.97283400  0.33003100  1
  Cl  Cl28  1  0.32023200  0.58177600  0.98800600  1
  Cl  Cl29  1  0.82023200  0.41822400  0.51199400  1
  Cl  Cl30  1  0.28625800  0.78771400  0.23089300  1
  Cl  Cl31  1  0.17976800  0.58177600  0.48800600  1
  Cl  Cl32  1  0.21374200  0.78771400  0.73089300  1
  Cl  Cl33  1  0.71374200  0.21228600  0.76910700  1
  Cl  Cl34  1  0.78625800  0.21228600  0.26910700  1
  Cl  Cl35  1  0.67976800  0.41822400  0.01199400  1
  F  F36  1  0.29914700  0.27342200  0.44570400  1
  F  F37  1  0.79914700  0.72657800  0.05429600  1
  F  F38  1  0.70085300  0.72657800  0.55429600  1
  F  F39  1  0.20085300  0.27342200  0.94570400  1
  F  F40  1  0.33931800  0.28708900  0.59271900  1
  F  F41  1  0.83931800  0.71291100  0.90728100  1
  F  F42  1  0.66068200  0.71291100  0.40728100  1
  F  F43  1  0.16068200  0.28708900  0.09271900  1
  F  F44  1  0.47860900  0.44693200  0.43311600  1
  F  F45  1  0.97860900  0.55306800  0.06688400  1
  F  F46  1  0.52139100  0.55306800  0.56688400  1
  F  F47  1  0.02139100  0.44693200  0.93311600  1
  F  F48  1  0.08501500  0.78548700  0.88788100  1
  F  F49  1  0.58501500  0.21451300  0.61211900  1
  F  F50  1  0.91498500  0.21451300  0.11211900  1
  F  F51  1  0.41498500  0.78548700  0.38788100  1
  F  F52  1  0.39797300  0.04860100  0.62139500  1
  F  F53  1  0.37169800  0.10160200  0.94971200  1
  F  F54  1  0.60202700  0.95139900  0.37860500  1
  F  F55  1  0.10202700  0.04860100  0.12139500  1
  F  F56  1  0.07158000  0.23598100  0.52235400  1
  F  F57  1  0.57158000  0.76401900  0.97764600  1
  F  F58  1  0.92842000  0.76401900  0.47764600  1
  F  F59  1  0.42842000  0.23598100  0.02235400  1
  F  F60  1  0.12726700  0.48972000  0.35564600  1
  F  F61  1  0.62726700  0.51028000  0.14435400  1
  F  F62  1  0.87273300  0.51028000  0.64435400  1
  F  F63  1  0.37273300  0.48972000  0.85564600  1
  F  F64  1  0.44857700  0.68065200  0.14206200  1
  F  F65  1  0.94857700  0.31934800  0.35793800  1
  F  F66  1  0.55142300  0.31934800  0.85793800  1
  F  F67  1  0.05142300  0.68065200  0.64206200  1
  F  F68  1  0.12830200  0.10160200  0.44971200  1
  F  F69  1  0.62830200  0.89839800  0.05028800  1
  F  F70  1  0.87169800  0.89839800  0.55028800  1
  F  F71  1  0.89797300  0.95139900  0.87860500  1
