# generated using pymatgen
data_LaNiGe2
_symmetry_space_group_name_H-M   'P 1'
_cell_length_a   8.75669987
_cell_length_b   8.75669987
_cell_length_c   4.27044600
_cell_angle_alpha   90.00000000
_cell_angle_beta   90.00000000
_cell_angle_gamma   151.42258212
_symmetry_Int_Tables_number   1
_chemical_formula_structural   LaNiGe2
_chemical_formula_sum   'La2 Ni2 Ge4'
_cell_volume   156.63763263
_cell_formula_units_Z   2
loop_
 _symmetry_equiv_pos_site_id
 _symmetry_equiv_pos_as_xyz
  1  'x, y, z'
loop_
 _atom_site_type_symbol
 _atom_site_label
 _atom_site_symmetry_multiplicity
 _atom_site_fract_x
 _atom_site_fract_y
 _atom_site_fract_z
 _atom_site_occupancy
  La  La0  1  0.39094800  0.60905200  0.25000000  1
  La  La1  1  0.60905200  0.39094800  0.75000000  1
  Ni  Ni2  1  0.81796200  0.18203800  0.75000000  1
  Ni  Ni3  1  0.18203800  0.81796200  0.25000000  1
  Ge  Ge4  1  0.75021800  0.24978200  0.25000000  1
  Ge  Ge5  1  0.24978200  0.75021800  0.75000000  1
  Ge  Ge6  1  0.95702400  0.04297600  0.75000000  1
  Ge  Ge7  1  0.04297600  0.95702400  0.25000000  1
