# generated using pymatgen
data_Ba2As2S5
_symmetry_space_group_name_H-M   'P 1'
_cell_length_a   9.39745900
_cell_length_b   12.10791700
_cell_length_c   17.71634000
_cell_angle_alpha   90.00000000
_cell_angle_beta   90.00000000
_cell_angle_gamma   90.00000000
_symmetry_Int_Tables_number   1
_chemical_formula_structural   Ba2As2S5
_chemical_formula_sum   'Ba16 As16 S40'
_cell_volume   2015.82989332
_cell_formula_units_Z   8
loop_
 _symmetry_equiv_pos_site_id
 _symmetry_equiv_pos_as_xyz
  1  'x, y, z'
loop_
 _atom_site_type_symbol
 _atom_site_label
 _atom_site_symmetry_multiplicity
 _atom_site_fract_x
 _atom_site_fract_y
 _atom_site_fract_z
 _atom_site_occupancy
  Ba  Ba0  1  0.00399700  0.97961300  0.42809000  1
  Ba  Ba1  1  0.99600300  0.47961300  0.57191000  1
  Ba  Ba2  1  0.99600300  0.97961300  0.92809000  1
  Ba  Ba3  1  0.00399700  0.47961300  0.07191000  1
  Ba  Ba4  1  0.50021400  0.82309100  0.17621400  1
  Ba  Ba5  1  0.49978600  0.32309100  0.82378600  1
  Ba  Ba6  1  0.49978600  0.82309100  0.67621400  1
  Ba  Ba7  1  0.50021400  0.32309100  0.32378600  1
  Ba  Ba8  1  0.98632600  0.83206600  0.17878000  1
  Ba  Ba9  1  0.01367400  0.33206600  0.82122000  1
  Ba  Ba10  1  0.01367400  0.83206600  0.67878000  1
  Ba  Ba11  1  0.98632600  0.33206600  0.32122000  1
  Ba  Ba12  1  0.50302600  0.99045600  0.42323600  1
  Ba  Ba13  1  0.49697400  0.49045600  0.57676400  1
  Ba  Ba14  1  0.49697400  0.99045600  0.92323600  1
  Ba  Ba15  1  0.50302600  0.49045600  0.07676400  1
  As  As16  1  0.27874800  0.75100000  0.50697600  1
  As  As17  1  0.72125200  0.25100000  0.49302400  1
  As  As18  1  0.72125200  0.75100000  0.00697600  1
  As  As19  1  0.27874800  0.25100000  0.99302400  1
  As  As20  1  0.27002100  0.56199100  0.24043800  1
  As  As21  1  0.72997900  0.06199100  0.75956200  1
  As  As22  1  0.72997900  0.56199100  0.74043800  1
  As  As23  1  0.27002100  0.06199100  0.25956200  1
  As  As24  1  0.77437000  0.68102000  0.36991900  1
  As  As25  1  0.22563000  0.18102000  0.63008100  1
  As  As26  1  0.22563000  0.68102000  0.86991900  1
  As  As27  1  0.77437000  0.18102000  0.13008100  1
  As  As28  1  0.13810000  0.13948900  0.12531200  1
  As  As29  1  0.86190000  0.63948900  0.87468800  1
  As  As30  1  0.86190000  0.13948900  0.62531200  1
  As  As31  1  0.13810000  0.63948900  0.37468800  1
  S  S32  1  0.20218400  0.47598600  0.42555000  1
  S  S33  1  0.79781600  0.97598600  0.57445000  1
  S  S34  1  0.79781600  0.47598600  0.92555000  1
  S  S35  1  0.20218400  0.97598600  0.07445000  1
  S  S36  1  0.95309600  0.20779100  0.03973100  1
  S  S37  1  0.04690400  0.70779100  0.96026900  1
  S  S38  1  0.04690400  0.20779100  0.53973100  1
  S  S39  1  0.95309600  0.70779100  0.46026900  1
  S  S40  1  0.94660100  0.59959600  0.28905200  1
  S  S41  1  0.05339900  0.09959600  0.71094800  1
  S  S42  1  0.05339900  0.59959600  0.78905200  1
  S  S43  1  0.94660100  0.09959600  0.21094800  1
  S  S44  1  0.23827500  0.15681100  0.88393500  1
  S  S45  1  0.76172500  0.65681100  0.11606500  1
  S  S46  1  0.76172500  0.15681100  0.38393500  1
  S  S47  1  0.23827500  0.65681100  0.61606500  1
  S  S48  1  0.24281600  0.38457000  0.19752900  1
  S  S49  1  0.23420000  0.65712600  0.13276700  1
  S  S50  1  0.75718400  0.88457000  0.80247100  1
  S  S51  1  0.24281600  0.88457000  0.30247100  1
  S  S52  1  0.51633300  0.24266400  0.00080500  1
  S  S53  1  0.48366700  0.74266400  0.99919500  1
  S  S54  1  0.48366700  0.24266400  0.50080500  1
  S  S55  1  0.51633300  0.74266400  0.49919500  1
  S  S56  1  0.75693500  0.35195200  0.18008900  1
  S  S57  1  0.24306500  0.85195200  0.81991100  1
  S  S58  1  0.24306500  0.35195200  0.68008900  1
  S  S59  1  0.75693500  0.85195200  0.31991100  1
  S  S60  1  0.25028600  0.42660100  0.94903000  1
  S  S61  1  0.74971400  0.92660100  0.05097000  1
  S  S62  1  0.74971400  0.42660100  0.44903000  1
  S  S63  1  0.25028600  0.92660100  0.55097000  1
  S  S64  1  0.50559600  0.07277700  0.24588600  1
  S  S65  1  0.49440400  0.57277700  0.75411400  1
  S  S66  1  0.49440400  0.07277700  0.74588600  1
  S  S67  1  0.50559600  0.57277700  0.25411400  1
  S  S68  1  0.23420000  0.15712600  0.36723300  1
  S  S69  1  0.76580000  0.65712600  0.63276700  1
  S  S70  1  0.76580000  0.15712600  0.86723300  1
  S  S71  1  0.75718400  0.38457000  0.69752900  1
