# generated using pymatgen
data_BePH4NO4
_symmetry_space_group_name_H-M   'P 1'
_cell_length_a   4.98352700
_cell_length_b   8.70223900
_cell_length_c   8.77421200
_cell_angle_alpha   90.00000000
_cell_angle_beta   90.00000000
_cell_angle_gamma   90.00000000
_symmetry_Int_Tables_number   1
_chemical_formula_structural   BePH4NO4
_chemical_formula_sum   'Be4 P4 H16 N4 O16'
_cell_volume   380.51864861
_cell_formula_units_Z   4
loop_
 _symmetry_equiv_pos_site_id
 _symmetry_equiv_pos_as_xyz
  1  'x, y, z'
loop_
 _atom_site_type_symbol
 _atom_site_label
 _atom_site_symmetry_multiplicity
 _atom_site_fract_x
 _atom_site_fract_y
 _atom_site_fract_z
 _atom_site_occupancy
  Be  Be0  1  0.66105400  0.59329100  0.32585000  1
  Be  Be1  1  0.16105400  0.09329100  0.17415000  1
  Be  Be2  1  0.66105400  0.90670900  0.82585000  1
  Be  Be3  1  0.16105400  0.40670900  0.67415000  1
  P  P4  1  0.66093100  0.58571500  0.68450100  1
  P  P5  1  0.16093100  0.41428500  0.31549900  1
  P  P6  1  0.66093100  0.91428500  0.18450100  1
  P  P7  1  0.16093100  0.08571500  0.81549900  1
  H  H8  1  0.34620300  0.72021600  0.98756700  1
  H  H9  1  0.84620300  0.27978400  0.01243300  1
  H  H10  1  0.34620300  0.77978400  0.48756700  1
  H  H11  1  0.84620300  0.22021600  0.51243300  1
  H  H12  1  0.03254300  0.71070100  0.49196700  1
  H  H13  1  0.53254300  0.28929900  0.50803300  1
  H  H14  1  0.10392900  0.63487000  0.09856800  1
  H  H15  1  0.60392900  0.36513000  0.90143200  1
  H  H16  1  0.10392900  0.86513000  0.59856800  1
  H  H17  1  0.60392900  0.13487000  0.40143200  1
  H  H18  1  0.08982400  0.62427300  0.90121900  1
  H  H19  1  0.53254300  0.21070100  0.00803300  1
  H  H20  1  0.08982400  0.87572700  0.40121900  1
  H  H21  1  0.58982400  0.12427300  0.59878100  1
  H  H22  1  0.03254300  0.78929900  0.99196700  1
  H  H23  1  0.58982400  0.37572700  0.09878100  1
  N  N24  1  0.14647800  0.69038500  0.99568900  1
  N  N25  1  0.64647800  0.30961500  0.00431100  1
  N  N26  1  0.64647800  0.19038500  0.50431100  1
  N  N27  1  0.14647800  0.80961500  0.49568900  1
  O  O28  1  0.96206000  0.95659800  0.76687900  1
  O  O29  1  0.44706800  0.46397900  0.26354600  1
  O  O30  1  0.58349900  0.76335900  0.26324000  1
  O  O31  1  0.58349900  0.73664100  0.76324000  1
  O  O32  1  0.94706800  0.96397900  0.23645400  1
  O  O33  1  0.44706800  0.03602100  0.76354600  1
  O  O34  1  0.65471000  0.60937200  0.51081800  1
  O  O35  1  0.15471000  0.39062800  0.48918200  1
  O  O36  1  0.65471000  0.89062800  0.01081800  1
  O  O37  1  0.15471000  0.10937200  0.98918200  1
  O  O38  1  0.08349900  0.26335900  0.23676000  1
  O  O39  1  0.94706800  0.53602100  0.73645400  1
  O  O40  1  0.96206000  0.54340200  0.26687900  1
  O  O41  1  0.46206000  0.04340200  0.23312100  1
  O  O42  1  0.46206000  0.45659800  0.73312100  1
  O  O43  1  0.08349900  0.23664100  0.73676000  1
