# generated using pymatgen
data_CaRuO3
_symmetry_space_group_name_H-M   'P 1'
_cell_length_a   5.42890300
_cell_length_b   5.59399800
_cell_length_c   7.74820400
_cell_angle_alpha   90.00000000
_cell_angle_beta   90.00000000
_cell_angle_gamma   90.00000000
_symmetry_Int_Tables_number   1
_chemical_formula_structural   CaRuO3
_chemical_formula_sum   'Ca4 Ru4 O12'
_cell_volume   235.30731885
_cell_formula_units_Z   4
loop_
 _symmetry_equiv_pos_site_id
 _symmetry_equiv_pos_as_xyz
  1  'x, y, z'
loop_
 _atom_site_type_symbol
 _atom_site_label
 _atom_site_symmetry_multiplicity
 _atom_site_fract_x
 _atom_site_fract_y
 _atom_site_fract_z
 _atom_site_occupancy
  Ca  Ca0  1  0.51434500  0.55724400  0.25000000  1
  Ca  Ca1  1  0.98565500  0.05724400  0.25000000  1
  Ca  Ca2  1  0.48565500  0.44275600  0.75000000  1
  Ca  Ca3  1  0.01434500  0.94275600  0.75000000  1
  Ru  Ru4  1  0.00000000  0.50000000  0.00000000  1
  Ru  Ru5  1  0.50000000  0.00000000  0.50000000  1
  Ru  Ru6  1  0.00000000  0.50000000  0.50000000  1
  Ru  Ru7  1  0.50000000  0.00000000  0.00000000  1
  O  O8  1  0.80340800  0.79859900  0.04929700  1
  O  O9  1  0.69659200  0.29859900  0.45070300  1
  O  O10  1  0.19659200  0.20140100  0.54929700  1
  O  O11  1  0.30340800  0.70140100  0.95070300  1
  O  O12  1  0.19659200  0.20140100  0.95070300  1
  O  O13  1  0.30340800  0.70140100  0.54929700  1
  O  O14  1  0.80340800  0.79859900  0.45070300  1
  O  O15  1  0.69659200  0.29859900  0.04929700  1
  O  O16  1  0.40400500  0.97284000  0.25000000  1
  O  O17  1  0.09599500  0.47284000  0.25000000  1
  O  O18  1  0.59599500  0.02716000  0.75000000  1
  O  O19  1  0.90400500  0.52716000  0.75000000  1
