# generated using pymatgen
data_CuAuF5
_symmetry_space_group_name_H-M   'P 1'
_cell_length_a   3.78883900
_cell_length_b   5.14379763
_cell_length_c   5.54537326
_cell_angle_alpha   90.59332253
_cell_angle_beta   98.50406016
_cell_angle_gamma   107.42632069
_symmetry_Int_Tables_number   1
_chemical_formula_structural   CuAuF5
_chemical_formula_sum   'Cu1 Au1 F5'
_cell_volume   101.80879268
_cell_formula_units_Z   1
loop_
 _symmetry_equiv_pos_site_id
 _symmetry_equiv_pos_as_xyz
  1  'x, y, z'
loop_
 _atom_site_type_symbol
 _atom_site_label
 _atom_site_symmetry_multiplicity
 _atom_site_fract_x
 _atom_site_fract_y
 _atom_site_fract_z
 _atom_site_occupancy
  Cu  Cu0  1  0.00000000  0.50000000  0.50000000  1
  Au  Au1  1  0.00000000  0.00000000  0.00000000  1
  F  F2  1  0.50000000  0.50000000  0.50000000  1
  F  F3  1  0.88303700  0.15291200  0.68061000  1
  F  F4  1  0.18102800  0.72900400  0.83528700  1
  F  F5  1  0.81897200  0.27099600  0.16471300  1
  F  F6  1  0.11696300  0.84708800  0.31939000  1
