# generated using pymatgen
data_BaClF
_symmetry_space_group_name_H-M   'P 1'
_cell_length_a   4.46110700
_cell_length_b   4.46110700
_cell_length_c   7.34887200
_cell_angle_alpha   90.00000000
_cell_angle_beta   90.00000000
_cell_angle_gamma   90.00000000
_symmetry_Int_Tables_number   1
_chemical_formula_structural   BaClF
_chemical_formula_sum   'Ba2 Cl2 F2'
_cell_volume   146.25339728
_cell_formula_units_Z   2
loop_
 _symmetry_equiv_pos_site_id
 _symmetry_equiv_pos_as_xyz
  1  'x, y, z'
loop_
 _atom_site_type_symbol
 _atom_site_label
 _atom_site_symmetry_multiplicity
 _atom_site_fract_x
 _atom_site_fract_y
 _atom_site_fract_z
 _atom_site_occupancy
  Ba  Ba0  1  0.00000000  0.50000000  0.79442000  1
  Ba  Ba1  1  0.50000000  0.00000000  0.20558000  1
  Cl  Cl2  1  0.50000000  0.00000000  0.64707500  1
  Cl  Cl3  1  0.00000000  0.50000000  0.35292500  1
  F  F4  1  0.00000000  0.00000000  0.00000000  1
  F  F5  1  0.50000000  0.50000000  0.00000000  1
