# generated using pymatgen
data_KNiPO4
_symmetry_space_group_name_H-M   'P 1'
_cell_length_a   4.97472200
_cell_length_b   8.72153100
_cell_length_c   9.36303000
_cell_angle_alpha   90.00000000
_cell_angle_beta   90.00000000
_cell_angle_gamma   90.00000000
_symmetry_Int_Tables_number   1
_chemical_formula_structural   KNiPO4
_chemical_formula_sum   'K4 Ni4 P4 O16'
_cell_volume   406.23558162
_cell_formula_units_Z   4
loop_
 _symmetry_equiv_pos_site_id
 _symmetry_equiv_pos_as_xyz
  1  'x, y, z'
loop_
 _atom_site_type_symbol
 _atom_site_label
 _atom_site_symmetry_multiplicity
 _atom_site_fract_x
 _atom_site_fract_y
 _atom_site_fract_z
 _atom_site_occupancy
  K  K0  1  0.51918500  0.49899400  0.18326300  1
  K  K1  1  0.01918500  0.50100600  0.81673700  1
  K  K2  1  0.01918500  0.00100600  0.68326300  1
  K  K3  1  0.51918500  0.99899400  0.31673700  1
  Ni  Ni4  1  0.99870500  0.65457900  0.45775200  1
  Ni  Ni5  1  0.49870500  0.34542100  0.54224800  1
  Ni  Ni6  1  0.49870500  0.84542100  0.95775200  1
  Ni  Ni7  1  0.99870500  0.15457900  0.04224800  1
  P  P8  1  0.06366700  0.79064400  0.12597300  1
  P  P9  1  0.56366700  0.20935600  0.87402700  1
  P  P10  1  0.56366700  0.70935600  0.62597300  1
  P  P11  1  0.06366700  0.29064400  0.37402700  1
  O  O12  1  0.14367600  0.75458200  0.28166900  1
  O  O13  1  0.64367600  0.24541800  0.71833100  1
  O  O14  1  0.64367600  0.74541800  0.78166900  1
  O  O15  1  0.14367600  0.25458200  0.21833100  1
  O  O16  1  0.18618500  0.45258800  0.41599600  1
  O  O17  1  0.68618500  0.54741200  0.58400400  1
  O  O18  1  0.68618500  0.04741200  0.91599600  1
  O  O19  1  0.18618500  0.95258800  0.08400400  1
  O  O20  1  0.75465800  0.28726400  0.38712100  1
  O  O21  1  0.25465800  0.71273600  0.61287900  1
  O  O22  1  0.25465800  0.21273600  0.88712100  1
  O  O23  1  0.75465800  0.78726400  0.11287900  1
  O  O24  1  0.21052400  0.68333800  0.01798000  1
  O  O25  1  0.71052400  0.31666200  0.98202000  1
  O  O26  1  0.71052400  0.81666200  0.51798000  1
  O  O27  1  0.21052400  0.18333800  0.48202000  1
