# generated using pymatgen
data_Ho5(Ge5Rh2)2
_symmetry_space_group_name_H-M   'P 1'
_cell_length_a   13.05410400
_cell_length_b   13.05410400
_cell_length_c   4.30077900
_cell_angle_alpha   90.00000000
_cell_angle_beta   90.00000000
_cell_angle_gamma   90.00000000
_symmetry_Int_Tables_number   1
_chemical_formula_structural   Ho5(Ge5Rh2)2
_chemical_formula_sum   'Ho10 Ge20 Rh8'
_cell_volume   732.89416345
_cell_formula_units_Z   2
loop_
 _symmetry_equiv_pos_site_id
 _symmetry_equiv_pos_as_xyz
  1  'x, y, z'
loop_
 _atom_site_type_symbol
 _atom_site_label
 _atom_site_symmetry_multiplicity
 _atom_site_fract_x
 _atom_site_fract_y
 _atom_site_fract_z
 _atom_site_occupancy
  Ho  Ho0  1  0.50000000  0.50000000  0.00000000  1
  Ho  Ho1  1  0.00000000  0.00000000  0.00000000  1
  Ho  Ho2  1  0.88707700  0.38707700  0.50000000  1
  Ho  Ho3  1  0.38707700  0.11292300  0.50000000  1
  Ho  Ho4  1  0.61292300  0.88707700  0.50000000  1
  Ho  Ho5  1  0.11292300  0.61292300  0.50000000  1
  Ho  Ho6  1  0.32549200  0.82549200  0.50000000  1
  Ho  Ho7  1  0.82549200  0.67450800  0.50000000  1
  Ho  Ho8  1  0.17450800  0.32549200  0.50000000  1
  Ho  Ho9  1  0.67450800  0.17450800  0.50000000  1
  Ge  Ge10  1  0.43298700  0.93298700  0.00000000  1
  Ge  Ge11  1  0.93298700  0.56701300  0.00000000  1
  Ge  Ge12  1  0.06701300  0.43298700  0.00000000  1
  Ge  Ge13  1  0.56701300  0.06701300  0.00000000  1
  Ge  Ge14  1  0.33797900  0.29981000  0.00000000  1
  Ge  Ge15  1  0.66202100  0.70019000  0.00000000  1
  Ge  Ge16  1  0.70019000  0.33797900  0.00000000  1
  Ge  Ge17  1  0.29981000  0.66202100  0.00000000  1
  Ge  Ge18  1  0.79981000  0.83797900  0.00000000  1
  Ge  Ge19  1  0.83797900  0.20019000  0.00000000  1
  Ge  Ge20  1  0.16202100  0.79981000  0.00000000  1
  Ge  Ge21  1  0.20019000  0.16202100  0.00000000  1
  Ge  Ge22  1  0.34225600  0.49740200  0.50000000  1
  Ge  Ge23  1  0.65774400  0.50259800  0.50000000  1
  Ge  Ge24  1  0.50259800  0.34225600  0.50000000  1
  Ge  Ge25  1  0.49740200  0.65774400  0.50000000  1
  Ge  Ge26  1  0.99740200  0.84225600  0.50000000  1
  Ge  Ge27  1  0.84225600  0.00259800  0.50000000  1
  Ge  Ge28  1  0.00259800  0.15774400  0.50000000  1
  Ge  Ge29  1  0.15774400  0.99740200  0.50000000  1
  Rh  Rh30  1  0.25423600  0.47885800  0.00000000  1
  Rh  Rh31  1  0.74576400  0.52114200  0.00000000  1
  Rh  Rh32  1  0.52114200  0.25423600  0.00000000  1
  Rh  Rh33  1  0.47885800  0.74576400  0.00000000  1
  Rh  Rh34  1  0.97885800  0.75423600  0.00000000  1
  Rh  Rh35  1  0.75423600  0.02114200  0.00000000  1
  Rh  Rh36  1  0.24576400  0.97885800  0.00000000  1
  Rh  Rh37  1  0.02114200  0.24576400  0.00000000  1
