# generated using pymatgen
data_Cs4ZrO4
_symmetry_space_group_name_H-M   'P 1'
_cell_length_a   20.23923000
_cell_length_b   7.28816200
_cell_length_c   7.30367405
_cell_angle_alpha   66.71023578
_cell_angle_beta   90.00000000
_cell_angle_gamma   90.00000000
_symmetry_Int_Tables_number   1
_chemical_formula_structural   Cs4ZrO4
_chemical_formula_sum   'Cs16 Zr4 O16'
_cell_volume   989.55650839
_cell_formula_units_Z   4
loop_
 _symmetry_equiv_pos_site_id
 _symmetry_equiv_pos_as_xyz
  1  'x, y, z'
loop_
 _atom_site_type_symbol
 _atom_site_label
 _atom_site_symmetry_multiplicity
 _atom_site_fract_x
 _atom_site_fract_y
 _atom_site_fract_z
 _atom_site_occupancy
  Cs  Cs0  1  0.08166800  0.34017400  0.72383400  1
  Cs  Cs1  1  0.58166800  0.65982600  0.77616600  1
  Cs  Cs2  1  0.91833200  0.65982600  0.27616600  1
  Cs  Cs3  1  0.41833200  0.34017400  0.22383400  1
  Cs  Cs4  1  0.81024700  0.18551700  0.31651600  1
  Cs  Cs5  1  0.31024700  0.81448300  0.18348400  1
  Cs  Cs6  1  0.18975300  0.81448300  0.68348400  1
  Cs  Cs7  1  0.68975300  0.18551700  0.81651600  1
  Cs  Cs8  1  0.71598200  0.69838000  0.32252800  1
  Cs  Cs9  1  0.21598200  0.30162000  0.17747200  1
  Cs  Cs10  1  0.28401800  0.30162000  0.67747200  1
  Cs  Cs11  1  0.78401800  0.69838000  0.82252800  1
  Cs  Cs12  1  0.01427800  0.22030000  0.24956100  1
  Cs  Cs13  1  0.51427800  0.77970000  0.25043900  1
  Cs  Cs14  1  0.98572200  0.77970000  0.75043900  1
  Cs  Cs15  1  0.48572200  0.22030000  0.74956100  1
  Zr  Zr16  1  0.62259000  0.25460100  0.29886300  1
  Zr  Zr17  1  0.12259000  0.74539900  0.20113700  1
  Zr  Zr18  1  0.37741000  0.74539900  0.70113700  1
  Zr  Zr19  1  0.87741000  0.25460100  0.79886300  1
  O  O20  1  0.09465500  0.59402900  0.03567600  1
  O  O21  1  0.59465500  0.40597100  0.46432400  1
  O  O22  1  0.90534500  0.40597100  0.96432400  1
  O  O23  1  0.40534500  0.59402900  0.53567600  1
  O  O24  1  0.83292000  0.00098200  0.97877900  1
  O  O25  1  0.33292000  0.99901800  0.52122100  1
  O  O26  1  0.16708000  0.99901800  0.02122100  1
  O  O27  1  0.66708000  0.00098200  0.47877900  1
  O  O28  1  0.95168900  0.20937800  0.63906400  1
  O  O29  1  0.45168900  0.79062200  0.86093600  1
  O  O30  1  0.04831100  0.79062200  0.36093600  1
  O  O31  1  0.54831100  0.20937800  0.13906400  1
  O  O32  1  0.81033200  0.42771700  0.60433600  1
  O  O33  1  0.31033200  0.57228300  0.89566400  1
  O  O34  1  0.18966800  0.57228300  0.39566400  1
  O  O35  1  0.68966800  0.42771700  0.10433600  1
