# generated using pymatgen
data_EuGe
_symmetry_space_group_name_H-M   'P 1'
_cell_length_a   6.08659663
_cell_length_b   6.08659663
_cell_length_c   4.12941800
_cell_angle_alpha   90.00000000
_cell_angle_beta   90.00000000
_cell_angle_gamma   135.03848516
_symmetry_Int_Tables_number   1
_chemical_formula_structural   EuGe
_chemical_formula_sum   'Eu2 Ge2'
_cell_volume   108.10131645
_cell_formula_units_Z   2
loop_
 _symmetry_equiv_pos_site_id
 _symmetry_equiv_pos_as_xyz
  1  'x, y, z'
loop_
 _atom_site_type_symbol
 _atom_site_label
 _atom_site_symmetry_multiplicity
 _atom_site_fract_x
 _atom_site_fract_y
 _atom_site_fract_z
 _atom_site_occupancy
  Eu  Eu0  1  0.13930600  0.86069400  0.25000000  1
  Eu  Eu1  1  0.86069400  0.13930600  0.75000000  1
  Ge  Ge2  1  0.57258900  0.42741100  0.75000000  1
  Ge  Ge3  1  0.42741100  0.57258900  0.25000000  1
