# generated using pymatgen
data_LiV(PO3)4
_symmetry_space_group_name_H-M   'P 1'
_cell_length_a   8.38693000
_cell_length_b   9.41893500
_cell_length_c   12.87040700
_cell_angle_alpha   90.00000000
_cell_angle_beta   90.00000000
_cell_angle_gamma   90.00000000
_symmetry_Int_Tables_number   1
_chemical_formula_structural   LiV(PO3)4
_chemical_formula_sum   'Li4 V4 P16 O48'
_cell_volume   1016.71000880
_cell_formula_units_Z   4
loop_
 _symmetry_equiv_pos_site_id
 _symmetry_equiv_pos_as_xyz
  1  'x, y, z'
loop_
 _atom_site_type_symbol
 _atom_site_label
 _atom_site_symmetry_multiplicity
 _atom_site_fract_x
 _atom_site_fract_y
 _atom_site_fract_z
 _atom_site_occupancy
  Li  Li0  1  0.50061000  0.75000000  0.50000000  1
  Li  Li1  1  0.99939000  0.25000000  0.00000000  1
  Li  Li2  1  0.49939000  0.25000000  0.50000000  1
  Li  Li3  1  0.00061000  0.75000000  0.00000000  1
  V  V4  1  0.86911700  0.75000000  0.50000000  1
  V  V5  1  0.63088300  0.25000000  0.00000000  1
  V  V6  1  0.13088300  0.25000000  0.50000000  1
  V  V7  1  0.36911700  0.75000000  0.00000000  1
  P  P8  1  0.31972700  0.49539100  0.63898900  1
  P  P9  1  0.81972700  0.49539100  0.86101100  1
  P  P10  1  0.46429700  0.48933800  0.84930700  1
  P  P11  1  0.68027300  0.50460900  0.36101100  1
  P  P12  1  0.53570300  0.51066200  0.15069300  1
  P  P13  1  0.68027300  0.99539100  0.63898900  1
  P  P14  1  0.96429700  0.01066200  0.34930700  1
  P  P15  1  0.03570300  0.51066200  0.34930700  1
  P  P16  1  0.81972700  0.00460900  0.13898900  1
  P  P17  1  0.18027300  0.50460900  0.13898900  1
  P  P18  1  0.96429700  0.48933800  0.65069300  1
  P  P19  1  0.46429700  0.01066200  0.15069300  1
  P  P20  1  0.53570300  0.98933800  0.84930700  1
  P  P21  1  0.18027300  0.99539100  0.86101100  1
  P  P22  1  0.31972700  0.00460900  0.36101100  1
  P  P23  1  0.03570300  0.98933800  0.65069300  1
  O  O24  1  0.89708800  0.07346300  0.24300800  1
  O  O25  1  0.85723200  0.46457100  0.32026500  1
  O  O26  1  0.59559600  0.37528300  0.39473200  1
  O  O27  1  0.19065400  0.63149900  0.06589500  1
  O  O28  1  0.59559600  0.12471700  0.60526800  1
  O  O29  1  0.86803800  0.61893300  0.62335900  1
  O  O30  1  0.46491400  0.12929300  0.07244900  1
  O  O31  1  0.96491400  0.12929300  0.42755100  1
  O  O32  1  0.19065400  0.86850100  0.93410500  1
  O  O33  1  0.39708800  0.42653700  0.74300800  1
  O  O34  1  0.60291200  0.92653700  0.74300800  1
  O  O35  1  0.80934600  0.13149900  0.06589500  1
  O  O36  1  0.39708800  0.07346300  0.25699200  1
  O  O37  1  0.09559600  0.37528300  0.10526800  1
  O  O38  1  0.09559600  0.12471700  0.89473200  1
  O  O39  1  0.64276800  0.53542900  0.82026500  1
  O  O40  1  0.14276800  0.53542900  0.67973500  1
  O  O41  1  0.13196200  0.38106700  0.37664100  1
  O  O42  1  0.30934600  0.36850100  0.56589500  1
  O  O43  1  0.46491400  0.37070700  0.92755100  1
  O  O44  1  0.14276800  0.96457100  0.32026500  1
  O  O45  1  0.35723200  0.03542900  0.82026500  1
  O  O46  1  0.85723200  0.03542900  0.67973500  1
  O  O47  1  0.03508600  0.87070700  0.57244900  1
  O  O48  1  0.35723200  0.46457100  0.17973500  1
  O  O49  1  0.63196200  0.11893300  0.87664100  1
  O  O50  1  0.60291200  0.57346300  0.25699200  1
  O  O51  1  0.03508600  0.62929300  0.42755100  1
  O  O52  1  0.40440400  0.87528300  0.39473200  1
  O  O53  1  0.64276800  0.96457100  0.17973500  1
  O  O54  1  0.10291200  0.92653700  0.75699200  1
  O  O55  1  0.36803800  0.88106700  0.12335900  1
  O  O56  1  0.53508600  0.87070700  0.92755100  1
  O  O57  1  0.63196200  0.38106700  0.12335900  1
  O  O58  1  0.53508600  0.62929300  0.07244900  1
  O  O59  1  0.90440400  0.87528300  0.10526800  1
  O  O60  1  0.89708800  0.42653700  0.75699200  1
  O  O61  1  0.90440400  0.62471700  0.89473200  1
  O  O62  1  0.69065400  0.86850100  0.56589500  1
  O  O63  1  0.36803800  0.61893300  0.87664100  1
  O  O64  1  0.96491400  0.37070700  0.57244900  1
  O  O65  1  0.86803800  0.88106700  0.37664100  1
  O  O66  1  0.10291200  0.57346300  0.24300800  1
  O  O67  1  0.13196200  0.11893300  0.62335900  1
  O  O68  1  0.69065400  0.63149900  0.43410500  1
  O  O69  1  0.30934600  0.13149900  0.43410500  1
  O  O70  1  0.40440400  0.62471700  0.60526800  1
  O  O71  1  0.80934600  0.36850100  0.93410500  1
