# generated using pymatgen
data_La(NiAs)2
_symmetry_space_group_name_H-M   'P 1'
_cell_length_a   4.27097700
_cell_length_b   4.27097700
_cell_length_c   9.54280800
_cell_angle_alpha   90.00000000
_cell_angle_beta   90.00000000
_cell_angle_gamma   90.00000000
_symmetry_Int_Tables_number   1
_chemical_formula_structural   La(NiAs)2
_chemical_formula_sum   'La2 Ni4 As4'
_cell_volume   174.07269427
_cell_formula_units_Z   2
loop_
 _symmetry_equiv_pos_site_id
 _symmetry_equiv_pos_as_xyz
  1  'x, y, z'
loop_
 _atom_site_type_symbol
 _atom_site_label
 _atom_site_symmetry_multiplicity
 _atom_site_fract_x
 _atom_site_fract_y
 _atom_site_fract_z
 _atom_site_occupancy
  La  La0  1  0.00000000  0.50000000  0.74755900  1
  La  La1  1  0.50000000  0.00000000  0.25244100  1
  Ni  Ni2  1  0.00000000  0.50000000  0.11641100  1
  Ni  Ni3  1  0.00000000  0.00000000  0.50000000  1
  Ni  Ni4  1  0.50000000  0.00000000  0.88358900  1
  Ni  Ni5  1  0.50000000  0.50000000  0.50000000  1
  As  As6  1  0.00000000  0.50000000  0.37106200  1
  As  As7  1  0.00000000  0.00000000  0.00000000  1
  As  As8  1  0.50000000  0.00000000  0.62893800  1
  As  As9  1  0.50000000  0.50000000  0.00000000  1
