# generated using pymatgen
data_ThNCl
_symmetry_space_group_name_H-M   'P 1'
_cell_length_a   4.09562400
_cell_length_b   4.09562400
_cell_length_c   7.04567400
_cell_angle_alpha   90.00000000
_cell_angle_beta   90.00000000
_cell_angle_gamma   90.00000000
_symmetry_Int_Tables_number   1
_chemical_formula_structural   ThNCl
_chemical_formula_sum   'Th2 N2 Cl2'
_cell_volume   118.18509353
_cell_formula_units_Z   2
loop_
 _symmetry_equiv_pos_site_id
 _symmetry_equiv_pos_as_xyz
  1  'x, y, z'
loop_
 _atom_site_type_symbol
 _atom_site_label
 _atom_site_symmetry_multiplicity
 _atom_site_fract_x
 _atom_site_fract_y
 _atom_site_fract_z
 _atom_site_occupancy
  Th  Th0  1  0.00000000  0.50000000  0.83594600  1
  Th  Th1  1  0.50000000  0.00000000  0.16405400  1
  N  N2  1  0.00000000  0.00000000  0.00000000  1
  N  N3  1  0.50000000  0.50000000  0.00000000  1
  Cl  Cl4  1  0.50000000  0.00000000  0.62324500  1
  Cl  Cl5  1  0.00000000  0.50000000  0.37675500  1
