# generated using pymatgen
data_CeSi
_symmetry_space_group_name_H-M   'P 1'
_cell_length_a   3.89421400
_cell_length_b   5.84072900
_cell_length_c   8.16471200
_cell_angle_alpha   90.00000000
_cell_angle_beta   90.00000000
_cell_angle_gamma   90.00000000
_symmetry_Int_Tables_number   1
_chemical_formula_structural   CeSi
_chemical_formula_sum   'Ce4 Si4'
_cell_volume   185.70677159
_cell_formula_units_Z   4
loop_
 _symmetry_equiv_pos_site_id
 _symmetry_equiv_pos_as_xyz
  1  'x, y, z'
loop_
 _atom_site_type_symbol
 _atom_site_label
 _atom_site_symmetry_multiplicity
 _atom_site_fract_x
 _atom_site_fract_y
 _atom_site_fract_z
 _atom_site_occupancy
  Ce  Ce0  1  0.25000000  0.38387100  0.68093700  1
  Ce  Ce1  1  0.75000000  0.61612900  0.31906300  1
  Ce  Ce2  1  0.75000000  0.88387100  0.81906300  1
  Ce  Ce3  1  0.25000000  0.11612900  0.18093700  1
  Si  Si4  1  0.25000000  0.87789500  0.53434800  1
  Si  Si5  1  0.75000000  0.12210500  0.46565200  1
  Si  Si6  1  0.75000000  0.37789500  0.96565200  1
  Si  Si7  1  0.25000000  0.62210500  0.03434800  1
