# generated using pymatgen
data_LaCuO2
_symmetry_space_group_name_H-M   'P 1'
_cell_length_a   6.09448628
_cell_length_b   6.09448628
_cell_length_c   6.09448671
_cell_angle_alpha   36.90350558
_cell_angle_beta   36.90350558
_cell_angle_gamma   36.90349777
_symmetry_Int_Tables_number   1
_chemical_formula_structural   LaCuO2
_chemical_formula_sum   'La1 Cu1 O2'
_cell_volume   73.11946374
_cell_formula_units_Z   1
loop_
 _symmetry_equiv_pos_site_id
 _symmetry_equiv_pos_as_xyz
  1  'x, y, z'
loop_
 _atom_site_type_symbol
 _atom_site_label
 _atom_site_symmetry_multiplicity
 _atom_site_fract_x
 _atom_site_fract_y
 _atom_site_fract_z
 _atom_site_occupancy
  La  La0  1  0.50000000  0.50000000  0.50000000  1
  Cu  Cu1  1  0.00000000  0.00000000  0.00000000  1
  O  O2  1  0.89332100  0.89332100  0.89332100  1
  O  O3  1  0.10667900  0.10667900  0.10667900  1
