# generated using pymatgen
data_LaCrHO5
_symmetry_space_group_name_H-M   'P 1'
_cell_length_a   13.28796700
_cell_length_b   4.78338900
_cell_length_c   7.28711153
_cell_angle_alpha   68.54628789
_cell_angle_beta   90.00000000
_cell_angle_gamma   90.00000000
_symmetry_Int_Tables_number   1
_chemical_formula_structural   LaCrHO5
_chemical_formula_sum   'La4 Cr4 H4 O20'
_cell_volume   431.08767099
_cell_formula_units_Z   4
loop_
 _symmetry_equiv_pos_site_id
 _symmetry_equiv_pos_as_xyz
  1  'x, y, z'
loop_
 _atom_site_type_symbol
 _atom_site_label
 _atom_site_symmetry_multiplicity
 _atom_site_fract_x
 _atom_site_fract_y
 _atom_site_fract_z
 _atom_site_occupancy
  La  La0  1  0.05676800  0.33607000  0.79918900  1
  La  La1  1  0.55676800  0.66393000  0.70081100  1
  La  La2  1  0.94323200  0.66393000  0.20081100  1
  La  La3  1  0.44323200  0.33607000  0.29918900  1
  Cr  Cr4  1  0.35119600  0.09047500  0.88197800  1
  Cr  Cr5  1  0.85119600  0.90952500  0.61802200  1
  Cr  Cr6  1  0.64880400  0.90952500  0.11802200  1
  Cr  Cr7  1  0.14880400  0.09047500  0.38197800  1
  H  H8  1  0.14764700  0.72238100  0.99866700  1
  H  H9  1  0.64764700  0.27761900  0.50133300  1
  H  H10  1  0.85235300  0.27761900  0.00133300  1
  H  H11  1  0.35235300  0.72238100  0.49866700  1
  O  O12  1  0.07928100  0.72951600  0.94712200  1
  O  O13  1  0.57928100  0.27048400  0.55287800  1
  O  O14  1  0.92071900  0.27048400  0.05287800  1
  O  O15  1  0.42071900  0.72951600  0.44712200  1
  O  O16  1  0.07000800  0.31997400  0.44667900  1
  O  O17  1  0.57000800  0.68002600  0.05332100  1
  O  O18  1  0.92999200  0.68002600  0.55332100  1
  O  O19  1  0.42999200  0.31997400  0.94667900  1
  O  O20  1  0.26139900  0.24385000  0.32106900  1
  O  O21  1  0.76139900  0.75615000  0.17893100  1
  O  O22  1  0.73860100  0.75615000  0.67893100  1
  O  O23  1  0.23860100  0.24385000  0.82106900  1
  O  O24  1  0.16035000  0.77323800  0.56933700  1
  O  O25  1  0.66035000  0.22676200  0.93066300  1
  O  O26  1  0.83965000  0.22676200  0.43066300  1
  O  O27  1  0.33965000  0.77323800  0.06933700  1
  O  O28  1  0.09703800  0.02679800  0.19270200  1
  O  O29  1  0.59703800  0.97320200  0.30729800  1
  O  O30  1  0.90296200  0.97320200  0.80729800  1
  O  O31  1  0.40296200  0.02679800  0.69270200  1
