# generated using pymatgen
data_Nb2Te3O11
_symmetry_space_group_name_H-M   'P 1'
_cell_length_a   4.08177600
_cell_length_b   7.94433700
_cell_length_c   15.97215400
_cell_angle_alpha   90.00000000
_cell_angle_beta   90.00000000
_cell_angle_gamma   90.00000000
_symmetry_Int_Tables_number   1
_chemical_formula_structural   Nb2Te3O11
_chemical_formula_sum   'Nb4 Te6 O22'
_cell_volume   517.92910328
_cell_formula_units_Z   2
loop_
 _symmetry_equiv_pos_site_id
 _symmetry_equiv_pos_as_xyz
  1  'x, y, z'
loop_
 _atom_site_type_symbol
 _atom_site_label
 _atom_site_symmetry_multiplicity
 _atom_site_fract_x
 _atom_site_fract_y
 _atom_site_fract_z
 _atom_site_occupancy
  Nb  Nb0  1  0.75012100  0.12890000  0.60168700  1
  Nb  Nb1  1  0.75012100  0.87110000  0.39831300  1
  Nb  Nb2  1  0.24987900  0.62890000  0.89831300  1
  Nb  Nb3  1  0.24987900  0.37110000  0.10168700  1
  Te  Te4  1  0.86430400  0.00000000  0.00000000  1
  Te  Te5  1  0.13569600  0.50000000  0.50000000  1
  Te  Te6  1  0.13686700  0.19268000  0.79770600  1
  Te  Te7  1  0.13686700  0.80732000  0.20229400  1
  Te  Te8  1  0.86313300  0.69268000  0.70229400  1
  Te  Te9  1  0.86313300  0.30732000  0.29770600  1
  O  O10  1  0.83477500  0.13633800  0.88552200  1
  O  O11  1  0.83477500  0.86366200  0.11447800  1
  O  O12  1  0.16522500  0.63633800  0.61447800  1
  O  O13  1  0.16522500  0.36366200  0.38552200  1
  O  O14  1  0.79516900  0.91967600  0.67207900  1
  O  O15  1  0.79516900  0.08032400  0.32792100  1
  O  O16  1  0.20483100  0.41967600  0.82792100  1
  O  O17  1  0.20483100  0.58032400  0.17207900  1
  O  O18  1  0.80403800  0.35469500  0.54365000  1
  O  O19  1  0.80403800  0.64530500  0.45635000  1
  O  O20  1  0.69542900  0.35145800  0.10674900  1
  O  O21  1  0.69542900  0.64854200  0.89325100  1
  O  O22  1  0.30457100  0.85145800  0.39325100  1
  O  O23  1  0.30457100  0.14854200  0.60674900  1
  O  O24  1  0.19111800  0.24847000  0.21853100  1
  O  O25  1  0.19111800  0.75153000  0.78146900  1
  O  O26  1  0.80888200  0.74847000  0.28146900  1
  O  O27  1  0.80888200  0.25153000  0.71853100  1
  O  O28  1  0.19722700  0.50000000  0.00000000  1
  O  O29  1  0.80277300  0.00000000  0.50000000  1
  O  O30  1  0.19596200  0.14530500  0.04365000  1
  O  O31  1  0.19596200  0.85469500  0.95635000  1
