# generated using pymatgen
data_NaAg3O2
_symmetry_space_group_name_H-M   'P 1'
_cell_length_a   6.85742064
_cell_length_b   6.85742064
_cell_length_c   6.85742064
_cell_angle_alpha   127.57279514
_cell_angle_beta   125.68009428
_cell_angle_gamma   78.87045532
_symmetry_Int_Tables_number   1
_chemical_formula_structural   NaAg3O2
_chemical_formula_sum   'Na2 Ag6 O4'
_cell_volume   200.87075262
_cell_formula_units_Z   2
loop_
 _symmetry_equiv_pos_site_id
 _symmetry_equiv_pos_as_xyz
  1  'x, y, z'
loop_
 _atom_site_type_symbol
 _atom_site_label
 _atom_site_symmetry_multiplicity
 _atom_site_fract_x
 _atom_site_fract_y
 _atom_site_fract_z
 _atom_site_occupancy
  Na  Na0  1  0.50000000  0.75000000  0.25000000  1
  Na  Na1  1  0.50000000  0.25000000  0.75000000  1
  Ag  Ag2  1  0.50000000  0.00000000  0.00000000  1
  Ag  Ag3  1  0.00000000  0.50000000  0.00000000  1
  Ag  Ag4  1  0.50000000  0.50000000  0.50000000  1
  Ag  Ag5  1  0.00000000  0.50000000  0.50000000  1
  Ag  Ag6  1  0.00000000  0.00000000  0.00000000  1
  Ag  Ag7  1  0.00000000  0.00000000  0.50000000  1
  O  O8  1  0.82242000  0.61027500  0.21214500  1
  O  O9  1  0.39813000  0.11027500  0.28785500  1
  O  O10  1  0.60187000  0.88972500  0.71214500  1
  O  O11  1  0.17758000  0.38972500  0.78785500  1
