# generated using pymatgen
data_Ta2VO6
_symmetry_space_group_name_H-M   'P 1'
_cell_length_a   4.84074100
_cell_length_b   10.43609331
_cell_length_c   9.68148200
_cell_angle_alpha   62.36443198
_cell_angle_beta   90.00000000
_cell_angle_gamma   90.00000000
_symmetry_Int_Tables_number   1
_chemical_formula_structural   Ta2VO6
_chemical_formula_sum   'Ta8 V4 O24'
_cell_volume   433.29541348
_cell_formula_units_Z   4
loop_
 _symmetry_equiv_pos_site_id
 _symmetry_equiv_pos_as_xyz
  1  'x, y, z'
loop_
 _atom_site_type_symbol
 _atom_site_label
 _atom_site_symmetry_multiplicity
 _atom_site_fract_x
 _atom_site_fract_y
 _atom_site_fract_z
 _atom_site_occupancy
  Ta  Ta0  1  0.50000000  0.83053900  0.83473000  1
  Ta  Ta1  1  0.50000000  0.83053900  0.33473000  1
  Ta  Ta2  1  0.00000000  0.33053900  0.33473000  1
  Ta  Ta3  1  0.00000000  0.33053900  0.83473000  1
  Ta  Ta4  1  0.50000000  0.16946100  0.16527000  1
  Ta  Ta5  1  0.50000000  0.16946100  0.66527000  1
  Ta  Ta6  1  0.00000000  0.66946100  0.16527000  1
  Ta  Ta7  1  0.00000000  0.66946100  0.66527000  1
  V  V8  1  0.00000000  0.00000000  0.50000000  1
  V  V9  1  0.50000000  0.50000000  0.00000000  1
  V  V10  1  0.00000000  0.00000000  0.00000000  1
  V  V11  1  0.50000000  0.50000000  0.50000000  1
  O  O12  1  0.31459800  0.00000000  0.34270100  1
  O  O13  1  0.31459800  0.00000000  0.84270100  1
  O  O14  1  0.18540200  0.50000000  0.84270100  1
  O  O15  1  0.18540200  0.50000000  0.34270100  1
  O  O16  1  0.81459800  0.50000000  0.15729900  1
  O  O17  1  0.81459800  0.50000000  0.65729900  1
  O  O18  1  0.68540200  0.00000000  0.15729900  1
  O  O19  1  0.68540200  0.00000000  0.65729900  1
  O  O20  1  0.70576600  0.67857200  0.80783100  1
  O  O21  1  0.70576600  0.67857200  0.30783100  1
  O  O22  1  0.29423400  0.67857200  0.01359700  1
  O  O23  1  0.29423400  0.67857200  0.51359700  1
  O  O24  1  0.70576600  0.32142800  0.98640300  1
  O  O25  1  0.70576600  0.32142800  0.48640300  1
  O  O26  1  0.20576600  0.17857200  0.01359700  1
  O  O27  1  0.20576600  0.17857200  0.51359700  1
  O  O28  1  0.79423400  0.17857200  0.30783100  1
  O  O29  1  0.79423400  0.17857200  0.80783100  1
  O  O30  1  0.79423400  0.82142800  0.98640300  1
  O  O31  1  0.79423400  0.82142800  0.48640300  1
  O  O32  1  0.29423400  0.32142800  0.19216900  1
  O  O33  1  0.29423400  0.32142800  0.69216900  1
  O  O34  1  0.20576600  0.82142800  0.69216900  1
  O  O35  1  0.20576600  0.82142800  0.19216900  1
