# generated using pymatgen
data_Ni3AgP3(HO6)2
_symmetry_space_group_name_H-M   'P 1'
_cell_length_a   8.53805723
_cell_length_b   8.53805723
_cell_length_c   6.51379443
_cell_angle_alpha   73.55731664
_cell_angle_beta   73.55731664
_cell_angle_gamma   91.15121759
_symmetry_Int_Tables_number   1
_chemical_formula_structural   Ni3AgP3(HO6)2
_chemical_formula_sum   'Ni6 Ag2 P6 H4 O24'
_cell_volume   434.20067459
_cell_formula_units_Z   2
loop_
 _symmetry_equiv_pos_site_id
 _symmetry_equiv_pos_as_xyz
  1  'x, y, z'
loop_
 _atom_site_type_symbol
 _atom_site_label
 _atom_site_symmetry_multiplicity
 _atom_site_fract_x
 _atom_site_fract_y
 _atom_site_fract_z
 _atom_site_occupancy
  Ni  Ni0  1  0.45012000  0.12513400  0.12264700  1
  Ni  Ni1  1  0.22474600  0.77525400  0.75000000  1
  Ni  Ni2  1  0.54988000  0.87486600  0.87735300  1
  Ni  Ni3  1  0.12513400  0.45012000  0.62264700  1
  Ni  Ni4  1  0.77525400  0.22474600  0.25000000  1
  Ni  Ni5  1  0.87486600  0.54988000  0.37735300  1
  Ag  Ag6  1  0.46047400  0.53952600  0.25000000  1
  Ag  Ag7  1  0.53952600  0.46047400  0.75000000  1
  P  P8  1  0.60887900  0.83493100  0.38694600  1
  P  P9  1  0.16506900  0.39112100  0.11305400  1
  P  P10  1  0.39112100  0.16506900  0.61305400  1
  P  P11  1  0.83493100  0.60887900  0.88694600  1
  P  P12  1  0.18128000  0.81872000  0.25000000  1
  P  P13  1  0.81872000  0.18128000  0.75000000  1
  H  H14  1  0.87778400  0.89243400  0.30814300  1
  H  H15  1  0.10756600  0.12221600  0.19185700  1
  H  H16  1  0.12221600  0.10756600  0.69185700  1
  H  H17  1  0.89243400  0.87778400  0.80814300  1
  O  O18  1  0.10024400  0.46337900  0.30856300  1
  O  O19  1  0.04435600  0.23095200  0.15704000  1
  O  O20  1  0.23095200  0.04435600  0.65704000  1
  O  O21  1  0.95564400  0.76904800  0.84296000  1
  O  O22  1  0.33750800  0.33742600  0.10466000  1
  O  O23  1  0.66257400  0.66249200  0.39534000  1
  O  O24  1  0.66249200  0.66257400  0.89534000  1
  O  O25  1  0.33742600  0.33750800  0.60466000  1
  O  O26  1  0.53662100  0.89975600  0.19143700  1
  O  O27  1  0.76904800  0.95564400  0.34296000  1
  O  O28  1  0.00241100  0.21364100  0.73319900  1
  O  O29  1  0.78635900  0.99758900  0.76680100  1
  O  O30  1  0.99758900  0.78635900  0.26680100  1
  O  O31  1  0.21364100  0.00241100  0.23319900  1
  O  O32  1  0.77929100  0.29074200  0.53659000  1
  O  O33  1  0.70925800  0.22070900  0.96341000  1
  O  O34  1  0.22070900  0.70925800  0.46341000  1
  O  O35  1  0.46337900  0.10024400  0.80856300  1
  O  O36  1  0.16907100  0.51540400  0.88641800  1
  O  O37  1  0.48459600  0.83092900  0.61358200  1
  O  O38  1  0.83092900  0.48459600  0.11358200  1
  O  O39  1  0.51540400  0.16907100  0.38641800  1
  O  O40  1  0.89975600  0.53662100  0.69143700  1
  O  O41  1  0.29074200  0.77929100  0.03659000  1
