# generated using pymatgen
data_Na3NbO4
_symmetry_space_group_name_H-M   'P 1'
_cell_length_a   8.67095405
_cell_length_b   8.67095405
_cell_length_c   5.81892797
_cell_angle_alpha   77.56536910
_cell_angle_beta   77.56536910
_cell_angle_gamma   98.95885934
_symmetry_Int_Tables_number   1
_chemical_formula_structural   Na3NbO4
_chemical_formula_sum   'Na12 Nb4 O16'
_cell_volume   407.73820634
_cell_formula_units_Z   4
loop_
 _symmetry_equiv_pos_site_id
 _symmetry_equiv_pos_as_xyz
  1  'x, y, z'
loop_
 _atom_site_type_symbol
 _atom_site_label
 _atom_site_symmetry_multiplicity
 _atom_site_fract_x
 _atom_site_fract_y
 _atom_site_fract_z
 _atom_site_occupancy
  Na  Na0  1  0.50000000  0.00000000  0.00000000  1
  Na  Na1  1  0.25907400  0.74092600  0.50000000  1
  Na  Na2  1  0.74092600  0.25907400  0.50000000  1
  Na  Na3  1  0.00000000  0.00000000  0.50000000  1
  Na  Na4  1  0.37046300  0.11854200  0.47899600  1
  Na  Na5  1  0.88145800  0.62953700  0.52100400  1
  Na  Na6  1  0.62953700  0.88145800  0.52100400  1
  Na  Na7  1  0.11854200  0.37046300  0.47899600  1
  Na  Na8  1  0.62389500  0.37610500  0.00000000  1
  Na  Na9  1  0.00000000  0.50000000  0.00000000  1
  Na  Na10  1  0.37610500  0.62389500  0.00000000  1
  Na  Na11  1  0.50000000  0.50000000  0.50000000  1
  Nb  Nb12  1  0.73926100  0.73926100  0.03274700  1
  Nb  Nb13  1  0.26073900  0.26073900  0.96725300  1
  Nb  Nb14  1  0.13365600  0.86634400  0.00000000  1
  Nb  Nb15  1  0.86634400  0.13365600  0.00000000  1
  O  O16  1  0.53745200  0.75376300  0.23400200  1
  O  O17  1  0.24623700  0.46254800  0.76599800  1
  O  O18  1  0.46254800  0.24623700  0.76599800  1
  O  O19  1  0.75376300  0.53745200  0.23400200  1
  O  O20  1  0.23183200  0.00830300  0.18965000  1
  O  O21  1  0.99169700  0.76816800  0.81035000  1
  O  O22  1  0.76816800  0.99169700  0.81035000  1
  O  O23  1  0.00830300  0.23183200  0.18965000  1
  O  O24  1  0.34431300  0.34431300  0.20534900  1
  O  O25  1  0.65568700  0.65568700  0.79465100  1
  O  O26  1  0.33242200  0.87485900  0.77316400  1
  O  O27  1  0.12514100  0.66757800  0.22683600  1
  O  O28  1  0.66757800  0.12514100  0.22683600  1
  O  O29  1  0.11276900  0.11276900  0.80145100  1
  O  O30  1  0.88723100  0.88723100  0.19854900  1
  O  O31  1  0.87485900  0.33242200  0.77316400  1
