# generated using pymatgen
data_K3AlH6
_symmetry_space_group_name_H-M   'P 1'
_cell_length_a   6.07418100
_cell_length_b   6.01486500
_cell_length_c   10.41060426
_cell_angle_alpha   55.40772553
_cell_angle_beta   90.00000000
_cell_angle_gamma   90.00000000
_symmetry_Int_Tables_number   1
_chemical_formula_structural   K3AlH6
_chemical_formula_sum   'K6 Al2 H12'
_cell_volume   313.11345656
_cell_formula_units_Z   2
loop_
 _symmetry_equiv_pos_site_id
 _symmetry_equiv_pos_as_xyz
  1  'x, y, z'
loop_
 _atom_site_type_symbol
 _atom_site_label
 _atom_site_symmetry_multiplicity
 _atom_site_fract_x
 _atom_site_fract_y
 _atom_site_fract_z
 _atom_site_occupancy
  K  K0  1  0.50000000  0.50000000  0.00000000  1
  K  K1  1  0.00000000  0.50000000  0.50000000  1
  K  K2  1  0.96964500  0.75744600  0.74905600  1
  K  K3  1  0.46964500  0.24255400  0.75094400  1
  K  K4  1  0.03035500  0.24255400  0.25094400  1
  K  K5  1  0.53035500  0.75744600  0.24905600  1
  Al  Al6  1  0.50000000  0.00000000  0.50000000  1
  Al  Al7  1  0.00000000  0.00000000  0.00000000  1
  H  H8  1  0.73968100  0.87318900  0.46212100  1
  H  H9  1  0.23968100  0.12681100  0.03787900  1
  H  H10  1  0.26031900  0.12681100  0.53787900  1
  H  H11  1  0.76031900  0.87318900  0.96212100  1
  H  H12  1  0.83162300  0.20817200  0.03019700  1
  H  H13  1  0.33162300  0.79182800  0.46980300  1
  H  H14  1  0.16837700  0.79182800  0.96980300  1
  H  H15  1  0.66837700  0.20817200  0.53019700  1
  H  H16  1  0.97771500  0.73660400  0.20214300  1
  H  H17  1  0.47771500  0.26339600  0.29785700  1
  H  H18  1  0.02228500  0.26339600  0.79785700  1
  H  H19  1  0.52228500  0.73660400  0.70214300  1
