# generated using pymatgen
data_GdCuSb2
_symmetry_space_group_name_H-M   'P 1'
_cell_length_a   4.35024600
_cell_length_b   4.35024600
_cell_length_c   9.84114000
_cell_angle_alpha   90.00000000
_cell_angle_beta   90.00000000
_cell_angle_gamma   90.00000000
_symmetry_Int_Tables_number   1
_chemical_formula_structural   GdCuSb2
_chemical_formula_sum   'Gd2 Cu2 Sb4'
_cell_volume   186.24003425
_cell_formula_units_Z   2
loop_
 _symmetry_equiv_pos_site_id
 _symmetry_equiv_pos_as_xyz
  1  'x, y, z'
loop_
 _atom_site_type_symbol
 _atom_site_label
 _atom_site_symmetry_multiplicity
 _atom_site_fract_x
 _atom_site_fract_y
 _atom_site_fract_z
 _atom_site_occupancy
  Gd  Gd0  1  0.00000000  0.50000000  0.74723900  1
  Gd  Gd1  1  0.50000000  0.00000000  0.25276100  1
  Cu  Cu2  1  0.00000000  0.00000000  0.50000000  1
  Cu  Cu3  1  0.50000000  0.50000000  0.50000000  1
  Sb  Sb4  1  0.00000000  0.50000000  0.34180900  1
  Sb  Sb5  1  0.50000000  0.00000000  0.65819100  1
  Sb  Sb6  1  0.00000000  0.00000000  0.00000000  1
  Sb  Sb7  1  0.50000000  0.50000000  0.00000000  1
