# generated using pymatgen
data_KYF4
_symmetry_space_group_name_H-M   'P 1'
_cell_length_a   14.26417532
_cell_length_b   14.26417532
_cell_length_c   10.31399400
_cell_angle_alpha   90.00000000
_cell_angle_beta   90.00000000
_cell_angle_gamma   119.99999687
_symmetry_Int_Tables_number   1
_chemical_formula_structural   KYF4
_chemical_formula_sum   'K18 Y18 F72'
_cell_volume   1817.40139166
_cell_formula_units_Z   18
loop_
 _symmetry_equiv_pos_site_id
 _symmetry_equiv_pos_as_xyz
  1  'x, y, z'
loop_
 _atom_site_type_symbol
 _atom_site_label
 _atom_site_symmetry_multiplicity
 _atom_site_fract_x
 _atom_site_fract_y
 _atom_site_fract_z
 _atom_site_occupancy
  K  K0  1  0.78191700  0.72075900  0.32290900  1
  K  K1  1  0.27924100  0.06115800  0.65624200  1
  K  K2  1  0.93884200  0.21808300  0.98957600  1
  K  K3  1  0.26711500  0.22079600  0.35054200  1
  K  K4  1  0.77920400  0.04631900  0.68387500  1
  K  K5  1  0.95368100  0.73288500  0.01720800  1
  K  K6  1  0.10274500  0.39377800  0.31895400  1
  K  K7  1  0.60622200  0.70896700  0.65228700  1
  K  K8  1  0.29103300  0.89725500  0.98562000  1
  K  K9  1  0.60822000  0.87616600  0.34751600  1
  K  K10  1  0.12383400  0.73205400  0.68084900  1
  K  K11  1  0.26794600  0.39178000  0.01418200  1
  K  K12  1  0.94756900  0.56306900  0.34592100  1
  K  K13  1  0.43693100  0.38450000  0.67925400  1
  K  K14  1  0.61550000  0.05243100  0.01258700  1
  K  K15  1  0.45607200  0.06557800  0.31679900  1
  K  K16  1  0.93442200  0.39049300  0.65013300  1
  K  K17  1  0.60950700  0.54392800  0.98346600  1
  Y  Y18  1  0.13097300  0.89037300  0.33220800  1
  Y  Y19  1  0.10962700  0.24060000  0.66554100  1
  Y  Y20  1  0.75940000  0.86902700  0.99887500  1
  Y  Y21  1  0.28263800  0.73187100  0.32066500  1
  Y  Y22  1  0.26812900  0.55076800  0.65399900  1
  Y  Y23  1  0.44923200  0.71736200  0.98733200  1
  Y  Y24  1  0.77891900  0.20590700  0.34055400  1
  Y  Y25  1  0.79409300  0.57301200  0.67388800  1
  Y  Y26  1  0.42698800  0.22108100  0.00722100  1
  Y  Y27  1  0.94181500  0.05869000  0.32780400  1
  Y  Y28  1  0.94131000  0.88312500  0.66113700  1
  Y  Y29  1  0.11687500  0.05818500  0.99447000  1
  Y  Y30  1  0.45401300  0.54642900  0.32571000  1
  Y  Y31  1  0.45357100  0.90758300  0.65904400  1
  Y  Y32  1  0.09241700  0.54598700  0.99237700  1
  Y  Y33  1  0.60470500  0.38719000  0.34628000  1
  Y  Y34  1  0.61281000  0.21751500  0.67961400  1
  Y  Y35  1  0.78248500  0.39529500  0.01294700  1
  F  F36  1  0.13228700  0.93604900  0.11560500  1
  F  F37  1  0.06395100  0.19623800  0.44893800  1
  F  F38  1  0.80376200  0.86771300  0.78227100  1
  F  F39  1  0.06900000  0.87754600  0.54134600  1
  F  F40  1  0.12245400  0.19145400  0.87468000  1
  F  F41  1  0.80854600  0.93100000  0.20801300  1
  F  F42  1  0.21206000  0.59385800  0.46679900  1
  F  F43  1  0.40614200  0.61820200  0.80013300  1
  F  F44  1  0.38179800  0.78794000  0.13346600  1
  F  F45  1  0.33217500  0.72881900  0.65572500  1
  F  F46  1  0.27118100  0.60335600  0.98905900  1
  F  F47  1  0.39664400  0.66782500  0.32239200  1
  F  F48  1  0.73523500  0.20279800  0.55652700  1
  F  F49  1  0.79720200  0.53243700  0.88986000  1
  F  F50  1  0.46756300  0.26476500  0.22319400  1
  F  F51  1  0.78881700  0.26817800  0.13155900  1
  F  F52  1  0.73182200  0.52063900  0.46489200  1
  F  F53  1  0.47936100  0.21118300  0.79822600  1
  F  F54  1  0.99979600  0.06010900  0.66422000  1
  F  F55  1  0.93989100  0.93968700  0.99755400  1
  F  F56  1  0.06031300  0.00020400  0.33088700  1
  F  F57  1  0.04537300  0.12204800  0.14425200  1
  F  F58  1  0.87795200  0.92332400  0.47758500  1
  F  F59  1  0.07667600  0.95462700  0.81091800  1
  F  F60  1  0.39119200  0.53823600  0.53406300  1
  F  F61  1  0.46176400  0.85295700  0.86739600  1
  F  F62  1  0.14704300  0.60880800  0.20072900  1
  F  F63  1  0.45835600  0.59126800  0.10937100  1
  F  F64  1  0.40873200  0.86708800  0.44270400  1
  F  F65  1  0.13291200  0.54164400  0.77603700  1
  F  F66  1  0.54799900  0.29170300  0.53511100  1
  F  F67  1  0.70829700  0.25629600  0.86844400  1
  F  F68  1  0.74370400  0.45200100  0.20177700  1
  F  F69  1  0.60609000  0.34246600  0.00896200  1
  F  F70  1  0.65753400  0.26362400  0.34229500  1
  F  F71  1  0.73637600  0.39391000  0.67562800  1
  F  F72  1  0.76811500  0.72928000  0.06793600  1
  F  F73  1  0.27072000  0.03883400  0.40127000  1
  F  F74  1  0.96116600  0.23188500  0.73460300  1
  F  F75  1  0.80754000  0.72319300  0.57781800  1
  F  F76  1  0.27680700  0.08434700  0.91115100  1
  F  F77  1  0.91565300  0.19246000  0.24448500  1
  F  F78  1  0.24699100  0.22276800  0.60759100  1
  F  F79  1  0.77723200  0.02422300  0.94092400  1
  F  F80  1  0.97577700  0.75300900  0.27425700  1
  F  F81  1  0.80774500  0.07416000  0.43157500  1
  F  F82  1  0.92584000  0.73358600  0.76490900  1
  F  F83  1  0.26641400  0.19225500  0.09824200  1
  F  F84  1  0.12861100  0.39342200  0.57114400  1
  F  F85  1  0.60657800  0.73518900  0.90447700  1
  F  F86  1  0.26481100  0.87138900  0.23781000  1
  F  F87  1  0.09258500  0.40278100  0.06548300  1
  F  F88  1  0.59721900  0.68980400  0.39881600  1
  F  F89  1  0.31019600  0.90741500  0.73214900  1
  F  F90  1  0.15273400  0.75429700  0.42389200  1
  F  F91  1  0.24570300  0.39843700  0.75722500  1
  F  F92  1  0.60156300  0.84726600  0.09055900  1
  F  F93  1  0.58672100  0.88160800  0.60506100  1
  F  F94  1  0.11839200  0.70511300  0.93839400  1
  F  F95  1  0.29488700  0.41327900  0.27172800  1
  F  F96  1  0.93857000  0.57569800  0.60027300  1
  F  F97  1  0.42430200  0.36287200  0.93360600  1
  F  F98  1  0.63712800  0.06143000  0.26693900  1
  F  F99  1  0.94304300  0.53299300  0.09195500  1
  F  F100  1  0.46700700  0.41005000  0.42528900  1
  F  F101  1  0.58995000  0.05695700  0.75862200  1
  F  F102  1  0.48178300  0.06868500  0.57223700  1
  F  F103  1  0.93131500  0.41309800  0.90557000  1
  F  F104  1  0.58690200  0.51821700  0.23890300  1
  F  F105  1  0.45431800  0.08841100  0.05975500  1
  F  F106  1  0.91158900  0.36590700  0.39308800  1
  F  F107  1  0.63409300  0.54568200  0.72642100  1
