# generated using pymatgen
data_K2Te4O9
_symmetry_space_group_name_H-M   'P 1'
_cell_length_a   18.12541200
_cell_length_b   7.74437500
_cell_length_c   8.18317208
_cell_angle_alpha   73.03503759
_cell_angle_beta   90.00000000
_cell_angle_gamma   90.00000000
_symmetry_Int_Tables_number   1
_chemical_formula_structural   K2Te4O9
_chemical_formula_sum   'K8 Te16 O36'
_cell_volume   1098.68543777
_cell_formula_units_Z   4
loop_
 _symmetry_equiv_pos_site_id
 _symmetry_equiv_pos_as_xyz
  1  'x, y, z'
loop_
 _atom_site_type_symbol
 _atom_site_label
 _atom_site_symmetry_multiplicity
 _atom_site_fract_x
 _atom_site_fract_y
 _atom_site_fract_z
 _atom_site_occupancy
  K  K0  1  0.90967100  0.87137800  0.63548300  1
  K  K1  1  0.40967100  0.12862200  0.86451700  1
  K  K2  1  0.09032900  0.12862200  0.36451700  1
  K  K3  1  0.59032900  0.87137800  0.13548300  1
  K  K4  1  0.75322300  0.15884700  0.87120400  1
  K  K5  1  0.25322300  0.84115300  0.62879600  1
  K  K6  1  0.24677700  0.84115300  0.12879600  1
  K  K7  1  0.74677700  0.15884700  0.37120400  1
  Te  Te8  1  0.74130500  0.62344100  0.96002500  1
  Te  Te9  1  0.24130500  0.37655900  0.53997500  1
  Te  Te10  1  0.25869500  0.37655900  0.03997500  1
  Te  Te11  1  0.75869500  0.62344100  0.46002500  1
  Te  Te12  1  0.92165500  0.35199200  0.65349200  1
  Te  Te13  1  0.42165500  0.64800800  0.84650800  1
  Te  Te14  1  0.07834500  0.64800800  0.34650800  1
  Te  Te15  1  0.57834500  0.35199200  0.15349200  1
  Te  Te16  1  0.90797400  0.82199500  0.17479700  1
  Te  Te17  1  0.40797400  0.17800500  0.32520300  1
  Te  Te18  1  0.09202600  0.17800500  0.82520300  1
  Te  Te19  1  0.59202600  0.82199500  0.67479700  1
  Te  Te20  1  0.91791300  0.39888600  0.08556300  1
  Te  Te21  1  0.41791300  0.60111400  0.41443700  1
  Te  Te22  1  0.08208700  0.60111400  0.91443700  1
  Te  Te23  1  0.58208700  0.39888600  0.58556300  1
  O  O24  1  0.79913600  0.80180800  0.01516100  1
  O  O25  1  0.29913600  0.19819200  0.48483900  1
  O  O26  1  0.20086400  0.19819200  0.98483900  1
  O  O27  1  0.70086400  0.80180800  0.51516100  1
  O  O28  1  0.82441500  0.55796000  0.64986900  1
  O  O29  1  0.32441500  0.44204000  0.85013100  1
  O  O30  1  0.17558500  0.44204000  0.35013100  1
  O  O31  1  0.67558500  0.55796000  0.14986900  1
  O  O32  1  0.85424800  0.20281400  0.59242000  1
  O  O33  1  0.35424800  0.79718600  0.90758000  1
  O  O34  1  0.14575200  0.79718600  0.40758000  1
  O  O35  1  0.64575200  0.20281400  0.09242000  1
  O  O36  1  0.91257100  0.56217400  0.26204200  1
  O  O37  1  0.41257100  0.43782600  0.23795800  1
  O  O38  1  0.00563900  0.16331700  0.67263800  1
  O  O39  1  0.08742900  0.43782600  0.73795800  1
  O  O40  1  0.84117200  0.87145600  0.33205000  1
  O  O41  1  0.34117200  0.12854400  0.16795000  1
  O  O42  1  0.15882800  0.12854400  0.66795000  1
  O  O43  1  0.65882800  0.87145600  0.83205000  1
  O  O44  1  0.90955300  0.25981300  0.90091900  1
  O  O45  1  0.40955300  0.74018700  0.59908100  1
  O  O46  1  0.09044700  0.74018700  0.09908100  1
  O  O47  1  0.59044700  0.25981300  0.40091900  1
  O  O48  1  0.55527200  0.61277200  0.41707400  1
  O  O49  1  0.05527200  0.38722800  0.08292600  1
  O  O50  1  0.44472800  0.38722800  0.58292600  1
  O  O51  1  0.94472800  0.61277200  0.91707400  1
  O  O52  1  0.69081600  0.41242000  0.57808400  1
  O  O53  1  0.19081600  0.58758000  0.92191600  1
  O  O54  1  0.30918400  0.58758000  0.42191600  1
  O  O55  1  0.80918400  0.41242000  0.07808400  1
  O  O56  1  0.49436100  0.16331700  0.17263800  1
  O  O57  1  0.99436100  0.83668300  0.32736200  1
  O  O58  1  0.50563900  0.83668300  0.82736200  1
  O  O59  1  0.58742900  0.56217400  0.76204200  1
