# generated using pymatgen
data_Tl6Si2O7
_symmetry_space_group_name_H-M   'P 1'
_cell_length_a   9.93271430
_cell_length_b   9.93271430
_cell_length_c   8.11057800
_cell_angle_alpha   90.00000000
_cell_angle_beta   90.00000000
_cell_angle_gamma   120.00000200
_symmetry_Int_Tables_number   1
_chemical_formula_structural   Tl6Si2O7
_chemical_formula_sum   'Tl12 Si4 O14'
_cell_volume   692.97619476
_cell_formula_units_Z   2
loop_
 _symmetry_equiv_pos_site_id
 _symmetry_equiv_pos_as_xyz
  1  'x, y, z'
loop_
 _atom_site_type_symbol
 _atom_site_label
 _atom_site_symmetry_multiplicity
 _atom_site_fract_x
 _atom_site_fract_y
 _atom_site_fract_z
 _atom_site_occupancy
  Tl  Tl0  1  0.03665100  0.35453500  0.36976400  1
  Tl  Tl1  1  0.31788300  0.96334900  0.36976400  1
  Tl  Tl2  1  0.64546500  0.68211700  0.36976400  1
  Tl  Tl3  1  0.96334900  0.64546500  0.63023600  1
  Tl  Tl4  1  0.68211700  0.03665100  0.63023600  1
  Tl  Tl5  1  0.35453500  0.31788300  0.63023600  1
  Tl  Tl6  1  0.05156000  0.36357900  0.87812000  1
  Tl  Tl7  1  0.31201800  0.94844000  0.87812000  1
  Tl  Tl8  1  0.63642100  0.68798200  0.87812000  1
  Tl  Tl9  1  0.94844000  0.63642100  0.12188000  1
  Tl  Tl10  1  0.68798200  0.05156000  0.12188000  1
  Tl  Tl11  1  0.36357900  0.31201800  0.12188000  1
  Si  Si12  1  0.33333300  0.66666700  0.17045900  1
  Si  Si13  1  0.66666700  0.33333300  0.41699000  1
  Si  Si14  1  0.33333300  0.66666700  0.58301000  1
  Si  Si15  1  0.66666700  0.33333300  0.82954100  1
  O  O16  1  0.84893500  0.44786700  0.88440700  1
  O  O17  1  0.55213300  0.40106900  0.88440700  1
  O  O18  1  0.59893100  0.15106500  0.88440700  1
  O  O19  1  0.40106900  0.84893500  0.11559300  1
  O  O20  1  0.66666700  0.33333300  0.62309700  1
  O  O21  1  0.33333300  0.66666700  0.37690300  1
  O  O22  1  0.59836400  0.15131500  0.36109300  1
  O  O23  1  0.55295000  0.40163600  0.36109300  1
  O  O24  1  0.84868500  0.44705000  0.36109300  1
  O  O25  1  0.40163600  0.84868500  0.63890700  1
  O  O26  1  0.44705000  0.59836400  0.63890700  1
  O  O27  1  0.15131500  0.55295000  0.63890700  1
  O  O28  1  0.15106500  0.55213300  0.11559300  1
  O  O29  1  0.44786700  0.59893100  0.11559300  1
