# generated using pymatgen
data_Er2ReC2
_symmetry_space_group_name_H-M   'P 1'
_cell_length_a   5.06475500
_cell_length_b   6.53420600
_cell_length_c   9.79278200
_cell_angle_alpha   90.00000000
_cell_angle_beta   90.00000000
_cell_angle_gamma   90.00000000
_symmetry_Int_Tables_number   1
_chemical_formula_structural   Er2ReC2
_chemical_formula_sum   'Er8 Re4 C8'
_cell_volume   324.08382100
_cell_formula_units_Z   4
loop_
 _symmetry_equiv_pos_site_id
 _symmetry_equiv_pos_as_xyz
  1  'x, y, z'
loop_
 _atom_site_type_symbol
 _atom_site_label
 _atom_site_symmetry_multiplicity
 _atom_site_fract_x
 _atom_site_fract_y
 _atom_site_fract_z
 _atom_site_occupancy
  Er  Er0  1  0.75000000  0.53364100  0.78277600  1
  Er  Er1  1  0.25000000  0.96635900  0.28277600  1
  Er  Er2  1  0.75000000  0.67858900  0.44323200  1
  Er  Er3  1  0.25000000  0.82141100  0.94323200  1
  Er  Er4  1  0.75000000  0.17858900  0.05676800  1
  Er  Er5  1  0.25000000  0.32141100  0.55676800  1
  Er  Er6  1  0.25000000  0.46635900  0.21722400  1
  Er  Er7  1  0.75000000  0.03364100  0.71722400  1
  Re  Re8  1  0.25000000  0.28165600  0.86779000  1
  Re  Re9  1  0.25000000  0.78165600  0.63221000  1
  Re  Re10  1  0.75000000  0.21834400  0.36779000  1
  Re  Re11  1  0.75000000  0.71834400  0.13221000  1
  C  C12  1  0.25000000  0.67508700  0.44788400  1
  C  C13  1  0.25000000  0.54864600  0.75898400  1
  C  C14  1  0.75000000  0.45135400  0.24101600  1
  C  C15  1  0.75000000  0.82491300  0.94788400  1
  C  C16  1  0.25000000  0.04864600  0.74101600  1
  C  C17  1  0.25000000  0.17508700  0.05211600  1
  C  C18  1  0.75000000  0.32491300  0.55211600  1
  C  C19  1  0.75000000  0.95135400  0.25898400  1
