# generated using pymatgen
data_EuPS3
_symmetry_space_group_name_H-M   'P 1'
_cell_length_a   7.56796100
_cell_length_b   6.69120100
_cell_length_c   11.34753534
_cell_angle_alpha   55.74037134
_cell_angle_beta   90.00000000
_cell_angle_gamma   90.00000000
_symmetry_Int_Tables_number   1
_chemical_formula_structural   EuPS3
_chemical_formula_sum   'Eu4 P4 S12'
_cell_volume   474.92476699
_cell_formula_units_Z   4
loop_
 _symmetry_equiv_pos_site_id
 _symmetry_equiv_pos_as_xyz
  1  'x, y, z'
loop_
 _atom_site_type_symbol
 _atom_site_label
 _atom_site_symmetry_multiplicity
 _atom_site_fract_x
 _atom_site_fract_y
 _atom_site_fract_z
 _atom_site_occupancy
  Eu  Eu0  1  0.38270100  0.78878800  0.24958500  1
  Eu  Eu1  1  0.11729900  0.78878800  0.74958500  1
  Eu  Eu2  1  0.88270100  0.21121200  0.25041500  1
  Eu  Eu3  1  0.61729900  0.21121200  0.75041500  1
  P  P4  1  0.60470300  0.87093900  0.56500200  1
  P  P5  1  0.89529700  0.87093900  0.06500200  1
  P  P6  1  0.39529700  0.12906100  0.43499800  1
  P  P7  1  0.10470300  0.12906100  0.93499800  1
  S  S8  1  0.49931500  0.63306700  0.76040000  1
  S  S9  1  0.00068500  0.63306700  0.26040000  1
  S  S10  1  0.68678000  0.72189400  0.45928300  1
  S  S11  1  0.81322000  0.72189400  0.95928300  1
  S  S12  1  0.79895600  0.08874100  0.55943200  1
  S  S13  1  0.70104400  0.08874100  0.05943200  1
  S  S14  1  0.50068500  0.36693300  0.23960000  1
  S  S15  1  0.99931500  0.36693300  0.73960000  1
  S  S16  1  0.31322000  0.27810600  0.54071700  1
  S  S17  1  0.18678000  0.27810600  0.04071700  1
  S  S18  1  0.29895600  0.91125900  0.94056800  1
  S  S19  1  0.20104400  0.91125900  0.44056800  1
