# generated using pymatgen
data_Be3As2(H2O5)2
_symmetry_space_group_name_H-M   'P 1'
_cell_length_a   8.66864617
_cell_length_b   8.66864617
_cell_length_c   10.04706434
_cell_angle_alpha   85.64079438
_cell_angle_beta   85.64079438
_cell_angle_gamma   31.82094053
_symmetry_Int_Tables_number   1
_chemical_formula_structural   Be3As2(H2O5)2
_chemical_formula_sum   'Be6 As4 H8 O20'
_cell_volume   396.83601484
_cell_formula_units_Z   2
loop_
 _symmetry_equiv_pos_site_id
 _symmetry_equiv_pos_as_xyz
  1  'x, y, z'
loop_
 _atom_site_type_symbol
 _atom_site_label
 _atom_site_symmetry_multiplicity
 _atom_site_fract_x
 _atom_site_fract_y
 _atom_site_fract_z
 _atom_site_occupancy
  Be  Be0  1  0.70169600  0.79254100  0.33887300  1
  Be  Be1  1  0.20745900  0.29830400  0.16112700  1
  Be  Be2  1  0.29830400  0.20745900  0.66112700  1
  Be  Be3  1  0.79254100  0.70169600  0.83887300  1
  Be  Be4  1  0.68316900  0.31683100  0.75000000  1
  Be  Be5  1  0.31683100  0.68316900  0.25000000  1
  As  As6  1  0.38651000  0.30246500  0.89875700  1
  As  As7  1  0.30246500  0.38651000  0.39875700  1
  As  As8  1  0.61349000  0.69753500  0.10124300  1
  As  As9  1  0.69753500  0.61349000  0.60124300  1
  H  H10  1  0.90694900  0.27783800  0.89628600  1
  H  H11  1  0.95583000  0.14667300  0.33757200  1
  H  H12  1  0.85332700  0.04417000  0.16242800  1
  H  H13  1  0.04417000  0.85332700  0.66242800  1
  H  H14  1  0.14667300  0.95583000  0.83757200  1
  H  H15  1  0.27783800  0.90694900  0.39628600  1
  H  H16  1  0.09305100  0.72216200  0.10371400  1
  H  H17  1  0.72216200  0.09305100  0.60371400  1
  O  O18  1  0.24776600  0.42075600  0.05833700  1
  O  O19  1  0.42075600  0.24776600  0.55833700  1
  O  O20  1  0.75223400  0.57924400  0.94166300  1
  O  O21  1  0.57924400  0.75223400  0.44166300  1
  O  O22  1  0.58967000  0.53238900  0.16850200  1
  O  O23  1  0.28903900  0.06874500  0.10164700  1
  O  O24  1  0.41033000  0.46761100  0.83149800  1
  O  O25  1  0.53238900  0.58967000  0.66850200  1
  O  O26  1  0.84844600  0.59720200  0.20244900  1
  O  O27  1  0.40279800  0.15155400  0.29755100  1
  O  O28  1  0.15155400  0.40279800  0.79755100  1
  O  O29  1  0.59720200  0.84844600  0.70244900  1
  O  O30  1  0.46761100  0.41033000  0.33149800  1
  O  O31  1  0.93125500  0.71096100  0.39835300  1
  O  O32  1  0.71096100  0.93125500  0.89835300  1
  O  O33  1  0.06874500  0.28903900  0.60164700  1
  O  O34  1  0.84861300  0.06137800  0.64641600  1
  O  O35  1  0.06137800  0.84861300  0.14641600  1
  O  O36  1  0.15138700  0.93862200  0.35358400  1
  O  O37  1  0.93862200  0.15138700  0.85358400  1
