# generated using pymatgen
data_ReBi3O8
_symmetry_space_group_name_H-M   'P 1'
_cell_length_a   11.75410800
_cell_length_b   11.75410800
_cell_length_c   11.75410800
_cell_angle_alpha   90.00000000
_cell_angle_beta   90.00000000
_cell_angle_gamma   90.00000000
_symmetry_Int_Tables_number   1
_chemical_formula_structural   ReBi3O8
_chemical_formula_sum   'Re8 Bi24 O64'
_cell_volume   1623.93645219
_cell_formula_units_Z   8
loop_
 _symmetry_equiv_pos_site_id
 _symmetry_equiv_pos_as_xyz
  1  'x, y, z'
loop_
 _atom_site_type_symbol
 _atom_site_label
 _atom_site_symmetry_multiplicity
 _atom_site_fract_x
 _atom_site_fract_y
 _atom_site_fract_z
 _atom_site_occupancy
  Re  Re0  1  0.11967200  0.11967200  0.11967200  1
  Re  Re1  1  0.38032800  0.88032800  0.61967200  1
  Re  Re2  1  0.61967200  0.38032800  0.88032800  1
  Re  Re3  1  0.88032800  0.61967200  0.38032800  1
  Re  Re4  1  0.61489000  0.61489000  0.61489000  1
  Re  Re5  1  0.88511000  0.38511000  0.11489000  1
  Re  Re6  1  0.11489000  0.88511000  0.38511000  1
  Re  Re7  1  0.38511000  0.11489000  0.88511000  1
  Bi  Bi8  1  0.34554300  0.36404700  0.61563800  1
  Bi  Bi9  1  0.15445700  0.63595300  0.11563800  1
  Bi  Bi10  1  0.63595300  0.11563800  0.15445700  1
  Bi  Bi11  1  0.11563800  0.15445700  0.63595300  1
  Bi  Bi12  1  0.35360500  0.64456500  0.89022600  1
  Bi  Bi13  1  0.85360500  0.85543500  0.10977400  1
  Bi  Bi14  1  0.64639500  0.14456500  0.60977400  1
  Bi  Bi15  1  0.85543500  0.10977400  0.85360500  1
  Bi  Bi16  1  0.60977400  0.64639500  0.14456500  1
  Bi  Bi17  1  0.10977400  0.85360500  0.85543500  1
  Bi  Bi18  1  0.64456500  0.89022600  0.35360500  1
  Bi  Bi19  1  0.89022600  0.35360500  0.64456500  1
  Bi  Bi20  1  0.14456500  0.60977400  0.64639500  1
  Bi  Bi21  1  0.35543500  0.39022600  0.14639500  1
  Bi  Bi22  1  0.39022600  0.14639500  0.35543500  1
  Bi  Bi23  1  0.14639500  0.35543500  0.39022600  1
  Bi  Bi24  1  0.13595300  0.38436200  0.84554300  1
  Bi  Bi25  1  0.84554300  0.13595300  0.38436200  1
  Bi  Bi26  1  0.86404700  0.88436200  0.65445700  1
  Bi  Bi27  1  0.36404700  0.61563800  0.34554300  1
  Bi  Bi28  1  0.65445700  0.86404700  0.88436200  1
  Bi  Bi29  1  0.61563800  0.34554300  0.36404700  1
  Bi  Bi30  1  0.88436200  0.65445700  0.86404700  1
  Bi  Bi31  1  0.38436200  0.84554300  0.13595300  1
  O  O32  1  0.23943600  0.46923500  0.50359100  1
  O  O33  1  0.73943600  0.03076500  0.49640900  1
  O  O34  1  0.76056400  0.96923500  0.99640900  1
  O  O35  1  0.03076500  0.49640900  0.73943600  1
  O  O36  1  0.99640900  0.76056400  0.96923500  1
  O  O37  1  0.49640900  0.73943600  0.03076500  1
  O  O38  1  0.46923500  0.50359100  0.23943600  1
  O  O39  1  0.50359100  0.23943600  0.46923500  1
  O  O40  1  0.96923500  0.99640900  0.76056400  1
  O  O41  1  0.53076500  0.00359100  0.26056400  1
  O  O42  1  0.00359100  0.26056400  0.53076500  1
  O  O43  1  0.26056400  0.53076500  0.00359100  1
  O  O44  1  0.25824200  0.77088100  0.00364300  1
  O  O45  1  0.75824200  0.72911900  0.99635700  1
  O  O46  1  0.74175800  0.27088100  0.49635700  1
  O  O47  1  0.72911900  0.99635700  0.75824200  1
  O  O48  1  0.49635700  0.74175800  0.27088100  1
  O  O49  1  0.99635700  0.75824200  0.72911900  1
  O  O50  1  0.77088100  0.00364300  0.25824200  1
  O  O51  1  0.00364300  0.25824200  0.77088100  1
  O  O52  1  0.27088100  0.49635700  0.74175800  1
  O  O53  1  0.22911900  0.50364300  0.24175800  1
  O  O54  1  0.50364300  0.24175800  0.22911900  1
  O  O55  1  0.88160300  0.24718000  0.05843600  1
  O  O56  1  0.24175800  0.22911900  0.50364300  1
  O  O57  1  0.27104300  0.72895700  0.22895700  1
  O  O58  1  0.72895700  0.22895700  0.27104300  1
  O  O59  1  0.77104300  0.77104300  0.77104300  1
  O  O60  1  0.71373300  0.78626700  0.21373300  1
  O  O61  1  0.78626700  0.21373300  0.71373300  1
  O  O62  1  0.21373300  0.71373300  0.78626700  1
  O  O63  1  0.28626700  0.28626700  0.28626700  1
  O  O64  1  0.03310100  0.03310100  0.03310100  1
  O  O65  1  0.46689900  0.96689900  0.53310100  1
  O  O66  1  0.53310100  0.46689900  0.96689900  1
  O  O67  1  0.96689900  0.53310100  0.46689900  1
  O  O68  1  0.52787400  0.52787400  0.52787400  1
  O  O69  1  0.97212600  0.47212600  0.02787400  1
  O  O70  1  0.02787400  0.97212600  0.47212600  1
  O  O71  1  0.47212600  0.02787400  0.97212600  1
  O  O72  1  0.14338300  0.25200000  0.05434100  1
  O  O73  1  0.05434100  0.14338300  0.25200000  1
  O  O74  1  0.25200000  0.05434100  0.14338300  1
  O  O75  1  0.24800000  0.94565900  0.64338300  1
  O  O76  1  0.55434100  0.35661700  0.74800000  1
  O  O77  1  0.74800000  0.55434100  0.35661700  1
  O  O78  1  0.44565900  0.85661700  0.75200000  1
  O  O79  1  0.94565900  0.64338300  0.24800000  1
  O  O80  1  0.75200000  0.44565900  0.85661700  1
  O  O81  1  0.64338300  0.24800000  0.94565900  1
  O  O82  1  0.85661700  0.75200000  0.44565900  1
  O  O83  1  0.35661700  0.74800000  0.55434100  1
  O  O84  1  0.61839700  0.75282000  0.55843600  1
  O  O85  1  0.55843600  0.61839700  0.75282000  1
  O  O86  1  0.75282000  0.55843600  0.61839700  1
  O  O87  1  0.74718000  0.44156400  0.11839700  1
  O  O88  1  0.05843600  0.88160300  0.24718000  1
  O  O89  1  0.24718000  0.05843600  0.88160300  1
  O  O90  1  0.94156400  0.38160300  0.25282000  1
  O  O91  1  0.44156400  0.11839700  0.74718000  1
  O  O92  1  0.25282000  0.94156400  0.38160300  1
  O  O93  1  0.11839700  0.74718000  0.44156400  1
  O  O94  1  0.38160300  0.25282000  0.94156400  1
  O  O95  1  0.22895700  0.27104300  0.72895700  1
