# generated using pymatgen
data_Nb3Cl5O2
_symmetry_space_group_name_H-M   'P 1'
_cell_length_a   6.78745900
_cell_length_b   8.19295200
_cell_length_c   14.85800600
_cell_angle_alpha   90.00000000
_cell_angle_beta   90.00000000
_cell_angle_gamma   90.00000000
_symmetry_Int_Tables_number   1
_chemical_formula_structural   Nb3Cl5O2
_chemical_formula_sum   'Nb12 Cl20 O8'
_cell_volume   826.24369623
_cell_formula_units_Z   4
loop_
 _symmetry_equiv_pos_site_id
 _symmetry_equiv_pos_as_xyz
  1  'x, y, z'
loop_
 _atom_site_type_symbol
 _atom_site_label
 _atom_site_symmetry_multiplicity
 _atom_site_fract_x
 _atom_site_fract_y
 _atom_site_fract_z
 _atom_site_occupancy
  Nb  Nb0  1  0.71104500  0.73970000  0.26027000  1
  Nb  Nb1  1  0.71104500  0.26030000  0.73973000  1
  Nb  Nb2  1  0.78895500  0.23970000  0.23973000  1
  Nb  Nb3  1  0.78895500  0.76030000  0.76027000  1
  Nb  Nb4  1  0.28895500  0.26030000  0.73973000  1
  Nb  Nb5  1  0.28895500  0.73970000  0.26027000  1
  Nb  Nb6  1  0.21104500  0.76030000  0.76027000  1
  Nb  Nb7  1  0.21104500  0.23970000  0.23973000  1
  Nb  Nb8  1  0.50000000  0.47305500  0.63562200  1
  Nb  Nb9  1  0.50000000  0.52694500  0.36437800  1
  Nb  Nb10  1  0.00000000  0.97305500  0.86437800  1
  Nb  Nb11  1  0.00000000  0.02694500  0.13562200  1
  Cl  Cl12  1  0.50000000  0.17394800  0.61314100  1
  Cl  Cl13  1  0.50000000  0.82605200  0.38685900  1
  Cl  Cl14  1  0.00000000  0.67394800  0.88685900  1
  Cl  Cl15  1  0.00000000  0.32605200  0.11314100  1
  Cl  Cl16  1  0.23697700  0.00000000  0.00000000  1
  Cl  Cl17  1  0.26302300  0.50000000  0.50000000  1
  Cl  Cl18  1  0.76302300  0.00000000  0.00000000  1
  Cl  Cl19  1  0.73697700  0.50000000  0.50000000  1
  Cl  Cl20  1  0.00000000  0.20966600  0.37114400  1
  Cl  Cl21  1  0.00000000  0.79033400  0.62885600  1
  Cl  Cl22  1  0.50000000  0.70966600  0.12885600  1
  Cl  Cl23  1  0.50000000  0.29033400  0.87114400  1
  Cl  Cl24  1  0.50000000  0.20668800  0.35697700  1
  Cl  Cl25  1  0.50000000  0.79331200  0.64302300  1
  Cl  Cl26  1  0.00000000  0.70668800  0.14302300  1
  Cl  Cl27  1  0.00000000  0.29331200  0.85697700  1
  Cl  Cl28  1  0.50000000  0.27417200  0.13113100  1
  Cl  Cl29  1  0.50000000  0.72582800  0.86886900  1
  Cl  Cl30  1  0.00000000  0.77417200  0.36886900  1
  Cl  Cl31  1  0.00000000  0.22582800  0.63113100  1
  O  O32  1  0.72113100  0.49078600  0.27402500  1
  O  O33  1  0.72113100  0.50921400  0.72597500  1
  O  O34  1  0.77886900  0.99078600  0.22597500  1
  O  O35  1  0.77886900  0.00921400  0.77402500  1
  O  O36  1  0.27886900  0.50921400  0.72597500  1
  O  O37  1  0.27886900  0.49078600  0.27402500  1
  O  O38  1  0.22113100  0.00921400  0.77402500  1
  O  O39  1  0.22113100  0.99078600  0.22597500  1
