# generated using pymatgen
data_Tb2Mo4O15
_symmetry_space_group_name_H-M   'P 1'
_cell_length_a   9.74701000
_cell_length_b   6.95517300
_cell_length_c   10.83996383
_cell_angle_alpha   74.99952988
_cell_angle_beta   90.00000000
_cell_angle_gamma   90.00000000
_symmetry_Int_Tables_number   1
_chemical_formula_structural   Tb2Mo4O15
_chemical_formula_sum   'Tb4 Mo8 O30'
_cell_volume   709.82289785
_cell_formula_units_Z   2
loop_
 _symmetry_equiv_pos_site_id
 _symmetry_equiv_pos_as_xyz
  1  'x, y, z'
loop_
 _atom_site_type_symbol
 _atom_site_label
 _atom_site_symmetry_multiplicity
 _atom_site_fract_x
 _atom_site_fract_y
 _atom_site_fract_z
 _atom_site_occupancy
  Tb  Tb0  1  0.52352700  0.20677900  0.22534300  1
  Tb  Tb1  1  0.02352700  0.79322100  0.27465700  1
  Tb  Tb2  1  0.47647300  0.79322100  0.77465700  1
  Tb  Tb3  1  0.97647300  0.20677900  0.72534300  1
  Mo  Mo4  1  0.25714500  0.08039400  0.99004500  1
  Mo  Mo5  1  0.75714500  0.91960600  0.50995500  1
  Mo  Mo6  1  0.74285500  0.91960600  0.00995500  1
  Mo  Mo7  1  0.24285500  0.08039400  0.49004500  1
  Mo  Mo8  1  0.90576100  0.38303700  0.15550500  1
  Mo  Mo9  1  0.40576100  0.61696300  0.34449500  1
  Mo  Mo10  1  0.09423900  0.61696300  0.84449500  1
  Mo  Mo11  1  0.59423900  0.38303700  0.65550500  1
  O  O12  1  0.16627400  0.88561700  0.10033800  1
  O  O13  1  0.66627400  0.11438300  0.39966200  1
  O  O14  1  0.83372600  0.11438300  0.89966200  1
  O  O15  1  0.33372600  0.88561700  0.60033800  1
  O  O16  1  0.97299100  0.45584100  0.28906400  1
  O  O17  1  0.47299100  0.54415900  0.21093600  1
  O  O18  1  0.02700900  0.54415900  0.71093600  1
  O  O19  1  0.52700900  0.45584100  0.78906400  1
  O  O20  1  0.37242600  0.97261000  0.89921900  1
  O  O21  1  0.87242600  0.02739000  0.60078100  1
  O  O22  1  0.62757400  0.02739000  0.10078100  1
  O  O23  1  0.12757400  0.97261000  0.39921900  1
  O  O24  1  0.50000000  0.50000000  0.50000000  1
  O  O25  1  0.00000000  0.50000000  0.00000000  1
  O  O26  1  0.36357700  0.24120500  0.38346700  1
  O  O27  1  0.86357700  0.75879500  0.11653300  1
  O  O28  1  0.63642300  0.75879500  0.61653300  1
  O  O29  1  0.13642300  0.24120500  0.88346700  1
  O  O30  1  0.77603700  0.38552300  0.65065700  1
  O  O31  1  0.27603700  0.61447700  0.84934300  1
  O  O32  1  0.22396300  0.61447700  0.34934300  1
  O  O33  1  0.72396300  0.38552300  0.15065700  1
  O  O34  1  0.14985800  0.21866300  0.58096800  1
  O  O35  1  0.64985800  0.78133700  0.91903200  1
  O  O36  1  0.85014200  0.78133700  0.41903200  1
  O  O37  1  0.35014200  0.21866300  0.08096800  1
  O  O38  1  0.55186400  0.12715900  0.68490500  1
  O  O39  1  0.05186400  0.87284100  0.81509500  1
  O  O40  1  0.44813600  0.87284100  0.31509500  1
  O  O41  1  0.94813600  0.12715900  0.18490500  1
