# generated using pymatgen
data_MgSiP2
_symmetry_space_group_name_H-M   'P 1'
_cell_length_a   6.54106903
_cell_length_b   6.54106903
_cell_length_c   6.54106903
_cell_angle_alpha   127.85000315
_cell_angle_beta   127.85000315
_cell_angle_gamma   76.86814326
_symmetry_Int_Tables_number   1
_chemical_formula_structural   MgSiP2
_chemical_formula_sum   'Mg2 Si2 P4'
_cell_volume   169.41768955
_cell_formula_units_Z   2
loop_
 _symmetry_equiv_pos_site_id
 _symmetry_equiv_pos_as_xyz
  1  'x, y, z'
loop_
 _atom_site_type_symbol
 _atom_site_label
 _atom_site_symmetry_multiplicity
 _atom_site_fract_x
 _atom_site_fract_y
 _atom_site_fract_z
 _atom_site_occupancy
  Mg  Mg0  1  0.25000000  0.75000000  0.50000000  1
  Mg  Mg1  1  0.50000000  0.50000000  0.00000000  1
  Si  Si2  1  0.75000000  0.25000000  0.50000000  1
  Si  Si3  1  0.00000000  0.00000000  0.00000000  1
  P  P4  1  0.87500000  0.33242100  0.95742100  1
  P  P5  1  0.66757900  0.62500000  0.54257900  1
  P  P6  1  0.08242100  0.12500000  0.45742100  1
  P  P7  1  0.37500000  0.91757900  0.04257900  1
