# generated using pymatgen
data_Er7(NiTe)2
_symmetry_space_group_name_H-M   'P 1'
_cell_length_a   9.28476252
_cell_length_b   9.28476252
_cell_length_c   9.28476252
_cell_angle_alpha   156.20050317
_cell_angle_beta   118.34962350
_cell_angle_gamma   67.05708485
_symmetry_Int_Tables_number   1
_chemical_formula_structural   Er7(NiTe)2
_chemical_formula_sum   'Er7 Ni2 Te2'
_cell_volume   282.00094906
_cell_formula_units_Z   1
loop_
 _symmetry_equiv_pos_site_id
 _symmetry_equiv_pos_as_xyz
  1  'x, y, z'
loop_
 _atom_site_type_symbol
 _atom_site_label
 _atom_site_symmetry_multiplicity
 _atom_site_fract_x
 _atom_site_fract_y
 _atom_site_fract_z
 _atom_site_occupancy
  Er  Er0  1  0.18209700  0.50000000  0.68209700  1
  Er  Er1  1  0.24546900  0.18511100  0.06035800  1
  Er  Er2  1  0.87524800  0.81488900  0.06035800  1
  Er  Er3  1  0.55718200  0.14647600  0.41070600  1
  Er  Er4  1  0.26423000  0.85352400  0.41070600  1
  Er  Er5  1  0.63032700  0.36650100  0.26382700  1
  Er  Er6  1  0.89732600  0.63349900  0.26382700  1
  Ni  Ni7  1  0.49051800  0.73705400  0.75346400  1
  Ni  Ni8  1  0.01640900  0.26294600  0.75346400  1
  Te  Te9  1  0.91675500  0.00000000  0.91675500  1
  Te  Te10  1  0.51907900  0.50000000  0.01907900  1
