# generated using pymatgen
data_V2S2O11
_symmetry_space_group_name_H-M   'P 1'
_cell_length_a   9.11630800
_cell_length_b   9.67299100
_cell_length_c   10.10396522
_cell_angle_alpha   74.58519952
_cell_angle_beta   90.00000000
_cell_angle_gamma   90.00000000
_symmetry_Int_Tables_number   1
_chemical_formula_structural   V2S2O11
_chemical_formula_sum   'V8 S8 O44'
_cell_volume   858.93581512
_cell_formula_units_Z   4
loop_
 _symmetry_equiv_pos_site_id
 _symmetry_equiv_pos_as_xyz
  1  'x, y, z'
loop_
 _atom_site_type_symbol
 _atom_site_label
 _atom_site_symmetry_multiplicity
 _atom_site_fract_x
 _atom_site_fract_y
 _atom_site_fract_z
 _atom_site_occupancy
  V  V0  1  0.12941700  0.35711700  0.33254500  1
  V  V1  1  0.62941700  0.14288300  0.66745500  1
  V  V2  1  0.87058300  0.64288300  0.66745500  1
  V  V3  1  0.37058300  0.85711700  0.33254500  1
  V  V4  1  0.87336400  0.62023300  0.17717000  1
  V  V5  1  0.37336400  0.87976700  0.82283000  1
  V  V6  1  0.12663600  0.37976700  0.82283000  1
  V  V7  1  0.62663600  0.12023300  0.17717000  1
  S  S8  1  0.92638500  0.28865000  0.10392500  1
  S  S9  1  0.42638500  0.21135000  0.89607500  1
  S  S10  1  0.07361500  0.71135000  0.89607500  1
  S  S11  1  0.57361500  0.78865000  0.10392500  1
  S  S12  1  0.78542600  0.42781800  0.47324300  1
  S  S13  1  0.28542600  0.07218200  0.52675700  1
  S  S14  1  0.21457400  0.57218200  0.52675700  1
  S  S15  1  0.71457400  0.92781800  0.47324300  1
  O  O16  1  0.92682300  0.35595800  0.49472100  1
  O  O17  1  0.42682300  0.14404200  0.50527900  1
  O  O18  1  0.07317700  0.64404200  0.50527900  1
  O  O19  1  0.57317700  0.85595800  0.49472100  1
  O  O20  1  0.75355100  0.49139300  0.32342800  1
  O  O21  1  0.25355100  0.00860700  0.67657200  1
  O  O22  1  0.24644900  0.50860700  0.67657200  1
  O  O23  1  0.74644900  0.99139300  0.32342800  1
  O  O24  1  0.77218300  0.54758300  0.54092400  1
  O  O25  1  0.27218300  0.95241700  0.45907600  1
  O  O26  1  0.22781700  0.45241700  0.45907600  1
  O  O27  1  0.72781700  0.04758300  0.54092400  1
  O  O28  1  0.65980900  0.32803000  0.52452300  1
  O  O29  1  0.15980900  0.17197000  0.47547700  1
  O  O30  1  0.85179700  0.42658500  0.07303200  1
  O  O31  1  0.34019100  0.67197000  0.47547700  1
  O  O32  1  0.60702200  0.25229200  0.24235100  1
  O  O33  1  0.10702200  0.24770800  0.75764900  1
  O  O34  1  0.39297800  0.74770800  0.75764900  1
  O  O35  1  0.89297800  0.75229200  0.24235100  1
  O  O36  1  0.23263000  0.85530600  0.23572400  1
  O  O37  1  0.73263000  0.64469400  0.76427600  1
  O  O38  1  0.76737000  0.14469400  0.76427600  1
  O  O39  1  0.26737000  0.35530600  0.23572400  1
  O  O40  1  0.46272300  0.01950600  0.24127900  1
  O  O41  1  0.96272300  0.48049400  0.75872100  1
  O  O42  1  0.53727700  0.98049400  0.75872100  1
  O  O43  1  0.03727700  0.51950600  0.24127900  1
  O  O44  1  0.67428500  0.66998800  0.09272100  1
  O  O45  1  0.17428500  0.83001200  0.90727900  1
  O  O46  1  0.32571500  0.33001200  0.90727900  1
  O  O47  1  0.82571500  0.16998800  0.09272100  1
  O  O48  1  0.44916800  0.78590500  0.00841300  1
  O  O49  1  0.94916800  0.71409500  0.99158700  1
  O  O50  1  0.55083200  0.21409500  0.99158700  1
  O  O51  1  0.05083200  0.28590500  0.00841300  1
  O  O52  1  0.51115900  0.74671900  0.24770800  1
  O  O53  1  0.01115900  0.75328100  0.75229200  1
  O  O54  1  0.48884100  0.25328100  0.75229200  1
  O  O55  1  0.98884100  0.24671900  0.24770800  1
  O  O56  1  0.64820300  0.92658500  0.07303200  1
  O  O57  1  0.14820300  0.57341500  0.92696800  1
  O  O58  1  0.35179700  0.07341500  0.92696800  1
  O  O59  1  0.84019100  0.82803000  0.52452300  1
