# generated using pymatgen
data_NiSeO3
_symmetry_space_group_name_H-M   'P 1'
_cell_length_a   5.01392400
_cell_length_b   5.94957400
_cell_length_c   7.62682700
_cell_angle_alpha   90.00000000
_cell_angle_beta   90.00000000
_cell_angle_gamma   90.00000000
_symmetry_Int_Tables_number   1
_chemical_formula_structural   NiSeO3
_chemical_formula_sum   'Ni4 Se4 O12'
_cell_volume   227.51367871
_cell_formula_units_Z   4
loop_
 _symmetry_equiv_pos_site_id
 _symmetry_equiv_pos_as_xyz
  1  'x, y, z'
loop_
 _atom_site_type_symbol
 _atom_site_label
 _atom_site_symmetry_multiplicity
 _atom_site_fract_x
 _atom_site_fract_y
 _atom_site_fract_z
 _atom_site_occupancy
  Ni  Ni0  1  0.00000000  0.49999900  0.00000000  1
  Ni  Ni1  1  0.50000000  0.00000000  0.50000000  1
  Ni  Ni2  1  0.50000000  0.00000000  0.00000000  1
  Ni  Ni3  1  0.00000000  0.49999900  0.50000000  1
  Se  Se4  1  0.98149800  0.01967600  0.25000000  1
  Se  Se5  1  0.48149800  0.48032600  0.75000000  1
  Se  Se6  1  0.51850100  0.51967500  0.25000000  1
  Se  Se7  1  0.01850100  0.98032500  0.75000000  1
  O  O8  1  0.32486100  0.07338900  0.25000000  1
  O  O9  1  0.82486100  0.42661000  0.75000000  1
  O  O10  1  0.67513800  0.92660900  0.75000000  1
  O  O11  1  0.17513800  0.57338900  0.25000000  1
  O  O12  1  0.85887700  0.18304600  0.42496400  1
  O  O13  1  0.35887700  0.31695300  0.57503600  1
  O  O14  1  0.64112200  0.68304500  0.07503600  1
  O  O15  1  0.14112300  0.81695500  0.92496500  1
  O  O16  1  0.14112300  0.81695500  0.57503600  1
  O  O17  1  0.64112200  0.68304500  0.42496400  1
  O  O18  1  0.35887700  0.31695300  0.92496500  1
  O  O19  1  0.85887700  0.18304600  0.07503600  1
