# generated using pymatgen
data_MnSiIr
_symmetry_space_group_name_H-M   'P 1'
_cell_length_a   3.87544600
_cell_length_b   6.05524400
_cell_length_c   7.23784200
_cell_angle_alpha   90.00000000
_cell_angle_beta   90.00000000
_cell_angle_gamma   90.00000000
_symmetry_Int_Tables_number   1
_chemical_formula_structural   MnSiIr
_chemical_formula_sum   'Mn4 Si4 Ir4'
_cell_volume   169.84878175
_cell_formula_units_Z   4
loop_
 _symmetry_equiv_pos_site_id
 _symmetry_equiv_pos_as_xyz
  1  'x, y, z'
loop_
 _atom_site_type_symbol
 _atom_site_label
 _atom_site_symmetry_multiplicity
 _atom_site_fract_x
 _atom_site_fract_y
 _atom_site_fract_z
 _atom_site_occupancy
  Mn  Mn0  1  0.75000000  0.96867600  0.18028100  1
  Mn  Mn1  1  0.25000000  0.03132400  0.81971900  1
  Mn  Mn2  1  0.75000000  0.46867600  0.31971900  1
  Mn  Mn3  1  0.25000000  0.53132400  0.68028100  1
  Si  Si4  1  0.25000000  0.26747200  0.12333700  1
  Si  Si5  1  0.75000000  0.73252800  0.87666300  1
  Si  Si6  1  0.25000000  0.76747200  0.37666300  1
  Si  Si7  1  0.75000000  0.23252800  0.62333700  1
  Ir  Ir8  1  0.25000000  0.66359300  0.06243800  1
  Ir  Ir9  1  0.75000000  0.33640700  0.93756200  1
  Ir  Ir10  1  0.25000000  0.16359300  0.43756200  1
  Ir  Ir11  1  0.75000000  0.83640700  0.56243800  1
