# generated using pymatgen
data_BClF6
_symmetry_space_group_name_H-M   'P 1'
_cell_length_a   9.10510100
_cell_length_b   5.88679900
_cell_length_c   10.09448361
_cell_angle_alpha   63.17767738
_cell_angle_beta   90.00000000
_cell_angle_gamma   90.00000000
_symmetry_Int_Tables_number   1
_chemical_formula_structural   BClF6
_chemical_formula_sum   'B4 Cl4 F24'
_cell_volume   482.85035271
_cell_formula_units_Z   4
loop_
 _symmetry_equiv_pos_site_id
 _symmetry_equiv_pos_as_xyz
  1  'x, y, z'
loop_
 _atom_site_type_symbol
 _atom_site_label
 _atom_site_symmetry_multiplicity
 _atom_site_fract_x
 _atom_site_fract_y
 _atom_site_fract_z
 _atom_site_occupancy
  B  B0  1  0.49626600  0.43327800  0.32409700  1
  B  B1  1  0.99626600  0.56672200  0.17590300  1
  B  B2  1  0.50373400  0.56672200  0.67590300  1
  B  B3  1  0.00373400  0.43327800  0.82409700  1
  Cl  Cl4  1  0.71596300  0.17528200  0.61342200  1
  Cl  Cl5  1  0.21596300  0.82471800  0.88657800  1
  Cl  Cl6  1  0.28403700  0.82471800  0.38657800  1
  Cl  Cl7  1  0.78403700  0.17528200  0.11342200  1
  F  F8  1  0.65762300  0.07626800  0.03870900  1
  F  F9  1  0.15762300  0.92373200  0.46129100  1
  F  F10  1  0.34237700  0.92373200  0.96129100  1
  F  F11  1  0.84237700  0.07626800  0.53870900  1
  F  F12  1  0.73326400  0.99272900  0.28251200  1
  F  F13  1  0.23326400  0.00727100  0.21748800  1
  F  F14  1  0.26673600  0.00727100  0.71748800  1
  F  F15  1  0.76673600  0.99272900  0.78251200  1
  F  F16  1  0.00122000  0.38880900  0.70147900  1
  F  F17  1  0.50122000  0.61119100  0.79852100  1
  F  F18  1  0.99878000  0.61119100  0.29852100  1
  F  F19  1  0.49878000  0.38880900  0.20147900  1
  F  F20  1  0.04680800  0.69886300  0.77802800  1
  F  F21  1  0.54680800  0.30113700  0.72197200  1
  F  F22  1  0.95319200  0.30113700  0.22197200  1
  F  F23  1  0.45319200  0.69886300  0.27802800  1
  F  F24  1  0.09520800  0.27325400  0.93690200  1
  F  F25  1  0.59520800  0.72674600  0.56309800  1
  F  F26  1  0.90479200  0.72674600  0.06309800  1
  F  F27  1  0.40479200  0.27325400  0.43690200  1
  F  F28  1  0.85349800  0.41564600  0.88056400  1
  F  F29  1  0.35349800  0.58435400  0.61943600  1
  F  F30  1  0.14650200  0.58435400  0.11943600  1
  F  F31  1  0.64650200  0.41564600  0.38056400  1
