# generated using pymatgen
data_CeCO3F
_symmetry_space_group_name_H-M   'P 1'
_cell_length_a   7.16109235
_cell_length_b   7.16109235
_cell_length_c   9.86131700
_cell_angle_alpha   90.00000000
_cell_angle_beta   90.00000000
_cell_angle_gamma   120.00000327
_symmetry_Int_Tables_number   1
_chemical_formula_structural   CeCO3F
_chemical_formula_sum   'Ce6 C6 O18 F6'
_cell_volume   437.94955217
_cell_formula_units_Z   6
loop_
 _symmetry_equiv_pos_site_id
 _symmetry_equiv_pos_as_xyz
  1  'x, y, z'
loop_
 _atom_site_type_symbol
 _atom_site_label
 _atom_site_symmetry_multiplicity
 _atom_site_fract_x
 _atom_site_fract_y
 _atom_site_fract_z
 _atom_site_occupancy
  Ce  Ce0  1  0.34043600  0.00000000  0.50000000  1
  Ce  Ce1  1  0.00000000  0.34043600  0.50000000  1
  Ce  Ce2  1  0.65956400  0.65956400  0.00000000  1
  Ce  Ce3  1  0.34043600  0.00000000  0.00000000  1
  Ce  Ce4  1  0.65956400  0.65956400  0.50000000  1
  Ce  Ce5  1  0.00000000  0.34043600  0.00000000  1
  C  C6  1  0.70838500  0.03323300  0.25000000  1
  C  C7  1  0.67515200  0.96676700  0.75000000  1
  C  C8  1  0.96676700  0.67515200  0.25000000  1
  C  C9  1  0.32484800  0.29161500  0.25000000  1
  C  C10  1  0.29161500  0.32484800  0.75000000  1
  C  C11  1  0.03323300  0.70838500  0.75000000  1
  O  O12  1  0.21138800  0.89154800  0.75000000  1
  O  O13  1  0.38209000  0.32721900  0.63555000  1
  O  O14  1  0.05487000  0.67278100  0.13555000  1
  O  O15  1  0.10845200  0.31983900  0.75000000  1
  O  O16  1  0.61791000  0.94513000  0.36445000  1
  O  O17  1  0.38209000  0.32721900  0.86445000  1
  O  O18  1  0.94513000  0.61791000  0.63555000  1
  O  O19  1  0.67278100  0.05487000  0.63555000  1
  O  O20  1  0.32721900  0.38209000  0.36445000  1
  O  O21  1  0.31983900  0.10845200  0.25000000  1
  O  O22  1  0.68016100  0.78861200  0.75000000  1
  O  O23  1  0.32721900  0.38209000  0.13555000  1
  O  O24  1  0.67278100  0.05487000  0.86445000  1
  O  O25  1  0.78861200  0.68016100  0.25000000  1
  O  O26  1  0.94513000  0.61791000  0.86445000  1
  O  O27  1  0.89154800  0.21138800  0.25000000  1
  O  O28  1  0.05487000  0.67278100  0.36445000  1
  O  O29  1  0.61791000  0.94513000  0.13555000  1
  F  F30  1  0.33333300  0.66666700  0.54910000  1
  F  F31  1  0.66666700  0.33333300  0.45090000  1
  F  F32  1  0.66666700  0.33333300  0.04910000  1
  F  F33  1  0.33333300  0.66666700  0.95090000  1
  F  F34  1  0.00000000  0.00000000  0.50000000  1
  F  F35  1  0.00000000  0.00000000  0.00000000  1
