# generated using pymatgen
data_NbBr5
_symmetry_space_group_name_H-M   'P 1'
_cell_length_a   6.73069200
_cell_length_b   14.16061000
_cell_length_c   19.60445900
_cell_angle_alpha   90.00000000
_cell_angle_beta   90.00000000
_cell_angle_gamma   90.00000000
_symmetry_Int_Tables_number   1
_chemical_formula_structural   NbBr5
_chemical_formula_sum   'Nb8 Br40'
_cell_volume   1868.51479750
_cell_formula_units_Z   8
loop_
 _symmetry_equiv_pos_site_id
 _symmetry_equiv_pos_as_xyz
  1  'x, y, z'
loop_
 _atom_site_type_symbol
 _atom_site_label
 _atom_site_symmetry_multiplicity
 _atom_site_fract_x
 _atom_site_fract_y
 _atom_site_fract_z
 _atom_site_occupancy
  Nb  Nb0  1  0.99343300  0.12453700  0.14124300  1
  Nb  Nb1  1  0.49343300  0.37546300  0.85875700  1
  Nb  Nb2  1  0.50656700  0.62453700  0.35875700  1
  Nb  Nb3  1  0.00656700  0.87546300  0.64124300  1
  Nb  Nb4  1  0.00656700  0.87546300  0.85875700  1
  Nb  Nb5  1  0.50656700  0.62453700  0.14124300  1
  Nb  Nb6  1  0.49343300  0.37546300  0.64124300  1
  Nb  Nb7  1  0.99343300  0.12453700  0.35875700  1
  Br  Br8  1  0.27308700  0.70387200  0.06449100  1
  Br  Br9  1  0.77308700  0.79612800  0.93550900  1
  Br  Br10  1  0.22691300  0.20387200  0.43550900  1
  Br  Br11  1  0.72691300  0.29612800  0.56449100  1
  Br  Br12  1  0.72691300  0.29612800  0.93550900  1
  Br  Br13  1  0.22691300  0.20387200  0.06449100  1
  Br  Br14  1  0.77308700  0.79612800  0.56449100  1
  Br  Br15  1  0.27308700  0.70387200  0.43550900  1
  Br  Br16  1  0.20271500  0.19529900  0.25000000  1
  Br  Br17  1  0.70271500  0.30470100  0.75000000  1
  Br  Br18  1  0.29728500  0.69529900  0.25000000  1
  Br  Br19  1  0.79728500  0.80470100  0.75000000  1
  Br  Br20  1  0.78561400  0.05293400  0.25000000  1
  Br  Br21  1  0.28561400  0.44706600  0.75000000  1
  Br  Br22  1  0.71438600  0.55293400  0.25000000  1
  Br  Br23  1  0.21438600  0.94706600  0.75000000  1
  Br  Br24  1  0.20853200  0.98143200  0.34800500  1
  Br  Br25  1  0.70853200  0.51856800  0.65199500  1
  Br  Br26  1  0.29146800  0.48143200  0.15199500  1
  Br  Br27  1  0.79146800  0.01856800  0.84800500  1
  Br  Br28  1  0.79146800  0.01856800  0.65199500  1
  Br  Br29  1  0.29146800  0.48143200  0.34800500  1
  Br  Br30  1  0.70853200  0.51856800  0.84800500  1
  Br  Br31  1  0.20853200  0.98143200  0.15199500  1
  Br  Br32  1  0.27844800  0.23243900  0.65270200  1
  Br  Br33  1  0.77844800  0.26756100  0.34729800  1
  Br  Br34  1  0.22155200  0.73243900  0.84729800  1
  Br  Br35  1  0.72155200  0.76756100  0.15270200  1
  Br  Br36  1  0.72155200  0.76756100  0.34729800  1
  Br  Br37  1  0.22155200  0.73243900  0.65270200  1
  Br  Br38  1  0.77844800  0.26756100  0.15270200  1
  Br  Br39  1  0.27844800  0.23243900  0.84729800  1
  Br  Br40  1  0.75958400  0.04567500  0.43557600  1
  Br  Br41  1  0.25958400  0.45432500  0.56442400  1
  Br  Br42  1  0.74041600  0.54567500  0.06442400  1
  Br  Br43  1  0.24041600  0.95432500  0.93557600  1
  Br  Br44  1  0.24041600  0.95432500  0.56442400  1
  Br  Br45  1  0.74041600  0.54567500  0.43557600  1
  Br  Br46  1  0.25958400  0.45432500  0.93557600  1
  Br  Br47  1  0.75958400  0.04567500  0.06442400  1
