# generated using pymatgen
data_NiCl2
_symmetry_space_group_name_H-M   'P 1'
_cell_length_a   6.72979319
_cell_length_b   6.72979319
_cell_length_c   6.72979373
_cell_angle_alpha   29.83501074
_cell_angle_beta   29.83501074
_cell_angle_gamma   29.83502074
_symmetry_Int_Tables_number   1
_chemical_formula_structural   NiCl2
_chemical_formula_sum   'Ni1 Cl2'
_cell_volume   66.80662418
_cell_formula_units_Z   1
loop_
 _symmetry_equiv_pos_site_id
 _symmetry_equiv_pos_as_xyz
  1  'x, y, z'
loop_
 _atom_site_type_symbol
 _atom_site_label
 _atom_site_symmetry_multiplicity
 _atom_site_fract_x
 _atom_site_fract_y
 _atom_site_fract_z
 _atom_site_occupancy
  Ni  Ni0  1  0.00000000  0.00000000  0.00000000  1
  Cl  Cl1  1  0.73284600  0.73284600  0.73284600  1
  Cl  Cl2  1  0.26715400  0.26715400  0.26715400  1
