# generated using pymatgen
data_KSb4F13
_symmetry_space_group_name_H-M   'P 1'
_cell_length_a   7.63984517
_cell_length_b   7.63984517
_cell_length_c   7.63984517
_cell_angle_alpha   100.10872040
_cell_angle_beta   100.10872040
_cell_angle_gamma   130.46375349
_symmetry_Int_Tables_number   1
_chemical_formula_structural   KSb4F13
_chemical_formula_sum   'K1 Sb4 F13'
_cell_volume   308.05244327
_cell_formula_units_Z   1
loop_
 _symmetry_equiv_pos_site_id
 _symmetry_equiv_pos_as_xyz
  1  'x, y, z'
loop_
 _atom_site_type_symbol
 _atom_site_label
 _atom_site_symmetry_multiplicity
 _atom_site_fract_x
 _atom_site_fract_y
 _atom_site_fract_z
 _atom_site_occupancy
  K  K0  1  0.50000000  0.50000000  0.00000000  1
  Sb  Sb1  1  0.02112400  0.30162500  0.31601100  1
  Sb  Sb2  1  0.29488700  0.97887600  0.28050100  1
  Sb  Sb3  1  0.69837500  0.01438600  0.71949900  1
  Sb  Sb4  1  0.98561400  0.70511300  0.68398900  1
  F  F5  1  0.99935900  0.86555600  0.33232300  1
  F  F6  1  0.33296400  0.00064100  0.86619700  1
  F  F7  1  0.13444400  0.46676800  0.13380300  1
  F  F8  1  0.53323200  0.66703600  0.66767700  1
  F  F9  1  0.01154400  0.08754200  0.77440200  1
  F  F10  1  0.25000000  0.75000000  0.50000000  1
  F  F11  1  0.68536900  0.96679800  0.45021000  1
  F  F12  1  0.76484100  0.31463100  0.28142900  1
  F  F13  1  0.03320200  0.48341200  0.71857100  1
  F  F14  1  0.51658800  0.23515900  0.54979000  1
  F  F15  1  0.31313900  0.23714200  0.22559800  1
  F  F16  1  0.91245800  0.68686100  0.92400300  1
  F  F17  1  0.76285800  0.98845600  0.07599700  1
