# generated using pymatgen
data_InAgTe2
_symmetry_space_group_name_H-M   'P 1'
_cell_length_a   7.97072245
_cell_length_b   7.97072245
_cell_length_c   7.97072245
_cell_angle_alpha   131.15269516
_cell_angle_beta   131.15269516
_cell_angle_gamma   71.57059053
_symmetry_Int_Tables_number   1
_chemical_formula_structural   InAgTe2
_chemical_formula_sum   'In2 Ag2 Te4'
_cell_volume   280.93003125
_cell_formula_units_Z   2
loop_
 _symmetry_equiv_pos_site_id
 _symmetry_equiv_pos_as_xyz
  1  'x, y, z'
loop_
 _atom_site_type_symbol
 _atom_site_label
 _atom_site_symmetry_multiplicity
 _atom_site_fract_x
 _atom_site_fract_y
 _atom_site_fract_z
 _atom_site_occupancy
  In  In0  1  0.50000000  0.50000000  0.00000000  1
  In  In1  1  0.25000000  0.75000000  0.50000000  1
  Ag  Ag2  1  0.00000000  0.00000000  0.00000000  1
  Ag  Ag3  1  0.75000000  0.25000000  0.50000000  1
  Te  Te4  1  0.37500000  0.37013200  0.49513200  1
  Te  Te5  1  0.62986800  0.12500000  0.00486800  1
  Te  Te6  1  0.12013200  0.62500000  0.99513200  1
  Te  Te7  1  0.87500000  0.87986800  0.50486800  1
