# generated using pymatgen
data_SiP
_symmetry_space_group_name_H-M   'P 1'
_cell_length_a   10.43413284
_cell_length_b   10.43413284
_cell_length_c   15.61111900
_cell_angle_alpha   90.00000000
_cell_angle_beta   90.00000000
_cell_angle_gamma   160.51928013
_symmetry_Int_Tables_number   1
_chemical_formula_structural   SiP
_chemical_formula_sum   'Si12 P12'
_cell_volume   566.79903770
_cell_formula_units_Z   12
loop_
 _symmetry_equiv_pos_site_id
 _symmetry_equiv_pos_as_xyz
  1  'x, y, z'
loop_
 _atom_site_type_symbol
 _atom_site_label
 _atom_site_symmetry_multiplicity
 _atom_site_fract_x
 _atom_site_fract_y
 _atom_site_fract_z
 _atom_site_occupancy
  Si  Si0  1  0.82878000  0.17122000  0.73995800  1
  Si  Si1  1  0.17122000  0.82878000  0.23995800  1
  Si  Si2  1  0.94012500  0.05987500  0.77715400  1
  Si  Si3  1  0.05987500  0.94012500  0.27715400  1
  Si  Si4  1  0.56434500  0.43565500  0.69024900  1
  Si  Si5  1  0.43565500  0.56434500  0.19024900  1
  Si  Si6  1  0.56727100  0.43272900  0.84090200  1
  Si  Si7  1  0.43272900  0.56727100  0.34090200  1
  Si  Si8  1  0.20465100  0.79534900  0.82692300  1
  Si  Si9  1  0.79534900  0.20465100  0.32692300  1
  Si  Si10  1  0.20167100  0.79832900  0.67628900  1
  Si  Si11  1  0.79832900  0.20167100  0.17628900  1
  P  P12  1  0.00012300  0.99987700  0.65236100  1
  P  P13  1  0.99987700  0.00012300  0.15236100  1
  P  P14  1  0.76885800  0.23114200  0.86484900  1
  P  P15  1  0.23114200  0.76885800  0.36484900  1
  P  P16  1  0.65517700  0.34482300  0.60711400  1
  P  P17  1  0.34482300  0.65517700  0.10711400  1
  P  P18  1  0.45857500  0.54142600  0.86735600  1
  P  P19  1  0.54142600  0.45857400  0.36735600  1
  P  P20  1  0.31034500  0.68965500  0.64976200  1
  P  P21  1  0.68965500  0.31034500  0.14976200  1
  P  P22  1  0.11380300  0.88619700  0.91004400  1
  P  P23  1  0.88619700  0.11380300  0.41004400  1
