# generated using pymatgen
data_ErSeClO3
_symmetry_space_group_name_H-M   'P 1'
_cell_length_a   6.96103600
_cell_length_b   7.30294200
_cell_length_c   8.80097400
_cell_angle_alpha   90.00000000
_cell_angle_beta   90.00000000
_cell_angle_gamma   90.00000000
_symmetry_Int_Tables_number   1
_chemical_formula_structural   ErSeClO3
_chemical_formula_sum   'Er4 Se4 Cl4 O12'
_cell_volume   447.40668538
_cell_formula_units_Z   4
loop_
 _symmetry_equiv_pos_site_id
 _symmetry_equiv_pos_as_xyz
  1  'x, y, z'
loop_
 _atom_site_type_symbol
 _atom_site_label
 _atom_site_symmetry_multiplicity
 _atom_site_fract_x
 _atom_site_fract_y
 _atom_site_fract_z
 _atom_site_occupancy
  Er  Er0  1  0.25000000  0.60188300  0.96044100  1
  Er  Er1  1  0.75000000  0.39811700  0.03955900  1
  Er  Er2  1  0.25000000  0.10188300  0.53955900  1
  Er  Er3  1  0.75000000  0.89811700  0.46044100  1
  Se  Se4  1  0.25000000  0.20986100  0.13310300  1
  Se  Se5  1  0.75000000  0.79013900  0.86689700  1
  Se  Se6  1  0.75000000  0.29013900  0.63310300  1
  Se  Se7  1  0.25000000  0.70986100  0.36689700  1
  Cl  Cl8  1  0.75000000  0.56298700  0.31675400  1
  Cl  Cl9  1  0.75000000  0.06298700  0.18324600  1
  Cl  Cl10  1  0.25000000  0.43701300  0.68324600  1
  Cl  Cl11  1  0.25000000  0.93701300  0.81675400  1
  O  O12  1  0.92812200  0.63972700  0.93247900  1
  O  O13  1  0.42812200  0.36027300  0.06752100  1
  O  O14  1  0.57187800  0.13972700  0.56752100  1
  O  O15  1  0.07187800  0.86027300  0.43247900  1
  O  O16  1  0.07187800  0.36027300  0.06752100  1
  O  O17  1  0.57187800  0.63972700  0.93247900  1
  O  O18  1  0.42812200  0.86027300  0.43247900  1
  O  O19  1  0.75000000  0.74907300  0.67678500  1
  O  O20  1  0.25000000  0.75092700  0.17678500  1
  O  O21  1  0.75000000  0.24907300  0.82321500  1
  O  O22  1  0.25000000  0.25092700  0.32321500  1
  O  O23  1  0.92812200  0.13972700  0.56752100  1
