# generated using pymatgen
data_Ca4Ni3C5
_symmetry_space_group_name_H-M   'P 1'
_cell_length_a   5.86942619
_cell_length_b   5.86942619
_cell_length_c   9.79089961
_cell_angle_alpha   68.38854555
_cell_angle_beta   68.38854555
_cell_angle_gamma   37.41411336
_symmetry_Int_Tables_number   1
_chemical_formula_structural   Ca4Ni3C5
_chemical_formula_sum   'Ca4 Ni3 C5'
_cell_volume   188.80444818
_cell_formula_units_Z   1
loop_
 _symmetry_equiv_pos_site_id
 _symmetry_equiv_pos_as_xyz
  1  'x, y, z'
loop_
 _atom_site_type_symbol
 _atom_site_label
 _atom_site_symmetry_multiplicity
 _atom_site_fract_x
 _atom_site_fract_y
 _atom_site_fract_z
 _atom_site_occupancy
  Ca  Ca0  1  0.10126700  0.10126700  0.60122900  1
  Ca  Ca1  1  0.74422100  0.74422100  0.83680700  1
  Ca  Ca2  1  0.25577900  0.25577900  0.16319300  1
  Ca  Ca3  1  0.89873300  0.89873300  0.39877100  1
  Ni  Ni4  1  0.54151500  0.54151500  0.16360700  1
  Ni  Ni5  1  0.00000000  0.00000000  0.00000000  1
  Ni  Ni6  1  0.45848500  0.45848500  0.83639300  1
  C  C7  1  0.39804300  0.39804300  0.68899900  1
  C  C8  1  0.50000000  0.50000000  0.00000000  1
  C  C9  1  0.67291900  0.67291900  0.38975800  1
  C  C10  1  0.32708100  0.32708100  0.61024200  1
  C  C11  1  0.60195700  0.60195700  0.31100100  1
