# generated using pymatgen
data_CaIn2Pd
_symmetry_space_group_name_H-M   'P 1'
_cell_length_a   5.70682265
_cell_length_b   5.70682265
_cell_length_c   7.92415000
_cell_angle_alpha   90.00000000
_cell_angle_beta   90.00000000
_cell_angle_gamma   133.43714288
_symmetry_Int_Tables_number   1
_chemical_formula_structural   CaIn2Pd
_chemical_formula_sum   'Ca2 In4 Pd2'
_cell_volume   187.39382821
_cell_formula_units_Z   2
loop_
 _symmetry_equiv_pos_site_id
 _symmetry_equiv_pos_as_xyz
  1  'x, y, z'
loop_
 _atom_site_type_symbol
 _atom_site_label
 _atom_site_symmetry_multiplicity
 _atom_site_fract_x
 _atom_site_fract_y
 _atom_site_fract_z
 _atom_site_occupancy
  Ca  Ca0  1  0.93453200  0.06546800  0.75000000  1
  Ca  Ca1  1  0.06546800  0.93453200  0.25000000  1
  In  In2  1  0.64463000  0.35537000  0.94681500  1
  In  In3  1  0.35537000  0.64463000  0.05318500  1
  In  In4  1  0.35537000  0.64463000  0.44681500  1
  In  In5  1  0.64463000  0.35537000  0.55318500  1
  Pd  Pd6  1  0.21795700  0.78204300  0.75000000  1
  Pd  Pd7  1  0.78204300  0.21795700  0.25000000  1
