# generated using pymatgen
data_Ca2Si3Ag
_symmetry_space_group_name_H-M   'P 1'
_cell_length_a   8.42100021
_cell_length_b   8.33683193
_cell_length_c   6.01914922
_cell_angle_alpha   69.69952733
_cell_angle_beta   68.20401659
_cell_angle_gamma   42.09645608
_symmetry_Int_Tables_number   1
_chemical_formula_structural   Ca2Si3Ag
_chemical_formula_sum   'Ca4 Si6 Ag2'
_cell_volume   261.29448059
_cell_formula_units_Z   2
loop_
 _symmetry_equiv_pos_site_id
 _symmetry_equiv_pos_as_xyz
  1  'x, y, z'
loop_
 _atom_site_type_symbol
 _atom_site_label
 _atom_site_symmetry_multiplicity
 _atom_site_fract_x
 _atom_site_fract_y
 _atom_site_fract_z
 _atom_site_occupancy
  Ca  Ca0  1  0.75000000  0.75000000  0.75000000  1
  Ca  Ca1  1  0.75287600  0.24712400  0.75287600  1
  Ca  Ca2  1  0.25000000  0.25000000  0.25000000  1
  Ca  Ca3  1  0.24712400  0.75287600  0.24712400  1
  Si  Si4  1  0.83724100  0.32446500  0.16275900  1
  Si  Si5  1  0.67553500  0.16275900  0.32446500  1
  Si  Si6  1  0.16275900  0.67553500  0.83724100  1
  Si  Si7  1  0.32446500  0.83724100  0.67553500  1
  Si  Si8  1  0.16158200  0.16158200  0.83841800  1
  Si  Si9  1  0.83841800  0.83841800  0.16158200  1
  Ag  Ag10  1  0.66661900  0.66661900  0.33338100  1
  Ag  Ag11  1  0.33338100  0.33338100  0.66661900  1
