# generated using pymatgen
data_LiTe3
_symmetry_space_group_name_H-M   'P 1'
_cell_length_a   8.77807480
_cell_length_b   8.77807480
_cell_length_c   21.51237700
_cell_angle_alpha   90.00000000
_cell_angle_beta   90.00000000
_cell_angle_gamma   120.00000600
_symmetry_Int_Tables_number   1
_chemical_formula_structural   LiTe3
_chemical_formula_sum   'Li12 Te36'
_cell_volume   1435.54747550
_cell_formula_units_Z   12
loop_
 _symmetry_equiv_pos_site_id
 _symmetry_equiv_pos_as_xyz
  1  'x, y, z'
loop_
 _atom_site_type_symbol
 _atom_site_label
 _atom_site_symmetry_multiplicity
 _atom_site_fract_x
 _atom_site_fract_y
 _atom_site_fract_z
 _atom_site_occupancy
  Li  Li0  1  0.33333300  0.66666700  0.41794900  1
  Li  Li1  1  0.66666700  0.33333300  0.08205100  1
  Li  Li2  1  0.66666700  0.33333300  0.58205100  1
  Li  Li3  1  0.33333300  0.66666700  0.91794900  1
  Li  Li4  1  0.33333300  0.66666700  0.66544600  1
  Li  Li5  1  0.66666700  0.33333300  0.83455400  1
  Li  Li6  1  0.66666700  0.33333300  0.33455400  1
  Li  Li7  1  0.33333300  0.66666700  0.16544600  1
  Li  Li8  1  0.00000000  0.00000000  0.75000000  1
  Li  Li9  1  0.00000000  0.00000000  0.25000000  1
  Li  Li10  1  0.00000000  0.00000000  0.50000000  1
  Li  Li11  1  0.00000000  0.00000000  0.00000000  1
  Te  Te12  1  0.17730100  0.33675700  0.08268000  1
  Te  Te13  1  0.66324300  0.84054400  0.08268000  1
  Te  Te14  1  0.15945600  0.82269900  0.08268000  1
  Te  Te15  1  0.84054400  0.66324300  0.41732000  1
  Te  Te16  1  0.82269900  0.15945600  0.41732000  1
  Te  Te17  1  0.33675700  0.17730100  0.41732000  1
  Te  Te18  1  0.82269900  0.66324300  0.91732000  1
  Te  Te19  1  0.33675700  0.15945600  0.91732000  1
  Te  Te20  1  0.84054400  0.17730100  0.91732000  1
  Te  Te21  1  0.15945600  0.33675700  0.58268000  1
  Te  Te22  1  0.17730100  0.84054400  0.58268000  1
  Te  Te23  1  0.66324300  0.82269900  0.58268000  1
  Te  Te24  1  0.85272300  0.66967000  0.16577500  1
  Te  Te25  1  0.33033000  0.18305300  0.16577500  1
  Te  Te26  1  0.81694700  0.14727700  0.16577500  1
  Te  Te27  1  0.18305300  0.33033000  0.33422500  1
  Te  Te28  1  0.14727700  0.81694700  0.33422500  1
  Te  Te29  1  0.66967000  0.85272300  0.33422500  1
  Te  Te30  1  0.14727700  0.33033000  0.83422500  1
  Te  Te31  1  0.66967000  0.81694700  0.83422500  1
  Te  Te32  1  0.18305300  0.85272300  0.83422500  1
  Te  Te33  1  0.81694700  0.66967000  0.66577500  1
  Te  Te34  1  0.85272300  0.18305300  0.66577500  1
  Te  Te35  1  0.33033000  0.14727700  0.66577500  1
  Te  Te36  1  0.52182200  0.52182200  0.75000000  1
  Te  Te37  1  0.00000000  0.47817800  0.75000000  1
  Te  Te38  1  0.47817800  0.00000000  0.75000000  1
  Te  Te39  1  0.47817800  0.47817800  0.25000000  1
  Te  Te40  1  0.00000000  0.52182200  0.25000000  1
  Te  Te41  1  0.52182200  0.00000000  0.25000000  1
  Te  Te42  1  0.00000000  0.50000000  0.50000000  1
  Te  Te43  1  0.50000000  0.50000000  0.50000000  1
  Te  Te44  1  0.50000000  0.00000000  0.50000000  1
  Te  Te45  1  0.50000000  0.50000000  0.00000000  1
  Te  Te46  1  0.00000000  0.50000000  0.00000000  1
  Te  Te47  1  0.50000000  0.00000000  0.00000000  1
