# generated using pymatgen
data_Sr11(ReO6)4
_symmetry_space_group_name_H-M   'P 1'
_cell_length_a   11.70476186
_cell_length_b   11.70476186
_cell_length_c   11.70476186
_cell_angle_alpha   119.63399901
_cell_angle_beta   119.63399901
_cell_angle_gamma   90.63511000
_symmetry_Int_Tables_number   1
_chemical_formula_structural   Sr11(ReO6)4
_chemical_formula_sum   'Sr22 Re8 O48'
_cell_volume   1140.09174396
_cell_formula_units_Z   2
loop_
 _symmetry_equiv_pos_site_id
 _symmetry_equiv_pos_as_xyz
  1  'x, y, z'
loop_
 _atom_site_type_symbol
 _atom_site_label
 _atom_site_symmetry_multiplicity
 _atom_site_fract_x
 _atom_site_fract_y
 _atom_site_fract_z
 _atom_site_occupancy
  Sr  Sr0  1  0.50000000  0.50000000  0.00000000  1
  Sr  Sr1  1  0.25000000  0.75000000  0.50000000  1
  Sr  Sr2  1  0.01132800  0.51132800  0.50000000  1
  Sr  Sr3  1  0.26132800  0.26132800  0.00000000  1
  Sr  Sr4  1  0.73867200  0.73867200  0.00000000  1
  Sr  Sr5  1  0.48867200  0.98867200  0.50000000  1
  Sr  Sr6  1  0.02602100  0.96721000  0.46811900  1
  Sr  Sr7  1  0.30790300  0.27602100  0.55881200  1
  Sr  Sr8  1  0.68232200  0.37187000  0.73447900  1
  Sr  Sr9  1  0.69784300  0.93232200  0.81045200  1
  Sr  Sr10  1  0.12187000  0.88739100  0.18954800  1
  Sr  Sr11  1  0.63739100  0.94784300  0.26552100  1
  Sr  Sr12  1  0.06767800  0.87813000  0.76552100  1
  Sr  Sr13  1  0.05215700  0.31767800  0.68954800  1
  Sr  Sr14  1  0.62813000  0.36260900  0.31045200  1
  Sr  Sr15  1  0.11260900  0.30215700  0.23447900  1
  Sr  Sr16  1  0.25090900  0.69209700  0.96811900  1
  Sr  Sr17  1  0.03279000  0.50090900  0.05881200  1
  Sr  Sr18  1  0.44209700  0.97397900  0.94118800  1
  Sr  Sr19  1  0.72397900  0.28279000  0.03188100  1
  Sr  Sr20  1  0.49909100  0.55790300  0.53188100  1
  Sr  Sr21  1  0.71721000  0.74909100  0.44118800  1
  Re  Re22  1  0.87500000  0.62500000  0.25000000  1
  Re  Re23  1  0.37500000  0.12500000  0.75000000  1
  Re  Re24  1  0.37500000  0.62500000  0.25000000  1
  Re  Re25  1  0.37500000  0.62500000  0.75000000  1
  Re  Re26  1  0.37500000  0.12500000  0.25000000  1
  Re  Re27  1  0.87500000  0.62500000  0.75000000  1
  Re  Re28  1  0.87500000  0.12500000  0.25000000  1
  Re  Re29  1  0.87500000  0.12500000  0.75000000  1
  O  O30  1  0.90359700  0.60836900  0.91537500  1
  O  O31  1  0.73822100  0.15359700  0.79522800  1
  O  O32  1  0.35836900  0.94299300  0.20477200  1
  O  O33  1  0.69299300  0.98822100  0.08462500  1
  O  O34  1  0.84640300  0.64163100  0.58462500  1
  O  O35  1  0.01177900  0.09640300  0.70477200  1
  O  O36  1  0.39163100  0.30700700  0.29522800  1
  O  O37  1  0.05700700  0.26177900  0.41537500  1
  O  O38  1  0.72301900  0.00578300  0.52671500  1
  O  O39  1  0.94630400  0.97301900  0.21723600  1
  O  O40  1  0.75578300  0.72906800  0.78276400  1
  O  O41  1  0.47906800  0.19630400  0.47328500  1
  O  O42  1  0.02698100  0.24421700  0.97328500  1
  O  O43  1  0.80369600  0.27698100  0.28276400  1
  O  O44  1  0.99421700  0.52093200  0.71723600  1
  O  O45  1  0.27093200  0.05369600  0.02671500  1
  O  O46  1  0.86991100  0.11859500  0.40715600  1
  O  O47  1  0.21275500  0.11991100  0.25131600  1
  O  O48  1  0.86859500  0.96143900  0.74868400  1
  O  O49  1  0.71143900  0.46275500  0.59284400  1
  O  O50  1  0.88008900  0.13140500  0.09284400  1
  O  O51  1  0.53724500  0.13008900  0.24868400  1
  O  O52  1  0.88140500  0.28856100  0.75131600  1
  O  O53  1  0.03856100  0.78724500  0.90715600  1
  O  O54  1  0.50369900  0.27000400  0.79168500  1
  O  O55  1  0.46201400  0.75369900  0.73369500  1
  O  O56  1  0.02000400  0.72831900  0.26630500  1
  O  O57  1  0.47831900  0.71201400  0.20831500  1
  O  O58  1  0.24630100  0.97999600  0.70831500  1
  O  O59  1  0.28798600  0.49630100  0.76630500  1
  O  O60  1  0.47703000  0.21598200  0.98492600  1
  O  O61  1  0.24210400  0.72703000  0.76104800  1
  O  O62  1  0.96598200  0.48105600  0.23895200  1
  O  O63  1  0.23105600  0.49210400  0.01507400  1
  O  O64  1  0.27297000  0.03401800  0.51507400  1
  O  O65  1  0.50789600  0.52297000  0.73895200  1
  O  O66  1  0.78401800  0.76894400  0.26104800  1
  O  O67  1  0.51894400  0.75789600  0.48492600  1
  O  O68  1  0.49173900  0.01280300  0.74300500  1
  O  O69  1  0.49873400  0.74173900  0.97893600  1
  O  O70  1  0.76280300  0.51979700  0.02106400  1
  O  O71  1  0.26979700  0.74873400  0.25699500  1
  O  O72  1  0.25826100  0.23719700  0.75699500  1
  O  O73  1  0.25126600  0.50826100  0.52106400  1
  O  O74  1  0.98719700  0.73020300  0.47893600  1
  O  O75  1  0.48020300  0.50126600  0.24300500  1
  O  O76  1  0.27168100  0.53798600  0.29168500  1
  O  O77  1  0.72999600  0.52168100  0.23369500  1
