# generated using pymatgen
data_Sr13(MgSi10)2
_symmetry_space_group_name_H-M   'P 1'
_cell_length_a   9.83827834
_cell_length_b   15.28149846
_cell_length_c   23.35125606
_cell_angle_alpha   90.00000000
_cell_angle_beta   90.00000000
_cell_angle_gamma   90.00000000
_symmetry_Int_Tables_number   1
_chemical_formula_structural   Sr13(MgSi10)2
_chemical_formula_sum   'Sr52 Mg8 Si80'
_cell_volume   3510.71272492
_cell_formula_units_Z   4
loop_
 _symmetry_equiv_pos_site_id
 _symmetry_equiv_pos_as_xyz
  1  'x, y, z'
loop_
 _atom_site_type_symbol
 _atom_site_label
 _atom_site_symmetry_multiplicity
 _atom_site_fract_x
 _atom_site_fract_y
 _atom_site_fract_z
 _atom_site_occupancy
  Mg  Mg0  1  0.00000000  0.07059049  0.29087154  1
  Mg  Mg1  1  0.00000000  0.92940951  0.70912846  1
  Mg  Mg2  1  0.00000000  0.57059049  0.20912846  1
  Mg  Mg3  1  0.00000000  0.42940951  0.79087154  1
  Mg  Mg4  1  0.50000000  0.28807503  0.16619361  1
  Mg  Mg5  1  0.50000000  0.71192497  0.83380639  1
  Mg  Mg6  1  0.50000000  0.78807503  0.33380639  1
  Mg  Mg7  1  0.50000000  0.21192497  0.66619361  1
  Si  Si8  1  0.00000000  0.55296685  0.08668435  1
  Si  Si9  1  0.00000000  0.44703315  0.91331565  1
  Si  Si10  1  0.00000000  0.05296685  0.41331565  1
  Si  Si11  1  0.00000000  0.94703315  0.58668435  1
  Si  Si12  1  0.00000000  0.66908842  0.01816457  1
  Si  Si13  1  0.00000000  0.33091158  0.98183543  1
  Si  Si14  1  0.00000000  0.16908842  0.48183543  1
  Si  Si15  1  0.00000000  0.83091158  0.51816457  1
  Si  Si16  1  0.00000000  0.81663406  0.05627501  1
  Si  Si17  1  0.00000000  0.18336594  0.94372499  1
  Si  Si18  1  0.00000000  0.31663406  0.44372499  1
  Si  Si19  1  0.00000000  0.68336594  0.55627501  1
  Si  Si20  1  0.00000000  0.85955720  0.15384339  1
  Si  Si21  1  0.00000000  0.14044280  0.84615661  1
  Si  Si22  1  0.00000000  0.35955720  0.34615661  1
  Si  Si23  1  0.00000000  0.64044280  0.65384339  1
  Si  Si24  1  0.00000000  0.25483183  0.26967422  1
  Si  Si25  1  0.00000000  0.74516817  0.73032578  1
  Si  Si26  1  0.00000000  0.75483183  0.23032578  1
  Si  Si27  1  0.00000000  0.24516817  0.76967422  1
  Si  Si28  1  0.00000000  0.01079862  0.17922132  1
  Si  Si29  1  0.00000000  0.98920138  0.82077868  1
  Si  Si30  1  0.00000000  0.51079862  0.32077868  1
  Si  Si31  1  0.00000000  0.48920138  0.67922132  1
  Si  Si32  1  0.00000000  0.12559213  0.10867356  1
  Si  Si33  1  0.00000000  0.87440787  0.89132644  1
  Si  Si34  1  0.00000000  0.62559213  0.39132644  1
  Si  Si35  1  0.00000000  0.37440787  0.60867356  1
  Si  Si36  1  0.00000000  0.92632182  0.98616730  1
  Si  Si37  1  0.00000000  0.07367818  0.01383270  1
  Si  Si38  1  0.00000000  0.42632182  0.51383270  1
  Si  Si39  1  0.00000000  0.57367818  0.48616730  1
  Si  Si40  1  0.19825638  0.51429006  0.14246950  1
  Si  Si41  1  0.19825638  0.48570994  0.85753050  1
  Si  Si42  1  0.80174362  0.01429006  0.35753050  1
  Si  Si43  1  0.80174362  0.98570994  0.64246950  1
  Si  Si44  1  0.80174362  0.48570994  0.85753050  1
  Si  Si45  1  0.80174362  0.51429006  0.14246950  1
  Si  Si46  1  0.19825638  0.98570994  0.64246950  1
  Si  Si47  1  0.19825638  0.01429006  0.35753050  1
  Si  Si48  1  0.30158985  0.37856455  0.11941534  1
  Si  Si49  1  0.30158985  0.62143545  0.88058466  1
  Si  Si50  1  0.69841015  0.87856455  0.38058466  1
  Si  Si51  1  0.69841015  0.12143545  0.61941534  1
  Si  Si52  1  0.69841015  0.62143545  0.88058466  1
  Si  Si53  1  0.69841015  0.37856455  0.11941534  1
  Si  Si54  1  0.30158985  0.12143545  0.61941534  1
  Si  Si55  1  0.30158985  0.87856455  0.38058466  1
  Si  Si56  1  0.50000000  0.61394218  0.94131314  1
  Si  Si57  1  0.50000000  0.38605782  0.05868686  1
  Si  Si58  1  0.50000000  0.11394218  0.55868686  1
  Si  Si59  1  0.50000000  0.88605782  0.44131314  1
  Si  Si60  1  0.50000000  0.66012082  0.03893475  1
  Si  Si61  1  0.50000000  0.33987918  0.96106525  1
  Si  Si62  1  0.50000000  0.16012082  0.46106525  1
  Si  Si63  1  0.50000000  0.83987918  0.53893475  1
  Si  Si64  1  0.50000000  0.81630278  0.05620141  1
  Si  Si65  1  0.50000000  0.18369722  0.94379859  1
  Si  Si66  1  0.50000000  0.31630278  0.44379859  1
  Si  Si67  1  0.50000000  0.68369722  0.55620141  1
  Si  Si68  1  0.50000000  0.85863691  0.15326793  1
  Si  Si69  1  0.50000000  0.14136309  0.84673207  1
  Si  Si70  1  0.50000000  0.35863691  0.34673207  1
  Si  Si71  1  0.50000000  0.64136309  0.65326793  1
  Si  Si72  1  0.50000000  0.24085205  0.28127893  1
  Si  Si73  1  0.50000000  0.75914795  0.71872107  1
  Si  Si74  1  0.50000000  0.74085205  0.21872107  1
  Si  Si75  1  0.50000000  0.25914795  0.78127893  1
  Si  Si76  1  0.50000000  0.99427678  0.81446157  1
  Si  Si77  1  0.50000000  0.00572322  0.18553843  1
  Si  Si78  1  0.50000000  0.49427678  0.68553843  1
  Si  Si79  1  0.50000000  0.50572322  0.31446157  1
  Si  Si80  1  0.50000000  0.88161518  0.88634120  1
  Si  Si81  1  0.50000000  0.11838482  0.11365880  1
  Si  Si82  1  0.50000000  0.38161518  0.61365880  1
  Si  Si83  1  0.50000000  0.61838482  0.38634120  1
  Si  Si84  1  0.50000000  0.92655620  0.98497598  1
  Si  Si85  1  0.50000000  0.07344380  0.01502402  1
  Si  Si86  1  0.50000000  0.42655620  0.51502402  1
  Si  Si87  1  0.50000000  0.57344380  0.48497598  1
  Sr  Sr88  1  0.74837865  0.00000000  0.50000000  1
  Sr  Sr89  1  0.25162135  0.50000000  0.00000000  1
  Sr  Sr90  1  0.25162135  0.00000000  0.50000000  1
  Sr  Sr91  1  0.74837865  0.50000000  0.00000000  1
  Sr  Sr92  1  0.00000000  0.65453072  0.87570289  1
  Sr  Sr93  1  0.00000000  0.34546928  0.12429711  1
  Sr  Sr94  1  0.00000000  0.15453072  0.62429711  1
  Sr  Sr95  1  0.00000000  0.84546928  0.37570289  1
  Sr  Sr96  1  0.50000000  0.54126611  0.15730576  1
  Sr  Sr97  1  0.50000000  0.45873389  0.84269424  1
  Sr  Sr98  1  0.50000000  0.04126611  0.34269424  1
  Sr  Sr99  1  0.50000000  0.95873389  0.65730576  1
  Sr  Sr100  1  0.26350344  0.77681774  0.96393729  1
  Sr  Sr101  1  0.26350344  0.22318226  0.03606271  1
  Sr  Sr102  1  0.73649656  0.27681774  0.53606271  1
  Sr  Sr103  1  0.73649656  0.72318226  0.46393729  1
  Sr  Sr104  1  0.73649656  0.22318226  0.03606271  1
  Sr  Sr105  1  0.73649656  0.77681774  0.96393729  1
  Sr  Sr106  1  0.26350344  0.72318226  0.46393729  1
  Sr  Sr107  1  0.26350344  0.27681774  0.53606271  1
  Sr  Sr108  1  0.23669876  0.71279201  0.12444578  1
  Sr  Sr109  1  0.23669876  0.28720799  0.87555422  1
  Sr  Sr110  1  0.76330124  0.21279201  0.37555422  1
  Sr  Sr111  1  0.76330124  0.78720799  0.62444578  1
  Sr  Sr112  1  0.76330124  0.28720799  0.87555422  1
  Sr  Sr113  1  0.76330124  0.71279201  0.12444578  1
  Sr  Sr114  1  0.23669876  0.78720799  0.62444578  1
  Sr  Sr115  1  0.23669876  0.21279201  0.37555422  1
  Sr  Sr116  1  0.25033141  0.97049627  0.08499010  1
  Sr  Sr117  1  0.25033141  0.02950373  0.91500990  1
  Sr  Sr118  1  0.74966859  0.47049627  0.41500990  1
  Sr  Sr119  1  0.74966859  0.52950373  0.58499010  1
  Sr  Sr120  1  0.74966859  0.02950373  0.91500990  1
  Sr  Sr121  1  0.74966859  0.97049627  0.08499010  1
  Sr  Sr122  1  0.25033141  0.52950373  0.58499010  1
  Sr  Sr123  1  0.25033141  0.47049627  0.41500990  1
  Sr  Sr124  1  0.24943861  0.65005921  0.29467405  1
  Sr  Sr125  1  0.24943861  0.34994079  0.70532595  1
  Sr  Sr126  1  0.75056139  0.15005921  0.20532595  1
  Sr  Sr127  1  0.75056139  0.84994079  0.79467405  1
  Sr  Sr128  1  0.75056139  0.34994079  0.70532595  1
  Sr  Sr129  1  0.75056139  0.65005921  0.29467405  1
  Sr  Sr130  1  0.24943861  0.84994079  0.79467405  1
  Sr  Sr131  1  0.24943861  0.15005921  0.20532595  1
  Sr  Sr132  1  0.24931183  0.39474206  0.25550438  1
  Sr  Sr133  1  0.24931183  0.60525794  0.74449562  1
  Sr  Sr134  1  0.75068817  0.89474206  0.24449562  1
  Sr  Sr135  1  0.75068817  0.10525794  0.75550438  1
  Sr  Sr136  1  0.75068817  0.60525794  0.74449562  1
  Sr  Sr137  1  0.75068817  0.39474206  0.25550438  1
  Sr  Sr138  1  0.24931183  0.10525794  0.75550438  1
  Sr  Sr139  1  0.24931183  0.89474206  0.24449562  1
