# generated using pymatgen
data_Gd3CCl3
_symmetry_space_group_name_H-M   'P 1'
_cell_length_a   9.38614441
_cell_length_b   9.38614441
_cell_length_c   9.38614441
_cell_angle_alpha   109.47122063
_cell_angle_beta   109.47122063
_cell_angle_gamma   109.47122063
_symmetry_Int_Tables_number   1
_chemical_formula_structural   Gd3CCl3
_chemical_formula_sum   'Gd12 C4 Cl12'
_cell_volume   636.56067276
_cell_formula_units_Z   4
loop_
 _symmetry_equiv_pos_site_id
 _symmetry_equiv_pos_as_xyz
  1  'x, y, z'
loop_
 _atom_site_type_symbol
 _atom_site_label
 _atom_site_symmetry_multiplicity
 _atom_site_fract_x
 _atom_site_fract_y
 _atom_site_fract_z
 _atom_site_occupancy
  Gd  Gd0  1  0.48229500  0.75000000  0.01770500  1
  Gd  Gd1  1  0.75000000  0.23229500  0.26770500  1
  Gd  Gd2  1  0.23229500  0.26770500  0.75000000  1
  Gd  Gd3  1  0.46459100  0.48229500  0.23229500  1
  Gd  Gd4  1  0.26770500  0.01770500  0.03540900  1
  Gd  Gd5  1  0.23229500  0.46459100  0.48229500  1
  Gd  Gd6  1  0.01770500  0.03540900  0.26770500  1
  Gd  Gd7  1  0.01770500  0.48229500  0.75000000  1
  Gd  Gd8  1  0.48229500  0.23229500  0.46459100  1
  Gd  Gd9  1  0.75000000  0.01770500  0.48229500  1
  Gd  Gd10  1  0.03540900  0.26770500  0.01770500  1
  Gd  Gd11  1  0.26770500  0.75000000  0.23229500  1
  C  C12  1  0.25000000  0.25000000  0.25000000  1
  C  C13  1  0.00000000  0.25000000  0.50000000  1
  C  C14  1  0.25000000  0.50000000  0.00000000  1
  C  C15  1  0.50000000  0.00000000  0.25000000  1
  Cl  Cl16  1  0.99312800  0.98625700  0.74312800  1
  Cl  Cl17  1  0.75687200  0.74312800  0.25000000  1
  Cl  Cl18  1  0.98625700  0.74312800  0.99312800  1
  Cl  Cl19  1  0.25000000  0.99312800  0.50687200  1
  Cl  Cl20  1  0.74312800  0.99312800  0.98625700  1
  Cl  Cl21  1  0.50687200  0.25000000  0.99312800  1
  Cl  Cl22  1  0.74312800  0.25000000  0.75687200  1
  Cl  Cl23  1  0.50687200  0.75687200  0.51374300  1
  Cl  Cl24  1  0.75687200  0.51374300  0.50687200  1
  Cl  Cl25  1  0.25000000  0.75687200  0.74312800  1
  Cl  Cl26  1  0.51374300  0.50687200  0.75687200  1
  Cl  Cl27  1  0.99312800  0.50687200  0.25000000  1
