# generated using pymatgen
data_Rb3BiSe3
_symmetry_space_group_name_H-M   'P 1'
_cell_length_a   10.38729500
_cell_length_b   10.38729500
_cell_length_c   10.38729500
_cell_angle_alpha   90.00000000
_cell_angle_beta   90.00000000
_cell_angle_gamma   90.00000000
_symmetry_Int_Tables_number   1
_chemical_formula_structural   Rb3BiSe3
_chemical_formula_sum   'Rb12 Bi4 Se12'
_cell_volume   1120.74651576
_cell_formula_units_Z   4
loop_
 _symmetry_equiv_pos_site_id
 _symmetry_equiv_pos_as_xyz
  1  'x, y, z'
loop_
 _atom_site_type_symbol
 _atom_site_label
 _atom_site_symmetry_multiplicity
 _atom_site_fract_x
 _atom_site_fract_y
 _atom_site_fract_z
 _atom_site_occupancy
  Rb  Rb0  1  0.31989200  0.31989200  0.31989200  1
  Rb  Rb1  1  0.18010800  0.68010800  0.81989200  1
  Rb  Rb2  1  0.81989200  0.18010800  0.68010800  1
  Rb  Rb3  1  0.68010800  0.81989200  0.18010800  1
  Rb  Rb4  1  0.57237200  0.57237200  0.57237200  1
  Rb  Rb5  1  0.92762800  0.42762800  0.07237200  1
  Rb  Rb6  1  0.07237200  0.92762800  0.42762800  1
  Rb  Rb7  1  0.42762800  0.07237200  0.92762800  1
  Rb  Rb8  1  0.81209200  0.81209200  0.81209200  1
  Rb  Rb9  1  0.68790800  0.18790800  0.31209200  1
  Rb  Rb10  1  0.31209200  0.68790800  0.18790800  1
  Rb  Rb11  1  0.18790800  0.31209200  0.68790800  1
  Bi  Bi12  1  0.02977400  0.02977400  0.02977400  1
  Bi  Bi13  1  0.47022600  0.97022600  0.52977400  1
  Bi  Bi14  1  0.52977400  0.47022600  0.97022600  1
  Bi  Bi15  1  0.97022600  0.52977400  0.47022600  1
  Se  Se16  1  0.21686800  0.60650400  0.49735600  1
  Se  Se17  1  0.49735600  0.21686800  0.60650400  1
  Se  Se18  1  0.60650400  0.49735600  0.21686800  1
  Se  Se19  1  0.89349600  0.50264400  0.71686800  1
  Se  Se20  1  0.99735600  0.28313200  0.39349600  1
  Se  Se21  1  0.39349600  0.99735600  0.28313200  1
  Se  Se22  1  0.00264400  0.78313200  0.10650400  1
  Se  Se23  1  0.50264400  0.71686800  0.89349600  1
  Se  Se24  1  0.10650400  0.00264400  0.78313200  1
  Se  Se25  1  0.71686800  0.89349600  0.50264400  1
  Se  Se26  1  0.78313200  0.10650400  0.00264400  1
  Se  Se27  1  0.28313200  0.39349600  0.99735600  1
