# generated using pymatgen
data_K3B6BrO10
_symmetry_space_group_name_H-M   'P 1'
_cell_length_a   6.62621122
_cell_length_b   6.62621122
_cell_length_c   6.62621159
_cell_angle_alpha   100.86405373
_cell_angle_beta   100.86405373
_cell_angle_gamma   100.86406361
_symmetry_Int_Tables_number   1
_chemical_formula_structural   K3B6BrO10
_chemical_formula_sum   'K3 B6 Br1 O10'
_cell_volume   272.92661677
_cell_formula_units_Z   1
loop_
 _symmetry_equiv_pos_site_id
 _symmetry_equiv_pos_as_xyz
  1  'x, y, z'
loop_
 _atom_site_type_symbol
 _atom_site_label
 _atom_site_symmetry_multiplicity
 _atom_site_fract_x
 _atom_site_fract_y
 _atom_site_fract_z
 _atom_site_occupancy
  K  K0  1  0.92996100  0.92996100  0.47183200  1
  K  K1  1  0.92996100  0.47183200  0.92996100  1
  K  K2  1  0.47183200  0.92996100  0.92996100  1
  B  B3  1  0.35882200  0.35882200  0.62117800  1
  B  B4  1  0.35882200  0.62117800  0.35882200  1
  B  B5  1  0.62117800  0.35882200  0.35882200  1
  B  B6  1  0.47831800  0.03120900  0.47831800  1
  B  B7  1  0.47831800  0.47831800  0.03120900  1
  B  B8  1  0.03120900  0.47831800  0.47831800  1
  Br  Br9  1  0.99464800  0.99464800  0.99464800  1
  O  O10  1  0.82582600  0.48676000  0.48676000  1
  O  O11  1  0.44321500  0.44321500  0.44321500  1
  O  O12  1  0.48676000  0.82582600  0.48676000  1
  O  O13  1  0.48676000  0.48676000  0.82582600  1
  O  O14  1  0.13511300  0.36626100  0.60001200  1
  O  O15  1  0.60001200  0.13511300  0.36626100  1
  O  O16  1  0.36626100  0.60001200  0.13511300  1
  O  O17  1  0.36626100  0.13511300  0.60001200  1
  O  O18  1  0.60001200  0.36626100  0.13511300  1
  O  O19  1  0.13511300  0.60001200  0.36626100  1
