# generated using pymatgen
data_YSiPd2
_symmetry_space_group_name_H-M   'P 1'
_cell_length_a   5.53618100
_cell_length_b   7.00969400
_cell_length_c   7.36814600
_cell_angle_alpha   90.00000000
_cell_angle_beta   90.00000000
_cell_angle_gamma   90.00000000
_symmetry_Int_Tables_number   1
_chemical_formula_structural   YSiPd2
_chemical_formula_sum   'Y4 Si4 Pd8'
_cell_volume   285.93516097
_cell_formula_units_Z   4
loop_
 _symmetry_equiv_pos_site_id
 _symmetry_equiv_pos_as_xyz
  1  'x, y, z'
loop_
 _atom_site_type_symbol
 _atom_site_label
 _atom_site_symmetry_multiplicity
 _atom_site_fract_x
 _atom_site_fract_y
 _atom_site_fract_z
 _atom_site_occupancy
  Y  Y0  1  0.13953300  0.25000000  0.97162800  1
  Y  Y1  1  0.36046700  0.25000000  0.47162800  1
  Y  Y2  1  0.63953300  0.75000000  0.52837200  1
  Y  Y3  1  0.86046700  0.75000000  0.02837200  1
  Si  Si4  1  0.35952700  0.75000000  0.87794300  1
  Si  Si5  1  0.64047300  0.25000000  0.12205700  1
  Si  Si6  1  0.85952700  0.25000000  0.62205700  1
  Si  Si7  1  0.14047300  0.75000000  0.37794300  1
  Pd  Pd8  1  0.09484000  0.55213600  0.67746500  1
  Pd  Pd9  1  0.09484000  0.94786400  0.67746500  1
  Pd  Pd10  1  0.40516000  0.55213600  0.17746500  1
  Pd  Pd11  1  0.90516000  0.44786400  0.32253500  1
  Pd  Pd12  1  0.59484000  0.44786400  0.82253500  1
  Pd  Pd13  1  0.90516000  0.05213600  0.32253500  1
  Pd  Pd14  1  0.40516000  0.94786400  0.17746500  1
  Pd  Pd15  1  0.59484000  0.05213600  0.82253500  1
