# generated using pymatgen
data_BaSe2O5
_symmetry_space_group_name_H-M   'P 1'
_cell_length_a   12.05553700
_cell_length_b   4.61744800
_cell_length_c   9.96688584
_cell_angle_alpha   87.43680390
_cell_angle_beta   90.00000000
_cell_angle_gamma   90.00000000
_symmetry_Int_Tables_number   1
_chemical_formula_structural   BaSe2O5
_chemical_formula_sum   'Ba4 Se8 O20'
_cell_volume   554.25973478
_cell_formula_units_Z   4
loop_
 _symmetry_equiv_pos_site_id
 _symmetry_equiv_pos_as_xyz
  1  'x, y, z'
loop_
 _atom_site_type_symbol
 _atom_site_label
 _atom_site_symmetry_multiplicity
 _atom_site_fract_x
 _atom_site_fract_y
 _atom_site_fract_z
 _atom_site_occupancy
  Ba  Ba0  1  0.66835600  0.24173400  0.03896900  1
  Ba  Ba1  1  0.16835600  0.75826600  0.46103100  1
  Ba  Ba2  1  0.33164400  0.75826600  0.96103100  1
  Ba  Ba3  1  0.83164400  0.24173400  0.53896900  1
  Se  Se4  1  0.60392000  0.81911900  0.74303000  1
  Se  Se5  1  0.10392000  0.18088100  0.75697000  1
  Se  Se6  1  0.39608000  0.18088100  0.25697000  1
  Se  Se7  1  0.89608000  0.81911900  0.24303000  1
  Se  Se8  1  0.58319300  0.72892300  0.35405300  1
  Se  Se9  1  0.08319300  0.27107700  0.14594700  1
  Se  Se10  1  0.41680700  0.27107700  0.64594700  1
  Se  Se11  1  0.91680700  0.72892300  0.85405300  1
  O  O12  1  0.55873300  0.76125100  0.90411900  1
  O  O13  1  0.05873300  0.23874900  0.59588100  1
  O  O14  1  0.44126700  0.23874900  0.09588100  1
  O  O15  1  0.94126700  0.76125100  0.40411900  1
  O  O16  1  0.65547800  0.16130500  0.74099100  1
  O  O17  1  0.15547800  0.83869500  0.75900900  1
  O  O18  1  0.34452200  0.83869500  0.25900900  1
  O  O19  1  0.84452200  0.16130500  0.24099100  1
  O  O20  1  0.53647800  0.11709200  0.34172100  1
  O  O21  1  0.03647800  0.88290800  0.15827900  1
  O  O22  1  0.46352200  0.88290800  0.65827900  1
  O  O23  1  0.96352200  0.11709200  0.84172100  1
  O  O24  1  0.85767300  0.71198700  0.70018600  1
  O  O25  1  0.35767300  0.28801300  0.79981400  1
  O  O26  1  0.14232700  0.28801300  0.29981400  1
  O  O27  1  0.64232700  0.71198700  0.20018600  1
  O  O28  1  0.80909100  0.76371500  0.96120100  1
  O  O29  1  0.30909100  0.23628500  0.53879900  1
  O  O30  1  0.19090900  0.23628500  0.03879900  1
  O  O31  1  0.69090900  0.76371500  0.46120100  1
