# generated using pymatgen
data_UNCl
_symmetry_space_group_name_H-M   'P 1'
_cell_length_a   3.87015800
_cell_length_b   3.87015800
_cell_length_c   7.14652200
_cell_angle_alpha   90.00000000
_cell_angle_beta   90.00000000
_cell_angle_gamma   90.00000000
_symmetry_Int_Tables_number   1
_chemical_formula_structural   UNCl
_chemical_formula_sum   'U2 N2 Cl2'
_cell_volume   107.04148514
_cell_formula_units_Z   2
loop_
 _symmetry_equiv_pos_site_id
 _symmetry_equiv_pos_as_xyz
  1  'x, y, z'
loop_
 _atom_site_type_symbol
 _atom_site_label
 _atom_site_symmetry_multiplicity
 _atom_site_fract_x
 _atom_site_fract_y
 _atom_site_fract_z
 _atom_site_occupancy
  U  U0  1  0.50000000  0.00000000  0.16182900  1
  U  U1  1  0.00000000  0.50000000  0.83817100  1
  N  N2  1  0.00000000  0.00000000  0.00000000  1
  N  N3  1  0.50000000  0.50000000  0.00000000  1
  Cl  Cl4  1  0.50000000  0.00000000  0.62773600  1
  Cl  Cl5  1  0.00000000  0.50000000  0.37226400  1
