# generated using pymatgen
data_NdTa3O9
_symmetry_space_group_name_H-M   'P 1'
_cell_length_a   7.61296500
_cell_length_b   5.43975100
_cell_length_c   8.30865142
_cell_angle_alpha   87.57651383
_cell_angle_beta   90.00000000
_cell_angle_gamma   90.00000000
_symmetry_Int_Tables_number   1
_chemical_formula_structural   NdTa3O9
_chemical_formula_sum   'Nd2 Ta6 O18'
_cell_volume   343.77538538
_cell_formula_units_Z   2
loop_
 _symmetry_equiv_pos_site_id
 _symmetry_equiv_pos_as_xyz
  1  'x, y, z'
loop_
 _atom_site_type_symbol
 _atom_site_label
 _atom_site_symmetry_multiplicity
 _atom_site_fract_x
 _atom_site_fract_y
 _atom_site_fract_z
 _atom_site_occupancy
  Nd  Nd0  1  0.75000000  0.03452900  0.56546600  1
  Nd  Nd1  1  0.25000000  0.96547100  0.43453400  1
  Ta  Ta2  1  0.49324900  0.52675100  0.69825200  1
  Ta  Ta3  1  0.99324900  0.47324900  0.30174800  1
  Ta  Ta4  1  0.50000000  0.00000000  0.00000000  1
  Ta  Ta5  1  0.00000000  0.00000000  0.00000000  1
  Ta  Ta6  1  0.00675100  0.52675100  0.69825200  1
  Ta  Ta7  1  0.50675100  0.47324900  0.30174800  1
  O  O8  1  0.75000000  0.43939600  0.68674900  1
  O  O9  1  0.25000000  0.56060400  0.31325100  1
  O  O10  1  0.75000000  0.08352100  0.01763200  1
  O  O11  1  0.25000000  0.91647900  0.98236800  1
  O  O12  1  0.25000000  0.64794600  0.66100600  1
  O  O13  1  0.75000000  0.35205400  0.33899400  1
  O  O14  1  0.03789900  0.26478100  0.53267100  1
  O  O15  1  0.53789900  0.73521900  0.46732900  1
  O  O16  1  0.55702400  0.84508300  0.78738000  1
  O  O17  1  0.05702400  0.15491700  0.21262000  1
  O  O18  1  0.44297600  0.15491700  0.21262000  1
  O  O19  1  0.94297600  0.84508300  0.78738000  1
  O  O20  1  0.04698600  0.31805300  0.87750200  1
  O  O21  1  0.54698600  0.68194700  0.12249800  1
  O  O22  1  0.95301400  0.68194700  0.12249800  1
  O  O23  1  0.45301400  0.31805300  0.87750200  1
  O  O24  1  0.46210100  0.26478100  0.53267100  1
  O  O25  1  0.96210100  0.73521900  0.46732900  1
