# generated using pymatgen
data_Ca3Al2Ge3
_symmetry_space_group_name_H-M   'P 1'
_cell_length_a   4.36935700
_cell_length_b   11.43867300
_cell_length_c   14.84085900
_cell_angle_alpha   90.00000000
_cell_angle_beta   90.00000000
_cell_angle_gamma   90.00000000
_symmetry_Int_Tables_number   1
_chemical_formula_structural   Ca3Al2Ge3
_chemical_formula_sum   'Ca12 Al8 Ge12'
_cell_volume   741.74087831
_cell_formula_units_Z   4
loop_
 _symmetry_equiv_pos_site_id
 _symmetry_equiv_pos_as_xyz
  1  'x, y, z'
loop_
 _atom_site_type_symbol
 _atom_site_label
 _atom_site_symmetry_multiplicity
 _atom_site_fract_x
 _atom_site_fract_y
 _atom_site_fract_z
 _atom_site_occupancy
  Ca  Ca0  1  0.25000000  0.89447900  0.56605300  1
  Ca  Ca1  1  0.75000000  0.10552100  0.43394700  1
  Ca  Ca2  1  0.25000000  0.39447900  0.93394700  1
  Ca  Ca3  1  0.75000000  0.60552100  0.06605300  1
  Ca  Ca4  1  0.25000000  0.60506500  0.43756900  1
  Ca  Ca5  1  0.75000000  0.39493500  0.56243100  1
  Ca  Ca6  1  0.25000000  0.10506500  0.06243100  1
  Ca  Ca7  1  0.75000000  0.89493500  0.93756900  1
  Ca  Ca8  1  0.75000000  0.37747600  0.29683500  1
  Ca  Ca9  1  0.25000000  0.62252400  0.70316500  1
  Ca  Ca10  1  0.75000000  0.87747600  0.20316500  1
  Ca  Ca11  1  0.25000000  0.12252400  0.79683500  1
  Al  Al12  1  0.75000000  0.85700900  0.70896400  1
  Al  Al13  1  0.25000000  0.14299100  0.29103600  1
  Al  Al14  1  0.75000000  0.35700900  0.79103600  1
  Al  Al15  1  0.25000000  0.64299100  0.20896400  1
  Al  Al16  1  0.25000000  0.68353200  0.91194800  1
  Al  Al17  1  0.75000000  0.31646800  0.08805200  1
  Al  Al18  1  0.25000000  0.18353200  0.58805200  1
  Al  Al19  1  0.75000000  0.81646800  0.41194800  1
  Ge  Ge20  1  0.25000000  0.92875500  0.36104900  1
  Ge  Ge21  1  0.75000000  0.07124500  0.63895100  1
  Ge  Ge22  1  0.25000000  0.42875500  0.13895100  1
  Ge  Ge23  1  0.75000000  0.57124500  0.86104900  1
  Ge  Ge24  1  0.25000000  0.85977900  0.79974000  1
  Ge  Ge25  1  0.75000000  0.14022100  0.20026000  1
  Ge  Ge26  1  0.25000000  0.35977900  0.70026000  1
  Ge  Ge27  1  0.75000000  0.64022100  0.29974000  1
  Ge  Ge28  1  0.25000000  0.30101200  0.43382100  1
  Ge  Ge29  1  0.75000000  0.69898800  0.56617900  1
  Ge  Ge30  1  0.25000000  0.80101200  0.06617900  1
  Ge  Ge31  1  0.75000000  0.19898800  0.93382100  1
