# generated using pymatgen
data_YbF3
_symmetry_space_group_name_H-M   'P 1'
_cell_length_a   4.14281400
_cell_length_b   6.49728300
_cell_length_c   7.15615400
_cell_angle_alpha   90.00000000
_cell_angle_beta   90.00000000
_cell_angle_gamma   90.00000000
_symmetry_Int_Tables_number   1
_chemical_formula_structural   YbF3
_chemical_formula_sum   'Yb4 F12'
_cell_volume   192.62244750
_cell_formula_units_Z   4
loop_
 _symmetry_equiv_pos_site_id
 _symmetry_equiv_pos_as_xyz
  1  'x, y, z'
loop_
 _atom_site_type_symbol
 _atom_site_label
 _atom_site_symmetry_multiplicity
 _atom_site_fract_x
 _atom_site_fract_y
 _atom_site_fract_z
 _atom_site_occupancy
  Yb  Yb0  1  0.93286700  0.61350700  0.75000000  1
  Yb  Yb1  1  0.43286700  0.88649300  0.25000000  1
  Yb  Yb2  1  0.56713300  0.11350700  0.75000000  1
  Yb  Yb3  1  0.06713300  0.38649300  0.25000000  1
  F  F4  1  0.07209400  0.96142800  0.75000000  1
  F  F5  1  0.57209400  0.53857200  0.25000000  1
  F  F6  1  0.42790600  0.46142800  0.75000000  1
  F  F7  1  0.92790600  0.03857200  0.25000000  1
  F  F8  1  0.38222900  0.18229700  0.05243100  1
  F  F9  1  0.88222900  0.31770300  0.94756900  1
  F  F10  1  0.11777100  0.68229700  0.44756900  1
  F  F11  1  0.61777100  0.81770300  0.55243100  1
  F  F12  1  0.61777100  0.81770300  0.94756900  1
  F  F13  1  0.11777100  0.68229700  0.05243100  1
  F  F14  1  0.88222900  0.31770300  0.55243100  1
  F  F15  1  0.38222900  0.18229700  0.44756900  1
