# generated using pymatgen
data_YCl3
_symmetry_space_group_name_H-M   'P 1'
_cell_length_a   6.99301942
_cell_length_b   6.99301942
_cell_length_c   7.06619981
_cell_angle_alpha   80.23461154
_cell_angle_beta   80.23461154
_cell_angle_gamma   119.85276783
_symmetry_Int_Tables_number   1
_chemical_formula_structural   YCl3
_chemical_formula_sum   'Y2 Cl6'
_cell_volume   282.01137026
_cell_formula_units_Z   2
loop_
 _symmetry_equiv_pos_site_id
 _symmetry_equiv_pos_as_xyz
  1  'x, y, z'
loop_
 _atom_site_type_symbol
 _atom_site_label
 _atom_site_symmetry_multiplicity
 _atom_site_fract_x
 _atom_site_fract_y
 _atom_site_fract_z
 _atom_site_occupancy
  Y  Y0  1  0.16651300  0.83348700  0.00000000  1
  Y  Y1  1  0.83348700  0.16651300  0.00000000  1
  Cl  Cl2  1  0.94973800  0.57652700  0.77588500  1
  Cl  Cl3  1  0.42347300  0.05026200  0.22411500  1
  Cl  Cl4  1  0.80141800  0.80141800  0.22910300  1
  Cl  Cl5  1  0.19858200  0.19858200  0.77089700  1
  Cl  Cl6  1  0.57652700  0.94973800  0.77588500  1
  Cl  Cl7  1  0.05026200  0.42347300  0.22411500  1
