# generated using pymatgen
data_SBr
_symmetry_space_group_name_H-M   'P 1'
_cell_length_a   4.75365386
_cell_length_b   4.75365386
_cell_length_c   14.25809500
_cell_angle_alpha   90.00000000
_cell_angle_beta   90.00000000
_cell_angle_gamma   108.49930724
_symmetry_Int_Tables_number   1
_chemical_formula_structural   SBr
_chemical_formula_sum   'S4 Br4'
_cell_volume   305.54484063
_cell_formula_units_Z   4
loop_
 _symmetry_equiv_pos_site_id
 _symmetry_equiv_pos_as_xyz
  1  'x, y, z'
loop_
 _atom_site_type_symbol
 _atom_site_label
 _atom_site_symmetry_multiplicity
 _atom_site_fract_x
 _atom_site_fract_y
 _atom_site_fract_z
 _atom_site_occupancy
  S  S0  1  0.80590000  0.61559400  0.04382100  1
  S  S1  1  0.61559400  0.80590000  0.95617900  1
  S  S2  1  0.30590000  0.11559400  0.45617900  1
  S  S3  1  0.11559400  0.30590000  0.54382100  1
  Br  Br4  1  0.04463900  0.93486700  0.16010600  1
  Br  Br5  1  0.93486700  0.04463900  0.83989400  1
  Br  Br6  1  0.54463900  0.43486700  0.33989400  1
  Br  Br7  1  0.43486700  0.54463900  0.66010600  1
