# generated using pymatgen
data_CeBO3
_symmetry_space_group_name_H-M   'P 1'
_cell_length_a   5.11314600
_cell_length_b   4.13628300
_cell_length_c   6.34451639
_cell_angle_alpha   71.63380685
_cell_angle_beta   90.00000000
_cell_angle_gamma   90.00000000
_symmetry_Int_Tables_number   1
_chemical_formula_structural   CeBO3
_chemical_formula_sum   'Ce2 B2 O6'
_cell_volume   127.34784186
_cell_formula_units_Z   2
loop_
 _symmetry_equiv_pos_site_id
 _symmetry_equiv_pos_as_xyz
  1  'x, y, z'
loop_
 _atom_site_type_symbol
 _atom_site_label
 _atom_site_symmetry_multiplicity
 _atom_site_fract_x
 _atom_site_fract_y
 _atom_site_fract_z
 _atom_site_occupancy
  Ce  Ce0  1  0.75000000  0.38510500  0.77751800  1
  Ce  Ce1  1  0.25000000  0.61489500  0.22248200  1
  B  B2  1  0.75000000  0.99852300  0.25557200  1
  B  B3  1  0.25000000  0.00147700  0.74442800  1
  O  O4  1  0.25000000  0.33583700  0.60916400  1
  O  O5  1  0.75000000  0.66416300  0.39083600  1
  O  O6  1  0.01637700  0.84302100  0.82718600  1
  O  O7  1  0.51637700  0.15697900  0.17281400  1
  O  O8  1  0.98362300  0.15697900  0.17281400  1
  O  O9  1  0.48362300  0.84302100  0.82718600  1
