# generated using pymatgen
data_LiCo(PO3)4
_symmetry_space_group_name_H-M   'P 1'
_cell_length_a   8.39892100
_cell_length_b   9.27823600
_cell_length_c   12.73813200
_cell_angle_alpha   90.00000000
_cell_angle_beta   90.00000000
_cell_angle_gamma   90.00000000
_symmetry_Int_Tables_number   1
_chemical_formula_structural   LiCo(PO3)4
_chemical_formula_sum   'Li4 Co4 P16 O48'
_cell_volume   992.64659292
_cell_formula_units_Z   4
loop_
 _symmetry_equiv_pos_site_id
 _symmetry_equiv_pos_as_xyz
  1  'x, y, z'
loop_
 _atom_site_type_symbol
 _atom_site_label
 _atom_site_symmetry_multiplicity
 _atom_site_fract_x
 _atom_site_fract_y
 _atom_site_fract_z
 _atom_site_occupancy
  Li  Li0  1  0.50318500  0.75000000  0.50000000  1
  Li  Li1  1  0.49681500  0.25000000  0.50000000  1
  Li  Li2  1  0.99681500  0.25000000  0.00000000  1
  Li  Li3  1  0.00318500  0.75000000  0.00000000  1
  Co  Co4  1  0.86758700  0.75000000  0.50000000  1
  Co  Co5  1  0.63241300  0.25000000  0.00000000  1
  Co  Co6  1  0.13241300  0.25000000  0.50000000  1
  Co  Co7  1  0.36758700  0.75000000  0.00000000  1
  P  P8  1  0.81870600  0.00484700  0.13896400  1
  P  P9  1  0.81870600  0.49515300  0.86103600  1
  P  P10  1  0.18129400  0.50484700  0.13896400  1
  P  P11  1  0.68129400  0.99515300  0.63896400  1
  P  P12  1  0.03499300  0.51067000  0.35109200  1
  P  P13  1  0.46500700  0.48933000  0.85109300  1
  P  P14  1  0.03499300  0.98933000  0.64890700  1
  P  P15  1  0.31870600  0.00484700  0.36103600  1
  P  P16  1  0.96500700  0.01067000  0.35109200  1
  P  P17  1  0.68129400  0.50484700  0.36103600  1
  P  P18  1  0.31870600  0.49515300  0.63896400  1
  P  P19  1  0.53499300  0.51067000  0.14890800  1
  P  P20  1  0.18129400  0.99515300  0.86103600  1
  P  P21  1  0.46500700  0.01067000  0.14890800  1
  P  P22  1  0.53499300  0.98933000  0.85109300  1
  P  P23  1  0.96500700  0.48933000  0.64890700  1
  O  O24  1  0.36958700  0.87750200  0.12157500  1
  O  O25  1  0.30899400  0.36628300  0.56516300  1
  O  O26  1  0.10486200  0.92582200  0.75556100  1
  O  O27  1  0.64213600  0.53647400  0.82003300  1
  O  O28  1  0.53508500  0.63082100  0.06968200  1
  O  O29  1  0.59571700  0.12595700  0.60471500  1
  O  O30  1  0.40428300  0.62595700  0.60471500  1
  O  O31  1  0.85786400  0.46352600  0.32003300  1
  O  O32  1  0.80899400  0.36628300  0.93483700  1
  O  O33  1  0.53508500  0.86917900  0.93031800  1
  O  O34  1  0.40428300  0.87404300  0.39528500  1
  O  O35  1  0.64213600  0.96352600  0.17996700  1
  O  O36  1  0.96491500  0.13082100  0.43031800  1
  O  O37  1  0.60486200  0.92582200  0.74443900  1
  O  O38  1  0.46491500  0.13082100  0.06968200  1
  O  O39  1  0.90428300  0.62595700  0.89528500  1
  O  O40  1  0.03508500  0.63082100  0.43031800  1
  O  O41  1  0.96491500  0.36917900  0.56968200  1
  O  O42  1  0.10486200  0.57417800  0.24443900  1
  O  O43  1  0.89513800  0.42582200  0.75556100  1
  O  O44  1  0.19100600  0.63371700  0.06516300  1
  O  O45  1  0.59571700  0.37404300  0.39528500  1
  O  O46  1  0.63041300  0.12249800  0.87842500  1
  O  O47  1  0.63041300  0.37750200  0.12157500  1
  O  O48  1  0.46491500  0.36917900  0.93031800  1
  O  O49  1  0.89513800  0.07417800  0.24443900  1
  O  O50  1  0.85786400  0.03647400  0.67996700  1
  O  O51  1  0.14213600  0.53647400  0.67996700  1
  O  O52  1  0.80899400  0.13371700  0.06516300  1
  O  O53  1  0.09571700  0.37404300  0.10471500  1
  O  O54  1  0.19100600  0.86628300  0.93483700  1
  O  O55  1  0.14213600  0.96352600  0.32003300  1
  O  O56  1  0.39513800  0.07417800  0.25556100  1
  O  O57  1  0.13041300  0.37750200  0.37842500  1
  O  O58  1  0.13041300  0.12249800  0.62157500  1
  O  O59  1  0.39513800  0.42582200  0.74443900  1
  O  O60  1  0.69100600  0.86628300  0.56516300  1
  O  O61  1  0.35786400  0.46352600  0.17996700  1
  O  O62  1  0.30899400  0.13371700  0.43483700  1
  O  O63  1  0.69100600  0.63371700  0.43483700  1
  O  O64  1  0.35786400  0.03647400  0.82003300  1
  O  O65  1  0.90428300  0.87404300  0.10471500  1
  O  O66  1  0.86958700  0.87750200  0.37842500  1
  O  O67  1  0.36958700  0.62249800  0.87842500  1
  O  O68  1  0.60486200  0.57417800  0.25556100  1
  O  O69  1  0.09571700  0.12595700  0.89528500  1
  O  O70  1  0.03508500  0.86917900  0.56968200  1
  O  O71  1  0.86958700  0.62249800  0.62157500  1
