# generated using pymatgen
data_CoO
_symmetry_space_group_name_H-M   'P 1'
_cell_length_a   4.59788059
_cell_length_b   4.59790365
_cell_length_c   5.62464534
_cell_angle_alpha   113.98280965
_cell_angle_beta   66.01816390
_cell_angle_gamma   89.87342398
_symmetry_Int_Tables_number   1
_chemical_formula_structural   CoO
_chemical_formula_sum   'Co4 O4'
_cell_volume   97.24749745
_cell_formula_units_Z   4
loop_
 _symmetry_equiv_pos_site_id
 _symmetry_equiv_pos_as_xyz
  1  'x, y, z'
loop_
 _atom_site_type_symbol
 _atom_site_label
 _atom_site_symmetry_multiplicity
 _atom_site_fract_x
 _atom_site_fract_y
 _atom_site_fract_z
 _atom_site_occupancy
  Co  Co0  1  0.00007100  0.99977700  0.00014700  1
  Co  Co1  1  0.25022500  0.24992900  0.50014900  1
  Co  Co2  1  0.50007900  0.49977300  0.00014300  1
  Co  Co3  1  0.75023000  0.74992000  0.50014400  1
  O  O4  1  0.87481300  0.12513000  0.74985600  1
  O  O5  1  0.12486500  0.37518700  0.24985400  1
  O  O6  1  0.37484600  0.62513300  0.74985500  1
  O  O7  1  0.62487300  0.87515200  0.24985300  1
