# generated using pymatgen
data_XeN2(OF4)2
_symmetry_space_group_name_H-M   'P 1'
_cell_length_a   6.02040800
_cell_length_b   9.08971000
_cell_length_c   13.32052700
_cell_angle_alpha   90.00000000
_cell_angle_beta   90.00000000
_cell_angle_gamma   90.00000000
_symmetry_Int_Tables_number   1
_chemical_formula_structural   XeN2(OF4)2
_chemical_formula_sum   'Xe4 N8 O8 F32'
_cell_volume   728.94935994
_cell_formula_units_Z   4
loop_
 _symmetry_equiv_pos_site_id
 _symmetry_equiv_pos_as_xyz
  1  'x, y, z'
loop_
 _atom_site_type_symbol
 _atom_site_label
 _atom_site_symmetry_multiplicity
 _atom_site_fract_x
 _atom_site_fract_y
 _atom_site_fract_z
 _atom_site_occupancy
  Xe  Xe0  1  0.25000000  0.28731100  0.37429500  1
  Xe  Xe1  1  0.75000000  0.71268900  0.62570500  1
  Xe  Xe2  1  0.25000000  0.78731100  0.12570500  1
  Xe  Xe3  1  0.75000000  0.21268900  0.87429500  1
  N  N4  1  0.75000000  0.07945600  0.53179500  1
  N  N5  1  0.75000000  0.49360000  0.21814900  1
  N  N6  1  0.25000000  0.50640000  0.78185100  1
  N  N7  1  0.75000000  0.99360000  0.28185100  1
  N  N8  1  0.25000000  0.42054400  0.03179500  1
  N  N9  1  0.75000000  0.57945600  0.96820500  1
  N  N10  1  0.25000000  0.00640000  0.71814900  1
  N  N11  1  0.25000000  0.92054400  0.46820500  1
  O  O12  1  0.25000000  0.44116000  0.71190400  1
  O  O13  1  0.75000000  0.55884000  0.28809600  1
  O  O14  1  0.25000000  0.94116000  0.78809600  1
  O  O15  1  0.75000000  0.68758000  0.93012000  1
  O  O16  1  0.25000000  0.31242000  0.06988000  1
  O  O17  1  0.75000000  0.18758000  0.56988000  1
  O  O18  1  0.75000000  0.05884000  0.21190400  1
  O  O19  1  0.25000000  0.81242000  0.43012000  1
  F  F20  1  0.53386900  0.37434500  0.43426500  1
  F  F21  1  0.03386900  0.12565500  0.93426500  1
  F  F22  1  0.96613100  0.37434500  0.43426500  1
  F  F23  1  0.46613100  0.62565500  0.56573500  1
  F  F24  1  0.52615600  0.41892600  0.88604900  1
  F  F25  1  0.02615600  0.58107400  0.11395100  1
  F  F26  1  0.97384400  0.91892600  0.61395100  1
  F  F27  1  0.53386900  0.87434500  0.06573500  1
  F  F28  1  0.47384400  0.58107400  0.11395100  1
  F  F29  1  0.97384400  0.41892600  0.88604900  1
  F  F30  1  0.02615600  0.08107400  0.38604900  1
  F  F31  1  0.52615600  0.91892600  0.61395100  1
  F  F32  1  0.53221100  0.21433500  0.74895200  1
  F  F33  1  0.03221100  0.78566500  0.25104800  1
  F  F34  1  0.96778900  0.71433500  0.75104800  1
  F  F35  1  0.46778900  0.28566500  0.24895200  1
  F  F36  1  0.46778900  0.78566500  0.25104800  1
  F  F37  1  0.96778900  0.21433500  0.74895200  1
  F  F38  1  0.03221100  0.28566500  0.24895200  1
  F  F39  1  0.53221100  0.71433500  0.75104800  1
  F  F40  1  0.96613100  0.87434500  0.06573500  1
  F  F41  1  0.46613100  0.12565500  0.93426500  1
  F  F42  1  0.25000000  0.50322300  0.33087800  1
  F  F43  1  0.75000000  0.49677700  0.66912200  1
  F  F44  1  0.25000000  0.00322300  0.16912200  1
  F  F45  1  0.75000000  0.99677700  0.83087800  1
  F  F46  1  0.25000000  0.22781400  0.52628800  1
  F  F47  1  0.75000000  0.77218600  0.47371200  1
  F  F48  1  0.25000000  0.72781400  0.97371200  1
  F  F49  1  0.75000000  0.27218600  0.02628800  1
  F  F50  1  0.47384400  0.08107400  0.38604900  1
  F  F51  1  0.03386900  0.62565500  0.56573500  1
