# generated using pymatgen
data_Hg2P2O7
_symmetry_space_group_name_H-M   'P 1'
_cell_length_a   6.82829300
_cell_length_b   7.02887890
_cell_length_c   7.21282050
_cell_angle_alpha   77.64922640
_cell_angle_beta   67.47964602
_cell_angle_gamma   80.19622751
_symmetry_Int_Tables_number   1
_chemical_formula_structural   Hg2P2O7
_chemical_formula_sum   'Hg4 P4 O14'
_cell_volume   310.88074134
_cell_formula_units_Z   2
loop_
 _symmetry_equiv_pos_site_id
 _symmetry_equiv_pos_as_xyz
  1  'x, y, z'
loop_
 _atom_site_type_symbol
 _atom_site_label
 _atom_site_symmetry_multiplicity
 _atom_site_fract_x
 _atom_site_fract_y
 _atom_site_fract_z
 _atom_site_occupancy
  Hg  Hg0  1  0.10380100  0.17317600  0.24656100  1
  Hg  Hg1  1  0.89619900  0.82682400  0.75343900  1
  Hg  Hg2  1  0.30283800  0.31674500  0.62290300  1
  Hg  Hg3  1  0.69716200  0.68325500  0.37709700  1
  P  P4  1  0.21209200  0.65979000  0.26290100  1
  P  P5  1  0.78790800  0.34021000  0.73709900  1
  P  P6  1  0.35856200  0.87061500  0.83215100  1
  P  P7  1  0.64143800  0.12938500  0.16784900  1
  O  O8  1  0.22408400  0.76720400  0.76645200  1
  O  O9  1  0.77591600  0.23279600  0.23354800  1
  O  O10  1  0.08045000  0.51924700  0.23567800  1
  O  O11  1  0.91955000  0.48075300  0.76432200  1
  O  O12  1  0.26204700  0.08122500  0.87982900  1
  O  O13  1  0.73795300  0.91877500  0.12017100  1
  O  O14  1  0.37054800  0.55865300  0.36943700  1
  O  O15  1  0.62945200  0.44134700  0.63056300  1
  O  O16  1  0.62234100  0.24942700  0.95637400  1
  O  O17  1  0.37765900  0.75057300  0.04362600  1
  O  O18  1  0.93441900  0.16934300  0.63825400  1
  O  O19  1  0.06558100  0.83065700  0.36174600  1
  O  O20  1  0.40941200  0.12923700  0.31822200  1
  O  O21  1  0.59058800  0.87076300  0.68177800  1
