# generated using pymatgen
data_BCl3
_symmetry_space_group_name_H-M   'P 1'
_cell_length_a   6.47779026
_cell_length_b   6.47779026
_cell_length_c   7.65588200
_cell_angle_alpha   90.00000000
_cell_angle_beta   90.00000000
_cell_angle_gamma   120.00000265
_symmetry_Int_Tables_number   1
_chemical_formula_structural   BCl3
_chemical_formula_sum   'B2 Cl6'
_cell_volume   278.21440685
_cell_formula_units_Z   2
loop_
 _symmetry_equiv_pos_site_id
 _symmetry_equiv_pos_as_xyz
  1  'x, y, z'
loop_
 _atom_site_type_symbol
 _atom_site_label
 _atom_site_symmetry_multiplicity
 _atom_site_fract_x
 _atom_site_fract_y
 _atom_site_fract_z
 _atom_site_occupancy
  B  B0  1  0.33333300  0.66666700  0.25000000  1
  B  B1  1  0.66666700  0.33333300  0.75000000  1
  Cl  Cl2  1  0.06878600  0.39316600  0.25000000  1
  Cl  Cl3  1  0.67562000  0.06878600  0.75000000  1
  Cl  Cl4  1  0.39316600  0.32438000  0.75000000  1
  Cl  Cl5  1  0.60683400  0.67562000  0.25000000  1
  Cl  Cl6  1  0.32438000  0.93121400  0.25000000  1
  Cl  Cl7  1  0.93121400  0.60683400  0.75000000  1
