# generated using pymatgen
data_U(CrC)4
_symmetry_space_group_name_H-M   'P 1'
_cell_length_a   5.82324103
_cell_length_b   5.82324103
_cell_length_c   5.82324103
_cell_angle_alpha   93.85633740
_cell_angle_beta   93.85633740
_cell_angle_gamma   149.93870871
_symmetry_Int_Tables_number   1
_chemical_formula_structural   U(CrC)4
_chemical_formula_sum   'U1 Cr4 C4'
_cell_volume   95.53212913
_cell_formula_units_Z   1
loop_
 _symmetry_equiv_pos_site_id
 _symmetry_equiv_pos_as_xyz
  1  'x, y, z'
loop_
 _atom_site_type_symbol
 _atom_site_label
 _atom_site_symmetry_multiplicity
 _atom_site_fract_x
 _atom_site_fract_y
 _atom_site_fract_z
 _atom_site_occupancy
  U  U0  1  0.00000000  0.00000000  0.00000000  1
  Cr  Cr1  1  0.82072300  0.63527800  0.45600000  1
  Cr  Cr2  1  0.17927700  0.36472200  0.54400000  1
  Cr  Cr3  1  0.63527800  0.17927700  0.81455500  1
  Cr  Cr4  1  0.36472200  0.82072300  0.18544500  1
  C  C5  1  0.26503000  0.59592500  0.86095600  1
  C  C6  1  0.73497000  0.40407500  0.13904400  1
  C  C7  1  0.59592500  0.73497000  0.33089500  1
  C  C8  1  0.40407500  0.26503000  0.66910500  1
