# generated using pymatgen
data_Nb3Cl7
_symmetry_space_group_name_H-M   'P 1'
_cell_length_a   9.53383052
_cell_length_b   9.53383052
_cell_length_c   11.30520700
_cell_angle_alpha   90.00000000
_cell_angle_beta   90.00000000
_cell_angle_gamma   91.64748642
_symmetry_Int_Tables_number   1
_chemical_formula_structural   Nb3Cl7
_chemical_formula_sum   'Nb12 Cl28'
_cell_volume   1027.14986236
_cell_formula_units_Z   4
loop_
 _symmetry_equiv_pos_site_id
 _symmetry_equiv_pos_as_xyz
  1  'x, y, z'
loop_
 _atom_site_type_symbol
 _atom_site_label
 _atom_site_symmetry_multiplicity
 _atom_site_fract_x
 _atom_site_fract_y
 _atom_site_fract_z
 _atom_site_occupancy
  Nb  Nb0  1  0.12868200  0.12868200  0.90919900  1
  Nb  Nb1  1  0.37131800  0.37131800  0.40919900  1
  Nb  Nb2  1  0.62868200  0.62868200  0.59080100  1
  Nb  Nb3  1  0.87131800  0.87131800  0.09080100  1
  Nb  Nb4  1  0.16616000  0.94820400  0.11245200  1
  Nb  Nb5  1  0.33384000  0.55179600  0.61245200  1
  Nb  Nb6  1  0.44820400  0.66616000  0.38754800  1
  Nb  Nb7  1  0.05179600  0.83384000  0.88754800  1
  Nb  Nb8  1  0.83384000  0.05179600  0.88754800  1
  Nb  Nb9  1  0.66616000  0.44820400  0.38754800  1
  Nb  Nb10  1  0.55179600  0.33384000  0.61245200  1
  Nb  Nb11  1  0.94820400  0.16616000  0.11245200  1
  Cl  Cl12  1  0.38260700  0.88260700  0.25000000  1
  Cl  Cl13  1  0.11739300  0.61739300  0.75000000  1
  Cl  Cl14  1  0.61739300  0.11739300  0.75000000  1
  Cl  Cl15  1  0.88260700  0.38260700  0.25000000  1
  Cl  Cl16  1  0.34948600  0.10148800  0.01722300  1
  Cl  Cl17  1  0.15051400  0.39851200  0.51722300  1
  Cl  Cl18  1  0.60148800  0.84948600  0.48277700  1
  Cl  Cl19  1  0.89851200  0.65051400  0.98277700  1
  Cl  Cl20  1  0.65051400  0.89851200  0.98277700  1
  Cl  Cl21  1  0.84948600  0.60148800  0.48277700  1
  Cl  Cl22  1  0.39851200  0.15051400  0.51722300  1
  Cl  Cl23  1  0.10148800  0.34948600  0.01722300  1
  Cl  Cl24  1  0.74766500  0.25233500  0.00000000  1
  Cl  Cl25  1  0.75233500  0.24766500  0.50000000  1
  Cl  Cl26  1  0.25233500  0.74766500  0.00000000  1
  Cl  Cl27  1  0.24766500  0.75233500  0.50000000  1
  Cl  Cl28  1  0.13538300  0.13538300  0.26459500  1
  Cl  Cl29  1  0.36461700  0.36461700  0.76459500  1
  Cl  Cl30  1  0.63538300  0.63538300  0.23540500  1
  Cl  Cl31  1  0.86461700  0.86461700  0.73540500  1
  Cl  Cl32  1  0.28422500  0.53076400  0.25775300  1
  Cl  Cl33  1  0.21577500  0.96923600  0.75775300  1
  Cl  Cl34  1  0.03076400  0.78422500  0.24224700  1
  Cl  Cl35  1  0.46923600  0.71577500  0.74224700  1
  Cl  Cl36  1  0.71577500  0.46923600  0.74224700  1
  Cl  Cl37  1  0.78422500  0.03076400  0.24224700  1
  Cl  Cl38  1  0.96923600  0.21577500  0.75775300  1
  Cl  Cl39  1  0.53076400  0.28422500  0.25775300  1
