# generated using pymatgen
data_SmIn2Rh
_symmetry_space_group_name_H-M   'P 1'
_cell_length_a   5.58762834
_cell_length_b   5.58762834
_cell_length_c   7.99717700
_cell_angle_alpha   90.00000000
_cell_angle_beta   90.00000000
_cell_angle_gamma   133.14834927
_symmetry_Int_Tables_number   1
_chemical_formula_structural   SmIn2Rh
_chemical_formula_sum   'Sm2 In4 Rh2'
_cell_volume   182.16623657
_cell_formula_units_Z   2
loop_
 _symmetry_equiv_pos_site_id
 _symmetry_equiv_pos_as_xyz
  1  'x, y, z'
loop_
 _atom_site_type_symbol
 _atom_site_label
 _atom_site_symmetry_multiplicity
 _atom_site_fract_x
 _atom_site_fract_y
 _atom_site_fract_z
 _atom_site_occupancy
  Sm  Sm0  1  0.06718100  0.93281900  0.25000000  1
  Sm  Sm1  1  0.93281900  0.06718100  0.75000000  1
  In  In2  1  0.64492200  0.35507800  0.55077000  1
  In  In3  1  0.35507800  0.64492200  0.44923000  1
  In  In4  1  0.64492200  0.35507800  0.94923000  1
  In  In5  1  0.35507800  0.64492200  0.05077000  1
  Rh  Rh6  1  0.21514200  0.78485800  0.75000000  1
  Rh  Rh7  1  0.78485800  0.21514200  0.25000000  1
