# generated using pymatgen
data_Os(SCl6)2
_symmetry_space_group_name_H-M   'P 1'
_cell_length_a   8.44628166
_cell_length_b   8.44628166
_cell_length_c   8.44628247
_cell_angle_alpha   78.64562470
_cell_angle_beta   78.64562470
_cell_angle_gamma   78.64562177
_symmetry_Int_Tables_number   1
_chemical_formula_structural   Os(SCl6)2
_chemical_formula_sum   'Os1 S2 Cl12'
_cell_volume   571.31011907
_cell_formula_units_Z   1
loop_
 _symmetry_equiv_pos_site_id
 _symmetry_equiv_pos_as_xyz
  1  'x, y, z'
loop_
 _atom_site_type_symbol
 _atom_site_label
 _atom_site_symmetry_multiplicity
 _atom_site_fract_x
 _atom_site_fract_y
 _atom_site_fract_z
 _atom_site_occupancy
  Os  Os0  1  0.00000000  0.00000000  0.00000000  1
  S  S1  1  0.20866600  0.20866600  0.20866600  1
  S  S2  1  0.79133400  0.79133400  0.79133400  1
  Cl  Cl3  1  0.83559000  0.83559000  0.54055600  1
  Cl  Cl4  1  0.87427100  0.18191600  0.18191600  1
  Cl  Cl5  1  0.18191600  0.18191600  0.87427100  1
  Cl  Cl6  1  0.18191600  0.87427100  0.18191600  1
  Cl  Cl7  1  0.81808400  0.12572900  0.81808400  1
  Cl  Cl8  1  0.12572900  0.81808400  0.81808400  1
  Cl  Cl9  1  0.81808400  0.81808400  0.12572900  1
  Cl  Cl10  1  0.45944400  0.16441000  0.16441000  1
  Cl  Cl11  1  0.16441000  0.16441000  0.45944400  1
  Cl  Cl12  1  0.16441000  0.45944400  0.16441000  1
  Cl  Cl13  1  0.83559000  0.54055600  0.83559000  1
  Cl  Cl14  1  0.54055600  0.83559000  0.83559000  1
