# generated using pymatgen
data_NaIn2Au
_symmetry_space_group_name_H-M   'P 1'
_cell_length_a   5.71953925
_cell_length_b   5.71953925
_cell_length_c   8.04896400
_cell_angle_alpha   90.00000000
_cell_angle_beta   90.00000000
_cell_angle_gamma   132.58678573
_symmetry_Int_Tables_number   1
_chemical_formula_structural   NaIn2Au
_chemical_formula_sum   'Na2 In4 Au2'
_cell_volume   193.86046766
_cell_formula_units_Z   2
loop_
 _symmetry_equiv_pos_site_id
 _symmetry_equiv_pos_as_xyz
  1  'x, y, z'
loop_
 _atom_site_type_symbol
 _atom_site_label
 _atom_site_symmetry_multiplicity
 _atom_site_fract_x
 _atom_site_fract_y
 _atom_site_fract_z
 _atom_site_occupancy
  Na  Na0  1  0.42974300  0.57025700  0.25000000  1
  Na  Na1  1  0.57025700  0.42974300  0.75000000  1
  In  In2  1  0.85972500  0.14027500  0.94726900  1
  In  In3  1  0.14027500  0.85972500  0.05273100  1
  In  In4  1  0.14027500  0.85972500  0.44726900  1
  In  In5  1  0.85972500  0.14027500  0.55273100  1
  Au  Au6  1  0.71570800  0.28429200  0.25000000  1
  Au  Au7  1  0.28429200  0.71570800  0.75000000  1
