# generated using pymatgen
data_K3AuSe13
_symmetry_space_group_name_H-M   'P 1'
_cell_length_a   5.10224300
_cell_length_b   13.89959000
_cell_length_c   15.34597186
_cell_angle_alpha   85.57193731
_cell_angle_beta   90.00000000
_cell_angle_gamma   90.00000000
_symmetry_Int_Tables_number   1
_chemical_formula_structural   K3AuSe13
_chemical_formula_sum   'K6 Au2 Se26'
_cell_volume   1085.07371409
_cell_formula_units_Z   2
loop_
 _symmetry_equiv_pos_site_id
 _symmetry_equiv_pos_as_xyz
  1  'x, y, z'
loop_
 _atom_site_type_symbol
 _atom_site_label
 _atom_site_symmetry_multiplicity
 _atom_site_fract_x
 _atom_site_fract_y
 _atom_site_fract_z
 _atom_site_occupancy
  K  K0  1  0.20140100  0.16393000  0.72180000  1
  K  K1  1  0.20140100  0.33607000  0.27820000  1
  K  K2  1  0.16282300  0.25000000  0.00000000  1
  K  K3  1  0.83717700  0.75000000  0.00000000  1
  K  K4  1  0.79859900  0.83607000  0.27820000  1
  K  K5  1  0.79859900  0.66393000  0.72180000  1
  Au  Au6  1  0.00000000  0.50000000  0.50000000  1
  Au  Au7  1  0.00000000  0.00000000  0.50000000  1
  Se  Se8  1  0.29786000  0.55057900  0.61967400  1
  Se  Se9  1  0.64495400  0.57687900  0.26872100  1
  Se  Se10  1  0.35504600  0.07687900  0.26872100  1
  Se  Se11  1  0.35504600  0.42312100  0.73127900  1
  Se  Se12  1  0.92351000  0.53494600  0.15044500  1
  Se  Se13  1  0.92351000  0.96505400  0.84955500  1
  Se  Se14  1  0.07649000  0.46505400  0.84955500  1
  Se  Se15  1  0.07649000  0.03494600  0.15044500  1
  Se  Se16  1  0.68115200  0.42081000  0.07337200  1
  Se  Se17  1  0.64495400  0.92312100  0.73127900  1
  Se  Se18  1  0.31884800  0.57919000  0.92662800  1
  Se  Se19  1  0.31884800  0.92081000  0.07337200  1
  Se  Se20  1  0.69257600  0.26672000  0.15121500  1
  Se  Se21  1  0.69257600  0.23328000  0.84878500  1
  Se  Se22  1  0.30742400  0.73328000  0.84878500  1
  Se  Se23  1  0.30742400  0.76672000  0.15121500  1
  Se  Se24  1  0.09732200  0.65783200  0.41297100  1
  Se  Se25  1  0.09732200  0.84216800  0.58702900  1
  Se  Se26  1  0.90267800  0.34216800  0.58702900  1
  Se  Se27  1  0.90267800  0.15783200  0.41297100  1
  Se  Se28  1  0.62862500  0.25000000  0.50000000  1
  Se  Se29  1  0.37137500  0.75000000  0.50000000  1
  Se  Se30  1  0.70214000  0.44942100  0.38032600  1
  Se  Se31  1  0.70214000  0.05057900  0.61967400  1
  Se  Se32  1  0.68115200  0.07919000  0.92662800  1
  Se  Se33  1  0.29786000  0.94942100  0.38032600  1
