# generated using pymatgen
data_Sn15Os3O14
_symmetry_space_group_name_H-M   'P 1'
_cell_length_a   7.26012716
_cell_length_b   7.26012716
_cell_length_c   13.15431426
_cell_angle_alpha   74.05183942
_cell_angle_beta   74.05183942
_cell_angle_gamma   59.57295222
_symmetry_Int_Tables_number   1
_chemical_formula_structural   Sn15Os3O14
_chemical_formula_sum   'Sn15 Os3 O14'
_cell_volume   567.11018682
_cell_formula_units_Z   1
loop_
 _symmetry_equiv_pos_site_id
 _symmetry_equiv_pos_as_xyz
  1  'x, y, z'
loop_
 _atom_site_type_symbol
 _atom_site_label
 _atom_site_symmetry_multiplicity
 _atom_site_fract_x
 _atom_site_fract_y
 _atom_site_fract_z
 _atom_site_occupancy
  Sn  Sn0  1  0.32917600  0.85336800  0.08882000  1
  Sn  Sn1  1  0.42336500  0.90484600  0.34672500  1
  Sn  Sn2  1  0.90484600  0.42336500  0.34672500  1
  Sn  Sn3  1  0.98556900  0.98556900  0.61904400  1
  Sn  Sn4  1  0.09058700  0.57070300  0.83795000  1
  Sn  Sn5  1  0.57070300  0.09058700  0.83795000  1
  Sn  Sn6  1  0.84968200  0.84968200  0.08031100  1
  Sn  Sn7  1  0.55733500  0.55733500  0.87256700  1
  Sn  Sn8  1  0.90456900  0.90456900  0.34101100  1
  Sn  Sn9  1  0.99540100  0.51092500  0.57445800  1
  Sn  Sn10  1  0.51092500  0.99540100  0.57445800  1
  Sn  Sn11  1  0.51291900  0.51291900  0.57910300  1
  Sn  Sn12  1  0.09746400  0.09746400  0.82259900  1
  Sn  Sn13  1  0.85336800  0.32917600  0.08882000  1
  Sn  Sn14  1  0.32112500  0.32112500  0.11120900  1
  Os  Os15  1  0.71141600  0.71141600  0.96512400  1
  Os  Os16  1  0.11590800  0.11590800  0.23116400  1
  Os  Os17  1  0.30219200  0.30219200  0.69441800  1
  O  O18  1  0.77538200  0.77538200  0.25179900  1
  O  O19  1  0.76405500  0.25649600  0.81570800  1
  O  O20  1  0.25649600  0.76405500  0.81570800  1
  O  O21  1  0.02348100  0.57512800  0.40675000  1
  O  O22  1  0.57512800  0.02348100  0.40675000  1
  O  O23  1  0.65554200  0.65554200  0.63238700  1
  O  O24  1  0.57588700  0.57588700  0.41049100  1
  O  O25  1  0.37595000  0.37595000  0.94240200  1
  O  O26  1  0.87664100  0.87664100  0.52643900  1
  O  O27  1  0.04225400  0.04225400  0.99028100  1
  O  O28  1  0.30550900  0.87637700  0.53276300  1
  O  O29  1  0.87637700  0.30550900  0.53276300  1
  O  O30  1  0.18241900  0.64703900  0.11488700  1
  O  O31  1  0.64703900  0.18241900  0.11488700  1
