# generated using pymatgen
data_SrGePt
_symmetry_space_group_name_H-M   'P 1'
_cell_length_a   6.69206300
_cell_length_b   6.69206300
_cell_length_c   6.69206300
_cell_angle_alpha   90.00000000
_cell_angle_beta   90.00000000
_cell_angle_gamma   90.00000000
_symmetry_Int_Tables_number   1
_chemical_formula_structural   SrGePt
_chemical_formula_sum   'Sr4 Ge4 Pt4'
_cell_volume   299.69538993
_cell_formula_units_Z   4
loop_
 _symmetry_equiv_pos_site_id
 _symmetry_equiv_pos_as_xyz
  1  'x, y, z'
loop_
 _atom_site_type_symbol
 _atom_site_label
 _atom_site_symmetry_multiplicity
 _atom_site_fract_x
 _atom_site_fract_y
 _atom_site_fract_z
 _atom_site_occupancy
  Sr  Sr0  1  0.13584100  0.13584100  0.13584100  1
  Sr  Sr1  1  0.36415900  0.86415900  0.63584100  1
  Sr  Sr2  1  0.63584100  0.36415900  0.86415900  1
  Sr  Sr3  1  0.86415900  0.63584100  0.36415900  1
  Ge  Ge4  1  0.16547800  0.33452200  0.66547800  1
  Ge  Ge5  1  0.33452200  0.66547800  0.16547800  1
  Ge  Ge6  1  0.66547800  0.16547800  0.33452200  1
  Ge  Ge7  1  0.83452200  0.83452200  0.83452200  1
  Pt  Pt8  1  0.58260500  0.91739500  0.08260500  1
  Pt  Pt9  1  0.91739500  0.08260500  0.58260500  1
  Pt  Pt10  1  0.08260500  0.58260500  0.91739500  1
  Pt  Pt11  1  0.41739500  0.41739500  0.41739500  1
