# generated using pymatgen
data_EuNb8O14
_symmetry_space_group_name_H-M   'P 1'
_cell_length_a   6.02347500
_cell_length_b   9.32952700
_cell_length_c   10.41730800
_cell_angle_alpha   90.00000000
_cell_angle_beta   90.00000000
_cell_angle_gamma   90.00000000
_symmetry_Int_Tables_number   1
_chemical_formula_structural   EuNb8O14
_chemical_formula_sum   'Eu2 Nb16 O28'
_cell_volume   585.41283888
_cell_formula_units_Z   2
loop_
 _symmetry_equiv_pos_site_id
 _symmetry_equiv_pos_as_xyz
  1  'x, y, z'
loop_
 _atom_site_type_symbol
 _atom_site_label
 _atom_site_symmetry_multiplicity
 _atom_site_fract_x
 _atom_site_fract_y
 _atom_site_fract_z
 _atom_site_occupancy
  Eu  Eu0  1  0.50000000  0.50000000  0.00000000  1
  Eu  Eu1  1  0.50000000  0.00000000  0.50000000  1
  Nb  Nb2  1  0.00000000  0.38515300  0.16409400  1
  Nb  Nb3  1  0.00000000  0.61484700  0.83590600  1
  Nb  Nb4  1  0.00000000  0.88515300  0.33590600  1
  Nb  Nb5  1  0.00000000  0.11484700  0.66409400  1
  Nb  Nb6  1  0.50000000  0.37958000  0.66400900  1
  Nb  Nb7  1  0.50000000  0.62042000  0.33599100  1
  Nb  Nb8  1  0.50000000  0.87958000  0.83599100  1
  Nb  Nb9  1  0.50000000  0.12042000  0.16400900  1
  Nb  Nb10  1  0.73164900  0.62588800  0.57684000  1
  Nb  Nb11  1  0.73164900  0.37411200  0.42316000  1
  Nb  Nb12  1  0.26835100  0.12588800  0.92316000  1
  Nb  Nb13  1  0.26835100  0.87411200  0.07684000  1
  Nb  Nb14  1  0.26835100  0.37411200  0.42316000  1
  Nb  Nb15  1  0.26835100  0.62588800  0.57684000  1
  Nb  Nb16  1  0.73164900  0.87411200  0.07684000  1
  Nb  Nb17  1  0.73164900  0.12588800  0.92316000  1
  O  O18  1  0.74555900  0.50405500  0.75282400  1
  O  O19  1  0.74555900  0.49594500  0.24717600  1
  O  O20  1  0.25444100  0.00405500  0.74717600  1
  O  O21  1  0.25444100  0.99594500  0.25282400  1
  O  O22  1  0.25444100  0.49594500  0.24717600  1
  O  O23  1  0.25444100  0.50405500  0.75282400  1
  O  O24  1  0.74555900  0.99594500  0.25282400  1
  O  O25  1  0.74555900  0.00405500  0.74717600  1
  O  O26  1  0.25604600  0.73728300  0.91452900  1
  O  O27  1  0.25604600  0.26271700  0.08547100  1
  O  O28  1  0.74395400  0.23728300  0.58547100  1
  O  O29  1  0.74395400  0.76271700  0.41452900  1
  O  O30  1  0.74395400  0.26271700  0.08547100  1
  O  O31  1  0.74395400  0.73728300  0.91452900  1
  O  O32  1  0.25604600  0.76271700  0.41452900  1
  O  O33  1  0.25604600  0.23728300  0.58547100  1
  O  O34  1  0.00000000  0.50000000  0.00000000  1
  O  O35  1  0.00000000  0.00000000  0.50000000  1
  O  O36  1  0.00000000  0.23508800  0.82031300  1
  O  O37  1  0.00000000  0.76491200  0.17968700  1
  O  O38  1  0.00000000  0.73508800  0.67968700  1
  O  O39  1  0.00000000  0.26491200  0.32031300  1
  O  O40  1  0.50000000  0.23434900  0.34953700  1
  O  O41  1  0.50000000  0.76565100  0.65046300  1
  O  O42  1  0.50000000  0.73434900  0.15046300  1
  O  O43  1  0.50000000  0.26565100  0.84953700  1
  O  O44  1  0.00000000  0.00000000  0.00000000  1
  O  O45  1  0.00000000  0.50000000  0.50000000  1
