# generated using pymatgen
data_KCuCl3
_symmetry_space_group_name_H-M   'P 1'
_cell_length_a   13.88051100
_cell_length_b   4.27680600
_cell_length_c   8.96519450
_cell_angle_alpha   79.85471078
_cell_angle_beta   90.00000000
_cell_angle_gamma   90.00000000
_symmetry_Int_Tables_number   1
_chemical_formula_structural   KCuCl3
_chemical_formula_sum   'K4 Cu4 Cl12'
_cell_volume   523.89053952
_cell_formula_units_Z   4
loop_
 _symmetry_equiv_pos_site_id
 _symmetry_equiv_pos_as_xyz
  1  'x, y, z'
loop_
 _atom_site_type_symbol
 _atom_site_label
 _atom_site_symmetry_multiplicity
 _atom_site_fract_x
 _atom_site_fract_y
 _atom_site_fract_z
 _atom_site_occupancy
  K  K0  1  0.83248000  0.77931200  0.44128500  1
  K  K1  1  0.33248000  0.22068800  0.05871500  1
  K  K2  1  0.16752000  0.22068800  0.55871500  1
  K  K3  1  0.66752000  0.77931200  0.94128500  1
  Cu  Cu4  1  0.54976700  0.24236400  0.34509600  1
  Cu  Cu5  1  0.04976700  0.75763600  0.15490400  1
  Cu  Cu6  1  0.45023300  0.75763600  0.65490400  1
  Cu  Cu7  1  0.95023300  0.24236400  0.84509600  1
  Cl  Cl8  1  0.99102000  0.33764600  0.32181100  1
  Cl  Cl9  1  0.09824500  0.16749700  0.96465500  1
  Cl  Cl10  1  0.40175500  0.16749700  0.46465500  1
  Cl  Cl11  1  0.90175500  0.83250300  0.03534500  1
  Cl  Cl12  1  0.80152800  0.27769300  0.73985000  1
  Cl  Cl13  1  0.30152800  0.72230700  0.76015000  1
  Cl  Cl14  1  0.19847200  0.72230700  0.26015000  1
  Cl  Cl15  1  0.49102000  0.66235400  0.17818900  1
  Cl  Cl16  1  0.00898000  0.66235400  0.67818900  1
  Cl  Cl17  1  0.50898000  0.33764600  0.82181100  1
  Cl  Cl18  1  0.69847200  0.27769300  0.23985000  1
  Cl  Cl19  1  0.59824500  0.83250300  0.53534500  1
