# generated using pymatgen
data_SnClF
_symmetry_space_group_name_H-M   'P 1'
_cell_length_a   4.40368100
_cell_length_b   6.33017000
_cell_length_c   10.53781200
_cell_angle_alpha   90.00000000
_cell_angle_beta   90.00000000
_cell_angle_gamma   90.00000000
_symmetry_Int_Tables_number   1
_chemical_formula_structural   SnClF
_chemical_formula_sum   'Sn4 Cl4 F4'
_cell_volume   293.75256741
_cell_formula_units_Z   4
loop_
 _symmetry_equiv_pos_site_id
 _symmetry_equiv_pos_as_xyz
  1  'x, y, z'
loop_
 _atom_site_type_symbol
 _atom_site_label
 _atom_site_symmetry_multiplicity
 _atom_site_fract_x
 _atom_site_fract_y
 _atom_site_fract_z
 _atom_site_occupancy
  Sn  Sn0  1  0.25000000  0.21678100  0.92102300  1
  Sn  Sn1  1  0.75000000  0.78321900  0.07897700  1
  Sn  Sn2  1  0.25000000  0.71678100  0.57897700  1
  Sn  Sn3  1  0.75000000  0.28321900  0.42102300  1
  Cl  Cl4  1  0.75000000  0.09782000  0.63626700  1
  Cl  Cl5  1  0.25000000  0.90218000  0.36373300  1
  Cl  Cl6  1  0.75000000  0.59782000  0.86373300  1
  Cl  Cl7  1  0.25000000  0.40218000  0.13626700  1
  F  F8  1  0.25000000  0.39759500  0.47826900  1
  F  F9  1  0.75000000  0.60240500  0.52173100  1
  F  F10  1  0.25000000  0.89759500  0.02173100  1
  F  F11  1  0.75000000  0.10240500  0.97826900  1
