# generated using pymatgen
data_CsPbF3
_symmetry_space_group_name_H-M   'P 1'
_cell_length_a   6.83781742
_cell_length_b   6.83781742
_cell_length_c   6.83781737
_cell_angle_alpha   61.19552194
_cell_angle_beta   61.19552194
_cell_angle_gamma   61.19551689
_symmetry_Int_Tables_number   1
_chemical_formula_structural   CsPbF3
_chemical_formula_sum   'Cs2 Pb2 F6'
_cell_volume   232.14681542
_cell_formula_units_Z   2
loop_
 _symmetry_equiv_pos_site_id
 _symmetry_equiv_pos_as_xyz
  1  'x, y, z'
loop_
 _atom_site_type_symbol
 _atom_site_label
 _atom_site_symmetry_multiplicity
 _atom_site_fract_x
 _atom_site_fract_y
 _atom_site_fract_z
 _atom_site_occupancy
  Cs  Cs0  1  0.75945900  0.75945900  0.75945900  1
  Cs  Cs1  1  0.25945900  0.25945900  0.25945900  1
  Pb  Pb2  1  0.00550500  0.00550500  0.00550500  1
  Pb  Pb3  1  0.50550500  0.50550500  0.50550500  1
  F  F4  1  0.70912900  0.22633800  0.81436900  1
  F  F5  1  0.22633800  0.81436900  0.70912900  1
  F  F6  1  0.81436900  0.70912900  0.22633800  1
  F  F7  1  0.31436900  0.72633800  0.20912900  1
  F  F8  1  0.20912900  0.31436900  0.72633800  1
  F  F9  1  0.72633800  0.20912900  0.31436900  1
