# generated using pymatgen
data_Tl5Se2I
_symmetry_space_group_name_H-M   'P 1'
_cell_length_a   9.43577854
_cell_length_b   9.43577854
_cell_length_c   9.43577854
_cell_angle_alpha   124.09339512
_cell_angle_beta   124.09339512
_cell_angle_gamma   83.04515543
_symmetry_Int_Tables_number   1
_chemical_formula_structural   Tl5Se2I
_chemical_formula_sum   'Tl10 Se4 I2'
_cell_volume   552.81999864
_cell_formula_units_Z   2
loop_
 _symmetry_equiv_pos_site_id
 _symmetry_equiv_pos_as_xyz
  1  'x, y, z'
loop_
 _atom_site_type_symbol
 _atom_site_label
 _atom_site_symmetry_multiplicity
 _atom_site_fract_x
 _atom_site_fract_y
 _atom_site_fract_z
 _atom_site_occupancy
  Tl  Tl0  1  0.27919800  0.49097600  0.50000000  1
  Tl  Tl1  1  0.77919800  0.27919800  0.78822200  1
  Tl  Tl2  1  0.49097600  0.99097600  0.21177800  1
  Tl  Tl3  1  0.22080200  0.72080200  0.21177800  1
  Tl  Tl4  1  0.99097600  0.77919800  0.50000000  1
  Tl  Tl5  1  0.72080200  0.50902400  0.50000000  1
  Tl  Tl6  1  0.00902400  0.22080200  0.50000000  1
  Tl  Tl7  1  0.50902400  0.00902400  0.78822200  1
  Tl  Tl8  1  0.00000000  0.00000000  0.00000000  1
  Tl  Tl9  1  0.50000000  0.50000000  0.00000000  1
  Se  Se10  1  0.83804400  0.33804400  0.17608800  1
  Se  Se11  1  0.33804400  0.16195600  0.50000000  1
  Se  Se12  1  0.66195600  0.83804400  0.50000000  1
  Se  Se13  1  0.16195600  0.66195600  0.82391200  1
  I  I14  1  0.25000000  0.25000000  0.00000000  1
  I  I15  1  0.75000000  0.75000000  0.00000000  1
