# generated using pymatgen
data_BeH8(NF2)2
_symmetry_space_group_name_H-M   'P 1'
_cell_length_a   5.98728700
_cell_length_b   10.77168600
_cell_length_c   15.29826700
_cell_angle_alpha   90.00000000
_cell_angle_beta   90.00000000
_cell_angle_gamma   90.00000000
_symmetry_Int_Tables_number   1
_chemical_formula_structural   BeH8(NF2)2
_chemical_formula_sum   'Be8 H64 N16 F32'
_cell_volume   986.63381933
_cell_formula_units_Z   8
loop_
 _symmetry_equiv_pos_site_id
 _symmetry_equiv_pos_as_xyz
  1  'x, y, z'
loop_
 _atom_site_type_symbol
 _atom_site_label
 _atom_site_symmetry_multiplicity
 _atom_site_fract_x
 _atom_site_fract_y
 _atom_site_fract_z
 _atom_site_occupancy
  Be  Be0  1  0.25935800  0.41818500  0.50056600  1
  Be  Be1  1  0.25630800  0.08016800  0.24970500  1
  Be  Be2  1  0.75630800  0.58016800  0.25029500  1
  Be  Be3  1  0.24369200  0.08016800  0.74970500  1
  Be  Be4  1  0.75935800  0.91818500  0.99943400  1
  Be  Be5  1  0.24064200  0.41818500  0.00056600  1
  Be  Be6  1  0.74064200  0.91818500  0.49943400  1
  Be  Be7  1  0.74369200  0.58016800  0.75029500  1
  H  H8  1  0.85194200  0.18115700  0.69998400  1
  H  H9  1  0.14805800  0.68115700  0.30001600  1
  H  H10  1  0.64805800  0.18115700  0.19998400  1
  H  H11  1  0.35194200  0.68115700  0.80001600  1
  H  H12  1  0.57916900  0.17290000  0.66576300  1
  H  H13  1  0.42083100  0.67290000  0.33423700  1
  H  H14  1  0.92083100  0.17290000  0.16576300  1
  H  H15  1  0.07916900  0.67290000  0.83423700  1
  H  H16  1  0.78361600  0.14710200  0.59308300  1
  H  H17  1  0.21638400  0.64710200  0.40691700  1
  H  H18  1  0.71638400  0.14710200  0.09308300  1
  H  H19  1  0.28361600  0.64710200  0.90691700  1
  H  H20  1  0.74050800  0.29108500  0.63325900  1
  H  H21  1  0.25949200  0.79108500  0.36674100  1
  H  H22  1  0.75949200  0.29108500  0.13325900  1
  H  H23  1  0.24050800  0.79108500  0.86674100  1
  H  H24  1  0.90176700  0.92548400  0.78133900  1
  H  H25  1  0.09823300  0.42548400  0.21866100  1
  H  H26  1  0.59823300  0.92548400  0.28133900  1
  H  H27  1  0.40176700  0.42548400  0.71866100  1
  H  H28  1  0.63200600  0.97581900  0.79338700  1
  H  H29  1  0.36799400  0.47581900  0.20661300  1
  H  H30  1  0.86799400  0.97581900  0.29338700  1
  H  H31  1  0.13200600  0.47581900  0.70661300  1
  H  H32  1  0.70686500  0.82899700  0.82111600  1
  H  H33  1  0.29313500  0.32899700  0.17888400  1
  H  H34  1  0.79313500  0.82899700  0.32111600  1
  H  H35  1  0.20686500  0.32899700  0.67888400  1
  H  H36  1  0.70187700  0.87151000  0.71413800  1
  H  H37  1  0.78135200  0.67777500  0.06487200  1
  H  H38  1  0.29812300  0.37151000  0.28586200  1
  H  H39  1  0.20187700  0.37151000  0.78586200  1
  H  H40  1  0.90199400  0.31976200  0.91334300  1
  H  H41  1  0.09800600  0.81976200  0.08665700  1
  H  H42  1  0.59800600  0.31976200  0.41334300  1
  H  H43  1  0.40199400  0.81976200  0.58665700  1
  H  H44  1  0.63126500  0.32195700  0.95084600  1
  H  H45  1  0.36873500  0.82195700  0.04915400  1
  H  H46  1  0.86873500  0.32195700  0.45084600  1
  H  H47  1  0.13126500  0.82195700  0.54915400  1
  H  H48  1  0.69745100  0.35526400  0.84326400  1
  H  H49  1  0.30254900  0.85526400  0.15673600  1
  H  H50  1  0.80254900  0.35526400  0.34326400  1
  H  H51  1  0.19745100  0.85526400  0.65673600  1
  H  H52  1  0.71850900  0.20944100  0.88193100  1
  H  H53  1  0.28149100  0.70944100  0.11806900  1
  H  H54  1  0.78149100  0.20944100  0.38193100  1
  H  H55  1  0.21850900  0.70944100  0.61806900  1
  H  H56  1  0.85785500  0.52756900  0.04481000  1
  H  H57  1  0.14214500  0.02756900  0.95519000  1
  H  H58  1  0.64214500  0.52756900  0.54481000  1
  H  H59  1  0.35785500  0.02756900  0.45519000  1
  H  H60  1  0.58725000  0.57502100  0.03286000  1
  H  H61  1  0.41275000  0.07502100  0.96714000  1
  H  H62  1  0.91275000  0.57502100  0.53286000  1
  H  H63  1  0.08725000  0.07502100  0.46714000  1
  H  H64  1  0.27876400  0.12205600  0.53930900  1
  H  H65  1  0.72123600  0.62205600  0.46069100  1
  H  H66  1  0.22123600  0.12205600  0.03930900  1
  H  H67  1  0.77876400  0.62205600  0.96069100  1
  H  H68  1  0.28135200  0.17777500  0.43512800  1
  H  H69  1  0.71864800  0.67777500  0.56487200  1
  H  H70  1  0.21864800  0.17777500  0.93512800  1
  H  H71  1  0.79812300  0.87151000  0.21413800  1
  N  N72  1  0.75332900  0.60088100  0.02630400  1
  N  N73  1  0.26394200  0.80141700  0.10184700  1
  N  N74  1  0.76394200  0.30141700  0.39815300  1
  N  N75  1  0.23439700  0.40018000  0.72235600  1
  N  N76  1  0.73605800  0.30141700  0.89815300  1
  N  N77  1  0.24667100  0.10088100  0.97369600  1
  N  N78  1  0.74667100  0.60088100  0.52630400  1
  N  N79  1  0.25332900  0.10088100  0.47369600  1
  N  N80  1  0.76560300  0.90018000  0.27764400  1
  N  N81  1  0.26560300  0.40018000  0.22235600  1
  N  N82  1  0.73439700  0.90018000  0.77764400  1
  N  N83  1  0.24079400  0.69835600  0.85132100  1
  N  N84  1  0.75920600  0.19835600  0.14867900  1
  N  N85  1  0.25920600  0.69835600  0.35132100  1
  N  N86  1  0.23605800  0.80141700  0.60184700  1
  N  N87  1  0.74079400  0.19835600  0.64867900  1
  F  F88  1  0.46128900  0.10222500  0.80448400  1
  F  F89  1  0.31194600  0.93687300  0.24973100  1
  F  F90  1  0.81194600  0.43687300  0.25026900  1
  F  F91  1  0.18805400  0.93687300  0.74973100  1
  F  F92  1  0.68805400  0.43687300  0.75026900  1
  F  F93  1  0.20576900  0.12772800  0.15390800  1
  F  F94  1  0.70576900  0.62772800  0.34609200  1
  F  F95  1  0.29423100  0.12772800  0.65390800  1
  F  F96  1  0.97582200  0.89805000  0.94423100  1
  F  F97  1  0.02417800  0.39805000  0.05576900  1
  F  F98  1  0.52417800  0.89805000  0.44423100  1
  F  F99  1  0.47582200  0.39805000  0.55576900  1
  F  F100  1  0.54991800  0.84938500  0.96257300  1
  F  F101  1  0.45008200  0.34938500  0.03742700  1
  F  F102  1  0.95008200  0.84938500  0.46257300  1
  F  F103  1  0.04991800  0.34938500  0.53742700  1
  F  F104  1  0.70375500  0.06123600  0.00187000  1
  F  F105  1  0.29624500  0.56123600  0.99813000  1
  F  F106  1  0.79624500  0.06123600  0.50187000  1
  F  F107  1  0.20375500  0.56123600  0.49813000  1
  F  F108  1  0.80887500  0.86422000  0.09406300  1
  F  F109  1  0.19112500  0.36422000  0.90593700  1
  F  F110  1  0.69112500  0.86422000  0.59406300  1
  F  F111  1  0.30887500  0.36422000  0.40593700  1
  F  F112  1  0.53871100  0.60222500  0.19551600  1
  F  F113  1  0.03871100  0.10222500  0.30448400  1
  F  F114  1  0.96128900  0.60222500  0.69551600  1
  F  F115  1  0.03486800  0.15099900  0.78424000  1
  F  F116  1  0.96513200  0.65099900  0.21576000  1
  F  F117  1  0.46513200  0.15099900  0.28424000  1
  F  F118  1  0.53486800  0.65099900  0.71576000  1
  F  F119  1  0.79423100  0.62772800  0.84609200  1
