# generated using pymatgen
data_GdCuAs2
_symmetry_space_group_name_H-M   'P 1'
_cell_length_a   3.92754700
_cell_length_b   3.92754700
_cell_length_c   9.92384100
_cell_angle_alpha   90.00000000
_cell_angle_beta   90.00000000
_cell_angle_gamma   90.00000000
_symmetry_Int_Tables_number   1
_chemical_formula_structural   GdCuAs2
_chemical_formula_sum   'Gd2 Cu2 As4'
_cell_volume   153.08145416
_cell_formula_units_Z   2
loop_
 _symmetry_equiv_pos_site_id
 _symmetry_equiv_pos_as_xyz
  1  'x, y, z'
loop_
 _atom_site_type_symbol
 _atom_site_label
 _atom_site_symmetry_multiplicity
 _atom_site_fract_x
 _atom_site_fract_y
 _atom_site_fract_z
 _atom_site_occupancy
  Gd  Gd0  1  0.00000000  0.50000000  0.76236100  1
  Gd  Gd1  1  0.50000000  0.00000000  0.23763900  1
  Cu  Cu2  1  0.00000000  0.00000000  0.50000000  1
  Cu  Cu3  1  0.50000000  0.50000000  0.50000000  1
  As  As4  1  0.50000000  0.50000000  0.00000000  1
  As  As5  1  0.00000000  0.00000000  0.00000000  1
  As  As6  1  0.50000000  0.00000000  0.65750500  1
  As  As7  1  0.00000000  0.50000000  0.34249500  1
