# generated using pymatgen
data_Rb2CoCl4
_symmetry_space_group_name_H-M   'P 1'
_cell_length_a   7.34204100
_cell_length_b   9.45127800
_cell_length_c   13.03226700
_cell_angle_alpha   90.00000000
_cell_angle_beta   90.00000000
_cell_angle_gamma   90.00000000
_symmetry_Int_Tables_number   1
_chemical_formula_structural   Rb2CoCl4
_chemical_formula_sum   'Rb8 Co4 Cl16'
_cell_volume   904.33077855
_cell_formula_units_Z   4
loop_
 _symmetry_equiv_pos_site_id
 _symmetry_equiv_pos_as_xyz
  1  'x, y, z'
loop_
 _atom_site_type_symbol
 _atom_site_label
 _atom_site_symmetry_multiplicity
 _atom_site_fract_x
 _atom_site_fract_y
 _atom_site_fract_z
 _atom_site_occupancy
  Rb  Rb0  1  0.25000000  0.36732900  0.08496800  1
  Rb  Rb1  1  0.75000000  0.63267100  0.91503200  1
  Rb  Rb2  1  0.25000000  0.86732900  0.41503200  1
  Rb  Rb3  1  0.75000000  0.13267100  0.58496800  1
  Rb  Rb4  1  0.25000000  0.01717100  0.82639200  1
  Rb  Rb5  1  0.75000000  0.98282900  0.17360800  1
  Rb  Rb6  1  0.25000000  0.51717100  0.67360800  1
  Rb  Rb7  1  0.75000000  0.48282900  0.32639200  1
  Co  Co8  1  0.25000000  0.77034900  0.07601000  1
  Co  Co9  1  0.75000000  0.22965100  0.92399000  1
  Co  Co10  1  0.25000000  0.27034900  0.42399000  1
  Co  Co11  1  0.75000000  0.72965100  0.57601000  1
  Cl  Cl12  1  0.99983800  0.32112000  0.84883800  1
  Cl  Cl13  1  0.49983800  0.67888000  0.15116200  1
  Cl  Cl14  1  0.50016200  0.82112000  0.65116200  1
  Cl  Cl15  1  0.00016200  0.17888000  0.34883800  1
  Cl  Cl16  1  0.00016200  0.67888000  0.15116200  1
  Cl  Cl17  1  0.50016200  0.32112000  0.84883800  1
  Cl  Cl18  1  0.49983800  0.17888000  0.34883800  1
  Cl  Cl19  1  0.99983800  0.82112000  0.65116200  1
  Cl  Cl20  1  0.25000000  0.68615100  0.91323400  1
  Cl  Cl21  1  0.75000000  0.31384900  0.08676600  1
  Cl  Cl22  1  0.25000000  0.18615100  0.58676600  1
  Cl  Cl23  1  0.75000000  0.81384900  0.41323400  1
  Cl  Cl24  1  0.75000000  0.49178400  0.58796500  1
  Cl  Cl25  1  0.25000000  0.50821600  0.41203500  1
  Cl  Cl26  1  0.75000000  0.99178400  0.91203500  1
  Cl  Cl27  1  0.25000000  0.00821600  0.08796500  1
