# generated using pymatgen
data_Nd2NiB10
_symmetry_space_group_name_H-M   'P 1'
_cell_length_a   4.19556700
_cell_length_b   5.63722000
_cell_length_c   11.23441400
_cell_angle_alpha   90.00000000
_cell_angle_beta   90.00000000
_cell_angle_gamma   90.00000000
_symmetry_Int_Tables_number   1
_chemical_formula_structural   Nd2NiB10
_chemical_formula_sum   'Nd4 Ni2 B20'
_cell_volume   265.70888010
_cell_formula_units_Z   2
loop_
 _symmetry_equiv_pos_site_id
 _symmetry_equiv_pos_as_xyz
  1  'x, y, z'
loop_
 _atom_site_type_symbol
 _atom_site_label
 _atom_site_symmetry_multiplicity
 _atom_site_fract_x
 _atom_site_fract_y
 _atom_site_fract_z
 _atom_site_occupancy
  Nd  Nd0  1  0.50000000  0.30895200  0.86320700  1
  Nd  Nd1  1  0.50000000  0.69104800  0.13679300  1
  Nd  Nd2  1  0.50000000  0.80895200  0.63679300  1
  Nd  Nd3  1  0.50000000  0.19104800  0.36320700  1
  Ni  Ni4  1  0.00000000  0.50000000  0.50000000  1
  Ni  Ni5  1  0.00000000  0.00000000  0.00000000  1
  B  B6  1  0.00000000  0.12558700  0.54136900  1
  B  B7  1  0.00000000  0.87441300  0.45863100  1
  B  B8  1  0.00000000  0.62558700  0.95863100  1
  B  B9  1  0.00000000  0.37441300  0.04136900  1
  B  B10  1  0.00000000  0.15522500  0.69764200  1
  B  B11  1  0.00000000  0.84477500  0.30235800  1
  B  B12  1  0.30019000  0.20354900  0.11437000  1
  B  B13  1  0.30019000  0.79645100  0.88563000  1
  B  B14  1  0.69981000  0.70354900  0.38563000  1
  B  B15  1  0.69981000  0.29645100  0.61437000  1
  B  B16  1  0.69981000  0.79645100  0.88563000  1
  B  B17  1  0.69981000  0.20354900  0.11437000  1
  B  B18  1  0.30019000  0.29645100  0.61437000  1
  B  B19  1  0.30019000  0.70354900  0.38563000  1
  B  B20  1  0.00000000  0.03559100  0.18746800  1
  B  B21  1  0.00000000  0.96440900  0.81253200  1
  B  B22  1  0.00000000  0.53559100  0.31253200  1
  B  B23  1  0.00000000  0.46440900  0.68746800  1
  B  B24  1  0.00000000  0.34477500  0.19764200  1
  B  B25  1  0.00000000  0.65522500  0.80235800  1
