# generated using pymatgen
data_MgMoH2O5
_symmetry_space_group_name_H-M   'P 1'
_cell_length_a   5.75804100
_cell_length_b   5.89150341
_cell_length_c   7.01486972
_cell_angle_alpha   100.44838446
_cell_angle_beta   94.67159591
_cell_angle_gamma   106.52654185
_symmetry_Int_Tables_number   1
_chemical_formula_structural   MgMoH2O5
_chemical_formula_sum   'Mg2 Mo2 H4 O10'
_cell_volume   222.11056385
_cell_formula_units_Z   2
loop_
 _symmetry_equiv_pos_site_id
 _symmetry_equiv_pos_as_xyz
  1  'x, y, z'
loop_
 _atom_site_type_symbol
 _atom_site_label
 _atom_site_symmetry_multiplicity
 _atom_site_fract_x
 _atom_site_fract_y
 _atom_site_fract_z
 _atom_site_occupancy
  Mg  Mg0  1  0.63942600  0.70729000  0.19470100  1
  Mg  Mg1  1  0.36057400  0.29271000  0.80529900  1
  Mo  Mo2  1  0.74460000  0.87923400  0.74611200  1
  Mo  Mo3  1  0.25540000  0.12076600  0.25388800  1
  H  H4  1  0.06981200  0.59284100  0.18860500  1
  H  H5  1  0.93018800  0.40715900  0.81139500  1
  H  H6  1  0.86994500  0.34955800  0.20010100  1
  H  H7  1  0.13005500  0.65044200  0.79989900  1
  O  O8  1  0.37807400  0.35981200  0.12203900  1
  O  O9  1  0.62192600  0.64018800  0.87796100  1
  O  O10  1  0.35681600  0.86316500  0.17354200  1
  O  O11  1  0.64318400  0.13683500  0.82645800  1
  O  O12  1  0.35945100  0.23377600  0.50630700  1
  O  O13  1  0.64054900  0.76622400  0.49369300  1
  O  O14  1  0.92491200  0.02903500  0.21252200  1
  O  O15  1  0.07508800  0.97096500  0.78747800  1
  O  O16  1  0.09668900  0.47421700  0.78143700  1
  O  O17  1  0.90331100  0.52578300  0.21856300  1
