# generated using pymatgen
data_Na2ZnBr4
_symmetry_space_group_name_H-M   'P 1'
_cell_length_a   6.86533500
_cell_length_b   8.70370700
_cell_length_c   14.77396900
_cell_angle_alpha   90.00000000
_cell_angle_beta   90.00000000
_cell_angle_gamma   90.00000000
_symmetry_Int_Tables_number   1
_chemical_formula_structural   Na2ZnBr4
_chemical_formula_sum   'Na8 Zn4 Br16'
_cell_volume   882.80173875
_cell_formula_units_Z   4
loop_
 _symmetry_equiv_pos_site_id
 _symmetry_equiv_pos_as_xyz
  1  'x, y, z'
loop_
 _atom_site_type_symbol
 _atom_site_label
 _atom_site_symmetry_multiplicity
 _atom_site_fract_x
 _atom_site_fract_y
 _atom_site_fract_z
 _atom_site_occupancy
  Na  Na0  1  0.00000000  0.00000000  0.00000000  1
  Na  Na1  1  0.50000000  0.00000000  0.50000000  1
  Na  Na2  1  0.00000000  0.50000000  0.00000000  1
  Na  Na3  1  0.50000000  0.50000000  0.50000000  1
  Na  Na4  1  0.00808600  0.75000000  0.26986300  1
  Na  Na5  1  0.50808600  0.25000000  0.23013700  1
  Na  Na6  1  0.99191400  0.25000000  0.73013700  1
  Na  Na7  1  0.49191400  0.75000000  0.76986300  1
  Zn  Zn8  1  0.59459700  0.75000000  0.09107800  1
  Zn  Zn9  1  0.09459700  0.25000000  0.40892200  1
  Zn  Zn10  1  0.40540300  0.25000000  0.90892200  1
  Zn  Zn11  1  0.90540300  0.75000000  0.59107800  1
  Br  Br12  1  0.24281700  0.75000000  0.09246200  1
  Br  Br13  1  0.74281700  0.25000000  0.40753800  1
  Br  Br14  1  0.75718300  0.25000000  0.90753800  1
  Br  Br15  1  0.25718300  0.75000000  0.59246200  1
  Br  Br16  1  0.76344900  0.75000000  0.43764300  1
  Br  Br17  1  0.26344900  0.25000000  0.06235700  1
  Br  Br18  1  0.23655100  0.25000000  0.56235700  1
  Br  Br19  1  0.73655100  0.75000000  0.93764300  1
  Br  Br20  1  0.74330000  0.97315500  0.16594300  1
  Br  Br21  1  0.24330000  0.02684500  0.33405700  1
  Br  Br22  1  0.25670000  0.47315500  0.83405700  1
  Br  Br23  1  0.75670000  0.52684500  0.66594300  1
  Br  Br24  1  0.25670000  0.02684500  0.83405700  1
  Br  Br25  1  0.75670000  0.97315500  0.66594300  1
  Br  Br26  1  0.74330000  0.52684500  0.16594300  1
  Br  Br27  1  0.24330000  0.47315500  0.33405700  1
