# generated using pymatgen
data_KInP2S7
_symmetry_space_group_name_H-M   'P 1'
_cell_length_a   6.75797018
_cell_length_b   6.75797018
_cell_length_c   6.52557194
_cell_angle_alpha   84.12245043
_cell_angle_beta   84.12245043
_cell_angle_gamma   97.82257425
_symmetry_Int_Tables_number   1
_chemical_formula_structural   KInP2S7
_chemical_formula_sum   'K1 In1 P2 S7'
_cell_volume   291.64469582
_cell_formula_units_Z   1
loop_
 _symmetry_equiv_pos_site_id
 _symmetry_equiv_pos_as_xyz
  1  'x, y, z'
loop_
 _atom_site_type_symbol
 _atom_site_label
 _atom_site_symmetry_multiplicity
 _atom_site_fract_x
 _atom_site_fract_y
 _atom_site_fract_z
 _atom_site_occupancy
  K  K0  1  0.08314800  0.91685200  0.50000000  1
  In  In1  1  0.49892600  0.50107400  0.00000000  1
  P  P2  1  0.63831600  0.96170000  0.08667100  1
  P  P3  1  0.03830000  0.36168400  0.91332900  1
  S  S4  1  0.95943300  0.04056700  0.00000000  1
  S  S5  1  0.82626000  0.47249900  0.75275300  1
  S  S6  1  0.63074500  0.71134000  0.29188200  1
  S  S7  1  0.28866000  0.36925500  0.70811800  1
  S  S8  1  0.51384000  0.88663000  0.83095100  1
  S  S9  1  0.11337000  0.48616000  0.16904900  1
  S  S10  1  0.52750100  0.17374000  0.24724700  1
