# generated using pymatgen
data_LuGeRh
_symmetry_space_group_name_H-M   'P 1'
_cell_length_a   4.26872500
_cell_length_b   6.77226500
_cell_length_c   7.52504700
_cell_angle_alpha   90.00000000
_cell_angle_beta   90.00000000
_cell_angle_gamma   90.00000000
_symmetry_Int_Tables_number   1
_chemical_formula_structural   LuGeRh
_chemical_formula_sum   'Lu4 Ge4 Rh4'
_cell_volume   217.54110898
_cell_formula_units_Z   4
loop_
 _symmetry_equiv_pos_site_id
 _symmetry_equiv_pos_as_xyz
  1  'x, y, z'
loop_
 _atom_site_type_symbol
 _atom_site_label
 _atom_site_symmetry_multiplicity
 _atom_site_fract_x
 _atom_site_fract_y
 _atom_site_fract_z
 _atom_site_occupancy
  Lu  Lu0  1  0.75000000  0.99444500  0.19699200  1
  Lu  Lu1  1  0.25000000  0.00555500  0.80300800  1
  Lu  Lu2  1  0.75000000  0.49444500  0.30300800  1
  Lu  Lu3  1  0.25000000  0.50555500  0.69699200  1
  Ge  Ge4  1  0.25000000  0.78395400  0.39106200  1
  Ge  Ge5  1  0.75000000  0.71604600  0.89106200  1
  Ge  Ge6  1  0.75000000  0.21604600  0.60893800  1
  Ge  Ge7  1  0.25000000  0.28395400  0.10893800  1
  Rh  Rh8  1  0.25000000  0.15770200  0.43597900  1
  Rh  Rh9  1  0.25000000  0.65770200  0.06402100  1
  Rh  Rh10  1  0.75000000  0.34229800  0.93597900  1
  Rh  Rh11  1  0.75000000  0.84229800  0.56402100  1
