# generated using pymatgen
data_PW
_symmetry_space_group_name_H-M   'P 1'
_cell_length_a   3.26629300
_cell_length_b   5.75772700
_cell_length_c   6.26923000
_cell_angle_alpha   90.00000000
_cell_angle_beta   90.00000000
_cell_angle_gamma   90.00000000
_symmetry_Int_Tables_number   1
_chemical_formula_structural   PW
_chemical_formula_sum   'P4 W4'
_cell_volume   117.90179375
_cell_formula_units_Z   4
loop_
 _symmetry_equiv_pos_site_id
 _symmetry_equiv_pos_as_xyz
  1  'x, y, z'
loop_
 _atom_site_type_symbol
 _atom_site_label
 _atom_site_symmetry_multiplicity
 _atom_site_fract_x
 _atom_site_fract_y
 _atom_site_fract_z
 _atom_site_occupancy
  P  P0  1  0.75000000  0.81647500  0.56552200  1
  P  P1  1  0.25000000  0.18352500  0.43447800  1
  P  P2  1  0.75000000  0.31647500  0.93447800  1
  P  P3  1  0.25000000  0.68352500  0.06552200  1
  W  W4  1  0.75000000  0.48625000  0.31177700  1
  W  W5  1  0.75000000  0.98625000  0.18822300  1
  W  W6  1  0.25000000  0.01375000  0.81177700  1
  W  W7  1  0.25000000  0.51375000  0.68822300  1
