# generated using pymatgen
data_Ca2HN
_symmetry_space_group_name_H-M   'P 1'
_cell_length_a   7.15555152
_cell_length_b   7.15555152
_cell_length_c   7.15555152
_cell_angle_alpha   60.00000000
_cell_angle_beta   60.00000000
_cell_angle_gamma   60.00000000
_symmetry_Int_Tables_number   1
_chemical_formula_structural   Ca2HN
_chemical_formula_sum   'Ca8 H4 N4'
_cell_volume   259.06833883
_cell_formula_units_Z   4
loop_
 _symmetry_equiv_pos_site_id
 _symmetry_equiv_pos_as_xyz
  1  'x, y, z'
loop_
 _atom_site_type_symbol
 _atom_site_label
 _atom_site_symmetry_multiplicity
 _atom_site_fract_x
 _atom_site_fract_y
 _atom_site_fract_z
 _atom_site_occupancy
  Ca  Ca0  1  0.88700500  0.33898500  0.88700500  1
  Ca  Ca1  1  0.36299500  0.36299500  0.91101500  1
  Ca  Ca2  1  0.36299500  0.36299500  0.36299500  1
  Ca  Ca3  1  0.91101500  0.36299500  0.36299500  1
  Ca  Ca4  1  0.88700500  0.88700500  0.88700500  1
  Ca  Ca5  1  0.33898500  0.88700500  0.88700500  1
  Ca  Ca6  1  0.88700500  0.88700500  0.33898500  1
  Ca  Ca7  1  0.36299500  0.91101500  0.36299500  1
  H  H8  1  0.62500000  0.62500000  0.62500000  1
  H  H9  1  0.12500000  0.62500000  0.62500000  1
  H  H10  1  0.62500000  0.62500000  0.12500000  1
  H  H11  1  0.62500000  0.12500000  0.62500000  1
  N  N12  1  0.12500000  0.12500000  0.12500000  1
  N  N13  1  0.62500000  0.12500000  0.12500000  1
  N  N14  1  0.12500000  0.12500000  0.62500000  1
  N  N15  1  0.12500000  0.62500000  0.12500000  1
