# generated using pymatgen
data_PbSeO3
_symmetry_space_group_name_H-M   'P 1'
_cell_length_a   5.61486700
_cell_length_b   4.59801700
_cell_length_c   6.75887155
_cell_angle_alpha   73.14119141
_cell_angle_beta   90.00000000
_cell_angle_gamma   90.00000000
_symmetry_Int_Tables_number   1
_chemical_formula_structural   PbSeO3
_chemical_formula_sum   'Pb2 Se2 O6'
_cell_volume   166.99609289
_cell_formula_units_Z   2
loop_
 _symmetry_equiv_pos_site_id
 _symmetry_equiv_pos_as_xyz
  1  'x, y, z'
loop_
 _atom_site_type_symbol
 _atom_site_label
 _atom_site_symmetry_multiplicity
 _atom_site_fract_x
 _atom_site_fract_y
 _atom_site_fract_z
 _atom_site_occupancy
  Pb  Pb0  1  0.25000000  0.63416900  0.69502300  1
  Pb  Pb1  1  0.75000000  0.36583100  0.30497700  1
  Se  Se2  1  0.75000000  0.08659900  0.83613100  1
  Se  Se3  1  0.25000000  0.91340100  0.16386900  1
  O  O4  1  0.01368700  0.79969200  0.33680100  1
  O  O5  1  0.51368700  0.20030800  0.66319900  1
  O  O6  1  0.98631300  0.20030800  0.66319900  1
  O  O7  1  0.48631300  0.79969200  0.33680100  1
  O  O8  1  0.25000000  0.29973500  0.11950800  1
  O  O9  1  0.75000000  0.70026500  0.88049200  1
