# generated using pymatgen
data_MnCoO3
_symmetry_space_group_name_H-M   'P 1'
_cell_length_a   5.01035265
_cell_length_b   5.45884129
_cell_length_c   5.01034044
_cell_angle_alpha   62.69184598
_cell_angle_beta   60.00691326
_cell_angle_gamma   62.69087405
_symmetry_Int_Tables_number   1
_chemical_formula_structural   MnCoO3
_chemical_formula_sum   'Mn2 Co2 O6'
_cell_volume   100.66144877
_cell_formula_units_Z   2
loop_
 _symmetry_equiv_pos_site_id
 _symmetry_equiv_pos_as_xyz
  1  'x, y, z'
loop_
 _atom_site_type_symbol
 _atom_site_label
 _atom_site_symmetry_multiplicity
 _atom_site_fract_x
 _atom_site_fract_y
 _atom_site_fract_z
 _atom_site_occupancy
  Mn  Mn0  1  0.84235200  0.47289300  0.84239900  1
  Mn  Mn1  1  0.15761900  0.52726000  0.15754700  1
  Co  Co2  1  0.63958100  0.08121600  0.63959900  1
  Co  Co3  1  0.36042700  0.91874000  0.36043800  1
  O  O4  1  0.44034100  0.73351400  0.05028400  1
  O  O5  1  0.77585300  0.73353400  0.44034300  1
  O  O6  1  0.05030300  0.73348200  0.77587800  1
  O  O7  1  0.55968900  0.26645600  0.94960300  1
  O  O8  1  0.22420800  0.26643800  0.55968500  1
  O  O9  1  0.94962600  0.26646600  0.22422500  1
