# generated using pymatgen
data_TbGeIr
_symmetry_space_group_name_H-M   'P 1'
_cell_length_a   4.34967000
_cell_length_b   6.94923600
_cell_length_c   7.60112400
_cell_angle_alpha   90.00000000
_cell_angle_beta   90.00000000
_cell_angle_gamma   90.00000000
_symmetry_Int_Tables_number   1
_chemical_formula_structural   TbGeIr
_chemical_formula_sum   'Tb4 Ge4 Ir4'
_cell_volume   229.75828849
_cell_formula_units_Z   4
loop_
 _symmetry_equiv_pos_site_id
 _symmetry_equiv_pos_as_xyz
  1  'x, y, z'
loop_
 _atom_site_type_symbol
 _atom_site_label
 _atom_site_symmetry_multiplicity
 _atom_site_fract_x
 _atom_site_fract_y
 _atom_site_fract_z
 _atom_site_occupancy
  Tb  Tb0  1  0.75000000  0.49960600  0.80740000  1
  Tb  Tb1  1  0.25000000  0.00039400  0.30740000  1
  Tb  Tb2  1  0.75000000  0.99960600  0.69260000  1
  Tb  Tb3  1  0.25000000  0.50039400  0.19260000  1
  Ge  Ge4  1  0.25000000  0.79387500  0.89308000  1
  Ge  Ge5  1  0.25000000  0.29387500  0.60692000  1
  Ge  Ge6  1  0.75000000  0.20612500  0.10692000  1
  Ge  Ge7  1  0.75000000  0.70612500  0.39308000  1
  Ir  Ir8  1  0.25000000  0.66153500  0.56877300  1
  Ir  Ir9  1  0.25000000  0.16153500  0.93122700  1
  Ir  Ir10  1  0.75000000  0.83846500  0.06877300  1
  Ir  Ir11  1  0.75000000  0.33846500  0.43122700  1
