# generated using pymatgen
data_CsBiF6
_symmetry_space_group_name_H-M   'P 1'
_cell_length_a   5.55234903
_cell_length_b   5.55234903
_cell_length_c   5.55234985
_cell_angle_alpha   95.94963412
_cell_angle_beta   95.94963412
_cell_angle_gamma   95.94963084
_symmetry_Int_Tables_number   1
_chemical_formula_structural   CsBiF6
_chemical_formula_sum   'Cs1 Bi1 F6'
_cell_volume   168.19593418
_cell_formula_units_Z   1
loop_
 _symmetry_equiv_pos_site_id
 _symmetry_equiv_pos_as_xyz
  1  'x, y, z'
loop_
 _atom_site_type_symbol
 _atom_site_label
 _atom_site_symmetry_multiplicity
 _atom_site_fract_x
 _atom_site_fract_y
 _atom_site_fract_z
 _atom_site_occupancy
  Cs  Cs0  1  0.50000000  0.50000000  0.50000000  1
  Bi  Bi1  1  0.00000000  0.00000000  0.00000000  1
  F  F2  1  0.78323200  0.08494800  0.70615400  1
  F  F3  1  0.08494900  0.70615400  0.78323200  1
  F  F4  1  0.29384600  0.21676800  0.91505200  1
  F  F5  1  0.91505200  0.29384600  0.21676800  1
  F  F6  1  0.21676800  0.91505200  0.29384600  1
  F  F7  1  0.70615400  0.78323200  0.08494800  1
