# generated using pymatgen
data_ZrIn2
_symmetry_space_group_name_H-M   'P 1'
_cell_length_a   14.14489161
_cell_length_b   14.14489161
_cell_length_c   14.14489161
_cell_angle_alpha   161.93087265
_cell_angle_beta   161.93087265
_cell_angle_gamma   25.66179444
_symmetry_Int_Tables_number   1
_chemical_formula_structural   ZrIn2
_chemical_formula_sum   'Zr4 In8'
_cell_volume   272.17198621
_cell_formula_units_Z   4
loop_
 _symmetry_equiv_pos_site_id
 _symmetry_equiv_pos_as_xyz
  1  'x, y, z'
loop_
 _atom_site_type_symbol
 _atom_site_label
 _atom_site_symmetry_multiplicity
 _atom_site_fract_x
 _atom_site_fract_y
 _atom_site_fract_z
 _atom_site_occupancy
  Zr  Zr0  1  0.82737700  0.32737700  0.50000000  1
  Zr  Zr1  1  0.07737700  0.07737700  0.00000000  1
  Zr  Zr2  1  0.92262300  0.92262300  0.00000000  1
  Zr  Zr3  1  0.67262300  0.17262300  0.50000000  1
  In  In4  1  0.00050900  0.50050900  0.50000000  1
  In  In5  1  0.25050900  0.25050900  0.00000000  1
  In  In6  1  0.74949100  0.74949100  0.00000000  1
  In  In7  1  0.49949100  0.99949100  0.50000000  1
  In  In8  1  0.16212000  0.66212000  0.50000000  1
  In  In9  1  0.41212000  0.41212000  0.00000000  1
  In  In10  1  0.58788000  0.58788000  0.00000000  1
  In  In11  1  0.33788000  0.83788000  0.50000000  1
