# generated using pymatgen
data_Pt(SCl4)2
_symmetry_space_group_name_H-M   'P 1'
_cell_length_a   7.49163100
_cell_length_b   6.76494000
_cell_length_c   13.04422737
_cell_angle_alpha   79.53100382
_cell_angle_beta   90.00000000
_cell_angle_gamma   90.00000000
_symmetry_Int_Tables_number   1
_chemical_formula_structural   Pt(SCl4)2
_chemical_formula_sum   'Pt2 S4 Cl16'
_cell_volume   650.08223754
_cell_formula_units_Z   2
loop_
 _symmetry_equiv_pos_site_id
 _symmetry_equiv_pos_as_xyz
  1  'x, y, z'
loop_
 _atom_site_type_symbol
 _atom_site_label
 _atom_site_symmetry_multiplicity
 _atom_site_fract_x
 _atom_site_fract_y
 _atom_site_fract_z
 _atom_site_occupancy
  Pt  Pt0  1  0.50000000  0.00000000  0.50000000  1
  Pt  Pt1  1  0.00000000  0.00000000  0.00000000  1
  S  S2  1  0.80486900  0.71886500  0.01856100  1
  S  S3  1  0.69513100  0.71886500  0.51856100  1
  S  S4  1  0.19513100  0.28113500  0.98143900  1
  S  S5  1  0.30486900  0.28113500  0.48143900  1
  Cl  Cl6  1  0.59688400  0.15666600  0.63704000  1
  Cl  Cl7  1  0.09688400  0.84333400  0.86296000  1
  Cl  Cl8  1  0.89393300  0.78749900  0.41348500  1
  Cl  Cl9  1  0.39393300  0.21250100  0.08651500  1
  Cl  Cl10  1  0.10606700  0.21250100  0.58651500  1
  Cl  Cl11  1  0.60606700  0.78749900  0.91348500  1
  Cl  Cl12  1  0.32715000  0.29528100  0.84550500  1
  Cl  Cl13  1  0.82715000  0.70471900  0.65449500  1
  Cl  Cl14  1  0.67285000  0.70471900  0.15449500  1
  Cl  Cl15  1  0.17285000  0.29528100  0.34550500  1
  Cl  Cl16  1  0.84648800  0.24452600  0.88122400  1
  Cl  Cl17  1  0.34648800  0.75547400  0.61877600  1
  Cl  Cl18  1  0.15351200  0.75547400  0.11877600  1
  Cl  Cl19  1  0.65351200  0.24452600  0.38122400  1
  Cl  Cl20  1  0.90311600  0.15666600  0.13704000  1
  Cl  Cl21  1  0.40311600  0.84333400  0.36296000  1
