# generated using pymatgen
data_Tb16B4Br23
_symmetry_space_group_name_H-M   'P 1'
_cell_length_a   10.80129842
_cell_length_b   10.80129842
_cell_length_c   12.16386628
_cell_angle_alpha   78.18028189
_cell_angle_beta   78.18028189
_cell_angle_gamma   68.62724058
_symmetry_Int_Tables_number   1
_chemical_formula_structural   Tb16B4Br23
_chemical_formula_sum   'Tb16 B4 Br23'
_cell_volume   1280.25719706
_cell_formula_units_Z   1
loop_
 _symmetry_equiv_pos_site_id
 _symmetry_equiv_pos_as_xyz
  1  'x, y, z'
loop_
 _atom_site_type_symbol
 _atom_site_label
 _atom_site_symmetry_multiplicity
 _atom_site_fract_x
 _atom_site_fract_y
 _atom_site_fract_z
 _atom_site_occupancy
  Tb  Tb0  1  0.18855700  0.18855700  0.27264500  1
  Tb  Tb1  1  0.81144300  0.81144300  0.72735500  1
  Tb  Tb2  1  0.19143200  0.80424200  0.84962500  1
  Tb  Tb3  1  0.19575800  0.80856800  0.15037500  1
  Tb  Tb4  1  0.80856800  0.19575800  0.15037500  1
  Tb  Tb5  1  0.80424200  0.19143200  0.84962500  1
  Tb  Tb6  1  0.51507500  0.80880900  0.62949000  1
  Tb  Tb7  1  0.19119100  0.48492500  0.37051000  1
  Tb  Tb8  1  0.48492500  0.19119100  0.37051000  1
  Tb  Tb9  1  0.80880900  0.51507500  0.62949000  1
  Tb  Tb10  1  0.20265300  0.50103100  0.06278900  1
  Tb  Tb11  1  0.49896900  0.79734700  0.93721100  1
  Tb  Tb12  1  0.79734700  0.49896900  0.93721100  1
  Tb  Tb13  1  0.50103100  0.20265300  0.06278900  1
  Tb  Tb14  1  0.49396500  0.49396500  0.14951600  1
  Tb  Tb15  1  0.50603500  0.50603500  0.85048400  1
  B  B16  1  0.33337800  0.33337800  0.22711100  1
  B  B17  1  0.66662200  0.66662200  0.77288900  1
  B  B18  1  0.33080800  0.66919200  0.00000000  1
  B  B19  1  0.66919200  0.33080800  0.00000000  1
  Br  Br20  1  0.00000000  0.00000000  0.00000000  1
  Br  Br21  1  0.01441300  0.01441300  0.30720400  1
  Br  Br22  1  0.98558700  0.98558700  0.69279600  1
  Br  Br23  1  0.66678400  0.66678400  0.11282000  1
  Br  Br24  1  0.33321600  0.33321600  0.88718000  1
  Br  Br25  1  0.65937400  0.99807400  0.55849200  1
  Br  Br26  1  0.00192600  0.34062600  0.44150800  1
  Br  Br27  1  0.34062600  0.00192600  0.44150800  1
  Br  Br28  1  0.99807400  0.65937400  0.55849200  1
  Br  Br29  1  0.66213400  0.33180900  0.66501500  1
  Br  Br30  1  0.66819100  0.33786600  0.33498500  1
  Br  Br31  1  0.33786600  0.66819100  0.33498500  1
  Br  Br32  1  0.65921700  0.99715900  0.89443100  1
  Br  Br33  1  0.00284100  0.34078300  0.10556900  1
  Br  Br34  1  0.34078300  0.00284100  0.10556900  1
  Br  Br35  1  0.99715900  0.65921700  0.89443100  1
  Br  Br36  1  0.67254500  0.00225800  0.22349100  1
  Br  Br37  1  0.99774200  0.32745500  0.77650900  1
  Br  Br38  1  0.32745500  0.99774200  0.77650900  1
  Br  Br39  1  0.00225800  0.67254500  0.22349100  1
  Br  Br40  1  0.66480700  0.66480700  0.45002100  1
  Br  Br41  1  0.33519300  0.33519300  0.54997900  1
  Br  Br42  1  0.33180900  0.66213400  0.66501500  1
