# generated using pymatgen
data_K4SrU3O12
_symmetry_space_group_name_H-M   'P 1'
_cell_length_a   7.59978688
_cell_length_b   7.59978688
_cell_length_c   7.59978688
_cell_angle_alpha   109.47122063
_cell_angle_beta   109.47122063
_cell_angle_gamma   109.47122063
_symmetry_Int_Tables_number   1
_chemical_formula_structural   K4SrU3O12
_chemical_formula_sum   'K4 Sr1 U3 O12'
_cell_volume   337.89545464
_cell_formula_units_Z   1
loop_
 _symmetry_equiv_pos_site_id
 _symmetry_equiv_pos_as_xyz
  1  'x, y, z'
loop_
 _atom_site_type_symbol
 _atom_site_label
 _atom_site_symmetry_multiplicity
 _atom_site_fract_x
 _atom_site_fract_y
 _atom_site_fract_z
 _atom_site_occupancy
  K  K0  1  0.00000000  0.50000000  0.00000000  1
  K  K1  1  0.50000000  0.50000000  0.50000000  1
  K  K2  1  0.00000000  0.00000000  0.50000000  1
  K  K3  1  0.50000000  0.00000000  0.00000000  1
  Sr  Sr4  1  0.00000000  0.00000000  0.00000000  1
  U  U5  1  0.50000000  0.50000000  0.00000000  1
  U  U6  1  0.50000000  0.00000000  0.50000000  1
  U  U7  1  0.00000000  0.50000000  0.50000000  1
  O  O8  1  0.27826100  0.00000000  0.27826100  1
  O  O9  1  0.00000000  0.27826100  0.27826100  1
  O  O10  1  0.50000000  0.25000000  0.75000000  1
  O  O11  1  0.75000000  0.50000000  0.25000000  1
  O  O12  1  0.25000000  0.75000000  0.50000000  1
  O  O13  1  0.75000000  0.25000000  0.50000000  1
  O  O14  1  0.00000000  0.72173900  0.72173900  1
  O  O15  1  0.25000000  0.50000000  0.75000000  1
  O  O16  1  0.50000000  0.75000000  0.25000000  1
  O  O17  1  0.72173900  0.00000000  0.72173900  1
  O  O18  1  0.72173900  0.72173900  0.00000000  1
  O  O19  1  0.27826100  0.27826100  0.00000000  1
