# generated using pymatgen
data_Al2S3
_symmetry_space_group_name_H-M   'P 1'
_cell_length_a   6.61014656
_cell_length_b   6.61014656
_cell_length_c   17.28142800
_cell_angle_alpha   90.00000000
_cell_angle_beta   90.00000000
_cell_angle_gamma   120.00000556
_symmetry_Int_Tables_number   1
_chemical_formula_structural   Al2S3
_chemical_formula_sum   'Al12 S18'
_cell_volume   653.93172984
_cell_formula_units_Z   6
loop_
 _symmetry_equiv_pos_site_id
 _symmetry_equiv_pos_as_xyz
  1  'x, y, z'
loop_
 _atom_site_type_symbol
 _atom_site_label
 _atom_site_symmetry_multiplicity
 _atom_site_fract_x
 _atom_site_fract_y
 _atom_site_fract_z
 _atom_site_occupancy
  Al  Al0  1  0.65809900  0.00934900  0.54947800  1
  Al  Al1  1  0.69934400  0.00578500  0.18385300  1
  Al  Al2  1  0.00578500  0.30644100  0.01718600  1
  Al  Al3  1  0.99065100  0.64875000  0.88281100  1
  Al  Al4  1  0.00934900  0.35125000  0.38281100  1
  Al  Al5  1  0.99421500  0.69355900  0.51718600  1
  Al  Al6  1  0.64875000  0.65809900  0.71614500  1
  Al  Al7  1  0.69355900  0.69934400  0.35052000  1
  Al  Al8  1  0.30644100  0.30065600  0.85052000  1
  Al  Al9  1  0.30065600  0.99421500  0.68385300  1
  Al  Al10  1  0.35125000  0.34190100  0.21614500  1
  Al  Al11  1  0.34190100  0.99065100  0.04947800  1
  S  S12  1  0.33962800  0.34289800  0.34829000  1
  S  S13  1  0.66554700  0.95910100  0.04087600  1
  S  S14  1  0.04089900  0.70644600  0.37420900  1
  S  S15  1  0.65357700  0.69899100  0.49485500  1
  S  S16  1  0.33445300  0.04089900  0.54087600  1
  S  S17  1  0.66037200  0.65710200  0.84829000  1
  S  S18  1  0.65710200  0.99673000  0.68162400  1
  S  S19  1  0.30100900  0.95458600  0.82818800  1
  S  S20  1  0.04541400  0.34642300  0.16152100  1
  S  S21  1  0.95458600  0.65357700  0.66152100  1
  S  S22  1  0.34289800  0.00327000  0.18162400  1
  S  S23  1  0.69899100  0.04541400  0.32818800  1
  S  S24  1  0.70644600  0.66554700  0.20754300  1
  S  S25  1  0.00327000  0.66037200  0.01495700  1
  S  S26  1  0.34642300  0.30100900  0.99485500  1
  S  S27  1  0.95910100  0.29355400  0.87420900  1
  S  S28  1  0.29355400  0.33445300  0.70754300  1
  S  S29  1  0.99673000  0.33962800  0.51495700  1
