# generated using pymatgen
data_HgI
_symmetry_space_group_name_H-M   'P 1'
_cell_length_a   6.95197808
_cell_length_b   6.95197808
_cell_length_c   6.95197808
_cell_angle_alpha   136.15979226
_cell_angle_beta   136.15979226
_cell_angle_gamma   63.73339043
_symmetry_Int_Tables_number   1
_chemical_formula_structural   HgI
_chemical_formula_sum   'Hg2 I2'
_cell_volume   159.06783815
_cell_formula_units_Z   2
loop_
 _symmetry_equiv_pos_site_id
 _symmetry_equiv_pos_as_xyz
  1  'x, y, z'
loop_
 _atom_site_type_symbol
 _atom_site_label
 _atom_site_symmetry_multiplicity
 _atom_site_fract_x
 _atom_site_fract_y
 _atom_site_fract_z
 _atom_site_occupancy
  Hg  Hg0  1  0.88704600  0.88704600  0.00000000  1
  Hg  Hg1  1  0.11295400  0.11295400  0.00000000  1
  I  I2  1  0.65251900  0.65251900  0.00000000  1
  I  I3  1  0.34748100  0.34748100  0.00000000  1
