# generated using pymatgen
data_Ni3(PO4)2
_symmetry_space_group_name_H-M   'P 1'
_cell_length_a   4.74575600
_cell_length_b   5.88885200
_cell_length_c   10.22787453
_cell_angle_alpha   89.09015883
_cell_angle_beta   90.00000000
_cell_angle_gamma   90.00000000
_symmetry_Int_Tables_number   1
_chemical_formula_structural   Ni3(PO4)2
_chemical_formula_sum   'Ni6 P4 O16'
_cell_volume   285.80293051
_cell_formula_units_Z   2
loop_
 _symmetry_equiv_pos_site_id
 _symmetry_equiv_pos_as_xyz
  1  'x, y, z'
loop_
 _atom_site_type_symbol
 _atom_site_label
 _atom_site_symmetry_multiplicity
 _atom_site_fract_x
 _atom_site_fract_y
 _atom_site_fract_z
 _atom_site_occupancy
  Ni  Ni0  1  0.01326500  0.24200900  0.72560200  1
  Ni  Ni1  1  0.51326500  0.75799100  0.77439800  1
  Ni  Ni2  1  0.48673500  0.24200900  0.22560200  1
  Ni  Ni3  1  0.98673500  0.75799100  0.27439800  1
  Ni  Ni4  1  0.50000000  0.50000000  0.50000000  1
  Ni  Ni5  1  0.00000000  0.50000000  0.00000000  1
  P  P6  1  0.07781100  0.74831400  0.59510100  1
  P  P7  1  0.57781100  0.25168600  0.90489900  1
  P  P8  1  0.92218900  0.25168600  0.40489900  1
  P  P9  1  0.42218900  0.74831400  0.09510100  1
  O  O10  1  0.23543500  0.53400400  0.66176600  1
  O  O11  1  0.73543500  0.46599600  0.83823400  1
  O  O12  1  0.76456500  0.46599600  0.33823400  1
  O  O13  1  0.26456500  0.53400400  0.16176600  1
  O  O14  1  0.19914200  0.94781900  0.67368100  1
  O  O15  1  0.69914200  0.05218100  0.82631900  1
  O  O16  1  0.80085800  0.05218100  0.32631900  1
  O  O17  1  0.30085800  0.94781900  0.17368100  1
  O  O18  1  0.30848600  0.74354700  0.95273300  1
  O  O19  1  0.80848600  0.25645300  0.54726700  1
  O  O20  1  0.74516100  0.73161300  0.10205400  1
  O  O21  1  0.24516100  0.26838700  0.39794600  1
  O  O22  1  0.25483900  0.26838700  0.89794600  1
  O  O23  1  0.69151400  0.25645300  0.04726700  1
  O  O24  1  0.19151400  0.74354700  0.45273300  1
  O  O25  1  0.75483900  0.73161300  0.60205400  1
