# generated using pymatgen
data_ScSiRh
_symmetry_space_group_name_H-M   'P 1'
_cell_length_a   4.07825700
_cell_length_b   6.52991800
_cell_length_c   7.28699000
_cell_angle_alpha   90.00000000
_cell_angle_beta   90.00000000
_cell_angle_gamma   90.00000000
_symmetry_Int_Tables_number   1
_chemical_formula_structural   ScSiRh
_chemical_formula_sum   'Sc4 Si4 Rh4'
_cell_volume   194.05752649
_cell_formula_units_Z   4
loop_
 _symmetry_equiv_pos_site_id
 _symmetry_equiv_pos_as_xyz
  1  'x, y, z'
loop_
 _atom_site_type_symbol
 _atom_site_label
 _atom_site_symmetry_multiplicity
 _atom_site_fract_x
 _atom_site_fract_y
 _atom_site_fract_z
 _atom_site_occupancy
  Sc  Sc0  1  0.75000000  0.49073500  0.81087100  1
  Sc  Sc1  1  0.25000000  0.00926500  0.31087100  1
  Sc  Sc2  1  0.75000000  0.99073500  0.68912900  1
  Sc  Sc3  1  0.25000000  0.50926500  0.18912900  1
  Si  Si4  1  0.25000000  0.78548900  0.88514900  1
  Si  Si5  1  0.25000000  0.28548900  0.61485100  1
  Si  Si6  1  0.75000000  0.21451100  0.11485100  1
  Si  Si7  1  0.75000000  0.71451100  0.38514900  1
  Rh  Rh8  1  0.25000000  0.65673400  0.56296800  1
  Rh  Rh9  1  0.25000000  0.15673400  0.93703200  1
  Rh  Rh10  1  0.75000000  0.84326600  0.06296800  1
  Rh  Rh11  1  0.75000000  0.34326600  0.43703200  1
