# generated using pymatgen
data_SrCaSn
_symmetry_space_group_name_H-M   'P 1'
_cell_length_a   5.18789500
_cell_length_b   8.44246000
_cell_length_c   9.69276800
_cell_angle_alpha   90.00000000
_cell_angle_beta   90.00000000
_cell_angle_gamma   90.00000000
_symmetry_Int_Tables_number   1
_chemical_formula_structural   SrCaSn
_chemical_formula_sum   'Sr4 Ca4 Sn4'
_cell_volume   424.52962996
_cell_formula_units_Z   4
loop_
 _symmetry_equiv_pos_site_id
 _symmetry_equiv_pos_as_xyz
  1  'x, y, z'
loop_
 _atom_site_type_symbol
 _atom_site_label
 _atom_site_symmetry_multiplicity
 _atom_site_fract_x
 _atom_site_fract_y
 _atom_site_fract_z
 _atom_site_occupancy
  Sr  Sr0  1  0.75000000  0.97848400  0.68206100  1
  Sr  Sr1  1  0.25000000  0.02151600  0.31793900  1
  Sr  Sr2  1  0.75000000  0.47848400  0.81793900  1
  Sr  Sr3  1  0.25000000  0.52151600  0.18206100  1
  Ca  Ca4  1  0.75000000  0.85027700  0.07016200  1
  Ca  Ca5  1  0.25000000  0.14972300  0.92983800  1
  Ca  Ca6  1  0.75000000  0.35027700  0.42983800  1
  Ca  Ca7  1  0.25000000  0.64972300  0.57016200  1
  Sn  Sn8  1  0.75000000  0.73699800  0.39003000  1
  Sn  Sn9  1  0.25000000  0.26300200  0.60997000  1
  Sn  Sn10  1  0.75000000  0.23699800  0.10997000  1
  Sn  Sn11  1  0.25000000  0.76300200  0.89003000  1
