# generated using pymatgen
data_LiFe2P3O10
_symmetry_space_group_name_H-M   'P 1'
_cell_length_a   8.70129900
_cell_length_b   4.70366700
_cell_length_c   9.09817529
_cell_angle_alpha   83.54785580
_cell_angle_beta   90.00000000
_cell_angle_gamma   90.00000000
_symmetry_Int_Tables_number   1
_chemical_formula_structural   LiFe2P3O10
_chemical_formula_sum   'Li2 Fe4 P6 O20'
_cell_volume   370.01166574
_cell_formula_units_Z   2
loop_
 _symmetry_equiv_pos_site_id
 _symmetry_equiv_pos_as_xyz
  1  'x, y, z'
loop_
 _atom_site_type_symbol
 _atom_site_label
 _atom_site_symmetry_multiplicity
 _atom_site_fract_x
 _atom_site_fract_y
 _atom_site_fract_z
 _atom_site_occupancy
  Li  Li0  1  0.00000000  0.00000000  0.00000000  1
  Li  Li1  1  0.50000000  0.00000000  0.00000000  1
  Fe  Fe2  1  0.06857600  0.03353400  0.66621700  1
  Fe  Fe3  1  0.43142400  0.03353400  0.66621700  1
  Fe  Fe4  1  0.93142400  0.96646600  0.33378300  1
  Fe  Fe5  1  0.56857600  0.96646600  0.33378300  1
  P  P6  1  0.25000000  0.33194600  0.17671900  1
  P  P7  1  0.75000000  0.39841400  0.53471500  1
  P  P8  1  0.25000000  0.60158600  0.46528500  1
  P  P9  1  0.25000000  0.45878700  0.85764000  1
  P  P10  1  0.75000000  0.66805400  0.82328100  1
  P  P11  1  0.75000000  0.54121300  0.14236000  1
  O  O12  1  0.60298100  0.71624100  0.15708300  1
  O  O13  1  0.39701900  0.28375900  0.84291700  1
  O  O14  1  0.39831500  0.16353800  0.18368900  1
  O  O15  1  0.25000000  0.56441400  0.29011300  1
  O  O16  1  0.25000000  0.55010100  0.02666300  1
  O  O17  1  0.75000000  0.44989900  0.97333700  1
  O  O18  1  0.75000000  0.24831100  0.23447600  1
  O  O19  1  0.75000000  0.69656700  0.44855700  1
  O  O20  1  0.75000000  0.43558600  0.70988700  1
  O  O21  1  0.25000000  0.30343300  0.55144300  1
  O  O22  1  0.25000000  0.75168900  0.76552400  1
  O  O23  1  0.89701900  0.71624100  0.15708300  1
  O  O24  1  0.89831500  0.83646200  0.81631100  1
  O  O25  1  0.60206900  0.22839400  0.51270100  1
  O  O26  1  0.10168500  0.16353800  0.18368900  1
  O  O27  1  0.10298100  0.28375900  0.84291700  1
  O  O28  1  0.89793100  0.22839400  0.51270100  1
  O  O29  1  0.39793100  0.77160600  0.48729900  1
  O  O30  1  0.60168500  0.83646200  0.81631100  1
  O  O31  1  0.10206900  0.77160600  0.48729900  1
