# generated using pymatgen
data_V2Se3O11
_symmetry_space_group_name_H-M   'P 1'
_cell_length_a   6.42882500
_cell_length_b   9.49829400
_cell_length_c   15.40187848
_cell_angle_alpha   86.75510998
_cell_angle_beta   90.00000000
_cell_angle_gamma   90.00000000
_symmetry_Int_Tables_number   1
_chemical_formula_structural   V2Se3O11
_chemical_formula_sum   'V8 Se12 O44'
_cell_volume   938.97504746
_cell_formula_units_Z   4
loop_
 _symmetry_equiv_pos_site_id
 _symmetry_equiv_pos_as_xyz
  1  'x, y, z'
loop_
 _atom_site_type_symbol
 _atom_site_label
 _atom_site_symmetry_multiplicity
 _atom_site_fract_x
 _atom_site_fract_y
 _atom_site_fract_z
 _atom_site_occupancy
  V  V0  1  0.48165400  0.85679700  0.91196100  1
  V  V1  1  0.98165400  0.64320300  0.08803900  1
  V  V2  1  0.51834600  0.14320300  0.08803900  1
  V  V3  1  0.01834600  0.35679700  0.91196100  1
  V  V4  1  0.95065900  0.14745400  0.65661100  1
  V  V5  1  0.45065900  0.35254600  0.34338900  1
  V  V6  1  0.04934100  0.85254600  0.34338900  1
  V  V7  1  0.54934100  0.64745400  0.65661100  1
  Se  Se8  1  0.36637100  0.96029300  0.69957400  1
  Se  Se9  1  0.86637100  0.53970700  0.30042600  1
  Se  Se10  1  0.63362900  0.03970700  0.30042600  1
  Se  Se11  1  0.13362900  0.46029300  0.69957400  1
  Se  Se12  1  0.64324900  0.36481100  0.55238700  1
  Se  Se13  1  0.14324900  0.13518900  0.44761300  1
  Se  Se14  1  0.35675100  0.63518900  0.44761300  1
  Se  Se15  1  0.85675100  0.86481100  0.55238700  1
  Se  Se16  1  0.48850700  0.71599800  0.11595100  1
  Se  Se17  1  0.98850700  0.78400200  0.88404900  1
  Se  Se18  1  0.51149300  0.28400200  0.88404900  1
  Se  Se19  1  0.01149300  0.21599800  0.11595100  1
  O  O20  1  0.77512100  0.19854700  0.72360900  1
  O  O21  1  0.27512100  0.30145300  0.27639100  1
  O  O22  1  0.22487900  0.80145300  0.27639100  1
  O  O23  1  0.72487900  0.69854700  0.72360900  1
  O  O24  1  0.47608300  0.96373600  0.80344300  1
  O  O25  1  0.97608300  0.53626400  0.19655700  1
  O  O26  1  0.52391700  0.03626400  0.19655700  1
  O  O27  1  0.02391700  0.46373600  0.80344300  1
  O  O28  1  0.32460800  0.78172400  0.68741300  1
  O  O29  1  0.82460800  0.71827600  0.31258700  1
  O  O30  1  0.67539200  0.21827600  0.31258700  1
  O  O31  1  0.17539200  0.28172400  0.68741300  1
  O  O32  1  0.10905900  0.00430600  0.72362600  1
  O  O33  1  0.60905900  0.49569400  0.27637400  1
  O  O34  1  0.89094100  0.99569400  0.27637400  1
  O  O35  1  0.77068300  0.00434600  0.61355200  1
  O  O36  1  0.39094100  0.50430600  0.72362600  1
  O  O37  1  0.66679700  0.43243200  0.44800400  1
  O  O38  1  0.83320300  0.93243200  0.44800400  1
  O  O39  1  0.33320300  0.56756800  0.55199600  1
  O  O40  1  0.01125600  0.35896700  0.03747700  1
  O  O41  1  0.51125600  0.14103300  0.96252300  1
  O  O42  1  0.98874400  0.64103300  0.96252300  1
  O  O43  1  0.48874400  0.85896700  0.03747700  1
  O  O44  1  0.81638900  0.11014700  0.07767700  1
  O  O45  1  0.31638900  0.38985300  0.92232300  1
  O  O46  1  0.18361100  0.88985300  0.92232300  1
  O  O47  1  0.68361100  0.61014700  0.07767700  1
  O  O48  1  0.21773800  0.11345600  0.08558000  1
  O  O49  1  0.71773800  0.38654400  0.91442000  1
  O  O50  1  0.78226200  0.88654400  0.91442000  1
  O  O51  1  0.28226200  0.61345600  0.08558000  1
  O  O52  1  0.02653000  0.19481700  0.88953400  1
  O  O53  1  0.52653000  0.30518300  0.11046600  1
  O  O54  1  0.97347000  0.80518300  0.11046600  1
  O  O55  1  0.47347000  0.69481700  0.88953400  1
  O  O56  1  0.61570300  0.77362000  0.55919400  1
  O  O57  1  0.11570300  0.72638000  0.44080600  1
  O  O58  1  0.38429700  0.22638000  0.44080600  1
  O  O59  1  0.88429700  0.27362000  0.55919400  1
  O  O60  1  0.72931700  0.50434600  0.61355200  1
  O  O61  1  0.22931700  0.99565400  0.38644800  1
  O  O62  1  0.27068300  0.49565400  0.38644800  1
  O  O63  1  0.16679700  0.06756800  0.55199600  1
