# generated using pymatgen
data_Al8Mo3
_symmetry_space_group_name_H-M   'P 1'
_cell_length_a   4.96465501
_cell_length_b   4.96465501
_cell_length_c   10.08558979
_cell_angle_alpha   80.01761091
_cell_angle_beta   80.01761091
_cell_angle_gamma   43.18767712
_symmetry_Int_Tables_number   1
_chemical_formula_structural   Al8Mo3
_chemical_formula_sum   'Al8 Mo3'
_cell_volume   167.14825081
_cell_formula_units_Z   1
loop_
 _symmetry_equiv_pos_site_id
 _symmetry_equiv_pos_as_xyz
  1  'x, y, z'
loop_
 _atom_site_type_symbol
 _atom_site_label
 _atom_site_symmetry_multiplicity
 _atom_site_fract_x
 _atom_site_fract_y
 _atom_site_fract_z
 _atom_site_occupancy
  Al  Al0  1  0.72768200  0.72768200  0.90982000  1
  Al  Al1  1  0.27231800  0.27231800  0.09018000  1
  Al  Al2  1  0.53983700  0.53983700  0.17914700  1
  Al  Al3  1  0.46016300  0.46016300  0.82085300  1
  Al  Al4  1  0.81346000  0.81346000  0.27788100  1
  Al  Al5  1  0.18654000  0.18654000  0.72211900  1
  Al  Al6  1  0.63180500  0.63180500  0.54170300  1
  Al  Al7  1  0.36819500  0.36819500  0.45829700  1
  Mo  Mo8  1  0.00000000  0.00000000  0.00000000  1
  Mo  Mo9  1  0.90541100  0.90541100  0.65946100  1
  Mo  Mo10  1  0.09458900  0.09458900  0.34053900  1
