# generated using pymatgen
data_KBiP2S7
_symmetry_space_group_name_H-M   'P 1'
_cell_length_a   12.74412400
_cell_length_b   9.23819800
_cell_length_c   9.77734716
_cell_angle_alpha   89.57882243
_cell_angle_beta   90.00000000
_cell_angle_gamma   90.00000000
_symmetry_Int_Tables_number   1
_chemical_formula_structural   KBiP2S7
_chemical_formula_sum   'K4 Bi4 P8 S28'
_cell_volume   1151.08277909
_cell_formula_units_Z   4
loop_
 _symmetry_equiv_pos_site_id
 _symmetry_equiv_pos_as_xyz
  1  'x, y, z'
loop_
 _atom_site_type_symbol
 _atom_site_label
 _atom_site_symmetry_multiplicity
 _atom_site_fract_x
 _atom_site_fract_y
 _atom_site_fract_z
 _atom_site_occupancy
  K  K0  1  0.68835100  0.62600600  0.88816200  1
  K  K1  1  0.18835100  0.87399400  0.11183800  1
  K  K2  1  0.31164900  0.37399400  0.11183800  1
  K  K3  1  0.81164900  0.12600600  0.88816200  1
  Bi  Bi4  1  0.63697900  0.37360100  0.34831400  1
  Bi  Bi5  1  0.13697900  0.12639900  0.65168600  1
  Bi  Bi6  1  0.36302100  0.62639900  0.65168600  1
  Bi  Bi7  1  0.86302100  0.87360100  0.34831400  1
  P  P8  1  0.60873400  0.01692100  0.22778800  1
  P  P9  1  0.10873400  0.48307900  0.77221200  1
  P  P10  1  0.39126600  0.98307900  0.77221200  1
  P  P11  1  0.89126600  0.51692100  0.22778800  1
  P  P12  1  0.53417200  0.30203700  0.67915900  1
  P  P13  1  0.03417200  0.19796300  0.32084100  1
  P  P14  1  0.46582800  0.69796300  0.32084100  1
  P  P15  1  0.96582800  0.80203700  0.67915900  1
  S  S16  1  0.81123200  0.84472600  0.65539600  1
  S  S17  1  0.31123200  0.65527400  0.34460400  1
  S  S18  1  0.18876800  0.15527400  0.34460400  1
  S  S19  1  0.68876800  0.34472600  0.65539600  1
  S  S20  1  0.71092400  0.89039300  0.12384400  1
  S  S21  1  0.21092400  0.60960700  0.87615600  1
  S  S22  1  0.28907600  0.10960700  0.87615600  1
  S  S23  1  0.78907600  0.39039300  0.12384400  1
  S  S24  1  0.96863400  0.06976200  0.17401500  1
  S  S25  1  0.46863400  0.43023800  0.82598500  1
  S  S26  1  0.03136600  0.93023800  0.82598500  1
  S  S27  1  0.53136600  0.56976200  0.17401500  1
  S  S28  1  0.82468200  0.56942100  0.41002400  1
  S  S29  1  0.32468200  0.93057900  0.58997600  1
  S  S30  1  0.17531800  0.43057900  0.58997600  1
  S  S31  1  0.67531800  0.06942100  0.41002400  1
  S  S32  1  0.05038500  0.81561100  0.50274800  1
  S  S33  1  0.55038500  0.68438900  0.49725200  1
  S  S34  1  0.94961500  0.18438900  0.49725200  1
  S  S35  1  0.44961500  0.31561100  0.50274800  1
  S  S36  1  0.45748900  0.91722100  0.24878800  1
  S  S37  1  0.95748900  0.58277900  0.75121200  1
  S  S38  1  0.54251100  0.08277900  0.75121200  1
  S  S39  1  0.04251100  0.41722100  0.24878800  1
  S  S40  1  0.94231900  0.70257100  0.13363000  1
  S  S41  1  0.44231900  0.79742900  0.86637000  1
  S  S42  1  0.05768100  0.29742900  0.86637000  1
  S  S43  1  0.55768100  0.20257100  0.13363000  1
