# generated using pymatgen
data_Zn2(PS3)3
_symmetry_space_group_name_H-M   'P 1'
_cell_length_a   10.85222858
_cell_length_b   10.85222858
_cell_length_c   7.12886410
_cell_angle_alpha   85.62253865
_cell_angle_beta   85.62253865
_cell_angle_gamma   59.74786324
_symmetry_Int_Tables_number   1
_chemical_formula_structural   Zn2(PS3)3
_chemical_formula_sum   'Zn4 P6 S18'
_cell_volume   722.42170534
_cell_formula_units_Z   2
loop_
 _symmetry_equiv_pos_site_id
 _symmetry_equiv_pos_as_xyz
  1  'x, y, z'
loop_
 _atom_site_type_symbol
 _atom_site_label
 _atom_site_symmetry_multiplicity
 _atom_site_fract_x
 _atom_site_fract_y
 _atom_site_fract_z
 _atom_site_occupancy
  Zn  Zn0  1  0.95239400  0.29436200  0.33871900  1
  Zn  Zn1  1  0.70563800  0.04760600  0.66128100  1
  Zn  Zn2  1  0.04760600  0.70563800  0.66128100  1
  Zn  Zn3  1  0.29436200  0.95239400  0.33871900  1
  P  P4  1  0.27623700  0.27623700  0.38830200  1
  P  P5  1  0.72376300  0.72376300  0.61169800  1
  P  P6  1  0.02415100  0.02415100  0.63912100  1
  P  P7  1  0.97584900  0.97584900  0.36087900  1
  P  P8  1  0.37106200  0.37106200  0.69074200  1
  P  P9  1  0.62893800  0.62893800  0.30925800  1
  S  S10  1  0.25796300  0.25796300  0.69020600  1
  S  S11  1  0.06900100  0.06900100  0.17969200  1
  S  S12  1  0.61100400  0.61100400  0.61043200  1
  S  S13  1  0.38899600  0.38899600  0.38956800  1
  S  S14  1  0.23841000  0.91899400  0.65830800  1
  S  S15  1  0.93099900  0.93099900  0.82030800  1
  S  S16  1  0.76159000  0.08100600  0.34169200  1
  S  S17  1  0.91899400  0.23841000  0.65830800  1
  S  S18  1  0.40651700  0.08888600  0.26941600  1
  S  S19  1  0.91111400  0.59348300  0.73058400  1
  S  S20  1  0.59348300  0.91111400  0.73058400  1
  S  S21  1  0.08888600  0.40651700  0.26941600  1
  S  S22  1  0.55934200  0.26349100  0.81474900  1
  S  S23  1  0.73650900  0.44065800  0.18525100  1
  S  S24  1  0.44065800  0.73650900  0.18525100  1
  S  S25  1  0.26349100  0.55934200  0.81474900  1
  S  S26  1  0.08100600  0.76159000  0.34169200  1
  S  S27  1  0.74203700  0.74203700  0.30979400  1
