# generated using pymatgen
data_LaIn4Ni
_symmetry_space_group_name_H-M   'P 1'
_cell_length_a   8.85110706
_cell_length_b   8.85110732
_cell_length_c   7.27815500
_cell_angle_alpha   90.00000000
_cell_angle_beta   90.00000000
_cell_angle_gamma   150.12169272
_symmetry_Int_Tables_number   1
_chemical_formula_structural   LaIn4Ni
_chemical_formula_sum   'La2 In8 Ni2'
_cell_volume   284.04353421
_cell_formula_units_Z   2
loop_
 _symmetry_equiv_pos_site_id
 _symmetry_equiv_pos_as_xyz
  1  'x, y, z'
loop_
 _atom_site_type_symbol
 _atom_site_label
 _atom_site_symmetry_multiplicity
 _atom_site_fract_x
 _atom_site_fract_y
 _atom_site_fract_z
 _atom_site_occupancy
  La  La0  1  0.88232400  0.11767600  0.75000000  1
  La  La1  1  0.11767600  0.88232400  0.25000000  1
  In  In2  1  0.50000000  0.50000000  0.00000000  1
  In  In3  1  0.50000000  0.50000000  0.50000000  1
  In  In4  1  0.07629200  0.92370800  0.75000000  1
  In  In5  1  0.92370800  0.07629200  0.25000000  1
  In  In6  1  0.68866500  0.31133500  0.95347700  1
  In  In7  1  0.31133500  0.68866500  0.04652300  1
  In  In8  1  0.68866500  0.31133500  0.54652300  1
  In  In9  1  0.31133500  0.68866500  0.45347700  1
  Ni  Ni10  1  0.22515500  0.77484500  0.75000000  1
  Ni  Ni11  1  0.77484500  0.22515500  0.25000000  1
