# generated using pymatgen
data_CrH17N4Cl2O3
_symmetry_space_group_name_H-M   'P 1'
_cell_length_a   6.83627700
_cell_length_b   7.93084114
_cell_length_c   10.44820070
_cell_angle_alpha   92.58304310
_cell_angle_beta   106.13991675
_cell_angle_gamma   105.67435795
_symmetry_Int_Tables_number   1
_chemical_formula_structural   CrH17N4Cl2O3
_chemical_formula_sum   'Cr2 H34 N8 Cl4 O6'
_cell_volume   519.47072739
_cell_formula_units_Z   2
loop_
 _symmetry_equiv_pos_site_id
 _symmetry_equiv_pos_as_xyz
  1  'x, y, z'
loop_
 _atom_site_type_symbol
 _atom_site_label
 _atom_site_symmetry_multiplicity
 _atom_site_fract_x
 _atom_site_fract_y
 _atom_site_fract_z
 _atom_site_occupancy
  Cr  Cr0  1  0.98895500  0.99234500  0.85039100  1
  Cr  Cr1  1  0.01104500  0.00765500  0.14960900  1
  H  H2  1  0.53972100  0.32805500  0.59271100  1
  H  H3  1  0.46027900  0.67194500  0.40728900  1
  H  H4  1  0.74455400  0.39014700  0.54807700  1
  H  H5  1  0.25544600  0.60985300  0.45192300  1
  H  H6  1  0.60608000  0.32768400  0.15870700  1
  H  H7  1  0.39392000  0.67231600  0.84129300  1
  H  H8  1  0.67225000  0.42761400  0.30658900  1
  H  H9  1  0.32775000  0.57238600  0.69341100  1
  H  H10  1  0.25596400  0.88667100  0.73421800  1
  H  H11  1  0.74403600  0.11332900  0.26578200  1
  H  H12  1  0.19123900  0.05769900  0.66384300  1
  H  H13  1  0.80876100  0.94230100  0.33615700  1
  H  H14  1  0.36286100  0.09162100  0.81484800  1
  H  H15  1  0.63713900  0.90837900  0.18515200  1
  H  H16  1  0.71171400  0.08330500  0.64249300  1
  H  H17  1  0.28828600  0.91669500  0.35750700  1
  H  H18  1  0.76159200  0.90024500  0.59205100  1
  H  H19  1  0.23840800  0.09975500  0.40794900  1
  H  H20  1  0.60409800  0.88621100  0.68728100  1
  H  H21  1  0.39590200  0.11378900  0.31271900  1
  H  H22  1  0.26782700  0.91336200  0.04000500  1
  H  H23  1  0.73217300  0.08663800  0.95999500  1
  H  H24  1  0.11050500  0.33110500  0.27929600  1
  H  H25  1  0.88949500  0.66889500  0.72070400  1
  H  H26  1  0.24337500  0.34509900  0.16943500  1
  H  H27  1  0.75662500  0.65490100  0.83056500  1
  H  H28  1  0.98595600  0.33509400  0.11919200  1
  H  H29  1  0.01404400  0.66490600  0.88080800  1
  H  H30  1  0.92269600  0.70047800  0.24247000  1
  H  H31  1  0.07730400  0.29952200  0.75753000  1
  H  H32  1  0.78661100  0.66279900  0.08149700  1
  H  H33  1  0.21338900  0.33720100  0.91850300  1
  H  H34  1  0.04583000  0.68129100  0.12904700  1
  H  H35  1  0.95417000  0.31870900  0.87095300  1
  N  N36  1  0.22409700  0.00404100  0.75230100  1
  N  N37  1  0.77590300  0.99595900  0.24769900  1
  N  N38  1  0.73918800  0.96650400  0.67139600  1
  N  N39  1  0.26081200  0.03349600  0.32860400  1
  N  N40  1  0.06878900  0.26929500  0.85103800  1
  N  N41  1  0.93121100  0.73070500  0.14896200  1
  N  N42  1  0.90228800  0.71270600  0.81765700  1
  N  N43  1  0.09771200  0.28729400  0.18234300  1
  Cl  Cl44  1  0.80890800  0.67420500  0.45279400  1
  Cl  Cl45  1  0.19109200  0.32579500  0.54720600  1
  Cl  Cl46  1  0.65173900  0.33005100  0.95766700  1
  Cl  Cl47  1  0.34826100  0.66994900  0.04233300  1
  O  O48  1  0.68067300  0.31040400  0.60413100  1
  O  O49  1  0.31932700  0.68959600  0.39586900  1
  O  O50  1  0.60429600  0.31061500  0.25173300  1
  O  O51  1  0.39570400  0.68938500  0.74826700  1
  O  O52  1  0.80004500  0.99019500  0.96769500  1
  O  O53  1  0.19995500  0.00980500  0.03230500  1
