# generated using pymatgen
data_SmMnO3
_symmetry_space_group_name_H-M   'P 1'
_cell_length_a   5.42892400
_cell_length_b   5.90686400
_cell_length_c   7.60301300
_cell_angle_alpha   90.00000000
_cell_angle_beta   90.00000000
_cell_angle_gamma   90.00000000
_symmetry_Int_Tables_number   1
_chemical_formula_structural   SmMnO3
_chemical_formula_sum   'Sm4 Mn4 O12'
_cell_volume   243.81278021
_cell_formula_units_Z   4
loop_
 _symmetry_equiv_pos_site_id
 _symmetry_equiv_pos_as_xyz
  1  'x, y, z'
loop_
 _atom_site_type_symbol
 _atom_site_label
 _atom_site_symmetry_multiplicity
 _atom_site_fract_x
 _atom_site_fract_y
 _atom_site_fract_z
 _atom_site_occupancy
  Sm  Sm0  1  0.01741600  0.92339900  0.75000000  1
  Sm  Sm1  1  0.51741600  0.57660100  0.25000000  1
  Sm  Sm2  1  0.48258400  0.42339900  0.75000000  1
  Sm  Sm3  1  0.98258400  0.07660100  0.25000000  1
  Mn  Mn4  1  0.50000000  0.00000000  0.50000000  1
  Mn  Mn5  1  0.00000000  0.50000000  0.50000000  1
  Mn  Mn6  1  0.00000000  0.50000000  0.00000000  1
  Mn  Mn7  1  0.50000000  0.00000000  0.00000000  1
  O  O8  1  0.70835500  0.31997200  0.44821400  1
  O  O9  1  0.20835500  0.18002800  0.55178600  1
  O  O10  1  0.79164500  0.81997200  0.05178600  1
  O  O11  1  0.29164500  0.68002800  0.94821400  1
  O  O12  1  0.29164500  0.68002800  0.55178600  1
  O  O13  1  0.79164500  0.81997200  0.44821400  1
  O  O14  1  0.20835500  0.18002800  0.94821400  1
  O  O15  1  0.70835500  0.31997200  0.05178600  1
  O  O16  1  0.10564500  0.46744400  0.25000000  1
  O  O17  1  0.60564500  0.03255600  0.75000000  1
  O  O18  1  0.39435500  0.96744400  0.25000000  1
  O  O19  1  0.89435500  0.53255600  0.75000000  1
