# generated using pymatgen
data_DyVO3
_symmetry_space_group_name_H-M   'P 1'
_cell_length_a   5.33421100
_cell_length_b   5.74310000
_cell_length_c   7.63590400
_cell_angle_alpha   90.00000000
_cell_angle_beta   90.00000000
_cell_angle_gamma   90.00000000
_symmetry_Int_Tables_number   1
_chemical_formula_structural   DyVO3
_chemical_formula_sum   'Dy4 V4 O12'
_cell_volume   233.92521038
_cell_formula_units_Z   4
loop_
 _symmetry_equiv_pos_site_id
 _symmetry_equiv_pos_as_xyz
  1  'x, y, z'
loop_
 _atom_site_type_symbol
 _atom_site_label
 _atom_site_symmetry_multiplicity
 _atom_site_fract_x
 _atom_site_fract_y
 _atom_site_fract_z
 _atom_site_occupancy
  Dy  Dy0  1  0.02019300  0.07038900  0.75000000  1
  Dy  Dy1  1  0.52019300  0.42961100  0.25000000  1
  Dy  Dy2  1  0.47980700  0.57038900  0.75000000  1
  Dy  Dy3  1  0.97980700  0.92961100  0.25000000  1
  V  V4  1  0.50000000  0.00000000  0.50000000  1
  V  V5  1  0.00000000  0.50000000  0.50000000  1
  V  V6  1  0.00000000  0.50000000  0.00000000  1
  V  V7  1  0.50000000  0.00000000  0.00000000  1
  O  O8  1  0.69482300  0.68911900  0.44060600  1
  O  O9  1  0.19482300  0.81088100  0.55939400  1
  O  O10  1  0.80517700  0.18911900  0.05939400  1
  O  O11  1  0.30517700  0.31088100  0.94060600  1
  O  O12  1  0.30517700  0.31088100  0.55939400  1
  O  O13  1  0.80517700  0.18911900  0.44060600  1
  O  O14  1  0.19482300  0.81088100  0.94060600  1
  O  O15  1  0.69482300  0.68911900  0.05939400  1
  O  O16  1  0.11877400  0.54623600  0.25000000  1
  O  O17  1  0.61877400  0.95376400  0.75000000  1
  O  O18  1  0.38122600  0.04623600  0.25000000  1
  O  O19  1  0.88122600  0.45376400  0.75000000  1
