# generated using pymatgen
data_K2UCl5
_symmetry_space_group_name_H-M   'P 1'
_cell_length_a   8.15593800
_cell_length_b   8.81294000
_cell_length_c   13.04411200
_cell_angle_alpha   90.00000000
_cell_angle_beta   90.00000000
_cell_angle_gamma   90.00000000
_symmetry_Int_Tables_number   1
_chemical_formula_structural   K2UCl5
_chemical_formula_sum   'K8 U4 Cl20'
_cell_volume   937.58197226
_cell_formula_units_Z   4
loop_
 _symmetry_equiv_pos_site_id
 _symmetry_equiv_pos_as_xyz
  1  'x, y, z'
loop_
 _atom_site_type_symbol
 _atom_site_label
 _atom_site_symmetry_multiplicity
 _atom_site_fract_x
 _atom_site_fract_y
 _atom_site_fract_z
 _atom_site_occupancy
  K  K0  1  0.95012000  0.00480500  0.82925000  1
  K  K1  1  0.45012000  0.99519500  0.67075000  1
  K  K2  1  0.04988000  0.50480500  0.17075000  1
  K  K3  1  0.54988000  0.49519500  0.32925000  1
  K  K4  1  0.04988000  0.99519500  0.17075000  1
  K  K5  1  0.54988000  0.00480500  0.32925000  1
  K  K6  1  0.95012000  0.49519500  0.82925000  1
  K  K7  1  0.45012000  0.50480500  0.67075000  1
  U  U8  1  0.56974200  0.75000000  0.00277700  1
  U  U9  1  0.06974200  0.25000000  0.49722300  1
  U  U10  1  0.43025800  0.25000000  0.99722300  1
  U  U11  1  0.93025800  0.75000000  0.50277700  1
  Cl  Cl12  1  0.33734300  0.95887900  0.92100600  1
  Cl  Cl13  1  0.83734300  0.04112100  0.57899400  1
  Cl  Cl14  1  0.66265700  0.45887900  0.07899400  1
  Cl  Cl15  1  0.16265700  0.54112100  0.42100600  1
  Cl  Cl16  1  0.66265700  0.04112100  0.07899400  1
  Cl  Cl17  1  0.16265700  0.95887900  0.42100600  1
  Cl  Cl18  1  0.33734300  0.54112100  0.92100600  1
  Cl  Cl19  1  0.83734300  0.45887900  0.57899400  1
  Cl  Cl20  1  0.37219200  0.75000000  0.17739900  1
  Cl  Cl21  1  0.87219200  0.25000000  0.32260100  1
  Cl  Cl22  1  0.62780800  0.25000000  0.82260100  1
  Cl  Cl23  1  0.12780800  0.75000000  0.67739900  1
  Cl  Cl24  1  0.08079400  0.25000000  0.99301300  1
  Cl  Cl25  1  0.58079400  0.75000000  0.50698700  1
  Cl  Cl26  1  0.91920600  0.75000000  0.00698700  1
  Cl  Cl27  1  0.41920600  0.25000000  0.49301300  1
  Cl  Cl28  1  0.66311300  0.75000000  0.79675000  1
  Cl  Cl29  1  0.16311300  0.25000000  0.70325000  1
  Cl  Cl30  1  0.33688700  0.25000000  0.20325000  1
  Cl  Cl31  1  0.83688700  0.75000000  0.29675000  1
