# generated using pymatgen
data_CoCO3
_symmetry_space_group_name_H-M   'P 1'
_cell_length_a   4.70955201
_cell_length_b   5.72108637
_cell_length_c   4.70948218
_cell_angle_alpha   114.30788750
_cell_angle_beta   119.99591712
_cell_angle_gamma   90.00526530
_symmetry_Int_Tables_number   1
_chemical_formula_structural   CoCO3
_chemical_formula_sum   'Co2 C2 O6'
_cell_volume   96.68542241
_cell_formula_units_Z   2
loop_
 _symmetry_equiv_pos_site_id
 _symmetry_equiv_pos_as_xyz
  1  'x, y, z'
loop_
 _atom_site_type_symbol
 _atom_site_label
 _atom_site_symmetry_multiplicity
 _atom_site_fract_x
 _atom_site_fract_y
 _atom_site_fract_z
 _atom_site_occupancy
  Co  Co0  1  0.00000000  0.00000000  0.00000000  1
  Co  Co1  1  0.50000000  0.50000000  0.00000000  1
  C  C2  1  0.74998800  0.24995400  0.49996500  1
  C  C3  1  0.25001200  0.75004600  0.50003500  1
  O  O4  1  0.47432600  0.24997100  0.49994800  1
  O  O5  1  0.52567400  0.75002900  0.50005200  1
  O  O6  1  0.75001200  0.24994900  0.22433100  1
  O  O7  1  0.02561800  0.24996500  0.77561500  1
  O  O8  1  0.24998800  0.75005100  0.77566900  1
  O  O9  1  0.97438200  0.75003500  0.22438500  1
