# generated using pymatgen
data_Li2CrP2O7
_symmetry_space_group_name_H-M   'P 1'
_cell_length_a   8.18199302
_cell_length_b   8.18199302
_cell_length_c   8.94289177
_cell_angle_alpha   66.13887985
_cell_angle_beta   66.13887985
_cell_angle_gamma   35.88960270
_symmetry_Int_Tables_number   1
_chemical_formula_structural   Li2CrP2O7
_chemical_formula_sum   'Li4 Cr2 P4 O14'
_cell_volume   317.65505465
_cell_formula_units_Z   2
loop_
 _symmetry_equiv_pos_site_id
 _symmetry_equiv_pos_as_xyz
  1  'x, y, z'
loop_
 _atom_site_type_symbol
 _atom_site_label
 _atom_site_symmetry_multiplicity
 _atom_site_fract_x
 _atom_site_fract_y
 _atom_site_fract_z
 _atom_site_occupancy
  Li  Li0  1  0.83374400  0.54641400  0.44784400  1
  Li  Li1  1  0.16625600  0.45358600  0.55215600  1
  Li  Li2  1  0.45358600  0.16625600  0.05215600  1
  Li  Li3  1  0.54641400  0.83374400  0.94784400  1
  Cr  Cr4  1  0.50000000  0.50000000  0.00000000  1
  Cr  Cr5  1  0.50000000  0.50000000  0.50000000  1
  P  P6  1  0.23830400  0.96770500  0.68437400  1
  P  P7  1  0.76169600  0.03229500  0.31562600  1
  P  P8  1  0.96770500  0.23830400  0.18437400  1
  P  P9  1  0.03229500  0.76169600  0.81562600  1
  O  O10  1  0.75680500  0.44701300  0.05969500  1
  O  O11  1  0.74598700  0.89889500  0.88952200  1
  O  O12  1  0.25401300  0.10110500  0.11047800  1
  O  O13  1  0.10110500  0.25401300  0.61047800  1
  O  O14  1  0.01828300  0.98171700  0.25000000  1
  O  O15  1  0.83768000  0.37481000  0.33718800  1
  O  O16  1  0.24319500  0.55298700  0.94030500  1
  O  O17  1  0.37481000  0.83768000  0.83718800  1
  O  O18  1  0.89889500  0.74598700  0.38952200  1
  O  O19  1  0.98171700  0.01828300  0.75000000  1
  O  O20  1  0.62519000  0.16232000  0.16281200  1
  O  O21  1  0.55298700  0.24319500  0.44030500  1
  O  O22  1  0.16232000  0.62519000  0.66281200  1
  O  O23  1  0.44701300  0.75680500  0.55969500  1
