# generated using pymatgen
data_LiMo(PO4)2
_symmetry_space_group_name_H-M   'P 1'
_cell_length_a   12.15979300
_cell_length_b   10.12768700
_cell_length_c   16.95022388
_cell_angle_alpha   69.10991366
_cell_angle_beta   90.00000000
_cell_angle_gamma   90.00000000
_symmetry_Int_Tables_number   1
_chemical_formula_structural   LiMo(PO4)2
_chemical_formula_sum   'Li12 Mo12 P24 O96'
_cell_volume   1950.21513127
_cell_formula_units_Z   12
loop_
 _symmetry_equiv_pos_site_id
 _symmetry_equiv_pos_as_xyz
  1  'x, y, z'
loop_
 _atom_site_type_symbol
 _atom_site_label
 _atom_site_symmetry_multiplicity
 _atom_site_fract_x
 _atom_site_fract_y
 _atom_site_fract_z
 _atom_site_occupancy
  Li  Li0  1  0.56006400  0.88150200  0.02336300  1
  Li  Li1  1  0.05859800  0.45843300  0.14278900  1
  Li  Li2  1  0.93802700  0.22637600  0.21105400  1
  Li  Li3  1  0.55859800  0.54156700  0.35721100  1
  Li  Li4  1  0.43802700  0.77362400  0.28894600  1
  Li  Li5  1  0.06006400  0.11849800  0.47663700  1
  Li  Li6  1  0.93993600  0.88150200  0.52336300  1
  Li  Li7  1  0.56197300  0.22637600  0.71105400  1
  Li  Li8  1  0.44140200  0.45843300  0.64278900  1
  Li  Li9  1  0.06197300  0.77362400  0.78894600  1
  Li  Li10  1  0.94140200  0.54156700  0.85721100  1
  Li  Li11  1  0.43993600  0.11849800  0.97663700  1
  Mo  Mo12  1  0.20240000  0.71635200  0.08930400  1
  Mo  Mo13  1  0.71550900  0.62146700  0.07509100  1
  Mo  Mo14  1  0.80368800  0.95025500  0.23851300  1
  Mo  Mo15  1  0.30368800  0.04974500  0.26148700  1
  Mo  Mo16  1  0.21550900  0.37853300  0.42490900  1
  Mo  Mo17  1  0.70240000  0.28364800  0.41069600  1
  Mo  Mo18  1  0.29760000  0.71635200  0.58930400  1
  Mo  Mo19  1  0.78449100  0.62146700  0.57509100  1
  Mo  Mo20  1  0.69631200  0.95025500  0.73851300  1
  Mo  Mo21  1  0.19631200  0.04974500  0.76148700  1
  Mo  Mo22  1  0.28449100  0.37853300  0.92490900  1
  Mo  Mo23  1  0.79760000  0.28364800  0.91069600  1
  P  P24  1  0.04202000  0.29761400  0.02033500  1
  P  P25  1  0.45801700  0.62419700  0.15999000  1
  P  P26  1  0.19938600  0.06113600  0.05819500  1
  P  P27  1  0.32529500  0.40613800  0.12363900  1
  P  P28  1  0.70362900  0.26361900  0.11970700  1
  P  P29  1  0.55105200  0.02901300  0.15836800  1
  P  P30  1  0.82529500  0.59386200  0.37636100  1
  P  P31  1  0.95801700  0.37580300  0.34001000  1
  P  P32  1  0.05105200  0.97098700  0.34163200  1
  P  P33  1  0.20362900  0.73638100  0.38029300  1
  P  P34  1  0.69938600  0.93886400  0.44180500  1
  P  P35  1  0.45798000  0.29761400  0.52033500  1
  P  P36  1  0.54202000  0.70238600  0.47966500  1
  P  P37  1  0.30061400  0.06113600  0.55819500  1
  P  P38  1  0.79637100  0.26361900  0.61970700  1
  P  P39  1  0.94894800  0.02901300  0.65836800  1
  P  P40  1  0.04198300  0.62419700  0.65999000  1
  P  P41  1  0.17470500  0.40613800  0.62363900  1
  P  P42  1  0.44894800  0.97098700  0.84163200  1
  P  P43  1  0.29637100  0.73638100  0.88029300  1
  P  P44  1  0.67470500  0.59386200  0.87636100  1
  P  P45  1  0.80061400  0.93886400  0.94180500  1
  P  P46  1  0.54198300  0.37580300  0.84001000  1
  P  P47  1  0.95798000  0.70238600  0.97966500  1
  O  O48  1  0.71515700  0.83493200  0.00072900  1
  O  O49  1  0.18900200  0.93162500  0.03258300  1
  O  O50  1  0.86139300  0.60182400  0.02042300  1
  O  O51  1  0.05098300  0.67029700  0.04532400  1
  O  O52  1  0.35642800  0.41202800  0.03595900  1
  O  O53  1  0.55483400  0.67269700  0.09668600  1
  O  O54  1  0.73119600  0.26908600  0.03173800  1
  O  O55  1  0.36301700  0.72819900  0.12047000  1
  O  O56  1  0.08124100  0.13771100  0.03507500  1
  O  O57  1  0.22298100  0.49797100  0.12433900  1
  O  O58  1  0.00986200  0.30833600  0.10356000  1
  O  O59  1  0.77005000  0.63454400  0.16436700  1
  O  O60  1  0.14503900  0.70661300  0.18271400  1
  O  O61  1  0.69250500  0.40616300  0.12944700  1
  O  O62  1  0.52886100  0.02177100  0.07285200  1
  O  O63  1  0.42515600  0.46878000  0.16260300  1
  O  O64  1  0.58468400  0.18928200  0.14769800  1
  O  O65  1  0.48503300  0.61867300  0.24781700  1
  O  O66  1  0.30733500  0.25728500  0.18523000  1
  O  O67  1  0.22583900  0.02680700  0.15022000  1
  O  O68  1  0.78644200  0.16948000  0.18645000  1
  O  O69  1  0.86643100  0.92702600  0.15499000  1
  O  O70  1  0.98503300  0.38132700  0.25218300  1
  O  O71  1  0.44956100  0.99093100  0.21676700  1
  O  O72  1  0.64491500  0.92954600  0.20541200  1
  O  O73  1  0.92515600  0.53122000  0.33739700  1
  O  O74  1  0.19250500  0.59383700  0.37055300  1
  O  O75  1  0.64503900  0.29338700  0.31728600  1
  O  O76  1  0.27005000  0.36545600  0.33563300  1
  O  O77  1  0.72298100  0.50202900  0.37566100  1
  O  O78  1  0.14491500  0.07045400  0.29458800  1
  O  O79  1  0.94956100  0.00906900  0.28323300  1
  O  O80  1  0.86301700  0.27180100  0.37953000  1
  O  O81  1  0.36643100  0.07297400  0.34501000  1
  O  O82  1  0.05483400  0.32730300  0.40331400  1
  O  O83  1  0.28644200  0.83052000  0.31355000  1
  O  O84  1  0.72583900  0.97319300  0.34978000  1
  O  O85  1  0.80733500  0.74271500  0.31477000  1
  O  O86  1  0.08468400  0.81071800  0.35230200  1
  O  O87  1  0.55098300  0.32970300  0.45467600  1
  O  O88  1  0.36139300  0.39817600  0.47957700  1
  O  O89  1  0.02886100  0.97822900  0.42714800  1
  O  O90  1  0.50986200  0.69166400  0.39644000  1
  O  O91  1  0.68900200  0.06837500  0.46741700  1
  O  O92  1  0.14357200  0.41202800  0.53595900  1
  O  O93  1  0.21515700  0.16506800  0.49927100  1
  O  O94  1  0.76880400  0.26908600  0.53173800  1
  O  O95  1  0.58124100  0.86228900  0.46492500  1
  O  O96  1  0.41875900  0.13771100  0.53507500  1
  O  O97  1  0.23119600  0.73091400  0.46826200  1
  O  O98  1  0.78484300  0.83493200  0.50072900  1
  O  O99  1  0.85642800  0.58797200  0.46404100  1
  O  O100  1  0.31099800  0.93162500  0.53258300  1
  O  O101  1  0.49013800  0.30833600  0.60356000  1
  O  O102  1  0.97113900  0.02177100  0.57285200  1
  O  O103  1  0.63860700  0.60182400  0.52042300  1
  O  O104  1  0.44901700  0.67029700  0.54532400  1
  O  O105  1  0.91531600  0.18928200  0.64769800  1
  O  O106  1  0.19266500  0.25728500  0.68523000  1
  O  O107  1  0.27416100  0.02680700  0.65022000  1
  O  O108  1  0.71355800  0.16948000  0.68645000  1
  O  O109  1  0.94516600  0.67269700  0.59668600  1
  O  O110  1  0.63356900  0.92702600  0.65499000  1
  O  O111  1  0.13698300  0.72819900  0.62047000  1
  O  O112  1  0.05043900  0.99093100  0.71676700  1
  O  O113  1  0.85508500  0.92954600  0.70541200  1
  O  O114  1  0.27701900  0.49797100  0.62433900  1
  O  O115  1  0.72995000  0.63454400  0.66436700  1
  O  O116  1  0.35496100  0.70661300  0.68271400  1
  O  O117  1  0.80749500  0.40616300  0.62944700  1
  O  O118  1  0.07484400  0.46878000  0.66260300  1
  O  O119  1  0.35508500  0.07045400  0.79458800  1
  O  O120  1  0.55043900  0.00906900  0.78323300  1
  O  O121  1  0.01496700  0.61867300  0.74781700  1
  O  O122  1  0.13356900  0.07297400  0.84501000  1
  O  O123  1  0.21355800  0.83052000  0.81355000  1
  O  O124  1  0.77416100  0.97319300  0.84978000  1
  O  O125  1  0.69266500  0.74271500  0.81477000  1
  O  O126  1  0.51496700  0.38132700  0.75218300  1
  O  O127  1  0.41531600  0.81071800  0.85230200  1
  O  O128  1  0.57484400  0.53122000  0.83739700  1
  O  O129  1  0.47113900  0.97822900  0.92714800  1
  O  O130  1  0.30749500  0.59383700  0.87055300  1
  O  O131  1  0.85496100  0.29338700  0.81728600  1
  O  O132  1  0.22995000  0.36545600  0.83563300  1
  O  O133  1  0.99013800  0.69166400  0.89644000  1
  O  O134  1  0.77701900  0.50202900  0.87566100  1
  O  O135  1  0.91875900  0.86228900  0.96492500  1
  O  O136  1  0.63698300  0.27180100  0.87953000  1
  O  O137  1  0.26880400  0.73091400  0.96826200  1
  O  O138  1  0.44516600  0.32730300  0.90331400  1
  O  O139  1  0.64357200  0.58797200  0.96404100  1
  O  O140  1  0.94901700  0.32970300  0.95467600  1
  O  O141  1  0.13860700  0.39817600  0.97957700  1
  O  O142  1  0.81099800  0.06837500  0.96741700  1
  O  O143  1  0.28484300  0.16506800  0.99927100  1
