# generated using pymatgen
data_Na3CuO3
_symmetry_space_group_name_H-M   'P 1'
_cell_length_a   8.22557138
_cell_length_b   8.22557138
_cell_length_c   16.49822900
_cell_angle_alpha   90.00000000
_cell_angle_beta   90.00000000
_cell_angle_gamma   95.73051089
_symmetry_Int_Tables_number   1
_chemical_formula_structural   Na3CuO3
_chemical_formula_sum   'Na36 Cu12 O36'
_cell_volume   1110.69205962
_cell_formula_units_Z   12
loop_
 _symmetry_equiv_pos_site_id
 _symmetry_equiv_pos_as_xyz
  1  'x, y, z'
loop_
 _atom_site_type_symbol
 _atom_site_label
 _atom_site_symmetry_multiplicity
 _atom_site_fract_x
 _atom_site_fract_y
 _atom_site_fract_z
 _atom_site_occupancy
  Na  Na0  1  0.52476700  0.47523300  0.27998100  1
  Na  Na1  1  0.97523300  0.02476700  0.77998100  1
  Na  Na2  1  0.47523300  0.52476700  0.72001900  1
  Na  Na3  1  0.02476700  0.97523300  0.22001900  1
  Na  Na4  1  0.16744400  0.33255600  0.25000000  1
  Na  Na5  1  0.33255600  0.16744400  0.75000000  1
  Na  Na6  1  0.83255600  0.66744400  0.75000000  1
  Na  Na7  1  0.66744400  0.83255600  0.25000000  1
  Na  Na8  1  0.32785800  0.67214200  0.21967500  1
  Na  Na9  1  0.17214200  0.82785800  0.71967500  1
  Na  Na10  1  0.67214200  0.32785800  0.78032500  1
  Na  Na11  1  0.82785800  0.17214200  0.28032500  1
  Na  Na12  1  0.12607800  0.47965400  0.07050500  1
  Na  Na13  1  0.37392200  0.02034600  0.57050500  1
  Na  Na14  1  0.47965400  0.12607800  0.92949500  1
  Na  Na15  1  0.02034600  0.37392200  0.42949500  1
  Na  Na16  1  0.87392200  0.52034600  0.92949500  1
  Na  Na17  1  0.62607800  0.97965400  0.42949500  1
  Na  Na18  1  0.52034600  0.87392200  0.07050500  1
  Na  Na19  1  0.97965400  0.62607800  0.57050500  1
  Na  Na20  1  0.17755000  0.23004100  0.91283500  1
  Na  Na21  1  0.32245000  0.26995900  0.41283500  1
  Na  Na22  1  0.23004100  0.17755000  0.08716500  1
  Na  Na23  1  0.26995900  0.32245000  0.58716500  1
  Na  Na24  1  0.82245000  0.76995900  0.08716500  1
  Na  Na25  1  0.67755000  0.73004100  0.58716500  1
  Na  Na26  1  0.76995900  0.82245000  0.91283500  1
  Na  Na27  1  0.73004100  0.67755000  0.41283500  1
  Na  Na28  1  0.16265800  0.51738200  0.81458400  1
  Na  Na29  1  0.33734200  0.98261800  0.31458400  1
  Na  Na30  1  0.51738200  0.16265800  0.18541600  1
  Na  Na31  1  0.98261800  0.33734200  0.68541600  1
  Na  Na32  1  0.83734200  0.48261800  0.18541600  1
  Na  Na33  1  0.66265800  0.01738200  0.68541600  1
  Na  Na34  1  0.48261800  0.83734200  0.81458400  1
  Na  Na35  1  0.01738200  0.66265800  0.31458400  1
  Cu  Cu36  1  0.84778600  0.15221400  0.07829500  1
  Cu  Cu37  1  0.65221400  0.34778600  0.57829500  1
  Cu  Cu38  1  0.15221400  0.84778600  0.92170500  1
  Cu  Cu39  1  0.34778600  0.65221400  0.42170500  1
  Cu  Cu40  1  0.82836100  0.17163900  0.90894600  1
  Cu  Cu41  1  0.67163900  0.32836100  0.40894600  1
  Cu  Cu42  1  0.17163900  0.82836100  0.09105400  1
  Cu  Cu43  1  0.32836100  0.67163900  0.59105400  1
  Cu  Cu44  1  0.49913400  0.50086600  0.08414600  1
  Cu  Cu45  1  0.00086600  0.99913400  0.58414600  1
  Cu  Cu46  1  0.50086600  0.49913400  0.91585400  1
  Cu  Cu47  1  0.99913400  0.00086600  0.41585400  1
  O  O48  1  0.98126700  0.25908800  0.15420600  1
  O  O49  1  0.51873300  0.24091200  0.65420600  1
  O  O50  1  0.25908800  0.98126700  0.84579400  1
  O  O51  1  0.24091200  0.51873300  0.34579400  1
  O  O52  1  0.01873300  0.74091200  0.84579400  1
  O  O53  1  0.48126700  0.75908800  0.34579400  1
  O  O54  1  0.74091200  0.01873300  0.15420600  1
  O  O55  1  0.75908800  0.48126700  0.65420600  1
  O  O56  1  0.95123000  0.27554300  0.99367800  1
  O  O57  1  0.54877000  0.22445700  0.49367800  1
  O  O58  1  0.27554300  0.95123000  0.00632200  1
  O  O59  1  0.22445700  0.54877000  0.50632200  1
  O  O60  1  0.04877000  0.72445700  0.00632200  1
  O  O61  1  0.45123000  0.77554300  0.50632200  1
  O  O62  1  0.72445700  0.04877000  0.99367800  1
  O  O63  1  0.77554300  0.45123000  0.49367800  1
  O  O64  1  0.94485600  0.30239300  0.83200200  1
  O  O65  1  0.55514400  0.19760700  0.33200200  1
  O  O66  1  0.30239300  0.94485600  0.16799800  1
  O  O67  1  0.19760700  0.55514400  0.66799800  1
  O  O68  1  0.05514400  0.69760700  0.16799800  1
  O  O69  1  0.44485600  0.80239300  0.66799800  1
  O  O70  1  0.69760700  0.05514400  0.83200200  1
  O  O71  1  0.80239300  0.44485600  0.33200200  1
  O  O72  1  0.38451400  0.38451400  0.00000000  1
  O  O73  1  0.11548600  0.11548600  0.50000000  1
  O  O74  1  0.61548600  0.61548600  0.00000000  1
  O  O75  1  0.88451400  0.88451400  0.50000000  1
  O  O76  1  0.37203500  0.38868500  0.16115100  1
  O  O77  1  0.12796500  0.11131500  0.66115100  1
  O  O78  1  0.38868500  0.37203500  0.83884900  1
  O  O79  1  0.11131500  0.12796500  0.33884900  1
  O  O80  1  0.62796500  0.61131500  0.83884900  1
  O  O81  1  0.87203500  0.88868500  0.33884900  1
  O  O82  1  0.61131500  0.62796500  0.16115100  1
  O  O83  1  0.88868500  0.87203500  0.66115100  1
