# generated using pymatgen
data_Na4As2O7
_symmetry_space_group_name_H-M   'P 1'
_cell_length_a   5.96862185
_cell_length_b   5.96862185
_cell_length_c   12.52781494
_cell_angle_alpha   88.61167631
_cell_angle_beta   88.61167631
_cell_angle_gamma   119.03626236
_symmetry_Int_Tables_number   1
_chemical_formula_structural   Na4As2O7
_chemical_formula_sum   'Na8 As4 O14'
_cell_volume   389.75734028
_cell_formula_units_Z   2
loop_
 _symmetry_equiv_pos_site_id
 _symmetry_equiv_pos_as_xyz
  1  'x, y, z'
loop_
 _atom_site_type_symbol
 _atom_site_label
 _atom_site_symmetry_multiplicity
 _atom_site_fract_x
 _atom_site_fract_y
 _atom_site_fract_z
 _atom_site_occupancy
  Na  Na0  1  0.02093400  0.66494700  0.87217500  1
  Na  Na1  1  0.33505300  0.97906600  0.62782500  1
  Na  Na2  1  0.97906600  0.33505300  0.12782500  1
  Na  Na3  1  0.66494700  0.02093400  0.37217500  1
  Na  Na4  1  0.29522400  0.32317600  0.40489600  1
  Na  Na5  1  0.67682400  0.70477600  0.09510400  1
  Na  Na6  1  0.70477600  0.67682400  0.59510400  1
  Na  Na7  1  0.32317600  0.29522400  0.90489600  1
  As  As8  1  0.99171000  0.29634000  0.63900300  1
  As  As9  1  0.70366000  0.00829000  0.86099700  1
  As  As10  1  0.00829000  0.70366000  0.36099700  1
  As  As11  1  0.29634000  0.99171000  0.13900300  1
  O  O12  1  0.55531800  0.97838000  0.18554200  1
  O  O13  1  0.02162000  0.44468200  0.31445800  1
  O  O14  1  0.44468200  0.02162000  0.81445800  1
  O  O15  1  0.97838000  0.55531800  0.68554200  1
  O  O16  1  0.35707200  0.28769900  0.09396500  1
  O  O17  1  0.71230100  0.64292800  0.40603500  1
  O  O18  1  0.64292800  0.71230100  0.90603500  1
  O  O19  1  0.28769900  0.35707200  0.59396500  1
  O  O20  1  0.11212200  0.75561800  0.05614900  1
  O  O21  1  0.24438200  0.88787800  0.44385100  1
  O  O22  1  0.88787800  0.24438200  0.94385100  1
  O  O23  1  0.75561800  0.11212200  0.55614900  1
  O  O24  1  0.93402600  0.06597400  0.75000000  1
  O  O25  1  0.06597400  0.93402600  0.25000000  1
