# generated using pymatgen
data_HfSb2
_symmetry_space_group_name_H-M   'P 1'
_cell_length_a   3.90256300
_cell_length_b   9.99321200
_cell_length_c   15.11902300
_cell_angle_alpha   90.00000000
_cell_angle_beta   90.00000000
_cell_angle_gamma   90.00000000
_symmetry_Int_Tables_number   1
_chemical_formula_structural   HfSb2
_chemical_formula_sum   'Hf8 Sb16'
_cell_volume   589.62888560
_cell_formula_units_Z   8
loop_
 _symmetry_equiv_pos_site_id
 _symmetry_equiv_pos_as_xyz
  1  'x, y, z'
loop_
 _atom_site_type_symbol
 _atom_site_label
 _atom_site_symmetry_multiplicity
 _atom_site_fract_x
 _atom_site_fract_y
 _atom_site_fract_z
 _atom_site_occupancy
  Hf  Hf0  1  0.50000000  0.52155600  0.25174900  1
  Hf  Hf1  1  0.50000000  0.47844400  0.74825100  1
  Hf  Hf2  1  0.00000000  0.02155600  0.24825100  1
  Hf  Hf3  1  0.00000000  0.97844400  0.75174900  1
  Hf  Hf4  1  0.00000000  0.83349600  0.49334200  1
  Hf  Hf5  1  0.00000000  0.16650400  0.50665800  1
  Hf  Hf6  1  0.50000000  0.33349600  0.00665800  1
  Hf  Hf7  1  0.50000000  0.66650400  0.99334200  1
  Sb  Sb8  1  0.00000000  0.51267400  0.10469000  1
  Sb  Sb9  1  0.00000000  0.48732600  0.89531000  1
  Sb  Sb10  1  0.50000000  0.01267400  0.39531000  1
  Sb  Sb11  1  0.50000000  0.98732600  0.60469000  1
  Sb  Sb12  1  0.00000000  0.73247600  0.30204400  1
  Sb  Sb13  1  0.00000000  0.26752400  0.69795600  1
  Sb  Sb14  1  0.50000000  0.23247600  0.19795600  1
  Sb  Sb15  1  0.50000000  0.76752400  0.80204400  1
  Sb  Sb16  1  0.00000000  0.88090900  0.94273100  1
  Sb  Sb17  1  0.00000000  0.11909100  0.05726900  1
  Sb  Sb18  1  0.50000000  0.38090900  0.55726900  1
  Sb  Sb19  1  0.50000000  0.61909100  0.44273100  1
  Sb  Sb20  1  0.00000000  0.65950300  0.65520400  1
  Sb  Sb21  1  0.00000000  0.34049700  0.34479600  1
  Sb  Sb22  1  0.50000000  0.15950300  0.84479600  1
  Sb  Sb23  1  0.50000000  0.84049700  0.15520400  1
