# generated using pymatgen
data_Sr7Mn4O15
_symmetry_space_group_name_H-M   'P 1'
_cell_length_a   9.78356400
_cell_length_b   6.89187500
_cell_length_c   10.57198075
_cell_angle_alpha   88.29478384
_cell_angle_beta   90.00000000
_cell_angle_gamma   90.00000000
_symmetry_Int_Tables_number   1
_chemical_formula_structural   Sr7Mn4O15
_chemical_formula_sum   'Sr14 Mn8 O30'
_cell_volume   712.52232791
_cell_formula_units_Z   2
loop_
 _symmetry_equiv_pos_site_id
 _symmetry_equiv_pos_as_xyz
  1  'x, y, z'
loop_
 _atom_site_type_symbol
 _atom_site_label
 _atom_site_symmetry_multiplicity
 _atom_site_fract_x
 _atom_site_fract_y
 _atom_site_fract_z
 _atom_site_occupancy
  Sr  Sr0  1  0.50406900  0.81978100  0.33202200  1
  Sr  Sr1  1  0.00406900  0.18021900  0.16797800  1
  Sr  Sr2  1  0.49593100  0.18021900  0.66797800  1
  Sr  Sr3  1  0.99593100  0.81978100  0.83202200  1
  Sr  Sr4  1  0.50000000  0.50000000  0.00000000  1
  Sr  Sr5  1  0.00000000  0.50000000  0.50000000  1
  Sr  Sr6  1  0.64934100  0.64850300  0.69532500  1
  Sr  Sr7  1  0.14934100  0.35149700  0.80467500  1
  Sr  Sr8  1  0.35065900  0.35149700  0.30467500  1
  Sr  Sr9  1  0.85065900  0.64850300  0.19532500  1
  Sr  Sr10  1  0.68577200  0.00135600  0.96463700  1
  Sr  Sr11  1  0.18577200  0.99864400  0.53536300  1
  Sr  Sr12  1  0.31422800  0.99864400  0.03536300  1
  Sr  Sr13  1  0.81422800  0.00135600  0.46463700  1
  Mn  Mn14  1  0.66881500  0.21971800  0.21957300  1
  Mn  Mn15  1  0.16881500  0.78028200  0.28042700  1
  Mn  Mn16  1  0.33118500  0.78028200  0.78042700  1
  Mn  Mn17  1  0.83118500  0.21971800  0.71957300  1
  Mn  Mn18  1  0.66728900  0.42334800  0.42567200  1
  Mn  Mn19  1  0.16728900  0.57665200  0.07432800  1
  Mn  Mn20  1  0.33271100  0.57665200  0.57432800  1
  Mn  Mn21  1  0.83271100  0.42334800  0.92567200  1
  O  O22  1  0.74621100  0.97171200  0.21048100  1
  O  O23  1  0.24621100  0.02828800  0.28951900  1
  O  O24  1  0.25378900  0.02828800  0.78951900  1
  O  O25  1  0.75378900  0.97171200  0.71048100  1
  O  O26  1  0.51869900  0.16198800  0.12001000  1
  O  O27  1  0.01869900  0.83801200  0.37999000  1
  O  O28  1  0.48130100  0.83801200  0.87999000  1
  O  O29  1  0.98130100  0.16198800  0.62001000  1
  O  O30  1  0.50000000  0.50000000  0.50000000  1
  O  O31  1  0.00000000  0.50000000  0.00000000  1
  O  O32  1  0.71885300  0.31321800  0.58452300  1
  O  O33  1  0.21885300  0.68678200  0.91547700  1
  O  O34  1  0.28114700  0.68678200  0.41547700  1
  O  O35  1  0.78114700  0.31321800  0.08452300  1
  O  O36  1  0.58259700  0.16078600  0.38220300  1
  O  O37  1  0.08259700  0.83921400  0.11779700  1
  O  O38  1  0.41740300  0.83921400  0.61779700  1
  O  O39  1  0.91740300  0.16078600  0.88220300  1
  O  O40  1  0.74636000  0.66314500  0.45397800  1
  O  O41  1  0.24636000  0.33685500  0.04602200  1
  O  O42  1  0.25364000  0.33685500  0.54602200  1
  O  O43  1  0.75364000  0.66314500  0.95397800  1
  O  O44  1  0.89845700  0.49259500  0.75322200  1
  O  O45  1  0.39845700  0.50740500  0.74677800  1
  O  O46  1  0.10154300  0.50740500  0.24677800  1
  O  O47  1  0.60154300  0.49259500  0.25322200  1
  O  O48  1  0.82563400  0.32076800  0.33829200  1
  O  O49  1  0.32563400  0.67923200  0.16170800  1
  O  O50  1  0.17436600  0.67923200  0.66170800  1
  O  O51  1  0.67436600  0.32076800  0.83829200  1
