# generated using pymatgen
data_LiGaCl3
_symmetry_space_group_name_H-M   'P 1'
_cell_length_a   6.22659400
_cell_length_b   9.88743100
_cell_length_c   15.31042300
_cell_angle_alpha   90.00000000
_cell_angle_beta   90.00000000
_cell_angle_gamma   90.00000000
_symmetry_Int_Tables_number   1
_chemical_formula_structural   LiGaCl3
_chemical_formula_sum   'Li8 Ga8 Cl24'
_cell_volume   942.58647585
_cell_formula_units_Z   8
loop_
 _symmetry_equiv_pos_site_id
 _symmetry_equiv_pos_as_xyz
  1  'x, y, z'
loop_
 _atom_site_type_symbol
 _atom_site_label
 _atom_site_symmetry_multiplicity
 _atom_site_fract_x
 _atom_site_fract_y
 _atom_site_fract_z
 _atom_site_occupancy
  Li  Li0  1  0.38233500  0.98772000  0.36835700  1
  Li  Li1  1  0.88233500  0.01228000  0.13164300  1
  Li  Li2  1  0.61766500  0.48772000  0.63164300  1
  Li  Li3  1  0.11766500  0.51228000  0.86835700  1
  Li  Li4  1  0.61766500  0.01228000  0.63164300  1
  Li  Li5  1  0.11766500  0.98772000  0.86835700  1
  Li  Li6  1  0.38233500  0.51228000  0.36835700  1
  Li  Li7  1  0.88233500  0.48772000  0.13164300  1
  Ga  Ga8  1  0.55149600  0.75000000  0.99390100  1
  Ga  Ga9  1  0.05149600  0.25000000  0.50609900  1
  Ga  Ga10  1  0.44850400  0.25000000  0.00609900  1
  Ga  Ga11  1  0.94850400  0.75000000  0.49390100  1
  Ga  Ga12  1  0.41545100  0.75000000  0.14195600  1
  Ga  Ga13  1  0.91545100  0.25000000  0.35804400  1
  Ga  Ga14  1  0.58454900  0.25000000  0.85804400  1
  Ga  Ga15  1  0.08454900  0.75000000  0.64195600  1
  Cl  Cl16  1  0.05555200  0.75000000  0.15675800  1
  Cl  Cl17  1  0.55555200  0.25000000  0.34324200  1
  Cl  Cl18  1  0.94444800  0.25000000  0.84324200  1
  Cl  Cl19  1  0.44444800  0.75000000  0.65675800  1
  Cl  Cl20  1  0.20507500  0.75000000  0.38835900  1
  Cl  Cl21  1  0.70507500  0.25000000  0.11164100  1
  Cl  Cl22  1  0.79492500  0.25000000  0.61164100  1
  Cl  Cl23  1  0.29492500  0.75000000  0.88835900  1
  Cl  Cl24  1  0.95151700  0.57285800  0.72037000  1
  Cl  Cl25  1  0.45151700  0.42714200  0.77963000  1
  Cl  Cl26  1  0.04848300  0.07285800  0.27963000  1
  Cl  Cl27  1  0.54848300  0.92714200  0.22037000  1
  Cl  Cl28  1  0.04848300  0.42714200  0.27963000  1
  Cl  Cl29  1  0.54848300  0.57285800  0.22037000  1
  Cl  Cl30  1  0.95151700  0.92714200  0.72037000  1
  Cl  Cl31  1  0.45151700  0.07285800  0.77963000  1
  Cl  Cl32  1  0.73270100  0.93218800  0.46871600  1
  Cl  Cl33  1  0.23270100  0.06781200  0.03128400  1
  Cl  Cl34  1  0.26729900  0.43218800  0.53128400  1
  Cl  Cl35  1  0.76729900  0.56781200  0.96871600  1
  Cl  Cl36  1  0.26729900  0.06781200  0.53128400  1
  Cl  Cl37  1  0.76729900  0.93218800  0.96871600  1
  Cl  Cl38  1  0.73270100  0.56781200  0.46871600  1
  Cl  Cl39  1  0.23270100  0.43218800  0.03128400  1
