# generated using pymatgen
data_FeH8(BrO2)2
_symmetry_space_group_name_H-M   'P 1'
_cell_length_a   7.65288100
_cell_length_b   6.13903300
_cell_length_c   8.79389506
_cell_angle_alpha   68.78095216
_cell_angle_beta   90.00000000
_cell_angle_gamma   90.00000000
_symmetry_Int_Tables_number   1
_chemical_formula_structural   FeH8(BrO2)2
_chemical_formula_sum   'Fe2 H16 Br4 O8'
_cell_volume   385.13851287
_cell_formula_units_Z   2
loop_
 _symmetry_equiv_pos_site_id
 _symmetry_equiv_pos_as_xyz
  1  'x, y, z'
loop_
 _atom_site_type_symbol
 _atom_site_label
 _atom_site_symmetry_multiplicity
 _atom_site_fract_x
 _atom_site_fract_y
 _atom_site_fract_z
 _atom_site_occupancy
  Fe  Fe0  1  0.00000000  0.00000000  0.00000000  1
  Fe  Fe1  1  0.50000000  0.00000000  0.50000000  1
  H  H2  1  0.70590300  0.63294200  0.49530000  1
  H  H3  1  0.20590300  0.36705800  0.00470000  1
  H  H4  1  0.29409700  0.36705800  0.50470000  1
  H  H5  1  0.79409700  0.63294200  0.99530000  1
  H  H6  1  0.70068700  0.62263900  0.67547900  1
  H  H7  1  0.20068700  0.37736100  0.82452100  1
  H  H8  1  0.29931300  0.37736100  0.32452100  1
  H  H9  1  0.79931300  0.62263900  0.17547900  1
  H  H10  1  0.56795900  0.10873000  0.16334200  1
  H  H11  1  0.06795900  0.89127000  0.33665800  1
  H  H12  1  0.43204100  0.89127000  0.83665800  1
  H  H13  1  0.93204100  0.10873000  0.66334200  1
  H  H14  1  0.42550700  0.90891500  0.21234500  1
  H  H15  1  0.92550700  0.09108500  0.28765500  1
  H  H16  1  0.07449300  0.90891500  0.71234500  1
  H  H17  1  0.57449300  0.09108500  0.78765500  1
  Br  Br18  1  0.22963700  0.68849800  0.57890400  1
  Br  Br19  1  0.72963700  0.31150200  0.92109600  1
  Br  Br20  1  0.27036300  0.68849800  0.07890400  1
  Br  Br21  1  0.77036300  0.31150200  0.42109600  1
  O  O22  1  0.68987100  0.73189700  0.56129500  1
  O  O23  1  0.18987100  0.26810300  0.93870500  1
  O  O24  1  0.31012900  0.26810300  0.43870500  1
  O  O25  1  0.81012900  0.73189700  0.06129500  1
  O  O26  1  0.49532000  0.00929700  0.25485700  1
  O  O27  1  0.99532000  0.99070300  0.24514300  1
  O  O28  1  0.50468000  0.99070300  0.74514300  1
  O  O29  1  0.00468000  0.00929700  0.75485700  1
