# generated using pymatgen
data_CeMn2(GeO3)4
_symmetry_space_group_name_H-M   'P 1'
_cell_length_a   4.96901200
_cell_length_b   9.98867000
_cell_length_c   9.98867000
_cell_angle_alpha   90.00000000
_cell_angle_beta   90.00000000
_cell_angle_gamma   90.00000000
_symmetry_Int_Tables_number   1
_chemical_formula_structural   CeMn2(GeO3)4
_chemical_formula_sum   'Ce2 Mn4 Ge8 O24'
_cell_volume   495.77585975
_cell_formula_units_Z   2
loop_
 _symmetry_equiv_pos_site_id
 _symmetry_equiv_pos_as_xyz
  1  'x, y, z'
loop_
 _atom_site_type_symbol
 _atom_site_label
 _atom_site_symmetry_multiplicity
 _atom_site_fract_x
 _atom_site_fract_y
 _atom_site_fract_z
 _atom_site_occupancy
  Ce  Ce0  1  0.50000000  0.75000000  0.75000000  1
  Ce  Ce1  1  0.50000000  0.25000000  0.25000000  1
  Mn  Mn2  1  0.50000000  0.50000000  0.00000000  1
  Mn  Mn3  1  0.50000000  0.00000000  0.50000000  1
  Mn  Mn4  1  0.50000000  0.50000000  0.50000000  1
  Mn  Mn5  1  0.50000000  0.00000000  0.00000000  1
  Ge  Ge6  1  0.00000000  0.25000000  0.97596400  1
  Ge  Ge7  1  0.00000000  0.97596400  0.25000000  1
  Ge  Ge8  1  0.00000000  0.25000000  0.52403500  1
  Ge  Ge9  1  0.00000000  0.47596500  0.75000000  1
  Ge  Ge10  1  0.00000000  0.75000000  0.47596500  1
  Ge  Ge11  1  0.00000000  0.75000000  0.02403500  1
  Ge  Ge12  1  0.00000000  0.02403500  0.75000000  1
  Ge  Ge13  1  0.00000000  0.52403500  0.25000000  1
  O  O14  1  0.25601600  0.56367200  0.66656400  1
  O  O15  1  0.25601600  0.93632800  0.83343700  1
  O  O16  1  0.25601600  0.66656400  0.93632800  1
  O  O17  1  0.25601600  0.83343700  0.56367200  1
  O  O18  1  0.74398300  0.66656400  0.56367200  1
  O  O19  1  0.74398300  0.93632800  0.66656400  1
  O  O20  1  0.74398300  0.56367200  0.83343700  1
  O  O21  1  0.74398300  0.83343700  0.93632800  1
  O  O22  1  0.74398300  0.43632700  0.33343600  1
  O  O23  1  0.74398300  0.06367300  0.16656400  1
  O  O24  1  0.74398300  0.33343600  0.06367300  1
  O  O25  1  0.74398300  0.16656400  0.43632700  1
  O  O26  1  0.25601600  0.33343600  0.43632700  1
  O  O27  1  0.25601600  0.06367300  0.33343600  1
  O  O28  1  0.17302000  0.62998800  0.37001300  1
  O  O29  1  0.17302000  0.12998700  0.62998800  1
  O  O30  1  0.17302000  0.37001300  0.87001200  1
  O  O31  1  0.17302000  0.87001200  0.12998700  1
  O  O32  1  0.82698200  0.62998800  0.12998700  1
  O  O33  1  0.25601600  0.43632700  0.16656400  1
  O  O34  1  0.82698200  0.37001300  0.62998800  1
  O  O35  1  0.82698200  0.12998700  0.87001200  1
  O  O36  1  0.25601600  0.16656400  0.06367300  1
  O  O37  1  0.82698200  0.87001200  0.37001300  1
