# generated using pymatgen
data_YbGa2
_symmetry_space_group_name_H-M   'P 1'
_cell_length_a   4.46099475
_cell_length_b   4.46099475
_cell_length_c   7.18104400
_cell_angle_alpha   90.00000000
_cell_angle_beta   90.00000000
_cell_angle_gamma   120.00001117
_symmetry_Int_Tables_number   1
_chemical_formula_structural   YbGa2
_chemical_formula_sum   'Yb2 Ga4'
_cell_volume   123.76036897
_cell_formula_units_Z   2
loop_
 _symmetry_equiv_pos_site_id
 _symmetry_equiv_pos_as_xyz
  1  'x, y, z'
loop_
 _atom_site_type_symbol
 _atom_site_label
 _atom_site_symmetry_multiplicity
 _atom_site_fract_x
 _atom_site_fract_y
 _atom_site_fract_z
 _atom_site_occupancy
  Yb  Yb0  1  0.00000000  0.00000000  0.75000000  1
  Yb  Yb1  1  0.00000000  0.00000000  0.25000000  1
  Ga  Ga2  1  0.33333300  0.66666700  0.04533800  1
  Ga  Ga3  1  0.66666700  0.33333300  0.54533800  1
  Ga  Ga4  1  0.33333300  0.66666700  0.45466200  1
  Ga  Ga5  1  0.66666700  0.33333300  0.95466200  1
