# generated using pymatgen
data_Co2SiO4
_symmetry_space_group_name_H-M   'P 1'
_cell_length_a   4.82757849
_cell_length_b   6.06437115
_cell_length_c   10.39626470
_cell_angle_alpha   89.80172085
_cell_angle_beta   89.91920605
_cell_angle_gamma   89.95943646
_symmetry_Int_Tables_number   1
_chemical_formula_structural   Co2SiO4
_chemical_formula_sum   'Co8 Si4 O16'
_cell_volume   304.36121240
_cell_formula_units_Z   4
loop_
 _symmetry_equiv_pos_site_id
 _symmetry_equiv_pos_as_xyz
  1  'x, y, z'
loop_
 _atom_site_type_symbol
 _atom_site_label
 _atom_site_symmetry_multiplicity
 _atom_site_fract_x
 _atom_site_fract_y
 _atom_site_fract_z
 _atom_site_occupancy
  Co  Co0  1  0.00000200  0.49999900  0.00000000  1
  Co  Co1  1  0.50000300  0.00000000  0.49999900  1
  Co  Co2  1  0.50462900  0.25136300  0.77473100  1
  Co  Co3  1  0.99333600  0.25076300  0.27474100  1
  Co  Co4  1  0.49536600  0.74863500  0.22527500  1
  Co  Co5  1  0.00675600  0.74922000  0.72523900  1
  Co  Co6  1  0.50000300  0.49999700  0.49999500  1
  Co  Co7  1  0.99999600  0.00000300  0.99999800  1
  Si  Si8  1  0.92679200  0.75138000  0.40662200  1
  Si  Si9  1  0.42632800  0.24910400  0.09309200  1
  Si  Si10  1  0.07317800  0.24861600  0.59337200  1
  Si  Si11  1  0.57368300  0.75090100  0.90691200  1
  O  O12  1  0.71499600  0.75209700  0.05392100  1
  O  O13  1  0.21540900  0.24778400  0.44644000  1
  O  O14  1  0.28500700  0.24791300  0.94608800  1
  O  O15  1  0.78459600  0.75220800  0.55356000  1
  O  O16  1  0.23351600  0.74919300  0.90724800  1
  O  O17  1  0.73301200  0.25069800  0.59281400  1
  O  O18  1  0.26696300  0.74930400  0.40718500  1
  O  O19  1  0.76649600  0.25080800  0.09275800  1
  O  O20  1  0.22133000  0.46591000  0.66114500  1
  O  O21  1  0.72255500  0.53295300  0.83976700  1
  O  O22  1  0.78057600  0.96853300  0.33696900  1
  O  O23  1  0.28070300  0.03234900  0.16326100  1
  O  O24  1  0.77865000  0.53406800  0.33885700  1
  O  O25  1  0.27746000  0.46705200  0.16024000  1
  O  O26  1  0.21938300  0.03147500  0.66303300  1
  O  O27  1  0.71927500  0.96765900  0.83673700  1
