# generated using pymatgen
data_MnAsH2O5
_symmetry_space_group_name_H-M   'P 1'
_cell_length_a   5.35412993
_cell_length_b   8.19463635
_cell_length_c   10.32202648
_cell_angle_alpha   69.73571939
_cell_angle_beta   96.18795435
_cell_angle_gamma   108.10674410
_symmetry_Int_Tables_number   1
_chemical_formula_structural   MnAsH2O5
_chemical_formula_sum   'Mn4 As4 H8 O20'
_cell_volume   403.81051281
_cell_formula_units_Z   4
loop_
 _symmetry_equiv_pos_site_id
 _symmetry_equiv_pos_as_xyz
  1  'x, y, z'
loop_
 _atom_site_type_symbol
 _atom_site_label
 _atom_site_symmetry_multiplicity
 _atom_site_fract_x
 _atom_site_fract_y
 _atom_site_fract_z
 _atom_site_occupancy
  Mn  Mn0  1  0.50004500  0.50011600  0.49990100  1
  Mn  Mn1  1  0.99987200  0.49989600  0.99989400  1
  Mn  Mn2  1  0.50009300  0.99994600  0.99998800  1
  Mn  Mn3  1  0.00004400  0.00006100  0.50001900  1
  As  As4  1  0.56730600  0.59078600  0.15889100  1
  As  As5  1  0.56741800  0.09094400  0.65889600  1
  As  As6  1  0.43256200  0.40906300  0.84108500  1
  As  As7  1  0.43251600  0.90913200  0.34111300  1
  H  H8  1  0.88097500  0.62437100  0.67394700  1
  H  H9  1  0.88099300  0.12435700  0.17397200  1
  H  H10  1  0.04979900  0.16068300  0.04132200  1
  H  H11  1  0.04977500  0.66071200  0.54130700  1
  H  H12  1  0.11898900  0.37567500  0.32605500  1
  H  H13  1  0.11898500  0.87568700  0.82607900  1
  H  H14  1  0.95029700  0.83930100  0.95874600  1
  H  H15  1  0.95028700  0.33933500  0.45873500  1
  O  O16  1  0.10866100  0.82038400  0.92926900  1
  O  O17  1  0.10865300  0.32039900  0.42925900  1
  O  O18  1  0.89136600  0.17959000  0.07075600  1
  O  O19  1  0.89134100  0.67961800  0.57075600  1
  O  O20  1  0.33681100  0.39834200  0.67965600  1
  O  O21  1  0.33667200  0.89827600  0.17971800  1
  O  O22  1  0.28419500  0.54370500  0.88019700  1
  O  O23  1  0.28427300  0.04387900  0.38021000  1
  O  O24  1  0.66332700  0.60172800  0.32025300  1
  O  O25  1  0.66331800  0.10172400  0.82029900  1
  O  O26  1  0.71568800  0.45608400  0.11980200  1
  O  O27  1  0.71576100  0.95626800  0.61981600  1
  O  O28  1  0.76960700  0.50575400  0.83860100  1
  O  O29  1  0.76961200  0.00560200  0.33870600  1
  O  O30  1  0.33131800  0.19313800  0.96105600  1
  O  O31  1  0.33125500  0.69315600  0.46104500  1
  O  O32  1  0.23023100  0.49421400  0.16129400  1
  O  O33  1  0.23040000  0.99441200  0.66134700  1
  O  O34  1  0.66878000  0.80679500  0.03902200  1
  O  O35  1  0.66877600  0.30686400  0.53898800  1
