# generated using pymatgen
data_Sc2V3Ge4
_symmetry_space_group_name_H-M   'P 1'
_cell_length_a   6.63748900
_cell_length_b   6.78622200
_cell_length_c   12.79527600
_cell_angle_alpha   90.00000000
_cell_angle_beta   90.00000000
_cell_angle_gamma   90.00000000
_symmetry_Int_Tables_number   1
_chemical_formula_structural   Sc2V3Ge4
_chemical_formula_sum   'Sc8 V12 Ge16'
_cell_volume   576.34368025
_cell_formula_units_Z   4
loop_
 _symmetry_equiv_pos_site_id
 _symmetry_equiv_pos_as_xyz
  1  'x, y, z'
loop_
 _atom_site_type_symbol
 _atom_site_label
 _atom_site_symmetry_multiplicity
 _atom_site_fract_x
 _atom_site_fract_y
 _atom_site_fract_z
 _atom_site_occupancy
  Sc  Sc0  1  0.00911500  0.17429400  0.09316300  1
  Sc  Sc1  1  0.50911500  0.32570600  0.40683700  1
  Sc  Sc2  1  0.49088500  0.67429400  0.90683700  1
  Sc  Sc3  1  0.99088500  0.82570600  0.59316300  1
  Sc  Sc4  1  0.99088500  0.82570600  0.90683700  1
  Sc  Sc5  1  0.49088500  0.67429400  0.59316300  1
  Sc  Sc6  1  0.50911500  0.32570600  0.09316300  1
  Sc  Sc7  1  0.00911500  0.17429400  0.40683700  1
  V  V8  1  0.66444300  0.98513700  0.25000000  1
  V  V9  1  0.16444300  0.51486300  0.25000000  1
  V  V10  1  0.83555700  0.48513700  0.75000000  1
  V  V11  1  0.33555700  0.01486300  0.75000000  1
  V  V12  1  0.84081800  0.66610900  0.12749200  1
  V  V13  1  0.34081800  0.83389100  0.37250800  1
  V  V14  1  0.65918200  0.16610900  0.87250800  1
  V  V15  1  0.15918200  0.33389100  0.62749200  1
  V  V16  1  0.15918200  0.33389100  0.87250800  1
  V  V17  1  0.65918200  0.16610900  0.62749200  1
  V  V18  1  0.34081800  0.83389100  0.12749200  1
  V  V19  1  0.84081800  0.66610900  0.37250800  1
  Ge  Ge20  1  0.81054400  0.35440300  0.25000000  1
  Ge  Ge21  1  0.31054400  0.14559700  0.25000000  1
  Ge  Ge22  1  0.68945600  0.85440300  0.75000000  1
  Ge  Ge23  1  0.18945600  0.64559700  0.75000000  1
  Ge  Ge24  1  0.03639100  0.87776000  0.25000000  1
  Ge  Ge25  1  0.53639100  0.62224000  0.25000000  1
  Ge  Ge26  1  0.46360900  0.37776000  0.75000000  1
  Ge  Ge27  1  0.96360900  0.12224000  0.75000000  1
  Ge  Ge28  1  0.82218900  0.45823000  0.95727300  1
  Ge  Ge29  1  0.32218900  0.04177000  0.54272700  1
  Ge  Ge30  1  0.67781100  0.95823000  0.04272700  1
  Ge  Ge31  1  0.17781100  0.54177000  0.45727300  1
  Ge  Ge32  1  0.17781100  0.54177000  0.04272700  1
  Ge  Ge33  1  0.67781100  0.95823000  0.45727300  1
  Ge  Ge34  1  0.32218900  0.04177000  0.95727300  1
  Ge  Ge35  1  0.82218900  0.45823000  0.54272700  1
