# generated using pymatgen
data_Ba2PCl
_symmetry_space_group_name_H-M   'P 1'
_cell_length_a   8.15288703
_cell_length_b   8.15288703
_cell_length_c   8.15288746
_cell_angle_alpha   33.31148704
_cell_angle_beta   33.31148704
_cell_angle_gamma   33.31148257
_symmetry_Int_Tables_number   1
_chemical_formula_structural   Ba2PCl
_chemical_formula_sum   'Ba2 P1 Cl1'
_cell_volume   145.52849924
_cell_formula_units_Z   1
loop_
 _symmetry_equiv_pos_site_id
 _symmetry_equiv_pos_as_xyz
  1  'x, y, z'
loop_
 _atom_site_type_symbol
 _atom_site_label
 _atom_site_symmetry_multiplicity
 _atom_site_fract_x
 _atom_site_fract_y
 _atom_site_fract_z
 _atom_site_occupancy
  Ba  Ba0  1  0.75963800  0.75963800  0.75963800  1
  Ba  Ba1  1  0.24036200  0.24036200  0.24036200  1
  P  P2  1  0.50000000  0.50000000  0.50000000  1
  Cl  Cl3  1  0.00000000  0.00000000  0.00000000  1
