# generated using pymatgen
data_Ce(Re2Si)2
_symmetry_space_group_name_H-M   'P 1'
_cell_length_a   7.30161936
_cell_length_b   7.30161936
_cell_length_c   4.08469000
_cell_angle_alpha   90.00000000
_cell_angle_beta   90.00000000
_cell_angle_gamma   146.96339836
_symmetry_Int_Tables_number   1
_chemical_formula_structural   Ce(Re2Si)2
_chemical_formula_sum   'Ce1 Re4 Si2'
_cell_volume   118.72253460
_cell_formula_units_Z   1
loop_
 _symmetry_equiv_pos_site_id
 _symmetry_equiv_pos_as_xyz
  1  'x, y, z'
loop_
 _atom_site_type_symbol
 _atom_site_label
 _atom_site_symmetry_multiplicity
 _atom_site_fract_x
 _atom_site_fract_y
 _atom_site_fract_z
 _atom_site_occupancy
  Ce  Ce0  1  0.00000000  0.00000000  0.00000000  1
  Re  Re1  1  0.18604500  0.81395500  0.50000000  1
  Re  Re2  1  0.30534900  0.69465100  0.00000000  1
  Re  Re3  1  0.81395500  0.18604500  0.50000000  1
  Re  Re4  1  0.69465100  0.30534900  0.00000000  1
  Si  Si5  1  0.41294200  0.58705800  0.50000000  1
  Si  Si6  1  0.58705800  0.41294200  0.50000000  1
