# generated using pymatgen
data_In3Pd5
_symmetry_space_group_name_H-M   'P 1'
_cell_length_a   4.24582200
_cell_length_b   5.77263900
_cell_length_c   11.27670800
_cell_angle_alpha   90.00000000
_cell_angle_beta   90.00000000
_cell_angle_gamma   90.00000000
_symmetry_Int_Tables_number   1
_chemical_formula_structural   In3Pd5
_chemical_formula_sum   'In6 Pd10'
_cell_volume   276.38757606
_cell_formula_units_Z   2
loop_
 _symmetry_equiv_pos_site_id
 _symmetry_equiv_pos_as_xyz
  1  'x, y, z'
loop_
 _atom_site_type_symbol
 _atom_site_label
 _atom_site_symmetry_multiplicity
 _atom_site_fract_x
 _atom_site_fract_y
 _atom_site_fract_z
 _atom_site_occupancy
  In  In0  1  0.50000000  0.31767500  0.85921000  1
  In  In1  1  0.50000000  0.81767500  0.64079000  1
  In  In2  1  0.00000000  0.50000000  0.50000000  1
  In  In3  1  0.00000000  0.00000000  0.00000000  1
  In  In4  1  0.50000000  0.68232500  0.14079000  1
  In  In5  1  0.50000000  0.18232500  0.35921000  1
  Pd  Pd6  1  0.50000000  0.70663200  0.38675000  1
  Pd  Pd7  1  0.50000000  0.29336800  0.61325000  1
  Pd  Pd8  1  0.00000000  0.06069100  0.75663600  1
  Pd  Pd9  1  0.50000000  0.79336800  0.88675000  1
  Pd  Pd10  1  0.00000000  0.43930900  0.25663600  1
  Pd  Pd11  1  0.00000000  0.93930900  0.24336400  1
  Pd  Pd12  1  0.00000000  0.56069100  0.74336400  1
  Pd  Pd13  1  0.00000000  0.50000000  0.00000000  1
  Pd  Pd14  1  0.00000000  0.00000000  0.50000000  1
  Pd  Pd15  1  0.50000000  0.20663200  0.11325000  1
