# generated using pymatgen
data_RbBiF6
_symmetry_space_group_name_H-M   'P 1'
_cell_length_a   5.37616501
_cell_length_b   5.37616501
_cell_length_c   5.37616563
_cell_angle_alpha   96.66182241
_cell_angle_beta   96.66182241
_cell_angle_gamma   96.66182377
_symmetry_Int_Tables_number   1
_chemical_formula_structural   RbBiF6
_chemical_formula_sum   'Rb1 Bi1 F6'
_cell_volume   151.97111420
_cell_formula_units_Z   1
loop_
 _symmetry_equiv_pos_site_id
 _symmetry_equiv_pos_as_xyz
  1  'x, y, z'
loop_
 _atom_site_type_symbol
 _atom_site_label
 _atom_site_symmetry_multiplicity
 _atom_site_fract_x
 _atom_site_fract_y
 _atom_site_fract_z
 _atom_site_occupancy
  Rb  Rb0  1  0.50000000  0.50000000  0.50000000  1
  Bi  Bi1  1  0.00000000  0.00000000  0.00000000  1
  F  F2  1  0.69330400  0.77445200  0.08078600  1
  F  F3  1  0.77445200  0.08078600  0.69330400  1
  F  F4  1  0.91921400  0.30669600  0.22554800  1
  F  F5  1  0.22554800  0.91921400  0.30669600  1
  F  F6  1  0.30669600  0.22554800  0.91921400  1
  F  F7  1  0.08078600  0.69330400  0.77445200  1
