# generated using pymatgen
data_Na2PtO2
_symmetry_space_group_name_H-M   'P 1'
_cell_length_a   5.56607496
_cell_length_b   5.56607496
_cell_length_c   5.56607496
_cell_angle_alpha   146.79767704
_cell_angle_beta   130.75194990
_cell_angle_gamma   60.69046013
_symmetry_Int_Tables_number   1
_chemical_formula_structural   Na2PtO2
_chemical_formula_sum   'Na2 Pt1 O2'
_cell_volume   70.86347201
_cell_formula_units_Z   1
loop_
 _symmetry_equiv_pos_site_id
 _symmetry_equiv_pos_as_xyz
  1  'x, y, z'
loop_
 _atom_site_type_symbol
 _atom_site_label
 _atom_site_symmetry_multiplicity
 _atom_site_fract_x
 _atom_site_fract_y
 _atom_site_fract_z
 _atom_site_occupancy
  Na  Na0  1  0.67748300  0.67748300  0.00000000  1
  Na  Na1  1  0.32251700  0.32251700  0.00000000  1
  Pt  Pt2  1  0.00000000  0.00000000  0.00000000  1
  O  O3  1  0.86136900  0.36136900  0.50000000  1
  O  O4  1  0.13863100  0.63863100  0.50000000  1
