# generated using pymatgen
data_K3BS3
_symmetry_space_group_name_H-M   'P 1'
_cell_length_a   6.27674000
_cell_length_b   10.32282900
_cell_length_c   12.75391421
_cell_angle_alpha   67.88177750
_cell_angle_beta   90.00000000
_cell_angle_gamma   90.00000000
_symmetry_Int_Tables_number   1
_chemical_formula_structural   K3BS3
_chemical_formula_sum   'K12 B4 S12'
_cell_volume   765.55975720
_cell_formula_units_Z   4
loop_
 _symmetry_equiv_pos_site_id
 _symmetry_equiv_pos_as_xyz
  1  'x, y, z'
loop_
 _atom_site_type_symbol
 _atom_site_label
 _atom_site_symmetry_multiplicity
 _atom_site_fract_x
 _atom_site_fract_y
 _atom_site_fract_z
 _atom_site_occupancy
  K  K0  1  0.72695100  0.46863100  0.40790600  1
  K  K1  1  0.22695100  0.53136900  0.09209400  1
  K  K2  1  0.27304900  0.53136900  0.59209400  1
  K  K3  1  0.77304900  0.46863100  0.90790600  1
  K  K4  1  0.83197300  0.76534600  0.11047900  1
  K  K5  1  0.33197300  0.23465400  0.38952100  1
  K  K6  1  0.16802700  0.23465400  0.88952100  1
  K  K7  1  0.66802700  0.76534600  0.61047900  1
  K  K8  1  0.55571600  0.09934200  0.14978000  1
  K  K9  1  0.05571600  0.90065800  0.35022000  1
  K  K10  1  0.44428400  0.90065800  0.85022000  1
  K  K11  1  0.94428400  0.09934200  0.64978000  1
  B  B12  1  0.87111800  0.26835900  0.24055000  1
  B  B13  1  0.37111800  0.73164100  0.25945000  1
  B  B14  1  0.12888200  0.73164100  0.75945000  1
  B  B15  1  0.62888200  0.26835900  0.74055000  1
  S  S16  1  0.70362400  0.42175600  0.16858300  1
  S  S17  1  0.20362400  0.57824400  0.33141700  1
  S  S18  1  0.29637600  0.57824400  0.83141700  1
  S  S19  1  0.79637600  0.42175600  0.66858300  1
  S  S20  1  0.82798500  0.16228700  0.39105700  1
  S  S21  1  0.32798500  0.83771300  0.10894300  1
  S  S22  1  0.17201500  0.83771300  0.60894300  1
  S  S23  1  0.67201500  0.16228700  0.89105700  1
  S  S24  1  0.42523900  0.21318700  0.66153900  1
  S  S25  1  0.92523900  0.78681300  0.83846100  1
  S  S26  1  0.57476100  0.78681300  0.33846100  1
  S  S27  1  0.07476100  0.21318700  0.16153900  1
