# generated using pymatgen
data_K2Co2(SO4)3
_symmetry_space_group_name_H-M   'P 1'
_cell_length_a   10.06846400
_cell_length_b   10.06846400
_cell_length_c   10.06846400
_cell_angle_alpha   90.00000000
_cell_angle_beta   90.00000000
_cell_angle_gamma   90.00000000
_symmetry_Int_Tables_number   1
_chemical_formula_structural   K2Co2(SO4)3
_chemical_formula_sum   'K8 Co8 S12 O48'
_cell_volume   1020.68014049
_cell_formula_units_Z   4
loop_
 _symmetry_equiv_pos_site_id
 _symmetry_equiv_pos_as_xyz
  1  'x, y, z'
loop_
 _atom_site_type_symbol
 _atom_site_label
 _atom_site_symmetry_multiplicity
 _atom_site_fract_x
 _atom_site_fract_y
 _atom_site_fract_z
 _atom_site_occupancy
  K  K0  1  0.68464600  0.18464600  0.31535400  1
  K  K1  1  0.31535400  0.68464600  0.18464600  1
  K  K2  1  0.94937400  0.55062600  0.44937400  1
  K  K3  1  0.18464600  0.31535400  0.68464600  1
  K  K4  1  0.05062600  0.05062600  0.05062600  1
  K  K5  1  0.44937400  0.94937400  0.55062600  1
  K  K6  1  0.55062600  0.44937400  0.94937400  1
  K  K7  1  0.81535400  0.81535400  0.81535400  1
  Co  Co8  1  0.33467700  0.33467700  0.33467700  1
  Co  Co9  1  0.16532300  0.66532300  0.83467700  1
  Co  Co10  1  0.83467700  0.16532300  0.66532300  1
  Co  Co11  1  0.66532300  0.83467700  0.16532300  1
  Co  Co12  1  0.59301200  0.59301200  0.59301200  1
  Co  Co13  1  0.09301200  0.90698800  0.40698800  1
  Co  Co14  1  0.40698800  0.09301200  0.90698800  1
  Co  Co15  1  0.90698800  0.40698800  0.09301200  1
  S  S16  1  0.28096100  0.62342800  0.51923500  1
  S  S17  1  0.78096100  0.87657200  0.48076500  1
  S  S18  1  0.71903900  0.12342800  0.98076500  1
  S  S19  1  0.87657200  0.48076500  0.78096100  1
  S  S20  1  0.98076500  0.71903900  0.12342800  1
  S  S21  1  0.48076500  0.78096100  0.87657200  1
  S  S22  1  0.62342800  0.51923500  0.28096100  1
  S  S23  1  0.51923500  0.28096100  0.62342800  1
  S  S24  1  0.12342800  0.98076500  0.71903900  1
  S  S25  1  0.21903900  0.37657200  0.01923500  1
  S  S26  1  0.01923500  0.21903900  0.37657200  1
  S  S27  1  0.37657200  0.01923500  0.21903900  1
  O  O28  1  0.25214200  0.59454500  0.66058200  1
  O  O29  1  0.75214200  0.90545500  0.33941800  1
  O  O30  1  0.74785800  0.09454500  0.83941800  1
  O  O31  1  0.90545500  0.33941800  0.75214200  1
  O  O32  1  0.83941800  0.74785800  0.09454500  1
  O  O33  1  0.33941800  0.75214200  0.90545500  1
  O  O34  1  0.59454500  0.66058200  0.25214200  1
  O  O35  1  0.66058200  0.25214200  0.59454500  1
  O  O36  1  0.09454500  0.83941800  0.74785800  1
  O  O37  1  0.40545500  0.16058200  0.24785800  1
  O  O38  1  0.16058200  0.24785800  0.40545500  1
  O  O39  1  0.24785800  0.40545500  0.16058200  1
  O  O40  1  0.25936500  0.49915100  0.44186100  1
  O  O41  1  0.75936500  0.00084900  0.55813900  1
  O  O42  1  0.74063500  0.99915100  0.05813900  1
  O  O43  1  0.00084900  0.55813900  0.75936500  1
  O  O44  1  0.05813900  0.74063500  0.99915100  1
  O  O45  1  0.55813900  0.75936500  0.00084900  1
  O  O46  1  0.99611800  0.57896400  0.17122300  1
  O  O47  1  0.44186100  0.25936500  0.49915100  1
  O  O48  1  0.99915100  0.05813900  0.74063500  1
  O  O49  1  0.50084900  0.94186100  0.24063500  1
  O  O50  1  0.94186100  0.24063500  0.50084900  1
  O  O51  1  0.24063500  0.50084900  0.94186100  1
  O  O52  1  0.42103600  0.67122300  0.50388200  1
  O  O53  1  0.92103600  0.82877700  0.49611800  1
  O  O54  1  0.57896400  0.17122300  0.99611800  1
  O  O55  1  0.82877700  0.49611800  0.92103600  1
  O  O56  1  0.31010400  0.27497400  0.96340800  1
  O  O57  1  0.96340800  0.31010400  0.27497400  1
  O  O58  1  0.27497400  0.96340800  0.31010400  1
  O  O59  1  0.22502600  0.03659200  0.81010400  1
  O  O60  1  0.46340800  0.18989600  0.72502600  1
  O  O61  1  0.72502600  0.46340800  0.18989600  1
  O  O62  1  0.53659200  0.68989600  0.77497400  1
  O  O63  1  0.03659200  0.81010400  0.22502600  1
  O  O64  1  0.77497400  0.53659200  0.68989600  1
  O  O65  1  0.81010400  0.22502600  0.03659200  1
  O  O66  1  0.68989600  0.77497400  0.53659200  1
  O  O67  1  0.18989600  0.72502600  0.46340800  1
  O  O68  1  0.07896400  0.32877700  0.00388200  1
  O  O69  1  0.00388200  0.07896400  0.32877700  1
  O  O70  1  0.32877700  0.00388200  0.07896400  1
  O  O71  1  0.17122300  0.99611800  0.57896400  1
  O  O72  1  0.50388200  0.42103600  0.67122300  1
  O  O73  1  0.67122300  0.50388200  0.42103600  1
  O  O74  1  0.49611800  0.92103600  0.82877700  1
  O  O75  1  0.49915100  0.44186100  0.25936500  1
