# generated using pymatgen
data_Pr2W2O9
_symmetry_space_group_name_H-M   'P 1'
_cell_length_a   10.06510600
_cell_length_b   7.81906900
_cell_length_c   9.40062480
_cell_angle_alpha   72.38779238
_cell_angle_beta   90.00000000
_cell_angle_gamma   90.00000000
_symmetry_Int_Tables_number   1
_chemical_formula_structural   Pr2W2O9
_chemical_formula_sum   'Pr8 W8 O36'
_cell_volume   705.14841783
_cell_formula_units_Z   4
loop_
 _symmetry_equiv_pos_site_id
 _symmetry_equiv_pos_as_xyz
  1  'x, y, z'
loop_
 _atom_site_type_symbol
 _atom_site_label
 _atom_site_symmetry_multiplicity
 _atom_site_fract_x
 _atom_site_fract_y
 _atom_site_fract_z
 _atom_site_occupancy
  Pr  Pr0  1  0.05392400  0.22692000  0.34872800  1
  Pr  Pr1  1  0.55392400  0.77308000  0.15127200  1
  Pr  Pr2  1  0.94607600  0.77308000  0.65127200  1
  Pr  Pr3  1  0.44607600  0.22692000  0.84872800  1
  Pr  Pr4  1  0.44903900  0.28594800  0.42443200  1
  Pr  Pr5  1  0.94903900  0.71405200  0.07556800  1
  Pr  Pr6  1  0.55096100  0.71405200  0.57556800  1
  Pr  Pr7  1  0.05096100  0.28594800  0.92443200  1
  W  W8  1  0.74853700  0.07234700  0.26101900  1
  W  W9  1  0.24853700  0.92765300  0.23898100  1
  W  W10  1  0.25146300  0.92765300  0.73898100  1
  W  W11  1  0.75146300  0.07234700  0.76101900  1
  W  W12  1  0.76846000  0.42056500  0.46672500  1
  W  W13  1  0.26846000  0.57943500  0.03327500  1
  W  W14  1  0.23154000  0.57943500  0.53327500  1
  W  W15  1  0.73154000  0.42056500  0.96672500  1
  O  O16  1  0.78170500  0.89971900  0.16243200  1
  O  O17  1  0.28170500  0.10028100  0.33756800  1
  O  O18  1  0.21829500  0.10028100  0.83756800  1
  O  O19  1  0.71829500  0.89971900  0.66243200  1
  O  O20  1  0.59257900  0.94526900  0.34553700  1
  O  O21  1  0.09257900  0.05473100  0.15446300  1
  O  O22  1  0.40742100  0.05473100  0.65446300  1
  O  O23  1  0.90742100  0.94526900  0.84553700  1
  O  O24  1  0.88041900  0.99401200  0.40242900  1
  O  O25  1  0.38041900  0.00598800  0.09757100  1
  O  O26  1  0.11958100  0.00598800  0.59757100  1
  O  O27  1  0.61958100  0.99401200  0.90242900  1
  O  O28  1  0.62321100  0.22540600  0.08224900  1
  O  O29  1  0.12321100  0.77459400  0.41775100  1
  O  O30  1  0.37678900  0.77459400  0.91775100  1
  O  O31  1  0.87678900  0.22540600  0.58224900  1
  O  O32  1  0.81385200  0.25599800  0.86035400  1
  O  O33  1  0.31385200  0.74400200  0.63964600  1
  O  O34  1  0.18614800  0.74400200  0.13964600  1
  O  O35  1  0.68614800  0.25599800  0.36035400  1
  O  O36  1  0.59920800  0.49851200  0.82570400  1
  O  O37  1  0.09920800  0.50148800  0.67429600  1
  O  O38  1  0.40079200  0.50148800  0.17429600  1
  O  O39  1  0.90079200  0.49851200  0.32570400  1
  O  O40  1  0.79096000  0.58854700  0.57019200  1
  O  O41  1  0.29096000  0.41145300  0.92980800  1
  O  O42  1  0.20904000  0.41145300  0.42980800  1
  O  O43  1  0.70904000  0.58854700  0.07019200  1
  O  O44  1  0.60440800  0.55329700  0.39121200  1
  O  O45  1  0.10440800  0.44670300  0.10878800  1
  O  O46  1  0.39559200  0.44670300  0.60878800  1
  O  O47  1  0.89559200  0.55329700  0.89121200  1
  O  O48  1  0.63476500  0.26454100  0.63760500  1
  O  O49  1  0.13476500  0.73545900  0.86239500  1
  O  O50  1  0.36523500  0.73545900  0.36239500  1
  O  O51  1  0.86523500  0.26454100  0.13760500  1
