# generated using pymatgen
data_K3(NiO2)2
_symmetry_space_group_name_H-M   'P 1'
_cell_length_a   5.49661939
_cell_length_b   5.49661996
_cell_length_c   10.70782300
_cell_angle_alpha   90.00000000
_cell_angle_beta   90.00000000
_cell_angle_gamma   112.29111706
_symmetry_Int_Tables_number   1
_chemical_formula_structural   K3(NiO2)2
_chemical_formula_sum   'K6 Ni4 O8'
_cell_volume   299.33696718
_cell_formula_units_Z   2
loop_
 _symmetry_equiv_pos_site_id
 _symmetry_equiv_pos_as_xyz
  1  'x, y, z'
loop_
 _atom_site_type_symbol
 _atom_site_label
 _atom_site_symmetry_multiplicity
 _atom_site_fract_x
 _atom_site_fract_y
 _atom_site_fract_z
 _atom_site_occupancy
  K  K0  1  0.29774400  0.70225800  0.25000000  1
  K  K1  1  0.70225700  0.29774300  0.75000000  1
  K  K2  1  0.35008200  0.64991900  0.57250500  1
  K  K3  1  0.64991900  0.35008200  0.07250500  1
  K  K4  1  0.64991900  0.35008200  0.42749500  1
  K  K5  1  0.35008200  0.64991900  0.92749500  1
  Ni  Ni6  1  0.06588900  0.93411100  0.75000000  1
  Ni  Ni7  1  0.00000000  0.00000000  0.50000000  1
  Ni  Ni8  1  0.00000000  0.00000000  0.00000000  1
  Ni  Ni9  1  0.93411100  0.06588800  0.25000000  1
  O  O10  1  0.86452100  0.73194100  0.61557200  1
  O  O11  1  0.86452100  0.73194100  0.88442900  1
  O  O12  1  0.26805900  0.13547900  0.61557200  1
  O  O13  1  0.73194100  0.86452200  0.11557100  1
  O  O14  1  0.13547800  0.26805900  0.38442900  1
  O  O15  1  0.26805900  0.13547900  0.88442900  1
  O  O16  1  0.73194100  0.86452200  0.38442900  1
  O  O17  1  0.13547800  0.26805900  0.11557100  1
