# generated using pymatgen
data_SrSnPt
_symmetry_space_group_name_H-M   'P 1'
_cell_length_a   4.77025600
_cell_length_b   7.73249200
_cell_length_c   8.11176000
_cell_angle_alpha   90.00000000
_cell_angle_beta   90.00000000
_cell_angle_gamma   90.00000000
_symmetry_Int_Tables_number   1
_chemical_formula_structural   SrSnPt
_chemical_formula_sum   'Sr4 Sn4 Pt4'
_cell_volume   299.21010646
_cell_formula_units_Z   4
loop_
 _symmetry_equiv_pos_site_id
 _symmetry_equiv_pos_as_xyz
  1  'x, y, z'
loop_
 _atom_site_type_symbol
 _atom_site_label
 _atom_site_symmetry_multiplicity
 _atom_site_fract_x
 _atom_site_fract_y
 _atom_site_fract_z
 _atom_site_occupancy
  Sr  Sr0  1  0.75000000  0.98134800  0.68246000  1
  Sr  Sr1  1  0.25000000  0.01865200  0.31754000  1
  Sr  Sr2  1  0.75000000  0.48134800  0.81754000  1
  Sr  Sr3  1  0.25000000  0.51865200  0.18246000  1
  Sn  Sn4  1  0.75000000  0.33758400  0.42502000  1
  Sn  Sn5  1  0.25000000  0.16241600  0.92502000  1
  Sn  Sn6  1  0.25000000  0.66241600  0.57498000  1
  Sn  Sn7  1  0.75000000  0.83758400  0.07498000  1
  Pt  Pt8  1  0.25000000  0.79813300  0.89372100  1
  Pt  Pt9  1  0.25000000  0.29813300  0.60627900  1
  Pt  Pt10  1  0.75000000  0.70186700  0.39372100  1
  Pt  Pt11  1  0.75000000  0.20186700  0.10627900  1
