# generated using pymatgen
data_Sb7Pd20
_symmetry_space_group_name_H-M   'P 1'
_cell_length_a   7.83355832
_cell_length_b   7.83355832
_cell_length_c   7.83355812
_cell_angle_alpha   99.14810005
_cell_angle_beta   99.14810005
_cell_angle_gamma   99.14810771
_symmetry_Int_Tables_number   1
_chemical_formula_structural   Sb7Pd20
_chemical_formula_sum   'Sb7 Pd20'
_cell_volume   460.10427063
_cell_formula_units_Z   1
loop_
 _symmetry_equiv_pos_site_id
 _symmetry_equiv_pos_as_xyz
  1  'x, y, z'
loop_
 _atom_site_type_symbol
 _atom_site_label
 _atom_site_symmetry_multiplicity
 _atom_site_fract_x
 _atom_site_fract_y
 _atom_site_fract_z
 _atom_site_occupancy
  Sb  Sb0  1  0.00000000  0.00000000  0.00000000  1
  Sb  Sb1  1  0.45484300  0.87729500  0.72506900  1
  Sb  Sb2  1  0.87729500  0.72506900  0.45484300  1
  Sb  Sb3  1  0.72506900  0.45484300  0.87729500  1
  Sb  Sb4  1  0.54515700  0.12270500  0.27493100  1
  Sb  Sb5  1  0.12270500  0.27493100  0.54515700  1
  Sb  Sb6  1  0.27493100  0.54515700  0.12270500  1
  Pd  Pd7  1  0.37704600  0.37704600  0.37704600  1
  Pd  Pd8  1  0.62295400  0.62295400  0.62295400  1
  Pd  Pd9  1  0.00089200  0.33949600  0.22481200  1
  Pd  Pd10  1  0.33949600  0.22481200  0.00089200  1
  Pd  Pd11  1  0.22481200  0.00089100  0.33949600  1
  Pd  Pd12  1  0.99910800  0.66050400  0.77518800  1
  Pd  Pd13  1  0.66050400  0.77518800  0.99910900  1
  Pd  Pd14  1  0.77518800  0.99910900  0.66050400  1
  Pd  Pd15  1  0.68862200  0.14442400  0.98813300  1
  Pd  Pd16  1  0.14442400  0.98813300  0.68862200  1
  Pd  Pd17  1  0.98813300  0.68862200  0.14442400  1
  Pd  Pd18  1  0.31137800  0.85557600  0.01186700  1
  Pd  Pd19  1  0.85557600  0.01186700  0.31137800  1
  Pd  Pd20  1  0.01186700  0.31137800  0.85557600  1
  Pd  Pd21  1  0.20727500  0.66402800  0.47692000  1
  Pd  Pd22  1  0.66402800  0.47692000  0.20727500  1
  Pd  Pd23  1  0.47692000  0.20727500  0.66402800  1
  Pd  Pd24  1  0.79272500  0.33597200  0.52308000  1
  Pd  Pd25  1  0.33597200  0.52308000  0.79272500  1
  Pd  Pd26  1  0.52308000  0.79272500  0.33597200  1
