# generated using pymatgen
data_AcBrO
_symmetry_space_group_name_H-M   'P 1'
_cell_length_a   4.31062500
_cell_length_b   4.31062500
_cell_length_c   7.69709100
_cell_angle_alpha   90.00000000
_cell_angle_beta   90.00000000
_cell_angle_gamma   90.00000000
_symmetry_Int_Tables_number   1
_chemical_formula_structural   AcBrO
_chemical_formula_sum   'Ac2 Br2 O2'
_cell_volume   143.02340321
_cell_formula_units_Z   2
loop_
 _symmetry_equiv_pos_site_id
 _symmetry_equiv_pos_as_xyz
  1  'x, y, z'
loop_
 _atom_site_type_symbol
 _atom_site_label
 _atom_site_symmetry_multiplicity
 _atom_site_fract_x
 _atom_site_fract_y
 _atom_site_fract_z
 _atom_site_occupancy
  Ac  Ac0  1  0.00000000  0.50000000  0.83708800  1
  Ac  Ac1  1  0.50000000  0.00000000  0.16291200  1
  Br  Br2  1  0.50000000  0.00000000  0.63655400  1
  Br  Br3  1  0.00000000  0.50000000  0.36344600  1
  O  O4  1  0.00000000  0.00000000  0.00000000  1
  O  O5  1  0.50000000  0.50000000  0.00000000  1
