# generated using pymatgen
data_Ho3(CuSi)4
_symmetry_space_group_name_H-M   'P 1'
_cell_length_a   7.84556176
_cell_length_b   7.84556176
_cell_length_c   7.84556176
_cell_angle_alpha   149.51236289
_cell_angle_beta   130.81016289
_cell_angle_gamma   58.98292372
_symmetry_Int_Tables_number   1
_chemical_formula_structural   Ho3(CuSi)4
_chemical_formula_sum   'Ho3 Cu4 Si4'
_cell_volume   183.99377971
_cell_formula_units_Z   1
loop_
 _symmetry_equiv_pos_site_id
 _symmetry_equiv_pos_as_xyz
  1  'x, y, z'
loop_
 _atom_site_type_symbol
 _atom_site_label
 _atom_site_symmetry_multiplicity
 _atom_site_fract_x
 _atom_site_fract_y
 _atom_site_fract_z
 _atom_site_occupancy
  Ho  Ho0  1  0.87067500  0.37067500  0.50000000  1
  Ho  Ho1  1  0.12932500  0.62932500  0.50000000  1
  Ho  Ho2  1  0.50000000  0.50000000  0.00000000  1
  Cu  Cu3  1  0.52208500  0.83127400  0.69081100  1
  Cu  Cu4  1  0.85953800  0.16872600  0.69081100  1
  Cu  Cu5  1  0.14046200  0.83127400  0.30918900  1
  Cu  Cu6  1  0.47791500  0.16872600  0.30918900  1
  Si  Si7  1  0.81529800  0.00000000  0.81529800  1
  Si  Si8  1  0.18470200  0.00000000  0.18470200  1
  Si  Si9  1  0.28389600  0.28389600  0.00000000  1
  Si  Si10  1  0.71610400  0.71610400  0.00000000  1
