# generated using pymatgen
data_Th7Ni3
_symmetry_space_group_name_H-M   'P 1'
_cell_length_a   9.82636859
_cell_length_b   9.82636859
_cell_length_c   6.21455900
_cell_angle_alpha   90.00000000
_cell_angle_beta   90.00000000
_cell_angle_gamma   120.00000399
_symmetry_Int_Tables_number   1
_chemical_formula_structural   Th7Ni3
_chemical_formula_sum   'Th14 Ni6'
_cell_volume   519.66926416
_cell_formula_units_Z   2
loop_
 _symmetry_equiv_pos_site_id
 _symmetry_equiv_pos_as_xyz
  1  'x, y, z'
loop_
 _atom_site_type_symbol
 _atom_site_label
 _atom_site_symmetry_multiplicity
 _atom_site_fract_x
 _atom_site_fract_y
 _atom_site_fract_z
 _atom_site_occupancy
  Th  Th0  1  0.33333300  0.66666700  0.07034700  1
  Th  Th1  1  0.66666700  0.33333300  0.57034700  1
  Th  Th2  1  0.12696000  0.87304000  0.24101400  1
  Th  Th3  1  0.25391900  0.12696000  0.74101400  1
  Th  Th4  1  0.87304000  0.74608100  0.74101400  1
  Th  Th5  1  0.12696000  0.25391900  0.24101400  1
  Th  Th6  1  0.74608100  0.87304000  0.24101400  1
  Th  Th7  1  0.87304000  0.12696000  0.74101400  1
  Th  Th8  1  0.54433500  0.45566500  0.03861400  1
  Th  Th9  1  0.08867000  0.54433500  0.53861400  1
  Th  Th10  1  0.45566500  0.91133000  0.53861400  1
  Th  Th11  1  0.54433500  0.08867000  0.03861400  1
  Th  Th12  1  0.91133000  0.45566500  0.03861400  1
  Th  Th13  1  0.45566500  0.54433500  0.53861400  1
  Ni  Ni14  1  0.81355800  0.18644200  0.30692400  1
  Ni  Ni15  1  0.62711500  0.81355800  0.80692400  1
  Ni  Ni16  1  0.18644200  0.37288500  0.80692400  1
  Ni  Ni17  1  0.81355800  0.62711500  0.30692400  1
  Ni  Ni18  1  0.37288500  0.18644200  0.30692400  1
  Ni  Ni19  1  0.18644200  0.81355800  0.80692400  1
