# generated using pymatgen
data_P2PbO6
_symmetry_space_group_name_H-M   'P 1'
_cell_length_a   8.13880700
_cell_length_b   7.41968900
_cell_length_c   17.72509817
_cell_angle_alpha   88.93775078
_cell_angle_beta   90.00000000
_cell_angle_gamma   90.00000000
_symmetry_Int_Tables_number   1
_chemical_formula_structural   P2PbO6
_chemical_formula_sum   'P16 Pb8 O48'
_cell_volume   1070.18894016
_cell_formula_units_Z   8
loop_
 _symmetry_equiv_pos_site_id
 _symmetry_equiv_pos_as_xyz
  1  'x, y, z'
loop_
 _atom_site_type_symbol
 _atom_site_label
 _atom_site_symmetry_multiplicity
 _atom_site_fract_x
 _atom_site_fract_y
 _atom_site_fract_z
 _atom_site_occupancy
  P  P0  1  0.78551800  0.75033900  0.58955600  1
  P  P1  1  0.28551800  0.24966100  0.91044400  1
  P  P2  1  0.21448200  0.24966100  0.41044400  1
  P  P3  1  0.71448200  0.75033900  0.08955600  1
  P  P4  1  0.80093200  0.36220800  0.54172400  1
  P  P5  1  0.30093200  0.63779200  0.95827600  1
  P  P6  1  0.19906800  0.63779200  0.45827600  1
  P  P7  1  0.69906800  0.36220800  0.04172400  1
  P  P8  1  0.51791400  0.26350800  0.64348100  1
  P  P9  1  0.01791400  0.73649200  0.85651900  1
  P  P10  1  0.48208600  0.73649200  0.35651900  1
  P  P11  1  0.98208600  0.26350800  0.14348100  1
  P  P12  1  0.98510200  0.86979700  0.19149200  1
  P  P13  1  0.48510200  0.13020300  0.30850800  1
  P  P14  1  0.01489800  0.13020300  0.80850800  1
  P  P15  1  0.51489800  0.86979700  0.69149200  1
  Pb  Pb16  1  0.14169400  0.51720300  0.67428500  1
  Pb  Pb17  1  0.64169400  0.48279700  0.82571500  1
  Pb  Pb18  1  0.85830600  0.48279700  0.32571500  1
  Pb  Pb19  1  0.35830600  0.51720300  0.17428500  1
  Pb  Pb20  1  0.12465700  0.02471400  0.60191500  1
  Pb  Pb21  1  0.62465600  0.97528600  0.89808500  1
  Pb  Pb22  1  0.87534300  0.97528600  0.39808500  1
  Pb  Pb23  1  0.37534300  0.02471400  0.10191500  1
  O  O24  1  0.58979800  0.79820100  0.76347100  1
  O  O25  1  0.08979800  0.20179900  0.73652900  1
  O  O26  1  0.41020200  0.20179900  0.23652900  1
  O  O27  1  0.91020200  0.79820100  0.26347100  1
  O  O28  1  0.33322100  0.84751800  0.67924600  1
  O  O29  1  0.83322100  0.15248200  0.82075400  1
  O  O30  1  0.66677900  0.15248200  0.32075400  1
  O  O31  1  0.16677900  0.84751800  0.17924600  1
  O  O32  1  0.93035700  0.07959100  0.18689100  1
  O  O33  1  0.43035700  0.92040900  0.31310900  1
  O  O34  1  0.06964300  0.92040900  0.81310900  1
  O  O35  1  0.56964300  0.07959100  0.68689100  1
  O  O36  1  0.60136000  0.78802900  0.61782900  1
  O  O37  1  0.10136000  0.21197100  0.88217100  1
  O  O38  1  0.39864000  0.21197100  0.38217100  1
  O  O39  1  0.89864000  0.78802900  0.11782900  1
  O  O40  1  0.15627700  0.25199800  0.11465600  1
  O  O41  1  0.65627700  0.74800200  0.38534400  1
  O  O42  1  0.40004900  0.28297300  0.84469500  1
  O  O43  1  0.34372300  0.25199800  0.61465600  1
  O  O44  1  0.94020200  0.41793200  0.19324200  1
  O  O45  1  0.44020200  0.58206800  0.30675800  1
  O  O46  1  0.05979800  0.58206800  0.80675800  1
  O  O47  1  0.55979800  0.41793200  0.69324200  1
  O  O48  1  0.86484500  0.26275900  0.07005200  1
  O  O49  1  0.36484500  0.73724100  0.42994800  1
  O  O50  1  0.13515500  0.73724100  0.92994800  1
  O  O51  1  0.63515500  0.26275900  0.57005200  1
  O  O52  1  0.90004900  0.71702700  0.65530500  1
  O  O53  1  0.66577000  0.90076500  0.03555900  1
  O  O54  1  0.09995100  0.28297300  0.34469500  1
  O  O55  1  0.59995100  0.71702700  0.15530500  1
  O  O56  1  0.67696300  0.31039100  0.96096800  1
  O  O57  1  0.17696300  0.68960900  0.53903200  1
  O  O58  1  0.32303700  0.68960900  0.03903200  1
  O  O59  1  0.82303700  0.31039100  0.46096800  1
  O  O60  1  0.55961900  0.32727600  0.09656400  1
  O  O61  1  0.05961900  0.67272400  0.40343600  1
  O  O62  1  0.44038100  0.67272400  0.90343600  1
  O  O63  1  0.94038100  0.32727600  0.59656400  1
  O  O64  1  0.74836200  0.57263000  0.04169000  1
  O  O65  1  0.24836200  0.42737000  0.45831000  1
  O  O66  1  0.25163800  0.42737000  0.95831000  1
  O  O67  1  0.75163800  0.57263000  0.54169000  1
  O  O68  1  0.83423000  0.90076500  0.53555900  1
  O  O69  1  0.33423000  0.09923500  0.96444100  1
  O  O70  1  0.16577000  0.09923500  0.46444100  1
  O  O71  1  0.84372300  0.74800200  0.88534400  1
