# generated using pymatgen
data_Na2Al2Sb3
_symmetry_space_group_name_H-M   'P 1'
_cell_length_a   7.30201900
_cell_length_b   14.22666900
_cell_length_c   15.55216019
_cell_angle_alpha   89.73591879
_cell_angle_beta   90.00000000
_cell_angle_gamma   90.00000000
_symmetry_Int_Tables_number   1
_chemical_formula_structural   Na2Al2Sb3
_chemical_formula_sum   'Na16 Al16 Sb24'
_cell_volume   1615.59423161
_cell_formula_units_Z   8
loop_
 _symmetry_equiv_pos_site_id
 _symmetry_equiv_pos_as_xyz
  1  'x, y, z'
loop_
 _atom_site_type_symbol
 _atom_site_label
 _atom_site_symmetry_multiplicity
 _atom_site_fract_x
 _atom_site_fract_y
 _atom_site_fract_z
 _atom_site_occupancy
  Na  Na0  1  0.93217100  0.56074500  0.90257900  1
  Na  Na1  1  0.56782900  0.56074500  0.40257900  1
  Na  Na2  1  0.06782900  0.43925500  0.09742100  1
  Na  Na3  1  0.43217100  0.43925500  0.59742100  1
  Na  Na4  1  0.95795400  0.07912900  0.61267900  1
  Na  Na5  1  0.45795400  0.92087100  0.88732100  1
  Na  Na6  1  0.04204600  0.92087100  0.38732100  1
  Na  Na7  1  0.54204600  0.07912900  0.11267900  1
  Na  Na8  1  0.93305300  0.35128000  0.52122200  1
  Na  Na9  1  0.43305300  0.64872000  0.97877800  1
  Na  Na10  1  0.06694700  0.64872000  0.47877800  1
  Na  Na11  1  0.56694700  0.35128000  0.02122200  1
  Na  Na12  1  0.54489400  0.86494800  0.48807500  1
  Na  Na13  1  0.04489400  0.13505200  0.01192500  1
  Na  Na14  1  0.45510600  0.13505200  0.51192500  1
  Na  Na15  1  0.95510600  0.86494800  0.98807500  1
  Al  Al16  1  0.28963900  0.31281500  0.83848800  1
  Al  Al17  1  0.22966700  0.59198700  0.23842700  1
  Al  Al18  1  0.27033300  0.59198700  0.73842700  1
  Al  Al19  1  0.77033300  0.40801300  0.76157300  1
  Al  Al20  1  0.73531800  0.18819900  0.33125700  1
  Al  Al21  1  0.23531800  0.81180100  0.16874300  1
  Al  Al22  1  0.26468200  0.81180100  0.66874300  1
  Al  Al23  1  0.76468200  0.18819900  0.83125700  1
  Al  Al24  1  0.70778100  0.90512200  0.22868800  1
  Al  Al25  1  0.20778100  0.09487800  0.27131200  1
  Al  Al26  1  0.29221900  0.09487800  0.77131200  1
  Al  Al27  1  0.79221900  0.90512200  0.72868800  1
  Al  Al28  1  0.78963900  0.68718500  0.66151200  1
  Al  Al29  1  0.21036100  0.31281500  0.33848800  1
  Al  Al30  1  0.71036100  0.68718500  0.16151200  1
  Al  Al31  1  0.72966700  0.40801300  0.26157300  1
  Sb  Sb32  1  0.45296300  0.15783700  0.91865500  1
  Sb  Sb33  1  0.46925100  0.97135400  0.66831800  1
  Sb  Sb34  1  0.03074900  0.97135400  0.16831800  1
  Sb  Sb35  1  0.53074900  0.02864600  0.33168200  1
  Sb  Sb36  1  0.96925100  0.02864600  0.83168200  1
  Sb  Sb37  1  0.95296300  0.84216300  0.58134500  1
  Sb  Sb38  1  0.54703700  0.84216300  0.08134500  1
  Sb  Sb39  1  0.04703700  0.15783700  0.41865500  1
  Sb  Sb40  1  0.95166200  0.33765200  0.90350900  1
  Sb  Sb41  1  0.45166200  0.66234800  0.59649100  1
  Sb  Sb42  1  0.04833800  0.66234800  0.09649100  1
  Sb  Sb43  1  0.54833800  0.33765200  0.40350900  1
  Sb  Sb44  1  0.82609200  0.24992300  0.16938100  1
  Sb  Sb45  1  0.32609200  0.75007700  0.33061900  1
  Sb  Sb46  1  0.17390800  0.75007700  0.83061900  1
  Sb  Sb47  1  0.67390800  0.24992300  0.66938100  1
  Sb  Sb48  1  0.47415500  0.47899300  0.84343200  1
  Sb  Sb49  1  0.97415500  0.52100700  0.65656800  1
  Sb  Sb50  1  0.52584500  0.52100700  0.15656800  1
  Sb  Sb51  1  0.02584500  0.47899300  0.34343200  1
  Sb  Sb52  1  0.22733400  0.25347900  0.17334800  1
  Sb  Sb53  1  0.72733400  0.74652100  0.32665200  1
  Sb  Sb54  1  0.77266600  0.74652100  0.82665200  1
  Sb  Sb55  1  0.27266600  0.25347900  0.67334800  1
