# generated using pymatgen
data_K3Zn2F7
_symmetry_space_group_name_H-M   'P 1'
_cell_length_a   11.12504434
_cell_length_b   11.12504434
_cell_length_c   11.12504434
_cell_angle_alpha   158.54280775
_cell_angle_beta   158.54280775
_cell_angle_gamma   30.52785995
_symmetry_Int_Tables_number   1
_chemical_formula_structural   K3Zn2F7
_chemical_formula_sum   'K3 Zn2 F7'
_cell_volume   184.13096327
_cell_formula_units_Z   1
loop_
 _symmetry_equiv_pos_site_id
 _symmetry_equiv_pos_as_xyz
  1  'x, y, z'
loop_
 _atom_site_type_symbol
 _atom_site_label
 _atom_site_symmetry_multiplicity
 _atom_site_fract_x
 _atom_site_fract_y
 _atom_site_fract_z
 _atom_site_occupancy
  K  K0  1  0.31529700  0.31529700  0.00000000  1
  K  K1  1  0.68470300  0.68470300  0.00000000  1
  K  K2  1  0.50000000  0.50000000  0.00000000  1
  Zn  Zn3  1  0.09680800  0.09680800  0.00000000  1
  Zn  Zn4  1  0.90319200  0.90319200  0.00000000  1
  F  F5  1  0.00000000  0.00000000  0.00000000  1
  F  F6  1  0.90468400  0.40468400  0.50000000  1
  F  F7  1  0.40468400  0.90468400  0.50000000  1
  F  F8  1  0.09531600  0.59531600  0.50000000  1
  F  F9  1  0.59531600  0.09531600  0.50000000  1
  F  F10  1  0.19193800  0.19193800  0.00000000  1
  F  F11  1  0.80806200  0.80806200  0.00000000  1
