# generated using pymatgen
data_ThSn2
_symmetry_space_group_name_H-M   'P 1'
_cell_length_a   8.70727660
_cell_length_b   8.70727660
_cell_length_c   4.46554100
_cell_angle_alpha   90.00000000
_cell_angle_beta   90.00000000
_cell_angle_gamma   149.60238245
_symmetry_Int_Tables_number   1
_chemical_formula_structural   ThSn2
_chemical_formula_sum   'Th2 Sn4'
_cell_volume   171.31187786
_cell_formula_units_Z   2
loop_
 _symmetry_equiv_pos_site_id
 _symmetry_equiv_pos_as_xyz
  1  'x, y, z'
loop_
 _atom_site_type_symbol
 _atom_site_label
 _atom_site_symmetry_multiplicity
 _atom_site_fract_x
 _atom_site_fract_y
 _atom_site_fract_z
 _atom_site_occupancy
  Th  Th0  1  0.89750200  0.10249800  0.75000000  1
  Th  Th1  1  0.10249800  0.89750200  0.25000000  1
  Sn  Sn2  1  0.56137900  0.43862100  0.75000000  1
  Sn  Sn3  1  0.43862100  0.56137900  0.25000000  1
  Sn  Sn4  1  0.25107900  0.74892100  0.75000000  1
  Sn  Sn5  1  0.74892100  0.25107900  0.25000000  1
