# generated using pymatgen
data_Hg2GeSe4
_symmetry_space_group_name_H-M   'P 1'
_cell_length_a   7.15338443
_cell_length_b   7.15338443
_cell_length_c   7.15338443
_cell_angle_alpha   131.92466774
_cell_angle_beta   131.92466774
_cell_angle_gamma   70.34803205
_symmetry_Int_Tables_number   1
_chemical_formula_structural   Hg2GeSe4
_chemical_formula_sum   'Hg2 Ge1 Se4'
_cell_volume   198.58233067
_cell_formula_units_Z   1
loop_
 _symmetry_equiv_pos_site_id
 _symmetry_equiv_pos_as_xyz
  1  'x, y, z'
loop_
 _atom_site_type_symbol
 _atom_site_label
 _atom_site_symmetry_multiplicity
 _atom_site_fract_x
 _atom_site_fract_y
 _atom_site_fract_z
 _atom_site_occupancy
  Hg  Hg0  1  0.50000000  0.50000000  0.00000000  1
  Hg  Hg1  1  0.25000000  0.75000000  0.50000000  1
  Ge  Ge2  1  0.75000000  0.25000000  0.50000000  1
  Se  Se3  1  0.36245400  0.31394700  0.43577000  1
  Se  Se4  1  0.07331600  0.63754600  0.95149300  1
  Se  Se5  1  0.87817700  0.92668400  0.56423000  1
  Se  Se6  1  0.68605300  0.12182300  0.04850700  1
