# generated using pymatgen
data_Nd4Ge3Rh4
_symmetry_space_group_name_H-M   'P 1'
_cell_length_a   11.02862982
_cell_length_b   11.02862982
_cell_length_c   8.04343432
_cell_angle_alpha   70.99511271
_cell_angle_beta   70.99511271
_cell_angle_gamma   30.02854505
_symmetry_Int_Tables_number   1
_chemical_formula_structural   Nd4Ge3Rh4
_chemical_formula_sum   'Nd8 Ge6 Rh8'
_cell_volume   460.91983938
_cell_formula_units_Z   2
loop_
 _symmetry_equiv_pos_site_id
 _symmetry_equiv_pos_as_xyz
  1  'x, y, z'
loop_
 _atom_site_type_symbol
 _atom_site_label
 _atom_site_symmetry_multiplicity
 _atom_site_fract_x
 _atom_site_fract_y
 _atom_site_fract_z
 _atom_site_occupancy
  Nd  Nd0  1  0.21418400  0.44527100  0.39897000  1
  Nd  Nd1  1  0.55472900  0.78581600  0.10103000  1
  Nd  Nd2  1  0.44527100  0.21418400  0.89897000  1
  Nd  Nd3  1  0.92107400  0.21263500  0.33108400  1
  Nd  Nd4  1  0.78736500  0.07892600  0.16891600  1
  Nd  Nd5  1  0.07892600  0.78736500  0.66891600  1
  Nd  Nd6  1  0.21263500  0.92107400  0.83108400  1
  Nd  Nd7  1  0.78581600  0.55472900  0.60103000  1
  Ge  Ge8  1  0.64555100  0.35444900  0.75000000  1
  Ge  Ge9  1  0.35444900  0.64555100  0.25000000  1
  Ge  Ge10  1  0.29145700  0.05206100  0.44196700  1
  Ge  Ge11  1  0.94793900  0.70854300  0.05803300  1
  Ge  Ge12  1  0.70854300  0.94793900  0.55803300  1
  Ge  Ge13  1  0.05206100  0.29145700  0.94196700  1
  Rh  Rh14  1  0.30315500  0.57212200  0.01737100  1
  Rh  Rh15  1  0.57212200  0.30315500  0.51737100  1
  Rh  Rh16  1  0.69684500  0.42787800  0.98262900  1
  Rh  Rh17  1  0.07156100  0.37108600  0.18591200  1
  Rh  Rh18  1  0.62891400  0.92843900  0.31408800  1
  Rh  Rh19  1  0.42787800  0.69684500  0.48262900  1
  Rh  Rh20  1  0.92843900  0.62891400  0.81408800  1
  Rh  Rh21  1  0.37108600  0.07156100  0.68591200  1
