# generated using pymatgen
data_GdTiCdSbO7
_symmetry_space_group_name_H-M   'P 1'
_cell_length_a   7.32377600
_cell_length_b   7.32377600
_cell_length_c   10.39218000
_cell_angle_alpha   90.00000000
_cell_angle_beta   90.00000000
_cell_angle_gamma   90.00000000
_symmetry_Int_Tables_number   1
_chemical_formula_structural   GdTiCdSbO7
_chemical_formula_sum   'Gd4 Ti4 Cd4 Sb4 O28'
_cell_volume   557.41258017
_cell_formula_units_Z   4
loop_
 _symmetry_equiv_pos_site_id
 _symmetry_equiv_pos_as_xyz
  1  'x, y, z'
loop_
 _atom_site_type_symbol
 _atom_site_label
 _atom_site_symmetry_multiplicity
 _atom_site_fract_x
 _atom_site_fract_y
 _atom_site_fract_z
 _atom_site_occupancy
  Gd  Gd0  1  0.00000000  0.73561300  0.00000000  1
  Gd  Gd1  1  0.00000000  0.26438700  0.50000000  1
  Gd  Gd2  1  0.26438700  0.00000000  0.25000000  1
  Gd  Gd3  1  0.73561300  0.00000000  0.75000000  1
  Ti  Ti4  1  0.76243700  0.00000000  0.25000000  1
  Ti  Ti5  1  0.00000000  0.76243700  0.50000000  1
  Ti  Ti6  1  0.23756300  0.00000000  0.75000000  1
  Ti  Ti7  1  0.00000000  0.23756300  0.00000000  1
  Cd  Cd8  1  0.50000000  0.74207900  0.00000000  1
  Cd  Cd9  1  0.25792100  0.50000000  0.25000000  1
  Cd  Cd10  1  0.50000000  0.25792100  0.50000000  1
  Cd  Cd11  1  0.74207900  0.50000000  0.75000000  1
  Sb  Sb12  1  0.24440000  0.50000000  0.75000000  1
  Sb  Sb13  1  0.50000000  0.75560000  0.50000000  1
  Sb  Sb14  1  0.50000000  0.24440000  0.00000000  1
  Sb  Sb15  1  0.75560000  0.50000000  0.25000000  1
  O  O16  1  0.25286900  0.74713100  0.12500000  1
  O  O17  1  0.55141600  0.94639500  0.36818300  1
  O  O18  1  0.76513100  0.75073900  0.17652300  1
  O  O19  1  0.74713100  0.25286900  0.62500000  1
  O  O20  1  0.95187200  0.95187200  0.37500000  1
  O  O21  1  0.04812800  0.04812800  0.87500000  1
  O  O22  1  0.05360500  0.44858400  0.88181700  1
  O  O23  1  0.04812800  0.95187200  0.62500000  1
  O  O24  1  0.24926100  0.23486900  0.07347700  1
  O  O25  1  0.23486900  0.24926100  0.67652300  1
  O  O26  1  0.24926100  0.76513100  0.42652300  1
  O  O27  1  0.44858400  0.94639500  0.63181700  1
  O  O28  1  0.44858400  0.05360500  0.86818300  1
  O  O29  1  0.45048400  0.45048400  0.87500000  1
  O  O30  1  0.54951600  0.54951600  0.37500000  1
  O  O31  1  0.55141600  0.05360500  0.13181700  1
  O  O32  1  0.54951600  0.45048400  0.12500000  1
  O  O33  1  0.75073900  0.76513100  0.57347700  1
  O  O34  1  0.76513100  0.24926100  0.32347700  1
  O  O35  1  0.74713100  0.74713100  0.87500000  1
  O  O36  1  0.75073900  0.23486900  0.92652300  1
  O  O37  1  0.94639500  0.55141600  0.38181700  1
  O  O38  1  0.95187200  0.04812800  0.12500000  1
  O  O39  1  0.94639500  0.44858400  0.11818300  1
  O  O40  1  0.05360500  0.55141600  0.61818300  1
  O  O41  1  0.23486900  0.75073900  0.82347700  1
  O  O42  1  0.25286900  0.25286900  0.37500000  1
  O  O43  1  0.45048400  0.54951600  0.62500000  1
