# generated using pymatgen
data_LiBIr
_symmetry_space_group_name_H-M   'P 1'
_cell_length_a   6.99546476
_cell_length_b   6.10096055
_cell_length_c   5.55593943
_cell_angle_alpha   73.58868501
_cell_angle_beta   56.78267006
_cell_angle_gamma   49.62864493
_symmetry_Int_Tables_number   1
_chemical_formula_structural   LiBIr
_chemical_formula_sum   'Li4 B4 Ir4'
_cell_volume   150.15949186
_cell_formula_units_Z   4
loop_
 _symmetry_equiv_pos_site_id
 _symmetry_equiv_pos_as_xyz
  1  'x, y, z'
loop_
 _atom_site_type_symbol
 _atom_site_label
 _atom_site_symmetry_multiplicity
 _atom_site_fract_x
 _atom_site_fract_y
 _atom_site_fract_z
 _atom_site_occupancy
  Li  Li0  1  0.12500000  0.62500000  0.62500000  1
  Li  Li1  1  0.62500000  0.62500000  0.62500000  1
  Li  Li2  1  0.62500000  0.62500000  0.12500000  1
  Li  Li3  1  0.62500000  0.12500000  0.62500000  1
  B  B4  1  0.42631700  0.07368300  0.42631700  1
  B  B5  1  0.17631700  0.82368300  0.17631700  1
  B  B6  1  0.07368300  0.42631700  0.07368300  1
  B  B7  1  0.82368300  0.17631700  0.82368300  1
  Ir  Ir8  1  0.38310800  0.38310800  0.11689200  1
  Ir  Ir9  1  0.86689200  0.86689200  0.13310800  1
  Ir  Ir10  1  0.13310800  0.13310800  0.86689200  1
  Ir  Ir11  1  0.11689200  0.11689200  0.38310800  1
