# generated using pymatgen
data_PrFeSi2
_symmetry_space_group_name_H-M   'P 1'
_cell_length_a   8.77685323
_cell_length_b   8.77685323
_cell_length_c   4.03325500
_cell_angle_alpha   90.00000000
_cell_angle_beta   90.00000000
_cell_angle_gamma   152.79666618
_symmetry_Int_Tables_number   1
_chemical_formula_structural   PrFeSi2
_chemical_formula_sum   'Pr2 Fe2 Si4'
_cell_volume   142.03382111
_cell_formula_units_Z   2
loop_
 _symmetry_equiv_pos_site_id
 _symmetry_equiv_pos_as_xyz
  1  'x, y, z'
loop_
 _atom_site_type_symbol
 _atom_site_label
 _atom_site_symmetry_multiplicity
 _atom_site_fract_x
 _atom_site_fract_y
 _atom_site_fract_z
 _atom_site_occupancy
  Pr  Pr0  1  0.10741200  0.89258800  0.25000000  1
  Pr  Pr1  1  0.89258800  0.10741200  0.75000000  1
  Fe  Fe2  1  0.25032900  0.74967100  0.75000000  1
  Fe  Fe3  1  0.74967100  0.25032900  0.25000000  1
  Si  Si4  1  0.31000900  0.68999100  0.25000000  1
  Si  Si5  1  0.68999100  0.31000900  0.75000000  1
  Si  Si6  1  0.53791000  0.46209000  0.75000000  1
  Si  Si7  1  0.46209000  0.53791000  0.25000000  1
