# generated using pymatgen
data_Ca2Ge
_symmetry_space_group_name_H-M   'P 1'
_cell_length_a   4.85545200
_cell_length_b   7.67813800
_cell_length_c   9.10063100
_cell_angle_alpha   90.00000000
_cell_angle_beta   90.00000000
_cell_angle_gamma   90.00000000
_symmetry_Int_Tables_number   1
_chemical_formula_structural   Ca2Ge
_chemical_formula_sum   'Ca8 Ge4'
_cell_volume   339.27908183
_cell_formula_units_Z   4
loop_
 _symmetry_equiv_pos_site_id
 _symmetry_equiv_pos_as_xyz
  1  'x, y, z'
loop_
 _atom_site_type_symbol
 _atom_site_label
 _atom_site_symmetry_multiplicity
 _atom_site_fract_x
 _atom_site_fract_y
 _atom_site_fract_z
 _atom_site_occupancy
  Ca  Ca0  1  0.75000000  0.34654400  0.07411500  1
  Ca  Ca1  1  0.25000000  0.65345600  0.92588500  1
  Ca  Ca2  1  0.75000000  0.84654400  0.42588500  1
  Ca  Ca3  1  0.25000000  0.15345600  0.57411500  1
  Ca  Ca4  1  0.75000000  0.48017100  0.67720200  1
  Ca  Ca5  1  0.25000000  0.51982900  0.32279800  1
  Ca  Ca6  1  0.75000000  0.98017100  0.82279800  1
  Ca  Ca7  1  0.25000000  0.01982900  0.17720200  1
  Ge  Ge8  1  0.75000000  0.74766700  0.10555800  1
  Ge  Ge9  1  0.25000000  0.25233300  0.89444200  1
  Ge  Ge10  1  0.75000000  0.24766700  0.39444200  1
  Ge  Ge11  1  0.25000000  0.75233300  0.60555800  1
