# generated using pymatgen
data_LaMnSi2
_symmetry_space_group_name_H-M   'P 1'
_cell_length_a   9.10917924
_cell_length_b   9.10917924
_cell_length_c   4.02692500
_cell_angle_alpha   90.00000000
_cell_angle_beta   90.00000000
_cell_angle_gamma   153.57958418
_symmetry_Int_Tables_number   1
_chemical_formula_structural   LaMnSi2
_chemical_formula_sum   'La2 Mn2 Si4'
_cell_volume   148.67825607
_cell_formula_units_Z   2
loop_
 _symmetry_equiv_pos_site_id
 _symmetry_equiv_pos_as_xyz
  1  'x, y, z'
loop_
 _atom_site_type_symbol
 _atom_site_label
 _atom_site_symmetry_multiplicity
 _atom_site_fract_x
 _atom_site_fract_y
 _atom_site_fract_z
 _atom_site_occupancy
  La  La0  1  0.10252800  0.89747200  0.25000000  1
  La  La1  1  0.89747200  0.10252800  0.75000000  1
  Mn  Mn2  1  0.24918000  0.75082000  0.75000000  1
  Mn  Mn3  1  0.75082000  0.24918000  0.25000000  1
  Si  Si4  1  0.32013600  0.67986400  0.25000000  1
  Si  Si5  1  0.67986400  0.32013600  0.75000000  1
  Si  Si6  1  0.53624500  0.46375500  0.75000000  1
  Si  Si7  1  0.46375500  0.53624500  0.25000000  1
