# generated using pymatgen
data_La3RuO7
_symmetry_space_group_name_H-M   'P 1'
_cell_length_a   6.74626937
_cell_length_b   6.74626937
_cell_length_c   7.70202200
_cell_angle_alpha   90.00000000
_cell_angle_beta   90.00000000
_cell_angle_gamma   112.19002817
_symmetry_Int_Tables_number   1
_chemical_formula_structural   La3RuO7
_chemical_formula_sum   'La6 Ru2 O14'
_cell_volume   324.57363193
_cell_formula_units_Z   2
loop_
 _symmetry_equiv_pos_site_id
 _symmetry_equiv_pos_as_xyz
  1  'x, y, z'
loop_
 _atom_site_type_symbol
 _atom_site_label
 _atom_site_symmetry_multiplicity
 _atom_site_fract_x
 _atom_site_fract_y
 _atom_site_fract_z
 _atom_site_occupancy
  La  La0  1  0.46754700  0.90899000  0.75000000  1
  La  La1  1  0.53245300  0.09101000  0.25000000  1
  La  La2  1  0.90899000  0.46754700  0.75000000  1
  La  La3  1  0.09101000  0.53245300  0.25000000  1
  La  La4  1  0.00000000  0.00000000  0.50000000  1
  La  La5  1  0.00000000  0.00000000  0.00000000  1
  Ru  Ru6  1  0.50000000  0.50000000  0.50000000  1
  Ru  Ru7  1  0.50000000  0.50000000  0.00000000  1
  O  O8  1  0.57937400  0.57937400  0.75000000  1
  O  O9  1  0.42062600  0.42062600  0.25000000  1
  O  O10  1  0.83957900  0.10062400  0.75000000  1
  O  O11  1  0.16042100  0.89937600  0.25000000  1
  O  O12  1  0.10062400  0.83957900  0.75000000  1
  O  O13  1  0.89937600  0.16042100  0.25000000  1
  O  O14  1  0.44108200  0.19214700  0.96020500  1
  O  O15  1  0.55891800  0.80785300  0.46020500  1
  O  O16  1  0.19214700  0.44108200  0.96020500  1
  O  O17  1  0.80785300  0.55891800  0.46020500  1
  O  O18  1  0.44108200  0.19214700  0.53979500  1
  O  O19  1  0.55891800  0.80785300  0.03979500  1
  O  O20  1  0.80785300  0.55891800  0.03979500  1
  O  O21  1  0.19214700  0.44108200  0.53979500  1
