# generated using pymatgen
data_Pr2Se3
_symmetry_space_group_name_H-M   'P 1'
_cell_length_a   14.92628279
_cell_length_b   14.92628279
_cell_length_c   14.92628279
_cell_angle_alpha   144.87026987
_cell_angle_beta   144.87026987
_cell_angle_gamma   50.52789387
_symmetry_Int_Tables_number   1
_chemical_formula_structural   Pr2Se3
_chemical_formula_sum   'Pr16 Se24'
_cell_volume   1095.59076251
_cell_formula_units_Z   8
loop_
 _symmetry_equiv_pos_site_id
 _symmetry_equiv_pos_as_xyz
  1  'x, y, z'
loop_
 _atom_site_type_symbol
 _atom_site_label
 _atom_site_symmetry_multiplicity
 _atom_site_fract_x
 _atom_site_fract_y
 _atom_site_fract_z
 _atom_site_occupancy
  Pr  Pr0  1  0.16665400  0.16665400  0.00000000  1
  Pr  Pr1  1  0.87500000  0.50531400  0.13031400  1
  Pr  Pr2  1  0.17375100  0.29729600  0.39129500  1
  Pr  Pr3  1  0.58334600  0.08334600  0.50000000  1
  Pr  Pr4  1  0.90600200  0.78245700  0.60870500  1
  Pr  Pr5  1  0.37500000  0.74468600  0.86968600  1
  Pr  Pr6  1  0.21754300  0.82624900  0.12354500  1
  Pr  Pr7  1  0.49468600  0.62500000  0.36968600  1
  Pr  Pr8  1  0.91665400  0.41665400  0.50000000  1
  Pr  Pr9  1  0.25531400  0.12500000  0.63031400  1
  Pr  Pr10  1  0.70270400  0.09399800  0.87645500  1
  Pr  Pr11  1  0.83334600  0.83334600  0.00000000  1
  Pr  Pr12  1  0.53245700  0.15600200  0.10870500  1
  Pr  Pr13  1  0.84399800  0.95270400  0.37645500  1
  Pr  Pr14  1  0.57624900  0.46754300  0.62354500  1
  Pr  Pr15  1  0.04729600  0.42375100  0.89129500  1
  Se  Se16  1  0.50876000  0.10988300  0.25296900  1
  Se  Se17  1  0.07252600  0.82585300  0.60546300  1
  Se  Se18  1  0.85691400  0.25579100  0.74703100  1
  Se  Se19  1  0.89308600  0.14011700  0.89887700  1
  Se  Se20  1  0.24124000  0.99420900  0.10112300  1
  Se  Se21  1  0.22039000  0.46706200  0.39453700  1
  Se  Se22  1  0.84434900  0.43526800  0.24782000  1
  Se  Se23  1  0.52961000  0.42414700  0.74667200  1
  Se  Se24  1  0.40347000  0.15565100  0.59091900  1
  Se  Se25  1  0.18744900  0.59653000  0.75218000  1
  Se  Se26  1  0.67747400  0.78293800  0.25332800  1
  Se  Se27  1  0.21706200  0.47039000  0.89453700  1
  Se  Se28  1  0.57585300  0.32252600  0.10546300  1
  Se  Se29  1  0.56473200  0.81255100  0.40908100  1
  Se  Se30  1  0.17414700  0.77961000  0.24667200  1
  Se  Se31  1  0.85988300  0.75876000  0.75296900  1
  Se  Se32  1  0.74420900  0.49124000  0.60112300  1
  Se  Se33  1  0.53293800  0.92747400  0.75332800  1
  Se  Se34  1  0.00579100  0.10691400  0.24703100  1
  Se  Se35  1  0.56255100  0.81473200  0.90908100  1
  Se  Se36  1  0.90565100  0.65347000  0.09091900  1
  Se  Se37  1  0.89011700  0.14308600  0.39887700  1
  Se  Se38  1  0.18526800  0.09434900  0.74782000  1
  Se  Se39  1  0.34653000  0.43744900  0.25218000  1
