# generated using pymatgen
data_Tl2TeI6
_symmetry_space_group_name_H-M   'P 1'
_cell_length_a   8.61807400
_cell_length_b   8.02511800
_cell_length_c   13.94846899
_cell_angle_alpha   55.39863201
_cell_angle_beta   90.00000000
_cell_angle_gamma   90.00000000
_symmetry_Int_Tables_number   1
_chemical_formula_structural   Tl2TeI6
_chemical_formula_sum   'Tl4 Te2 I12'
_cell_volume   794.05909465
_cell_formula_units_Z   2
loop_
 _symmetry_equiv_pos_site_id
 _symmetry_equiv_pos_as_xyz
  1  'x, y, z'
loop_
 _atom_site_type_symbol
 _atom_site_label
 _atom_site_symmetry_multiplicity
 _atom_site_fract_x
 _atom_site_fract_y
 _atom_site_fract_z
 _atom_site_occupancy
  Tl  Tl0  1  0.90433000  0.28145000  0.24670800  1
  Tl  Tl1  1  0.40433000  0.71855000  0.25329200  1
  Tl  Tl2  1  0.09567000  0.71855000  0.75329200  1
  Tl  Tl3  1  0.59567000  0.28145000  0.74670800  1
  Te  Te4  1  0.00000000  0.00000000  0.00000000  1
  Te  Te5  1  0.50000000  0.00000000  0.50000000  1
  I  I6  1  0.20636500  0.22880300  0.45949800  1
  I  I7  1  0.70636500  0.77119700  0.04050200  1
  I  I8  1  0.79363500  0.77119700  0.54050200  1
  I  I9  1  0.29363500  0.22880300  0.95949800  1
  I  I10  1  0.99042600  0.16023300  0.74824900  1
  I  I11  1  0.49042600  0.83976700  0.75175100  1
  I  I12  1  0.00957400  0.83976700  0.25175100  1
  I  I13  1  0.50957400  0.16023300  0.24824900  1
  I  I14  1  0.68915800  0.35028600  0.45310800  1
  I  I15  1  0.18915800  0.64971400  0.04689200  1
  I  I16  1  0.31084200  0.64971400  0.54689200  1
  I  I17  1  0.81084200  0.35028600  0.95310800  1
