# generated using pymatgen
data_Ho6Se11
_symmetry_space_group_name_H-M   'P 1'
_cell_length_a   11.54307900
_cell_length_b   11.58570393
_cell_length_c   12.02935969
_cell_angle_alpha   89.92294145
_cell_angle_beta   89.77881549
_cell_angle_gamma   88.23962551
_symmetry_Int_Tables_number   1
_chemical_formula_structural   Ho6Se11
_chemical_formula_sum   'Ho24 Se44'
_cell_volume   1607.97031191
_cell_formula_units_Z   4
loop_
 _symmetry_equiv_pos_site_id
 _symmetry_equiv_pos_as_xyz
  1  'x, y, z'
loop_
 _atom_site_type_symbol
 _atom_site_label
 _atom_site_symmetry_multiplicity
 _atom_site_fract_x
 _atom_site_fract_y
 _atom_site_fract_z
 _atom_site_occupancy
  Ho  Ho0  1  0.00739400  0.75138400  0.49899200  1
  Ho  Ho1  1  0.13980600  0.14037900  0.33326600  1
  Ho  Ho2  1  0.14072900  0.13874600  0.66346800  1
  Ho  Ho3  1  0.15541900  0.15640700  0.00072300  1
  Ho  Ho4  1  0.24051600  0.48794000  0.50016300  1
  Ho  Ho5  1  0.24690400  0.50349500  0.16981600  1
  Ho  Ho6  1  0.25572800  0.50130200  0.82906800  1
  Ho  Ho7  1  0.38793100  0.88117500  0.66745400  1
  Ho  Ho8  1  0.38582100  0.88080400  0.33135200  1
  Ho  Ho9  1  0.38772000  0.89374200  0.00078700  1
  Ho  Ho10  1  0.48439500  0.22509200  0.49598100  1
  Ho  Ho11  1  0.49618600  0.24183500  0.83504100  1
  Ho  Ho12  1  0.50298400  0.24815400  0.17197800  1
  Ho  Ho13  1  0.62673100  0.62844400  0.99900100  1
  Ho  Ho14  1  0.65287000  0.65881600  0.67116600  1
  Ho  Ho15  1  0.64786500  0.64592900  0.33525100  1
  Ho  Ho16  1  0.75029900  0.00868000  0.49901300  1
  Ho  Ho17  1  0.74093300  0.98770000  0.16287000  1
  Ho  Ho18  1  0.74081300  0.99236200  0.83665000  1
  Ho  Ho19  1  0.89496600  0.39118900  0.66820400  1
  Ho  Ho20  1  0.88047200  0.38487000  0.33687600  1
  Ho  Ho21  1  0.89258600  0.38788100  0.00014100  1
  Ho  Ho22  1  0.98729000  0.73805800  0.16247900  1
  Ho  Ho23  1  0.99133200  0.73959200  0.83719200  1
  Se  Se24  1  0.00495900  0.00721600  0.49572700  1
  Se  Se25  1  0.06052500  0.31226200  0.49968600  1
  Se  Se26  1  0.07173000  0.31494600  0.83296900  1
  Se  Se27  1  0.06749300  0.31532800  0.16700400  1
  Se  Se28  1  0.07026900  0.56863600  0.99923000  1
  Se  Se29  1  0.07424600  0.57028300  0.66749200  1
  Se  Se30  1  0.06733000  0.56816400  0.33413200  1
  Se  Se31  1  0.06709500  0.91882300  0.99850600  1
  Se  Se32  1  0.12232300  0.88696500  0.30407900  1
  Se  Se33  1  0.12606400  0.88525500  0.69105500  1
  Se  Se34  1  0.24590500  0.76740900  0.83808900  1
  Se  Se35  1  0.23857100  0.77270600  0.15957000  1
  Se  Se36  1  0.27010100  0.73865700  0.50150500  1
  Se  Se37  1  0.30972100  0.05334800  0.49868900  1
  Se  Se38  1  0.31561300  0.06912100  0.16633900  1
  Se  Se39  1  0.31302200  0.06685700  0.83415300  1
  Se  Se40  1  0.31925500  0.31778100  0.33548200  1
  Se  Se41  1  0.32505100  0.31581400  0.66232400  1
  Se  Se42  1  0.33000000  0.32999800  0.00108900  1
  Se  Se43  1  0.37043600  0.63973900  0.99624700  1
  Se  Se44  1  0.40868000  0.60062500  0.65060100  1
  Se  Se45  1  0.39177400  0.61735900  0.34884800  1
  Se  Se46  1  0.52495000  0.48821300  0.79377300  1
  Se  Se47  1  0.50620600  0.50317300  0.18928900  1
  Se  Se48  1  0.56754100  0.06780700  0.66867800  1
  Se  Se49  1  0.56927700  0.06580800  0.33151300  1
  Se  Se50  1  0.57002600  0.06931700  0.00133100  1
  Se  Se51  1  0.56118500  0.81439600  0.83492900  1
  Se  Se52  1  0.56058800  0.81122800  0.16669400  1
  Se  Se53  1  0.57124700  0.81860600  0.50037500  1
  Se  Se54  1  0.61959200  0.39112600  0.37282000  1
  Se  Se55  1  0.63578400  0.37330600  0.99626600  1
  Se  Se56  1  0.72683800  0.28042300  0.52311500  1
  Se  Se57  1  0.76188800  0.25174200  0.82966800  1
  Se  Se58  1  0.76718500  0.24291100  0.16311000  1
  Se  Se59  1  0.81503500  0.56095400  0.83223800  1
  Se  Se60  1  0.81164700  0.55803700  0.16813900  1
  Se  Se61  1  0.80496200  0.80446300  0.99966400  1
  Se  Se62  1  0.81587400  0.56949400  0.50547000  1
  Se  Se63  1  0.82859900  0.83027200  0.66990100  1
  Se  Se64  1  0.82413900  0.82400100  0.33186800  1
  Se  Se65  1  0.88218500  0.12722700  0.31079100  1
  Se  Se66  1  0.88109900  0.13139400  0.68603300  1
  Se  Se67  1  0.91414900  0.07188400  0.99878800  1
