# generated using pymatgen
data_Ta2NiO6
_symmetry_space_group_name_H-M   'P 1'
_cell_length_a   4.77740200
_cell_length_b   4.77740200
_cell_length_c   9.17788800
_cell_angle_alpha   90.00000000
_cell_angle_beta   90.00000000
_cell_angle_gamma   90.00000000
_symmetry_Int_Tables_number   1
_chemical_formula_structural   Ta2NiO6
_chemical_formula_sum   'Ta4 Ni2 O12'
_cell_volume   209.47216802
_cell_formula_units_Z   2
loop_
 _symmetry_equiv_pos_site_id
 _symmetry_equiv_pos_as_xyz
  1  'x, y, z'
loop_
 _atom_site_type_symbol
 _atom_site_label
 _atom_site_symmetry_multiplicity
 _atom_site_fract_x
 _atom_site_fract_y
 _atom_site_fract_z
 _atom_site_occupancy
  Ta  Ta0  1  0.50000000  0.50000000  0.16865000  1
  Ta  Ta1  1  0.00000000  0.00000000  0.66865000  1
  Ta  Ta2  1  0.50000000  0.50000000  0.83135000  1
  Ta  Ta3  1  0.00000000  0.00000000  0.33135000  1
  Ni  Ni4  1  0.50000000  0.50000000  0.50000000  1
  Ni  Ni5  1  0.00000000  0.00000000  0.00000000  1
  O  O6  1  0.18935000  0.81065000  0.50000000  1
  O  O7  1  0.81065000  0.18935000  0.50000000  1
  O  O8  1  0.31065000  0.31065000  0.00000000  1
  O  O9  1  0.68935000  0.68935000  0.00000000  1
  O  O10  1  0.20296500  0.79703500  0.17464800  1
  O  O11  1  0.79703500  0.20296500  0.17464800  1
  O  O12  1  0.29703500  0.29703500  0.67464800  1
  O  O13  1  0.70296500  0.70296500  0.67464800  1
  O  O14  1  0.79703500  0.20296500  0.82535200  1
  O  O15  1  0.20296500  0.79703500  0.82535200  1
  O  O16  1  0.70296500  0.70296500  0.32535200  1
  O  O17  1  0.29703500  0.29703500  0.32535200  1
