# generated using pymatgen
data_Li13(Ga7Cu2)3
_symmetry_space_group_name_H-M   'P 1'
_cell_length_a   11.81592244
_cell_length_b   11.81592244
_cell_length_c   11.81592244
_cell_angle_alpha   109.47122063
_cell_angle_beta   109.47122063
_cell_angle_gamma   109.47122063
_symmetry_Int_Tables_number   1
_chemical_formula_structural   Li13(Ga7Cu2)3
_chemical_formula_sum   'Li26 Ga42 Cu12'
_cell_volume   1269.93357020
_cell_formula_units_Z   2
loop_
 _symmetry_equiv_pos_site_id
 _symmetry_equiv_pos_as_xyz
  1  'x, y, z'
loop_
 _atom_site_type_symbol
 _atom_site_label
 _atom_site_symmetry_multiplicity
 _atom_site_fract_x
 _atom_site_fract_y
 _atom_site_fract_z
 _atom_site_occupancy
  Li  Li0  1  0.79516500  0.29516500  0.50000000  1
  Li  Li1  1  0.50000000  0.20483500  0.70483500  1
  Li  Li2  1  0.29516500  0.50000000  0.79516500  1
  Li  Li3  1  0.50000000  0.79516500  0.29516500  1
  Li  Li4  1  0.70483500  0.50000000  0.20483500  1
  Li  Li5  1  0.20483500  0.70483500  0.50000000  1
  Li  Li6  1  0.00000000  0.00000000  0.62740900  1
  Li  Li7  1  0.00000000  0.62740900  0.00000000  1
  Li  Li8  1  0.37259100  0.37259100  0.37259100  1
  Li  Li9  1  0.62740900  0.00000000  0.00000000  1
  Li  Li10  1  0.00000000  0.00000000  0.37259100  1
  Li  Li11  1  0.00000000  0.37259100  0.00000000  1
  Li  Li12  1  0.62740900  0.62740900  0.62740900  1
  Li  Li13  1  0.37259100  0.00000000  0.00000000  1
  Li  Li14  1  0.57978700  0.69550200  0.88428500  1
  Li  Li15  1  0.88428500  0.18878300  0.30449800  1
  Li  Li16  1  0.69550200  0.11571500  0.81121800  1
  Li  Li17  1  0.11571500  0.81121800  0.69550200  1
  Li  Li18  1  0.30449800  0.11571500  0.42021300  1
  Li  Li19  1  0.88428500  0.57978700  0.69550200  1
  Li  Li20  1  0.69550200  0.88428500  0.57978700  1
  Li  Li21  1  0.30449800  0.88428500  0.18878200  1
  Li  Li22  1  0.11571500  0.42021300  0.30449800  1
  Li  Li23  1  0.81121700  0.69550200  0.11571500  1
  Li  Li24  1  0.42021300  0.30449800  0.11571500  1
  Li  Li25  1  0.18878300  0.30449800  0.88428500  1
  Ga  Ga26  1  0.09310700  0.50000000  0.59310700  1
  Ga  Ga27  1  0.59310700  0.09310700  0.50000000  1
  Ga  Ga28  1  0.50000000  0.40689300  0.90689300  1
  Ga  Ga29  1  0.40689300  0.90689300  0.50000000  1
  Ga  Ga30  1  0.50000000  0.59310700  0.09310700  1
  Ga  Ga31  1  0.90689300  0.50000000  0.40689300  1
  Ga  Ga32  1  0.09734100  0.15952000  0.25686100  1
  Ga  Ga33  1  0.93782000  0.09734100  0.84048000  1
  Ga  Ga34  1  0.84048000  0.74313900  0.90265900  1
  Ga  Ga35  1  0.74313900  0.90265900  0.84048000  1
  Ga  Ga36  1  0.15952000  0.06218000  0.90265900  1
  Ga  Ga37  1  0.25686100  0.09734100  0.15952000  1
  Ga  Ga38  1  0.15952000  0.25686100  0.09734100  1
  Ga  Ga39  1  0.84048000  0.93782000  0.09734100  1
  Ga  Ga40  1  0.06218000  0.90265900  0.15952000  1
  Ga  Ga41  1  0.90265900  0.84048000  0.74313900  1
  Ga  Ga42  1  0.90265900  0.15952000  0.06218000  1
  Ga  Ga43  1  0.09734100  0.84048000  0.93782000  1
  Ga  Ga44  1  0.03048700  0.24587800  0.59474700  1
  Ga  Ga45  1  0.78460900  0.34887000  0.75412200  1
  Ga  Ga46  1  0.43574000  0.40525300  0.65113000  1
  Ga  Ga47  1  0.40525300  0.65113000  0.43574000  1
  Ga  Ga48  1  0.56426000  0.21539100  0.96951300  1
  Ga  Ga49  1  0.59474700  0.03048700  0.24587800  1
  Ga  Ga50  1  0.24587800  0.59474700  0.03048700  1
  Ga  Ga51  1  0.75412200  0.78460900  0.34887000  1
  Ga  Ga52  1  0.21539100  0.96951300  0.56426000  1
  Ga  Ga53  1  0.65113000  0.43574000  0.40525300  1
  Ga  Ga54  1  0.96951300  0.56426000  0.21539100  1
  Ga  Ga55  1  0.34887000  0.75412200  0.78460900  1
  Ga  Ga56  1  0.96951300  0.75412200  0.40525300  1
  Ga  Ga57  1  0.21539100  0.65113000  0.24587800  1
  Ga  Ga58  1  0.56426000  0.59474700  0.34887000  1
  Ga  Ga59  1  0.59474700  0.34887000  0.56426000  1
  Ga  Ga60  1  0.43574000  0.78460900  0.03048700  1
  Ga  Ga61  1  0.40525300  0.96951300  0.75412200  1
  Ga  Ga62  1  0.75412200  0.40525300  0.96951300  1
  Ga  Ga63  1  0.24587800  0.21539100  0.65113000  1
  Ga  Ga64  1  0.78460900  0.03048700  0.43574000  1
  Ga  Ga65  1  0.34887000  0.56426000  0.59474700  1
  Ga  Ga66  1  0.03048700  0.43574000  0.78460900  1
  Ga  Ga67  1  0.65113000  0.24587800  0.21539100  1
  Cu  Cu68  1  0.17751100  0.31755900  0.49507000  1
  Cu  Cu69  1  0.85995300  0.17751100  0.68244100  1
  Cu  Cu70  1  0.68244100  0.50493000  0.82248900  1
  Cu  Cu71  1  0.50493000  0.82248900  0.68244100  1
  Cu  Cu72  1  0.31755900  0.14004700  0.82248900  1
  Cu  Cu73  1  0.49507000  0.17751100  0.31755900  1
  Cu  Cu74  1  0.31755900  0.49507000  0.17751100  1
  Cu  Cu75  1  0.68244100  0.85995300  0.17751100  1
  Cu  Cu76  1  0.14004700  0.82248900  0.31755900  1
  Cu  Cu77  1  0.82248900  0.68244100  0.50493000  1
  Cu  Cu78  1  0.82248900  0.31755900  0.14004700  1
  Cu  Cu79  1  0.17751100  0.68244100  0.85995300  1
