# generated using pymatgen
data_K4P21I
_symmetry_space_group_name_H-M   'P 1'
_cell_length_a   12.85822162
_cell_length_b   12.85822162
_cell_length_c   9.88348200
_cell_angle_alpha   90.00000000
_cell_angle_beta   90.00000000
_cell_angle_gamma   117.25610483
_symmetry_Int_Tables_number   1
_chemical_formula_structural   K4P21I
_chemical_formula_sum   'K8 P42 I2'
_cell_volume   1452.64029944
_cell_formula_units_Z   2
loop_
 _symmetry_equiv_pos_site_id
 _symmetry_equiv_pos_as_xyz
  1  'x, y, z'
loop_
 _atom_site_type_symbol
 _atom_site_label
 _atom_site_symmetry_multiplicity
 _atom_site_fract_x
 _atom_site_fract_y
 _atom_site_fract_z
 _atom_site_occupancy
  K  K0  1  0.24617900  0.06839300  0.25000000  1
  K  K1  1  0.75382100  0.93160700  0.75000000  1
  K  K2  1  0.06839300  0.24617900  0.25000000  1
  K  K3  1  0.93160700  0.75382100  0.75000000  1
  K  K4  1  0.37910400  0.62089600  0.50000000  1
  K  K5  1  0.62089600  0.37910400  0.00000000  1
  K  K6  1  0.62089600  0.37910400  0.50000000  1
  K  K7  1  0.37910400  0.62089600  0.00000000  1
  P  P8  1  0.96037900  0.96037900  0.25000000  1
  P  P9  1  0.03962100  0.03962100  0.75000000  1
  P  P10  1  0.66294700  0.20883200  0.25000000  1
  P  P11  1  0.33705300  0.79116800  0.75000000  1
  P  P12  1  0.20883200  0.66294700  0.25000000  1
  P  P13  1  0.79116800  0.33705300  0.75000000  1
  P  P14  1  0.31048200  0.00801400  0.92428100  1
  P  P15  1  0.68951800  0.99198600  0.42428100  1
  P  P16  1  0.00801400  0.31048200  0.57571900  1
  P  P17  1  0.99198600  0.68951800  0.07571900  1
  P  P18  1  0.05920300  0.50127300  0.91569600  1
  P  P19  1  0.94079700  0.49872700  0.41569600  1
  P  P20  1  0.50127300  0.05920300  0.58430400  1
  P  P21  1  0.49872700  0.94079700  0.08430400  1
  P  P22  1  0.94079700  0.49872700  0.08430400  1
  P  P23  1  0.05920300  0.50127300  0.58430400  1
  P  P24  1  0.49872700  0.94079700  0.41569600  1
  P  P25  1  0.50127300  0.05920300  0.91569600  1
  P  P26  1  0.14577000  0.14577000  0.91355700  1
  P  P27  1  0.85423000  0.85423000  0.41355700  1
  P  P28  1  0.14577000  0.14577000  0.58644300  1
  P  P29  1  0.85423000  0.85423000  0.08644300  1
  P  P30  1  0.94357400  0.50584700  0.75000000  1
  P  P31  1  0.05642600  0.49415300  0.25000000  1
  P  P32  1  0.50584700  0.94357400  0.75000000  1
  P  P33  1  0.49415300  0.05642600  0.25000000  1
  P  P34  1  0.88204300  0.23198900  0.75000000  1
  P  P35  1  0.11795700  0.76801100  0.25000000  1
  P  P36  1  0.23198900  0.88204300  0.75000000  1
  P  P37  1  0.76801100  0.11795700  0.25000000  1
  P  P38  1  0.18044300  0.32877900  0.86489300  1
  P  P39  1  0.81955700  0.67122100  0.36489300  1
  P  P40  1  0.32877900  0.18044300  0.63510700  1
  P  P41  1  0.67122100  0.81955700  0.13510700  1
  P  P42  1  0.81955700  0.67122100  0.13510700  1
  P  P43  1  0.18044300  0.32877900  0.63510700  1
  P  P44  1  0.67122100  0.81955700  0.36489300  1
  P  P45  1  0.32877900  0.18044300  0.86489300  1
  P  P46  1  0.00801400  0.31048200  0.92428100  1
  P  P47  1  0.99198600  0.68951800  0.42428100  1
  P  P48  1  0.31048200  0.00801400  0.57571900  1
  P  P49  1  0.68951800  0.99198600  0.07571900  1
  I  I50  1  0.39912100  0.39912100  0.25000000  1
  I  I51  1  0.60087900  0.60087900  0.75000000  1
