# generated using pymatgen
data_TbNi
_symmetry_space_group_name_H-M   'P 1'
_cell_length_a   4.21096800
_cell_length_b   5.43605600
_cell_length_c   21.24869917
_cell_angle_alpha   83.05574314
_cell_angle_beta   90.00000000
_cell_angle_gamma   90.00000000
_symmetry_Int_Tables_number   1
_chemical_formula_structural   TbNi
_chemical_formula_sum   'Tb12 Ni12'
_cell_volume   482.83705466
_cell_formula_units_Z   12
loop_
 _symmetry_equiv_pos_site_id
 _symmetry_equiv_pos_as_xyz
  1  'x, y, z'
loop_
 _atom_site_type_symbol
 _atom_site_label
 _atom_site_symmetry_multiplicity
 _atom_site_fract_x
 _atom_site_fract_y
 _atom_site_fract_z
 _atom_site_occupancy
  Tb  Tb0  1  0.75000000  0.33703800  0.06034100  1
  Tb  Tb1  1  0.25000000  0.66296200  0.93965900  1
  Tb  Tb2  1  0.75000000  0.50002500  0.22694800  1
  Tb  Tb3  1  0.25000000  0.49997500  0.77305200  1
  Tb  Tb4  1  0.75000000  0.18908200  0.39361000  1
  Tb  Tb5  1  0.25000000  0.81091800  0.60639000  1
  Tb  Tb6  1  0.75000000  0.33436800  0.56012800  1
  Tb  Tb7  1  0.25000000  0.66563200  0.43987200  1
  Tb  Tb8  1  0.75000000  0.02113700  0.72657800  1
  Tb  Tb9  1  0.25000000  0.97886300  0.27342200  1
  Tb  Tb10  1  0.75000000  0.17592500  0.89327800  1
  Tb  Tb11  1  0.25000000  0.82407500  0.10672200  1
  Ni  Ni12  1  0.75000000  0.86705000  0.01215100  1
  Ni  Ni13  1  0.25000000  0.13295000  0.98784900  1
  Ni  Ni14  1  0.75000000  0.02959500  0.17882600  1
  Ni  Ni15  1  0.25000000  0.97040500  0.82117400  1
  Ni  Ni16  1  0.75000000  0.70595600  0.34561200  1
  Ni  Ni17  1  0.25000000  0.29404400  0.65438800  1
  Ni  Ni18  1  0.75000000  0.86598000  0.51235500  1
  Ni  Ni19  1  0.25000000  0.13402000  0.48764500  1
  Ni  Ni20  1  0.75000000  0.53607900  0.67918900  1
  Ni  Ni21  1  0.25000000  0.46392100  0.32081100  1
  Ni  Ni22  1  0.75000000  0.70567000  0.84581900  1
  Ni  Ni23  1  0.25000000  0.29433000  0.15418100  1
