# generated using pymatgen
data_Li10Zn4O9
_symmetry_space_group_name_H-M   'P 1'
_cell_length_a   9.83333000
_cell_length_b   9.83333000
_cell_length_c   4.70913500
_cell_angle_alpha   90.00000000
_cell_angle_beta   90.00000000
_cell_angle_gamma   90.00000000
_symmetry_Int_Tables_number   1
_chemical_formula_structural   Li10Zn4O9
_chemical_formula_sum   'Li20 Zn8 O18'
_cell_volume   455.34688393
_cell_formula_units_Z   2
loop_
 _symmetry_equiv_pos_site_id
 _symmetry_equiv_pos_as_xyz
  1  'x, y, z'
loop_
 _atom_site_type_symbol
 _atom_site_label
 _atom_site_symmetry_multiplicity
 _atom_site_fract_x
 _atom_site_fract_y
 _atom_site_fract_z
 _atom_site_occupancy
  Li  Li0  1  0.64383200  0.18757100  0.28963900  1
  Li  Li1  1  0.35616800  0.81242900  0.28963900  1
  Li  Li2  1  0.31242900  0.14383200  0.78963900  1
  Li  Li3  1  0.68757100  0.85616800  0.78963900  1
  Li  Li4  1  0.18757100  0.64383200  0.71036100  1
  Li  Li5  1  0.14383200  0.31242900  0.21036100  1
  Li  Li6  1  0.85616800  0.68757100  0.21036100  1
  Li  Li7  1  0.81242900  0.35616800  0.71036100  1
  Li  Li8  1  0.18757100  0.35616800  0.71036100  1
  Li  Li9  1  0.81242900  0.64383200  0.71036100  1
  Li  Li10  1  0.31242900  0.85616800  0.78963900  1
  Li  Li11  1  0.35616800  0.18757100  0.28963900  1
  Li  Li12  1  0.64383200  0.81242900  0.28963900  1
  Li  Li13  1  0.68757100  0.14383200  0.78963900  1
  Li  Li14  1  0.00000000  0.50000000  0.16905300  1
  Li  Li15  1  0.00000000  0.50000000  0.66905300  1
  Li  Li16  1  0.50000000  0.00000000  0.33094700  1
  Li  Li17  1  0.50000000  0.00000000  0.83094700  1
  Li  Li18  1  0.14383200  0.68757100  0.21036100  1
  Li  Li19  1  0.85616800  0.31242900  0.21036100  1
  Zn  Zn20  1  0.66194100  0.50000000  0.23145500  1
  Zn  Zn21  1  0.33805900  0.50000000  0.23145500  1
  Zn  Zn22  1  0.00000000  0.16194100  0.73145500  1
  Zn  Zn23  1  0.00000000  0.83805900  0.73145500  1
  Zn  Zn24  1  0.50000000  0.66194100  0.76854500  1
  Zn  Zn25  1  0.16194100  0.00000000  0.26854500  1
  Zn  Zn26  1  0.83805900  0.00000000  0.26854500  1
  Zn  Zn27  1  0.50000000  0.33805900  0.76854500  1
  O  O28  1  0.17342000  0.17342000  0.50000000  1
  O  O29  1  0.32658000  0.67342000  0.00000000  1
  O  O30  1  0.82658000  0.17342000  0.50000000  1
  O  O31  1  0.67342000  0.67342000  0.00000000  1
  O  O32  1  0.32658000  0.32658000  0.00000000  1
  O  O33  1  0.17342000  0.82658000  0.50000000  1
  O  O34  1  0.50000000  0.50000000  0.50000000  1
  O  O35  1  0.00000000  0.00000000  0.00000000  1
  O  O36  1  0.65740900  0.00000000  0.07051800  1
  O  O37  1  0.34259100  0.00000000  0.07051800  1
  O  O38  1  0.50000000  0.15740900  0.57051800  1
  O  O39  1  0.50000000  0.84259100  0.57051800  1
  O  O40  1  0.00000000  0.65740900  0.92948200  1
  O  O41  1  0.15740900  0.50000000  0.42948200  1
  O  O42  1  0.84259100  0.50000000  0.42948200  1
  O  O43  1  0.00000000  0.34259100  0.92948200  1
  O  O44  1  0.67342000  0.32658000  0.00000000  1
  O  O45  1  0.82658000  0.82658000  0.50000000  1
