# generated using pymatgen
data_KAgO
_symmetry_space_group_name_H-M   'P 1'
_cell_length_a   7.61740849
_cell_length_b   7.61740849
_cell_length_c   7.61740849
_cell_angle_alpha   97.62540294
_cell_angle_beta   97.62540294
_cell_angle_gamma   137.27412877
_symmetry_Int_Tables_number   1
_chemical_formula_structural   KAgO
_chemical_formula_sum   'K4 Ag4 O4'
_cell_volume   279.28770951
_cell_formula_units_Z   4
loop_
 _symmetry_equiv_pos_site_id
 _symmetry_equiv_pos_as_xyz
  1  'x, y, z'
loop_
 _atom_site_type_symbol
 _atom_site_label
 _atom_site_symmetry_multiplicity
 _atom_site_fract_x
 _atom_site_fract_y
 _atom_site_fract_z
 _atom_site_occupancy
  K  K0  1  0.50000000  0.17822000  0.67822000  1
  K  K1  1  0.50000000  0.82178000  0.32178000  1
  K  K2  1  0.82178000  0.50000000  0.32178000  1
  K  K3  1  0.17822000  0.50000000  0.67822000  1
  Ag  Ag4  1  0.14765600  0.14765600  0.29531200  1
  Ag  Ag5  1  0.14765600  0.85234400  0.00000000  1
  Ag  Ag6  1  0.85234400  0.85234400  0.70468800  1
  Ag  Ag7  1  0.85234400  0.14765600  0.00000000  1
  O  O8  1  0.29422500  0.00000000  0.29422500  1
  O  O9  1  0.00000000  0.70577500  0.70577500  1
  O  O10  1  0.00000000  0.29422500  0.29422500  1
  O  O11  1  0.70577500  0.00000000  0.70577500  1
