# generated using pymatgen
data_Ho5Bi3
_symmetry_space_group_name_H-M   'P 1'
_cell_length_a   8.22917500
_cell_length_b   9.51159600
_cell_length_c   11.99667600
_cell_angle_alpha   90.00000000
_cell_angle_beta   90.00000000
_cell_angle_gamma   90.00000000
_symmetry_Int_Tables_number   1
_chemical_formula_structural   Ho5Bi3
_chemical_formula_sum   'Ho20 Bi12'
_cell_volume   939.01087808
_cell_formula_units_Z   4
loop_
 _symmetry_equiv_pos_site_id
 _symmetry_equiv_pos_as_xyz
  1  'x, y, z'
loop_
 _atom_site_type_symbol
 _atom_site_label
 _atom_site_symmetry_multiplicity
 _atom_site_fract_x
 _atom_site_fract_y
 _atom_site_fract_z
 _atom_site_occupancy
  Ho  Ho0  1  0.35383900  0.75000000  0.21606400  1
  Ho  Ho1  1  0.85383900  0.75000000  0.28393600  1
  Ho  Ho2  1  0.64616100  0.25000000  0.78393600  1
  Ho  Ho3  1  0.14616100  0.25000000  0.71606400  1
  Ho  Ho4  1  0.69208200  0.56415700  0.05898700  1
  Ho  Ho5  1  0.19208200  0.93584300  0.44101300  1
  Ho  Ho6  1  0.30791800  0.06415700  0.94101300  1
  Ho  Ho7  1  0.80791800  0.43584300  0.55898700  1
  Ho  Ho8  1  0.30791800  0.43584300  0.94101300  1
  Ho  Ho9  1  0.80791800  0.06415700  0.55898700  1
  Ho  Ho10  1  0.69208200  0.93584300  0.05898700  1
  Ho  Ho11  1  0.19208200  0.56415700  0.44101300  1
  Ho  Ho12  1  0.47711500  0.25000000  0.48906400  1
  Ho  Ho13  1  0.97711500  0.25000000  0.01093600  1
  Ho  Ho14  1  0.52288500  0.75000000  0.51093600  1
  Ho  Ho15  1  0.02288500  0.75000000  0.98906400  1
  Ho  Ho16  1  0.31482200  0.25000000  0.21812000  1
  Ho  Ho17  1  0.81482200  0.25000000  0.28188000  1
  Ho  Ho18  1  0.68517800  0.75000000  0.78188000  1
  Ho  Ho19  1  0.18517800  0.75000000  0.71812000  1
  Bi  Bi20  1  0.40542300  0.75000000  0.95747600  1
  Bi  Bi21  1  0.90542300  0.75000000  0.54252400  1
  Bi  Bi22  1  0.59457700  0.25000000  0.04252400  1
  Bi  Bi23  1  0.09457700  0.25000000  0.45747600  1
  Bi  Bi24  1  0.56582800  0.99629900  0.32568900  1
  Bi  Bi25  1  0.06582800  0.50370100  0.17431100  1
  Bi  Bi26  1  0.43417200  0.49629900  0.67431100  1
  Bi  Bi27  1  0.93417200  0.00370100  0.82568900  1
  Bi  Bi28  1  0.43417200  0.00370100  0.67431100  1
  Bi  Bi29  1  0.93417200  0.49629900  0.82568900  1
  Bi  Bi30  1  0.56582800  0.50370100  0.32568900  1
  Bi  Bi31  1  0.06582800  0.99629900  0.17431100  1
