# generated using pymatgen
data_Y2Si2Rh
_symmetry_space_group_name_H-M   'P 1'
_cell_length_a   5.70417694
_cell_length_b   5.70417694
_cell_length_c   10.09690071
_cell_angle_alpha   63.57457411
_cell_angle_beta   63.57457411
_cell_angle_gamma   43.44553963
_symmetry_Int_Tables_number   1
_chemical_formula_structural   Y2Si2Rh
_chemical_formula_sum   'Y4 Si4 Rh2'
_cell_volume   198.30775197
_cell_formula_units_Z   2
loop_
 _symmetry_equiv_pos_site_id
 _symmetry_equiv_pos_as_xyz
  1  'x, y, z'
loop_
 _atom_site_type_symbol
 _atom_site_label
 _atom_site_symmetry_multiplicity
 _atom_site_fract_x
 _atom_site_fract_y
 _atom_site_fract_z
 _atom_site_occupancy
  Y  Y0  1  0.00195900  0.00195900  0.32435500  1
  Y  Y1  1  0.18498700  0.18498700  0.89114300  1
  Y  Y2  1  0.99804100  0.99804100  0.67564500  1
  Y  Y3  1  0.81501300  0.81501300  0.10885700  1
  Si  Si4  1  0.35919700  0.35919700  0.56544300  1
  Si  Si5  1  0.48852500  0.48852500  0.87958900  1
  Si  Si6  1  0.64080300  0.64080300  0.43455700  1
  Si  Si7  1  0.51147500  0.51147500  0.12041100  1
  Rh  Rh8  1  0.72589200  0.72589200  0.62711100  1
  Rh  Rh9  1  0.27410800  0.27410800  0.37288900  1
