# generated using pymatgen
data_Zn2PtO4
_symmetry_space_group_name_H-M   'P 1'
_cell_length_a   6.16945379
_cell_length_b   6.16945379
_cell_length_c   6.16945379
_cell_angle_alpha   121.98875587
_cell_angle_beta   119.43686637
_cell_angle_gamma   88.78426121
_symmetry_Int_Tables_number   1
_chemical_formula_structural   Zn2PtO4
_chemical_formula_sum   'Zn4 Pt2 O8'
_cell_volume   164.11112582
_cell_formula_units_Z   2
loop_
 _symmetry_equiv_pos_site_id
 _symmetry_equiv_pos_as_xyz
  1  'x, y, z'
loop_
 _atom_site_type_symbol
 _atom_site_label
 _atom_site_symmetry_multiplicity
 _atom_site_fract_x
 _atom_site_fract_y
 _atom_site_fract_z
 _atom_site_occupancy
  Zn  Zn0  1  0.59969300  0.84969300  0.75000000  1
  Zn  Zn1  1  0.40030700  0.15030700  0.25000000  1
  Zn  Zn2  1  0.00000000  0.00000000  0.50000000  1
  Zn  Zn3  1  0.00000000  0.50000000  0.00000000  1
  Pt  Pt4  1  0.00000000  0.50000000  0.50000000  1
  Pt  Pt5  1  0.50000000  0.50000000  0.00000000  1
  O  O6  1  0.78682100  0.26765000  0.51917200  1
  O  O7  1  0.24847800  0.26765000  0.98082800  1
  O  O8  1  0.25103300  0.27513700  0.52410400  1
  O  O9  1  0.25103300  0.72692800  0.97589600  1
  O  O10  1  0.74896700  0.27307200  0.02410400  1
  O  O11  1  0.75152200  0.73235000  0.01917200  1
  O  O12  1  0.74896700  0.72486300  0.47589600  1
  O  O13  1  0.21317900  0.73235000  0.48082800  1
