# generated using pymatgen
data_SrLiBi
_symmetry_space_group_name_H-M   'P 1'
_cell_length_a   4.94864700
_cell_length_b   8.23367800
_cell_length_c   8.69123800
_cell_angle_alpha   90.00000000
_cell_angle_beta   90.00000000
_cell_angle_gamma   90.00000000
_symmetry_Int_Tables_number   1
_chemical_formula_structural   SrLiBi
_chemical_formula_sum   'Sr4 Li4 Bi4'
_cell_volume   354.12941097
_cell_formula_units_Z   4
loop_
 _symmetry_equiv_pos_site_id
 _symmetry_equiv_pos_as_xyz
  1  'x, y, z'
loop_
 _atom_site_type_symbol
 _atom_site_label
 _atom_site_symmetry_multiplicity
 _atom_site_fract_x
 _atom_site_fract_y
 _atom_site_fract_z
 _atom_site_occupancy
  Sr  Sr0  1  0.75000000  0.49688300  0.70859100  1
  Sr  Sr1  1  0.25000000  0.50311700  0.29140900  1
  Sr  Sr2  1  0.75000000  0.99688300  0.79140900  1
  Sr  Sr3  1  0.25000000  0.00311700  0.20859100  1
  Li  Li4  1  0.75000000  0.33708500  0.07490700  1
  Li  Li5  1  0.25000000  0.66291500  0.92509300  1
  Li  Li6  1  0.75000000  0.83708500  0.42509300  1
  Li  Li7  1  0.25000000  0.16291500  0.57490700  1
  Bi  Bi8  1  0.75000000  0.72377300  0.09381300  1
  Bi  Bi9  1  0.25000000  0.27622700  0.90618700  1
  Bi  Bi10  1  0.75000000  0.22377300  0.40618700  1
  Bi  Bi11  1  0.25000000  0.77622700  0.59381300  1
