# generated using pymatgen
data_Mn4Nb2O9
_symmetry_space_group_name_H-M   'P 1'
_cell_length_a   5.38782418
_cell_length_b   14.53194200
_cell_length_c   5.38781800
_cell_angle_alpha   89.99985065
_cell_angle_beta   120.00040642
_cell_angle_gamma   90.00008682
_symmetry_Int_Tables_number   1
_chemical_formula_structural   Mn4Nb2O9
_chemical_formula_sum   'Mn8 Nb4 O18'
_cell_volume   365.32453538
_cell_formula_units_Z   2
loop_
 _symmetry_equiv_pos_site_id
 _symmetry_equiv_pos_as_xyz
  1  'x, y, z'
loop_
 _atom_site_type_symbol
 _atom_site_label
 _atom_site_symmetry_multiplicity
 _atom_site_fract_x
 _atom_site_fract_y
 _atom_site_fract_z
 _atom_site_occupancy
  Mn  Mn0  1  0.33333000  0.69679300  0.66666600  1
  Mn  Mn1  1  0.33333700  0.19680100  0.66667500  1
  Mn  Mn2  1  0.33332500  0.98203000  0.66666000  1
  Mn  Mn3  1  0.33333400  0.48202900  0.66666900  1
  Mn  Mn4  1  0.66665900  0.80317600  0.33332200  1
  Mn  Mn5  1  0.66667500  0.30318400  0.33333800  1
  Mn  Mn6  1  0.66666800  0.51799200  0.33334200  1
  Mn  Mn7  1  0.66666500  0.01798100  0.33333300  1
  Nb  Nb8  1  0.99999600  0.85746100  0.99999400  1
  Nb  Nb9  1  0.00000200  0.64255100  0.00000100  1
  Nb  Nb10  1  0.00000000  0.14254900  0.00000000  1
  Nb  Nb11  1  0.00000300  0.35746200  0.00000400  1
  O  O12  1  0.27884900  0.74999300  0.27885500  1
  O  O13  1  0.72114400  0.74999400  0.99999100  1
  O  O14  1  0.99999900  0.74999500  0.72114300  1
  O  O15  1  0.72114800  0.24999500  0.72115000  1
  O  O16  1  0.27885700  0.24999600  0.00000400  1
  O  O17  1  0.00000700  0.24999500  0.27885600  1
  O  O18  1  0.66312500  0.58567400  0.69091200  1
  O  O19  1  0.02778600  0.58567400  0.33687400  1
  O  O20  1  0.30908900  0.58567400  0.97221500  1
  O  O21  1  0.33686600  0.91433000  0.02777700  1
  O  O22  1  0.97222000  0.91433000  0.30908400  1
  O  O23  1  0.69090800  0.91433100  0.66313000  1
  O  O24  1  0.30909100  0.08567100  0.33687100  1
  O  O25  1  0.02778100  0.08567200  0.69091000  1
  O  O26  1  0.66313000  0.08567200  0.97221900  1
  O  O27  1  0.69091600  0.41433300  0.02778000  1
  O  O28  1  0.97222200  0.41433300  0.66313400  1
  O  O29  1  0.33686900  0.41433400  0.30909000  1
