# generated using pymatgen
data_Li3NbO4
_symmetry_space_group_name_H-M   'P 1'
_cell_length_a   7.38643113
_cell_length_b   7.38643113
_cell_length_c   7.38643113
_cell_angle_alpha   109.47122063
_cell_angle_beta   109.47122063
_cell_angle_gamma   109.47122063
_symmetry_Int_Tables_number   1
_chemical_formula_structural   Li3NbO4
_chemical_formula_sum   'Li12 Nb4 O16'
_cell_volume   310.22876754
_cell_formula_units_Z   4
loop_
 _symmetry_equiv_pos_site_id
 _symmetry_equiv_pos_as_xyz
  1  'x, y, z'
loop_
 _atom_site_type_symbol
 _atom_site_label
 _atom_site_symmetry_multiplicity
 _atom_site_fract_x
 _atom_site_fract_y
 _atom_site_fract_z
 _atom_site_occupancy
  Li  Li0  1  0.72945100  0.24314600  0.72945100  1
  Li  Li1  1  0.27054900  0.00000000  0.51369500  1
  Li  Li2  1  0.51369500  0.00000000  0.27054900  1
  Li  Li3  1  0.75685400  0.48630500  0.48630500  1
  Li  Li4  1  0.48630500  0.75685400  0.48630500  1
  Li  Li5  1  0.24314600  0.72945100  0.72945100  1
  Li  Li6  1  0.27054900  0.51369500  0.00000000  1
  Li  Li7  1  0.00000000  0.51369500  0.27054900  1
  Li  Li8  1  0.72945100  0.72945100  0.24314600  1
  Li  Li9  1  0.00000000  0.27054900  0.51369500  1
  Li  Li10  1  0.51369500  0.27054900  0.00000000  1
  Li  Li11  1  0.48630500  0.48630500  0.75685400  1
  Nb  Nb12  1  0.00000000  0.00000000  0.71916200  1
  Nb  Nb13  1  0.00000000  0.71916200  0.00000000  1
  Nb  Nb14  1  0.71916200  0.00000000  0.00000000  1
  Nb  Nb15  1  0.28083800  0.28083800  0.28083800  1
  O  O16  1  0.48580500  0.24613400  0.48580500  1
  O  O17  1  0.23967200  0.23967200  0.75386600  1
  O  O18  1  0.76032800  0.51419500  0.00000000  1
  O  O19  1  0.51419500  0.76032800  0.00000000  1
  O  O20  1  0.77271900  0.77271900  0.77271900  1
  O  O21  1  0.22728100  0.00000000  0.00000000  1
  O  O22  1  0.00000000  0.22728100  0.00000000  1
  O  O23  1  0.00000000  0.00000000  0.22728100  1
  O  O24  1  0.48580500  0.48580500  0.24613400  1
  O  O25  1  0.51419500  0.00000000  0.76032800  1
  O  O26  1  0.00000000  0.51419500  0.76032800  1
  O  O27  1  0.23967200  0.75386600  0.23967200  1
  O  O28  1  0.00000000  0.76032800  0.51419500  1
  O  O29  1  0.76032800  0.00000000  0.51419500  1
  O  O30  1  0.75386600  0.23967200  0.23967200  1
  O  O31  1  0.24613400  0.48580500  0.48580500  1
