# generated using pymatgen
data_La3(Sn3Pd2)2
_symmetry_space_group_name_H-M   'P 1'
_cell_length_a   4.68543600
_cell_length_b   15.84529300
_cell_length_c   17.11487200
_cell_angle_alpha   90.00000000
_cell_angle_beta   90.00000000
_cell_angle_gamma   90.00000000
_symmetry_Int_Tables_number   1
_chemical_formula_structural   La3(Sn3Pd2)2
_chemical_formula_sum   'La12 Sn24 Pd16'
_cell_volume   1270.64414553
_cell_formula_units_Z   4
loop_
 _symmetry_equiv_pos_site_id
 _symmetry_equiv_pos_as_xyz
  1  'x, y, z'
loop_
 _atom_site_type_symbol
 _atom_site_label
 _atom_site_symmetry_multiplicity
 _atom_site_fract_x
 _atom_site_fract_y
 _atom_site_fract_z
 _atom_site_occupancy
  La  La0  1  0.25000000  0.88196600  0.14163300  1
  La  La1  1  0.75000000  0.11803400  0.85836700  1
  La  La2  1  0.75000000  0.38196600  0.35836700  1
  La  La3  1  0.25000000  0.61803400  0.64163300  1
  La  La4  1  0.25000000  0.01721100  0.35066100  1
  La  La5  1  0.75000000  0.98278900  0.64933900  1
  La  La6  1  0.75000000  0.51721100  0.14933900  1
  La  La7  1  0.25000000  0.48278900  0.85066100  1
  La  La8  1  0.25000000  0.75137000  0.38405900  1
  La  La9  1  0.75000000  0.24863000  0.61594100  1
  La  La10  1  0.75000000  0.25137000  0.11594100  1
  La  La11  1  0.25000000  0.74863000  0.88405900  1
  Sn  Sn12  1  0.25000000  0.58228800  0.02582100  1
  Sn  Sn13  1  0.75000000  0.41771200  0.97417900  1
  Sn  Sn14  1  0.75000000  0.08228800  0.47417900  1
  Sn  Sn15  1  0.25000000  0.91771200  0.52582100  1
  Sn  Sn16  1  0.25000000  0.10570900  0.17118000  1
  Sn  Sn17  1  0.75000000  0.89429100  0.82882000  1
  Sn  Sn18  1  0.75000000  0.60570900  0.32882000  1
  Sn  Sn19  1  0.25000000  0.39429100  0.67118000  1
  Sn  Sn20  1  0.25000000  0.66334800  0.18909200  1
  Sn  Sn21  1  0.75000000  0.33665200  0.81090800  1
  Sn  Sn22  1  0.75000000  0.16334800  0.31090800  1
  Sn  Sn23  1  0.25000000  0.83665200  0.68909200  1
  Sn  Sn24  1  0.25000000  0.37959300  0.20631000  1
  Sn  Sn25  1  0.75000000  0.62040700  0.79369000  1
  Sn  Sn26  1  0.75000000  0.87959300  0.29369000  1
  Sn  Sn27  1  0.25000000  0.12040700  0.70631000  1
  Sn  Sn28  1  0.25000000  0.22986200  0.44294600  1
  Sn  Sn29  1  0.75000000  0.77013800  0.55705400  1
  Sn  Sn30  1  0.75000000  0.72986200  0.05705400  1
  Sn  Sn31  1  0.25000000  0.27013800  0.94294600  1
  Sn  Sn32  1  0.25000000  0.53833400  0.44760300  1
  Sn  Sn33  1  0.75000000  0.46166600  0.55239700  1
  Sn  Sn34  1  0.75000000  0.03833400  0.05239700  1
  Sn  Sn35  1  0.25000000  0.96166600  0.94760300  1
  Pd  Pd36  1  0.25000000  0.12130100  0.01129400  1
  Pd  Pd37  1  0.75000000  0.87869900  0.98870600  1
  Pd  Pd38  1  0.75000000  0.62130100  0.48870600  1
  Pd  Pd39  1  0.25000000  0.37869900  0.51129400  1
  Pd  Pd40  1  0.25000000  0.40028500  0.04781100  1
  Pd  Pd41  1  0.75000000  0.59971500  0.95218900  1
  Pd  Pd42  1  0.75000000  0.90028500  0.45218900  1
  Pd  Pd43  1  0.25000000  0.09971500  0.54781100  1
  Pd  Pd44  1  0.25000000  0.23354700  0.28257900  1
  Pd  Pd45  1  0.75000000  0.76645300  0.71742100  1
  Pd  Pd46  1  0.75000000  0.73354700  0.21742100  1
  Pd  Pd47  1  0.25000000  0.26645300  0.78257900  1
  Pd  Pd48  1  0.25000000  0.52535100  0.29071800  1
  Pd  Pd49  1  0.75000000  0.47464900  0.70928200  1
  Pd  Pd50  1  0.75000000  0.02535100  0.20928200  1
  Pd  Pd51  1  0.25000000  0.97464900  0.79071800  1
