# generated using pymatgen
data_U(IO4)2
_symmetry_space_group_name_H-M   'P 1'
_cell_length_a   16.63134300
_cell_length_b   4.26592800
_cell_length_c   5.79884304
_cell_angle_alpha   64.33257297
_cell_angle_beta   90.00000000
_cell_angle_gamma   90.00000000
_symmetry_Int_Tables_number   1
_chemical_formula_structural   U(IO4)2
_chemical_formula_sum   'U2 I4 O16'
_cell_volume   370.81974232
_cell_formula_units_Z   2
loop_
 _symmetry_equiv_pos_site_id
 _symmetry_equiv_pos_as_xyz
  1  'x, y, z'
loop_
 _atom_site_type_symbol
 _atom_site_label
 _atom_site_symmetry_multiplicity
 _atom_site_fract_x
 _atom_site_fract_y
 _atom_site_fract_z
 _atom_site_occupancy
  U  U0  1  0.50000000  0.50000000  0.00000000  1
  U  U1  1  0.00000000  0.50000000  0.50000000  1
  I  I2  1  0.66105100  0.90365000  0.28493800  1
  I  I3  1  0.16105100  0.09635000  0.21506200  1
  I  I4  1  0.33894900  0.09635000  0.71506200  1
  I  I5  1  0.83894900  0.90365000  0.78493800  1
  O  O6  1  0.44213500  0.33026400  0.29542400  1
  O  O7  1  0.94213500  0.66973600  0.20457600  1
  O  O8  1  0.55786500  0.66973600  0.70457600  1
  O  O9  1  0.05786500  0.33026400  0.79542400  1
  O  O10  1  0.62908400  0.34143500  0.24914200  1
  O  O11  1  0.12908400  0.65856500  0.25085800  1
  O  O12  1  0.93661900  0.92465200  0.61116500  1
  O  O13  1  0.43661900  0.07534800  0.88883500  1
  O  O14  1  0.06338100  0.07534800  0.38883500  1
  O  O15  1  0.56338100  0.92465200  0.11116500  1
  O  O16  1  0.77182100  0.04364800  0.51216400  1
  O  O17  1  0.27182100  0.95635200  0.98783600  1
  O  O18  1  0.22817900  0.95635200  0.48783600  1
  O  O19  1  0.72817900  0.04364800  0.01216400  1
  O  O20  1  0.87091600  0.34143500  0.74914200  1
  O  O21  1  0.37091600  0.65856500  0.75085800  1
