# generated using pymatgen
data_ThPd
_symmetry_space_group_name_H-M   'P 1'
_cell_length_a   4.58962100
_cell_length_b   5.89789500
_cell_length_c   7.28961800
_cell_angle_alpha   90.00000000
_cell_angle_beta   90.00000000
_cell_angle_gamma   90.00000000
_symmetry_Int_Tables_number   1
_chemical_formula_structural   ThPd
_chemical_formula_sum   'Th4 Pd4'
_cell_volume   197.32341863
_cell_formula_units_Z   4
loop_
 _symmetry_equiv_pos_site_id
 _symmetry_equiv_pos_as_xyz
  1  'x, y, z'
loop_
 _atom_site_type_symbol
 _atom_site_label
 _atom_site_symmetry_multiplicity
 _atom_site_fract_x
 _atom_site_fract_y
 _atom_site_fract_z
 _atom_site_occupancy
  Th  Th0  1  0.25000000  0.14141100  0.17875900  1
  Th  Th1  1  0.75000000  0.85858900  0.82124100  1
  Th  Th2  1  0.75000000  0.64141100  0.32124100  1
  Th  Th3  1  0.25000000  0.35858900  0.67875900  1
  Pd  Pd4  1  0.25000000  0.64976100  0.04660400  1
  Pd  Pd5  1  0.75000000  0.35023900  0.95339600  1
  Pd  Pd6  1  0.75000000  0.14976100  0.45339600  1
  Pd  Pd7  1  0.25000000  0.85023900  0.54660400  1
