# generated using pymatgen
data_Na3UO4
_symmetry_space_group_name_H-M   'P 1'
_cell_length_a   5.81000522
_cell_length_b   5.81000522
_cell_length_c   3.49933300
_cell_angle_alpha   90.00000000
_cell_angle_beta   90.00000000
_cell_angle_gamma   107.82750573
_symmetry_Int_Tables_number   1
_chemical_formula_structural   Na3UO4
_chemical_formula_sum   'Na3 U1 O4'
_cell_volume   112.45202915
_cell_formula_units_Z   1
loop_
 _symmetry_equiv_pos_site_id
 _symmetry_equiv_pos_as_xyz
  1  'x, y, z'
loop_
 _atom_site_type_symbol
 _atom_site_label
 _atom_site_symmetry_multiplicity
 _atom_site_fract_x
 _atom_site_fract_y
 _atom_site_fract_z
 _atom_site_occupancy
  Na  Na0  1  0.00000000  0.50000000  0.50000000  1
  Na  Na1  1  0.50000000  0.00000000  0.50000000  1
  Na  Na2  1  0.50000000  0.50000000  0.00000000  1
  U  U3  1  0.00000000  0.00000000  0.00000000  1
  O  O4  1  0.78399300  0.21600700  0.00000000  1
  O  O5  1  0.78675100  0.78675100  0.50000000  1
  O  O6  1  0.21324900  0.21324900  0.50000000  1
  O  O7  1  0.21600700  0.78399300  0.00000000  1
