# generated using pymatgen
data_HoAu4
_symmetry_space_group_name_H-M   'P 1'
_cell_length_a   5.24977752
_cell_length_b   5.24977752
_cell_length_c   5.24977752
_cell_angle_alpha   99.32437636
_cell_angle_beta   99.32437636
_cell_angle_gamma   132.52817472
_symmetry_Int_Tables_number   1
_chemical_formula_structural   HoAu4
_chemical_formula_sum   'Ho1 Au4'
_cell_volume   97.60536035
_cell_formula_units_Z   1
loop_
 _symmetry_equiv_pos_site_id
 _symmetry_equiv_pos_as_xyz
  1  'x, y, z'
loop_
 _atom_site_type_symbol
 _atom_site_label
 _atom_site_symmetry_multiplicity
 _atom_site_fract_x
 _atom_site_fract_y
 _atom_site_fract_z
 _atom_site_occupancy
  Ho  Ho0  1  0.00000000  0.00000000  0.00000000  1
  Au  Au1  1  0.40131200  0.80107600  0.20238800  1
  Au  Au2  1  0.59868800  0.19892400  0.79761200  1
  Au  Au3  1  0.19892400  0.40131200  0.60023500  1
  Au  Au4  1  0.80107600  0.59868800  0.39976500  1
