# generated using pymatgen
data_LiGaS2
_symmetry_space_group_name_H-M   'P 1'
_cell_length_a   6.30037000
_cell_length_b   6.59662100
_cell_length_c   7.93769600
_cell_angle_alpha   90.00000000
_cell_angle_beta   90.00000000
_cell_angle_gamma   90.00000000
_symmetry_Int_Tables_number   1
_chemical_formula_structural   LiGaS2
_chemical_formula_sum   'Li4 Ga4 S8'
_cell_volume   329.89979832
_cell_formula_units_Z   4
loop_
 _symmetry_equiv_pos_site_id
 _symmetry_equiv_pos_as_xyz
  1  'x, y, z'
loop_
 _atom_site_type_symbol
 _atom_site_label
 _atom_site_symmetry_multiplicity
 _atom_site_fract_x
 _atom_site_fract_y
 _atom_site_fract_z
 _atom_site_occupancy
  Li  Li0  1  0.61833300  0.58532100  0.12236100  1
  Li  Li1  1  0.11833300  0.91467900  0.62236100  1
  Li  Li2  1  0.61833300  0.08532100  0.37763900  1
  Li  Li3  1  0.11833300  0.41467900  0.87763900  1
  Ga  Ga4  1  0.62189600  0.57319500  0.62592400  1
  Ga  Ga5  1  0.12189600  0.42680500  0.37407600  1
  Ga  Ga6  1  0.12189600  0.92680500  0.12592400  1
  Ga  Ga7  1  0.62189600  0.07319500  0.87407600  1
  S  S8  1  0.98854700  0.06703400  0.88336300  1
  S  S9  1  0.98854700  0.56703400  0.61663700  1
  S  S10  1  0.48854700  0.93296600  0.11663700  1
  S  S11  1  0.48854700  0.43296600  0.38336300  1
  S  S12  1  0.50743300  0.90553800  0.63595600  1
  S  S13  1  0.00743300  0.09446200  0.36404400  1
  S  S14  1  0.00743300  0.59446200  0.13595600  1
  S  S15  1  0.50743300  0.40553800  0.86404400  1
