# generated using pymatgen
data_KBiO2
_symmetry_space_group_name_H-M   'P 1'
_cell_length_a   5.70647573
_cell_length_b   5.70647573
_cell_length_c   6.08178429
_cell_angle_alpha   66.52888981
_cell_angle_beta   66.52888981
_cell_angle_gamma   91.98221996
_symmetry_Int_Tables_number   1
_chemical_formula_structural   KBiO2
_chemical_formula_sum   'K2 Bi2 O4'
_cell_volume   162.17632267
_cell_formula_units_Z   2
loop_
 _symmetry_equiv_pos_site_id
 _symmetry_equiv_pos_as_xyz
  1  'x, y, z'
loop_
 _atom_site_type_symbol
 _atom_site_label
 _atom_site_symmetry_multiplicity
 _atom_site_fract_x
 _atom_site_fract_y
 _atom_site_fract_z
 _atom_site_occupancy
  K  K0  1  0.86866100  0.13133900  0.75000000  1
  K  K1  1  0.13133900  0.86866100  0.25000000  1
  Bi  Bi2  1  0.59916600  0.40083400  0.25000000  1
  Bi  Bi3  1  0.40083400  0.59916600  0.75000000  1
  O  O4  1  0.24011200  0.37514900  0.22187500  1
  O  O5  1  0.62485100  0.75988800  0.27812500  1
  O  O6  1  0.37514900  0.24011200  0.72187500  1
  O  O7  1  0.75988800  0.62485100  0.77812500  1
