# generated using pymatgen
data_NaPb
_symmetry_space_group_name_H-M   'P 1'
_cell_length_a   11.76823354
_cell_length_b   11.76823354
_cell_length_c   11.76823354
_cell_angle_alpha   126.06405622
_cell_angle_beta   126.06405622
_cell_angle_gamma   79.78288536
_symmetry_Int_Tables_number   1
_chemical_formula_structural   NaPb
_chemical_formula_sum   'Na16 Pb16'
_cell_volume   1028.67188229
_cell_formula_units_Z   16
loop_
 _symmetry_equiv_pos_site_id
 _symmetry_equiv_pos_as_xyz
  1  'x, y, z'
loop_
 _atom_site_type_symbol
 _atom_site_label
 _atom_site_symmetry_multiplicity
 _atom_site_fract_x
 _atom_site_fract_y
 _atom_site_fract_z
 _atom_site_occupancy
  Na  Na0  1  0.24360200  0.37500000  0.36860200  1
  Na  Na1  1  0.12500000  0.25639800  0.63139800  1
  Na  Na2  1  0.62500000  0.49360200  0.36860200  1
  Na  Na3  1  0.00639800  0.87500000  0.63139800  1
  Na  Na4  1  0.50639800  0.87500000  0.13139800  1
  Na  Na5  1  0.62500000  0.99360200  0.86860200  1
  Na  Na6  1  0.12500000  0.75639800  0.13139800  1
  Na  Na7  1  0.74360200  0.37500000  0.86860200  1
  Na  Na8  1  0.87522800  0.87522800  0.25045700  1
  Na  Na9  1  0.62522800  0.87477200  0.50000000  1
  Na  Na10  1  0.37477200  0.12522800  0.50000000  1
  Na  Na11  1  0.62477200  0.62477200  0.74954300  1
  Na  Na12  1  0.87477200  0.37477200  0.24954300  1
  Na  Na13  1  0.12477200  0.37522800  0.00000000  1
  Na  Na14  1  0.37522800  0.12477200  0.00000000  1
  Na  Na15  1  0.12522800  0.62522800  0.75045700  1
  Pb  Pb16  1  0.93214700  0.13399100  0.93844400  1
  Pb  Pb17  1  0.88399100  0.44554700  0.70184400  1
  Pb  Pb18  1  0.74370400  0.18214700  0.29815600  1
  Pb  Pb19  1  0.31785300  0.75629600  0.70184400  1
  Pb  Pb20  1  0.05445300  0.61600900  0.29815600  1
  Pb  Pb21  1  0.50629600  0.30445300  0.93844400  1
  Pb  Pb22  1  0.36600900  0.56785300  0.06155600  1
  Pb  Pb23  1  0.19554700  0.99370400  0.06155600  1
  Pb  Pb24  1  0.81785300  0.11600900  0.56155600  1
  Pb  Pb25  1  0.86600900  0.80445300  0.79815600  1
  Pb  Pb26  1  0.00629600  0.06785300  0.20184400  1
  Pb  Pb27  1  0.43214700  0.49370400  0.79815600  1
  Pb  Pb28  1  0.69554700  0.63399100  0.20184300  1
  Pb  Pb29  1  0.24370400  0.94554700  0.56155600  1
  Pb  Pb30  1  0.38399100  0.68214700  0.43844400  1
  Pb  Pb31  1  0.55445300  0.25629600  0.43844400  1
