# generated using pymatgen
data_Zn2SiO4
_symmetry_space_group_name_H-M   'P 1'
_cell_length_a   8.75260166
_cell_length_b   8.75260166
_cell_length_c   8.75260155
_cell_angle_alpha   107.87354422
_cell_angle_beta   107.87354422
_cell_angle_gamma   107.87354702
_symmetry_Int_Tables_number   1
_chemical_formula_structural   Zn2SiO4
_chemical_formula_sum   'Zn12 Si6 O24'
_cell_volume   544.56075794
_cell_formula_units_Z   6
loop_
 _symmetry_equiv_pos_site_id
 _symmetry_equiv_pos_as_xyz
  1  'x, y, z'
loop_
 _atom_site_type_symbol
 _atom_site_label
 _atom_site_symmetry_multiplicity
 _atom_site_fract_x
 _atom_site_fract_y
 _atom_site_fract_z
 _atom_site_occupancy
  Zn  Zn0  1  0.61018400  0.43991200  0.20466000  1
  Zn  Zn1  1  0.20466000  0.61018400  0.43991200  1
  Zn  Zn2  1  0.43991200  0.20466000  0.61018400  1
  Zn  Zn3  1  0.38981600  0.56008800  0.79534000  1
  Zn  Zn4  1  0.79534000  0.38981600  0.56008800  1
  Zn  Zn5  1  0.56008800  0.79534000  0.38981600  1
  Zn  Zn6  1  0.90086800  0.12489100  0.72208800  1
  Zn  Zn7  1  0.12489100  0.72208800  0.90086800  1
  Zn  Zn8  1  0.72208800  0.90086800  0.12489100  1
  Zn  Zn9  1  0.09913200  0.87510900  0.27791200  1
  Zn  Zn10  1  0.87510900  0.27791200  0.09913200  1
  Zn  Zn11  1  0.27791200  0.09913200  0.87510900  1
  Si  Si12  1  0.23520300  0.45977000  0.05345200  1
  Si  Si13  1  0.45977000  0.05345200  0.23520300  1
  Si  Si14  1  0.05345200  0.23520300  0.45977000  1
  Si  Si15  1  0.76479700  0.54023000  0.94654800  1
  Si  Si16  1  0.54023000  0.94654800  0.76479700  1
  Si  Si17  1  0.94654800  0.76479700  0.54023000  1
  O  O18  1  0.36017000  0.35323500  0.03395300  1
  O  O19  1  0.03395300  0.36017000  0.35323500  1
  O  O20  1  0.35323500  0.03395300  0.36017000  1
  O  O21  1  0.63983000  0.64676500  0.96604700  1
  O  O22  1  0.96604700  0.63983000  0.64676500  1
  O  O23  1  0.64676500  0.96604700  0.63983000  1
  O  O24  1  0.73355700  0.68769200  0.40104800  1
  O  O25  1  0.40104800  0.73355700  0.68769200  1
  O  O26  1  0.68769200  0.40104800  0.73355700  1
  O  O27  1  0.26644300  0.31230800  0.59895200  1
  O  O28  1  0.59895200  0.26644300  0.31230800  1
  O  O29  1  0.31230800  0.59895200  0.26644300  1
  O  O30  1  0.02601100  0.97212700  0.69076500  1
  O  O31  1  0.69076500  0.02601100  0.97212700  1
  O  O32  1  0.97212700  0.69076500  0.02601100  1
  O  O33  1  0.97398900  0.02787300  0.30923500  1
  O  O34  1  0.30923500  0.97398900  0.02787300  1
  O  O35  1  0.02787300  0.30923500  0.97398900  1
  O  O36  1  0.24889700  0.57227400  0.93363000  1
  O  O37  1  0.57227400  0.93363000  0.24889700  1
  O  O38  1  0.93363000  0.24889700  0.57227400  1
  O  O39  1  0.75110300  0.42772600  0.06637000  1
  O  O40  1  0.42772600  0.06637000  0.75110300  1
  O  O41  1  0.06637000  0.75110300  0.42772600  1
