# generated using pymatgen
data_GaBr3
_symmetry_space_group_name_H-M   'P 1'
_cell_length_a   6.23690600
_cell_length_b   9.51865700
_cell_length_c   11.80304091
_cell_angle_alpha   71.64416727
_cell_angle_beta   90.00000000
_cell_angle_gamma   90.00000000
_symmetry_Int_Tables_number   1
_chemical_formula_structural   GaBr3
_chemical_formula_sum   'Ga4 Br12'
_cell_volume   665.05793542
_cell_formula_units_Z   4
loop_
 _symmetry_equiv_pos_site_id
 _symmetry_equiv_pos_as_xyz
  1  'x, y, z'
loop_
 _atom_site_type_symbol
 _atom_site_label
 _atom_site_symmetry_multiplicity
 _atom_site_fract_x
 _atom_site_fract_y
 _atom_site_fract_z
 _atom_site_occupancy
  Ga  Ga0  1  0.00366300  0.19073900  0.95376900  1
  Ga  Ga1  1  0.50366300  0.80926100  0.54623100  1
  Ga  Ga2  1  0.99633700  0.80926100  0.04623100  1
  Ga  Ga3  1  0.49633700  0.19073900  0.45376900  1
  Br  Br4  1  0.78210200  0.31928400  0.80175200  1
  Br  Br5  1  0.28210200  0.68071600  0.69824800  1
  Br  Br6  1  0.21789800  0.68071600  0.19824800  1
  Br  Br7  1  0.71789800  0.31928400  0.30175200  1
  Br  Br8  1  0.23094300  0.30927900  0.04603200  1
  Br  Br9  1  0.73094300  0.69072100  0.45396800  1
  Br  Br10  1  0.76905700  0.69072100  0.95396800  1
  Br  Br11  1  0.26905700  0.30927900  0.54603200  1
  Br  Br12  1  0.79526000  0.99975700  0.10847500  1
  Br  Br13  1  0.29526000  0.00024300  0.39152500  1
  Br  Br14  1  0.20474000  0.00024300  0.89152500  1
  Br  Br15  1  0.70474000  0.99975700  0.60847500  1
