# generated using pymatgen
data_CaP4O11
_symmetry_space_group_name_H-M   'P 1'
_cell_length_a   12.94270200
_cell_length_b   8.80597100
_cell_length_c   12.27544805
_cell_angle_alpha   46.67039848
_cell_angle_beta   90.00000000
_cell_angle_gamma   90.00000000
_symmetry_Int_Tables_number   1
_chemical_formula_structural   CaP4O11
_chemical_formula_sum   'Ca4 P16 O44'
_cell_volume   1017.70943271
_cell_formula_units_Z   4
loop_
 _symmetry_equiv_pos_site_id
 _symmetry_equiv_pos_as_xyz
  1  'x, y, z'
loop_
 _atom_site_type_symbol
 _atom_site_label
 _atom_site_symmetry_multiplicity
 _atom_site_fract_x
 _atom_site_fract_y
 _atom_site_fract_z
 _atom_site_occupancy
  Ca  Ca0  1  0.46868800  0.50280200  0.76570700  1
  Ca  Ca1  1  0.96868800  0.49719800  0.73429300  1
  Ca  Ca2  1  0.53131200  0.49719800  0.23429300  1
  Ca  Ca3  1  0.03131200  0.50280200  0.26570700  1
  P  P4  1  0.20987100  0.49871700  0.90386400  1
  P  P5  1  0.70987100  0.50128300  0.59613600  1
  P  P6  1  0.79012900  0.50128300  0.09613600  1
  P  P7  1  0.29012900  0.49871700  0.40386400  1
  P  P8  1  0.33566300  0.15219900  0.73143900  1
  P  P9  1  0.83566300  0.84780100  0.76856100  1
  P  P10  1  0.66433700  0.84780100  0.26856100  1
  P  P11  1  0.16433700  0.15219900  0.23143900  1
  P  P12  1  0.34037000  0.84727600  0.39091500  1
  P  P13  1  0.84037000  0.15272400  0.10908500  1
  P  P14  1  0.65963000  0.15272400  0.60908500  1
  P  P15  1  0.15963000  0.84727600  0.89091500  1
  P  P16  1  0.99803100  0.85751800  0.32547700  1
  P  P17  1  0.49803100  0.14248200  0.17452300  1
  P  P18  1  0.00196900  0.14248200  0.67452300  1
  P  P19  1  0.50196900  0.85751800  0.82547700  1
  O  O20  1  0.39793600  0.49837000  0.36292600  1
  O  O21  1  0.89793600  0.50163000  0.13707400  1
  O  O22  1  0.60206400  0.50163000  0.63707400  1
  O  O23  1  0.10206400  0.49837000  0.86292600  1
  O  O24  1  0.19842600  0.51261500  0.32594600  1
  O  O25  1  0.69842600  0.48738500  0.17405400  1
  O  O26  1  0.80157400  0.48738500  0.67405400  1
  O  O27  1  0.30157400  0.51261500  0.82594600  1
  O  O28  1  0.60709200  0.74012000  0.23517500  1
  O  O29  1  0.10709200  0.25988000  0.26482500  1
  O  O30  1  0.39290800  0.25988000  0.76482500  1
  O  O31  1  0.89290800  0.74012000  0.73517500  1
  O  O32  1  0.40032300  0.76898900  0.52224100  1
  O  O33  1  0.90032300  0.23101100  0.97775900  1
  O  O34  1  0.59967700  0.23101100  0.47775900  1
  O  O35  1  0.97635000  0.74063400  0.28107400  1
  O  O36  1  0.09967700  0.76898900  0.02224100  1
  O  O37  1  0.51567900  0.24081000  0.01819300  1
  O  O38  1  0.98432100  0.24081000  0.51819300  1
  O  O39  1  0.48432100  0.75919000  0.98180700  1
  O  O40  1  0.09534900  0.96865200  0.74145700  1
  O  O41  1  0.59534900  0.03134800  0.75854300  1
  O  O42  1  0.90465100  0.03134800  0.25854300  1
  O  O43  1  0.40465100  0.96865200  0.24145700  1
  O  O44  1  0.90298100  0.98761200  0.77884900  1
  O  O45  1  0.40298100  0.01238800  0.72115100  1
  O  O46  1  0.09701900  0.01238800  0.22115100  1
  O  O47  1  0.59701900  0.98761200  0.27884900  1
  O  O48  1  0.24846400  0.00343000  0.85517800  1
  O  O49  1  0.74846400  0.99657000  0.64482200  1
  O  O50  1  0.75153600  0.99657000  0.14482200  1
  O  O51  1  0.25153600  0.00343000  0.35517800  1
  O  O52  1  0.22444600  0.68317900  0.90557700  1
  O  O53  1  0.72444600  0.31682100  0.59442300  1
  O  O54  1  0.77555400  0.31682100  0.09442300  1
  O  O55  1  0.27555400  0.68317900  0.40557700  1
  O  O56  1  0.22992300  0.29183400  0.08294300  1
  O  O57  1  0.72992300  0.70816600  0.41705700  1
  O  O58  1  0.77007700  0.70816600  0.91705700  1
  O  O59  1  0.27007700  0.29183400  0.58294300  1
  O  O60  1  0.52365000  0.74063400  0.78107400  1
  O  O61  1  0.02365000  0.25936600  0.71892600  1
  O  O62  1  0.47635000  0.25936600  0.21892600  1
  O  O63  1  0.01567900  0.75919000  0.48180700  1
