# generated using pymatgen
data_Nd4Au2O9
_symmetry_space_group_name_H-M   'P 1'
_cell_length_a   6.21206500
_cell_length_b   12.06232200
_cell_length_c   12.07584000
_cell_angle_alpha   90.00000000
_cell_angle_beta   90.00000000
_cell_angle_gamma   90.00000000
_symmetry_Int_Tables_number   1
_chemical_formula_structural   Nd4Au2O9
_chemical_formula_sum   'Nd16 Au8 O36'
_cell_volume   904.86597722
_cell_formula_units_Z   4
loop_
 _symmetry_equiv_pos_site_id
 _symmetry_equiv_pos_as_xyz
  1  'x, y, z'
loop_
 _atom_site_type_symbol
 _atom_site_label
 _atom_site_symmetry_multiplicity
 _atom_site_fract_x
 _atom_site_fract_y
 _atom_site_fract_z
 _atom_site_occupancy
  Nd  Nd0  1  0.25790400  0.98856300  0.08936000  1
  Nd  Nd1  1  0.25790400  0.01143700  0.41064000  1
  Nd  Nd2  1  0.24209600  0.51143700  0.58936000  1
  Nd  Nd3  1  0.24209600  0.48856300  0.91064000  1
  Nd  Nd4  1  0.74209600  0.01143700  0.91064000  1
  Nd  Nd5  1  0.74209600  0.98856300  0.58936000  1
  Nd  Nd6  1  0.75790400  0.48856300  0.41064000  1
  Nd  Nd7  1  0.75790400  0.51143700  0.08936000  1
  Nd  Nd8  1  0.19625800  0.65973100  0.26416400  1
  Nd  Nd9  1  0.19625800  0.34026900  0.23583600  1
  Nd  Nd10  1  0.30374200  0.84026900  0.76416400  1
  Nd  Nd11  1  0.30374200  0.15973100  0.73583600  1
  Nd  Nd12  1  0.80374200  0.34026900  0.73583600  1
  Nd  Nd13  1  0.80374200  0.65973100  0.76416400  1
  Nd  Nd14  1  0.69625800  0.15973100  0.23583600  1
  Nd  Nd15  1  0.69625800  0.84026900  0.26416400  1
  Au  Au16  1  0.42002000  0.72893800  0.01090800  1
  Au  Au17  1  0.42002000  0.27106200  0.48909200  1
  Au  Au18  1  0.07998000  0.77106200  0.51090800  1
  Au  Au19  1  0.07998000  0.22893800  0.98909200  1
  Au  Au20  1  0.57998000  0.27106200  0.98909200  1
  Au  Au21  1  0.57998000  0.72893800  0.51090800  1
  Au  Au22  1  0.92002000  0.22893800  0.48909200  1
  Au  Au23  1  0.92002000  0.77106200  0.01090800  1
  O  O24  1  0.06107600  0.61485700  0.44613300  1
  O  O25  1  0.06107600  0.38514300  0.05386700  1
  O  O26  1  0.43892400  0.88514300  0.94613300  1
  O  O27  1  0.43892400  0.11485700  0.55386700  1
  O  O28  1  0.93892400  0.38514300  0.55386700  1
  O  O29  1  0.93892400  0.61485700  0.94613300  1
  O  O30  1  0.56107600  0.11485700  0.05386700  1
  O  O31  1  0.56107600  0.88514300  0.44613300  1
  O  O32  1  0.05907700  0.83619900  0.35234500  1
  O  O33  1  0.05907700  0.16380100  0.14765500  1
  O  O34  1  0.44092300  0.66380100  0.85234500  1
  O  O35  1  0.44092300  0.33619900  0.64765500  1
  O  O36  1  0.94092300  0.16380100  0.64765500  1
  O  O37  1  0.94092300  0.83619900  0.85234500  1
  O  O38  1  0.37441900  0.80297700  0.15845400  1
  O  O39  1  0.55907700  0.33619900  0.14765500  1
  O  O40  1  0.38883100  0.57745500  0.08815500  1
  O  O41  1  0.38883100  0.42254500  0.41184500  1
  O  O42  1  0.11116900  0.92254500  0.58815500  1
  O  O43  1  0.11116900  0.07745500  0.91184500  1
  O  O44  1  0.61116900  0.42254500  0.91184500  1
  O  O45  1  0.61116900  0.57745500  0.58815500  1
  O  O46  1  0.88883100  0.07745500  0.41184500  1
  O  O47  1  0.88883100  0.92254500  0.08815500  1
  O  O48  1  0.97612500  0.50000000  0.25000000  1
  O  O49  1  0.52387500  0.00000000  0.75000000  1
  O  O50  1  0.02387500  0.50000000  0.75000000  1
  O  O51  1  0.47612500  0.00000000  0.25000000  1
  O  O52  1  0.87441900  0.69702300  0.15845400  1
  O  O53  1  0.87441900  0.30297700  0.34154600  1
  O  O54  1  0.62558100  0.80297700  0.65845400  1
  O  O55  1  0.62558100  0.19702300  0.84154600  1
  O  O56  1  0.12558100  0.30297700  0.84154600  1
  O  O57  1  0.12558100  0.69702300  0.65845400  1
  O  O58  1  0.37441900  0.19702300  0.34154600  1
  O  O59  1  0.55907700  0.66380100  0.35234500  1
