# generated using pymatgen
data_CaGaPt
_symmetry_space_group_name_H-M   'P 1'
_cell_length_a   4.47055600
_cell_length_b   7.17434400
_cell_length_c   7.62183200
_cell_angle_alpha   90.00000000
_cell_angle_beta   90.00000000
_cell_angle_gamma   90.00000000
_symmetry_Int_Tables_number   1
_chemical_formula_structural   CaGaPt
_chemical_formula_sum   'Ca4 Ga4 Pt4'
_cell_volume   244.45735471
_cell_formula_units_Z   4
loop_
 _symmetry_equiv_pos_site_id
 _symmetry_equiv_pos_as_xyz
  1  'x, y, z'
loop_
 _atom_site_type_symbol
 _atom_site_label
 _atom_site_symmetry_multiplicity
 _atom_site_fract_x
 _atom_site_fract_y
 _atom_site_fract_z
 _atom_site_occupancy
  Ca  Ca0  1  0.75000000  0.98881000  0.68843600  1
  Ca  Ca1  1  0.25000000  0.01119000  0.31156400  1
  Ca  Ca2  1  0.75000000  0.48881000  0.81156400  1
  Ca  Ca3  1  0.25000000  0.51119000  0.18843600  1
  Ga  Ga4  1  0.75000000  0.83363100  0.07768400  1
  Ga  Ga5  1  0.25000000  0.16636900  0.92231600  1
  Ga  Ga6  1  0.75000000  0.33363100  0.42231600  1
  Ga  Ga7  1  0.25000000  0.66636900  0.57768400  1
  Pt  Pt8  1  0.75000000  0.70389500  0.39844700  1
  Pt  Pt9  1  0.25000000  0.29610500  0.60155300  1
  Pt  Pt10  1  0.75000000  0.20389500  0.10155300  1
  Pt  Pt11  1  0.25000000  0.79610500  0.89844700  1
