# generated using pymatgen
data_KAl2Br7
_symmetry_space_group_name_H-M   'P 1'
_cell_length_a   11.36825600
_cell_length_b   11.09634600
_cell_length_c   14.89944971
_cell_angle_alpha   55.93051243
_cell_angle_beta   90.00000000
_cell_angle_gamma   90.00000000
_symmetry_Int_Tables_number   1
_chemical_formula_structural   KAl2Br7
_chemical_formula_sum   'K4 Al8 Br28'
_cell_volume   1556.90654394
_cell_formula_units_Z   4
loop_
 _symmetry_equiv_pos_site_id
 _symmetry_equiv_pos_as_xyz
  1  'x, y, z'
loop_
 _atom_site_type_symbol
 _atom_site_label
 _atom_site_symmetry_multiplicity
 _atom_site_fract_x
 _atom_site_fract_y
 _atom_site_fract_z
 _atom_site_occupancy
  K  K0  1  0.38126600  0.88616200  0.38094100  1
  K  K1  1  0.88126600  0.11383800  0.11905900  1
  K  K2  1  0.61873400  0.11383800  0.61905900  1
  K  K3  1  0.11873400  0.88616200  0.88094100  1
  Al  Al4  1  0.28731500  0.59984300  0.79746900  1
  Al  Al5  1  0.78731500  0.40015700  0.70253100  1
  Al  Al6  1  0.71268500  0.40015700  0.20253100  1
  Al  Al7  1  0.21268500  0.59984300  0.29746900  1
  Al  Al8  1  0.21627800  0.17241100  0.54573500  1
  Al  Al9  1  0.71627800  0.82758900  0.95426500  1
  Al  Al10  1  0.78372200  0.82758900  0.45426500  1
  Al  Al11  1  0.28372200  0.17241100  0.04573500  1
  Br  Br12  1  0.40687600  0.37899900  0.91539800  1
  Br  Br13  1  0.90687600  0.62100100  0.58460200  1
  Br  Br14  1  0.59312400  0.62100100  0.08460200  1
  Br  Br15  1  0.09312400  0.37899900  0.41539800  1
  Br  Br16  1  0.13262600  0.15206000  0.95080400  1
  Br  Br17  1  0.63262600  0.84794000  0.54919600  1
  Br  Br18  1  0.86737400  0.84794000  0.04919600  1
  Br  Br19  1  0.36737400  0.15206000  0.45080400  1
  Br  Br20  1  0.21376200  0.20745300  0.17417900  1
  Br  Br21  1  0.71376200  0.79254700  0.32582100  1
  Br  Br22  1  0.78623800  0.79254700  0.82582100  1
  Br  Br23  1  0.28623800  0.20745300  0.67417900  1
  Br  Br24  1  0.41701700  0.98415800  0.11975300  1
  Br  Br25  1  0.91701700  0.01584200  0.38024700  1
  Br  Br26  1  0.58298300  0.01584200  0.88024700  1
  Br  Br27  1  0.08298300  0.98415800  0.61975300  1
  Br  Br28  1  0.22353700  0.61882600  0.13596000  1
  Br  Br29  1  0.72353700  0.38117400  0.36404000  1
  Br  Br30  1  0.77646300  0.38117400  0.86404000  1
  Br  Br31  1  0.27646300  0.61882600  0.63596000  1
  Br  Br32  1  0.10505100  0.77845700  0.29432000  1
  Br  Br33  1  0.60505100  0.22154300  0.20568000  1
  Br  Br34  1  0.89494900  0.22154300  0.70568000  1
  Br  Br35  1  0.39494900  0.77845700  0.79432000  1
  Br  Br36  1  0.39157700  0.56726300  0.37958300  1
  Br  Br37  1  0.89157700  0.43273700  0.12041700  1
  Br  Br38  1  0.60842300  0.43273700  0.62041700  1
  Br  Br39  1  0.10842300  0.56726300  0.87958300  1
