# generated using pymatgen
data_CaLaTiCrO6
_symmetry_space_group_name_H-M   'P 1'
_cell_length_a   7.80890423
_cell_length_b   9.52735219
_cell_length_c   7.80890423
_cell_angle_alpha   113.90896234
_cell_angle_beta   90.60279514
_cell_angle_gamma   113.90896234
_symmetry_Int_Tables_number   1
_chemical_formula_structural   CaLaTiCrO6
_chemical_formula_sum   'Ca4 La4 Ti4 Cr4 O24'
_cell_volume   474.80500194
_cell_formula_units_Z   4
loop_
 _symmetry_equiv_pos_site_id
 _symmetry_equiv_pos_as_xyz
  1  'x, y, z'
loop_
 _atom_site_type_symbol
 _atom_site_label
 _atom_site_symmetry_multiplicity
 _atom_site_fract_x
 _atom_site_fract_y
 _atom_site_fract_z
 _atom_site_occupancy
  Ca  Ca0  1  0.40050300  0.74969000  0.85921900  1
  Ca  Ca1  1  0.90050300  0.74969000  0.35921900  1
  Ca  Ca2  1  0.10921900  0.24969000  0.15050300  1
  Ca  Ca3  1  0.60921900  0.24969000  0.65050300  1
  La  La4  1  0.38789100  0.75061700  0.35594000  1
  La  La5  1  0.88789100  0.75061700  0.85594000  1
  La  La6  1  0.10594100  0.25061700  0.63789200  1
  La  La7  1  0.60594100  0.25061700  0.13789200  1
  Ti  Ti8  1  0.25027200  0.00137500  0.25106100  1
  Ti  Ti9  1  0.75027200  0.00137500  0.75106100  1
  Ti  Ti10  1  0.50106100  0.50137500  0.00027200  1
  Ti  Ti11  1  0.00106100  0.50137500  0.50027200  1
  Cr  Cr12  1  0.99987700  0.49958900  0.99934700  1
  Cr  Cr13  1  0.74934700  0.99958900  0.24987700  1
  Cr  Cr14  1  0.49987700  0.49958900  0.49934700  1
  Cr  Cr15  1  0.24934700  0.99958900  0.74987700  1
  O  O16  1  0.34927800  0.25254600  0.82923800  1
  O  O17  1  0.84927800  0.25254600  0.32923800  1
  O  O18  1  0.57923800  0.75254600  0.59927800  1
  O  O19  1  0.07923800  0.75254600  0.09927800  1
  O  O20  1  0.76287700  0.96075000  0.97799000  1
  O  O21  1  0.26287700  0.96075000  0.47799000  1
  O  O22  1  0.22799000  0.46075000  0.51287700  1
  O  O23  1  0.72799000  0.46075000  0.01287700  1
  O  O24  1  0.55356800  0.54021700  0.77213000  1
  O  O25  1  0.05356800  0.54021700  0.27213000  1
  O  O26  1  0.02213000  0.04021700  0.30356800  1
  O  O27  1  0.52213000  0.04021700  0.80356800  1
  O  O28  1  0.47499400  0.95708500  0.19191000  1
  O  O29  1  0.97499400  0.95708500  0.69191000  1
  O  O30  1  0.94191000  0.45708500  0.72499400  1
  O  O31  1  0.44191000  0.45708500  0.22499400  1
  O  O32  1  0.27326700  0.54113900  0.98346400  1
  O  O33  1  0.77326700  0.54113900  0.48346400  1
  O  O34  1  0.73346400  0.04113900  0.52326700  1
  O  O35  1  0.23346400  0.04113900  0.02326700  1
  O  O36  1  0.92173100  0.24699200  0.90544200  1
  O  O37  1  0.42173100  0.24699200  0.40544200  1
  O  O38  1  0.15544200  0.74699200  0.67173100  1
  O  O39  1  0.65544200  0.74699200  0.17173100  1
