# generated using pymatgen
data_V2N
_symmetry_space_group_name_H-M   'P 1'
_cell_length_a   4.90589774
_cell_length_b   4.90589774
_cell_length_c   4.54333700
_cell_angle_alpha   90.00000000
_cell_angle_beta   90.00000000
_cell_angle_gamma   119.99999654
_symmetry_Int_Tables_number   1
_chemical_formula_structural   V2N
_chemical_formula_sum   'V6 N3'
_cell_volume   94.69838703
_cell_formula_units_Z   3
loop_
 _symmetry_equiv_pos_site_id
 _symmetry_equiv_pos_as_xyz
  1  'x, y, z'
loop_
 _atom_site_type_symbol
 _atom_site_label
 _atom_site_symmetry_multiplicity
 _atom_site_fract_x
 _atom_site_fract_y
 _atom_site_fract_z
 _atom_site_occupancy
  V  V0  1  0.66368500  0.00000000  0.75368100  1
  V  V1  1  0.66368500  0.66368500  0.24631900  1
  V  V2  1  0.00000000  0.33631500  0.24631900  1
  V  V3  1  0.00000000  0.66368500  0.75368100  1
  V  V4  1  0.33631500  0.33631500  0.75368100  1
  V  V5  1  0.33631500  0.00000000  0.24631900  1
  N  N6  1  0.00000000  0.00000000  0.00000000  1
  N  N7  1  0.33333300  0.66666700  0.50000000  1
  N  N8  1  0.66666700  0.33333300  0.50000000  1
