# generated using pymatgen
data_DyGa
_symmetry_space_group_name_H-M   'P 1'
_cell_length_a   5.88737932
_cell_length_b   5.88737932
_cell_length_c   4.02984500
_cell_angle_alpha   90.00000000
_cell_angle_beta   90.00000000
_cell_angle_gamma   136.14154063
_symmetry_Int_Tables_number   1
_chemical_formula_structural   DyGa
_chemical_formula_sum   'Dy2 Ga2'
_cell_volume   96.78095906
_cell_formula_units_Z   2
loop_
 _symmetry_equiv_pos_site_id
 _symmetry_equiv_pos_as_xyz
  1  'x, y, z'
loop_
 _atom_site_type_symbol
 _atom_site_label
 _atom_site_symmetry_multiplicity
 _atom_site_fract_x
 _atom_site_fract_y
 _atom_site_fract_z
 _atom_site_occupancy
  Dy  Dy0  1  0.63958100  0.36041900  0.75000000  1
  Dy  Dy1  1  0.36041900  0.63958100  0.25000000  1
  Ga  Ga2  1  0.92325000  0.07675000  0.75000000  1
  Ga  Ga3  1  0.07675000  0.92325000  0.25000000  1
