# generated using pymatgen
data_PrTe2Se
_symmetry_space_group_name_H-M   'P 1'
_cell_length_a   13.41218593
_cell_length_b   13.41218593
_cell_length_c   4.32411300
_cell_angle_alpha   90.00000000
_cell_angle_beta   90.00000000
_cell_angle_gamma   161.49613210
_symmetry_Int_Tables_number   1
_chemical_formula_structural   PrTe2Se
_chemical_formula_sum   'Pr2 Te4 Se2'
_cell_volume   246.86539927
_cell_formula_units_Z   2
loop_
 _symmetry_equiv_pos_site_id
 _symmetry_equiv_pos_as_xyz
  1  'x, y, z'
loop_
 _atom_site_type_symbol
 _atom_site_label
 _atom_site_symmetry_multiplicity
 _atom_site_fract_x
 _atom_site_fract_y
 _atom_site_fract_z
 _atom_site_occupancy
  Pr  Pr0  1  0.82040000  0.17960000  0.25000000  1
  Pr  Pr1  1  0.17960000  0.82040000  0.75000000  1
  Te  Te2  1  0.92129800  0.07870200  0.75000000  1
  Te  Te3  1  0.07870200  0.92129800  0.25000000  1
  Te  Te4  1  0.57855500  0.42144500  0.75000000  1
  Te  Te5  1  0.42144500  0.57855500  0.25000000  1
  Se  Se6  1  0.70573600  0.29426400  0.25000000  1
  Se  Se7  1  0.29426400  0.70573600  0.75000000  1
