# generated using pymatgen
data_AuF5
_symmetry_space_group_name_H-M   'P 1'
_cell_length_a   5.02493900
_cell_length_b   9.71638300
_cell_length_c   15.39060800
_cell_angle_alpha   90.00000000
_cell_angle_beta   90.00000000
_cell_angle_gamma   90.00000000
_symmetry_Int_Tables_number   1
_chemical_formula_structural   AuF5
_chemical_formula_sum   'Au8 F40'
_cell_volume   751.43461370
_cell_formula_units_Z   8
loop_
 _symmetry_equiv_pos_site_id
 _symmetry_equiv_pos_as_xyz
  1  'x, y, z'
loop_
 _atom_site_type_symbol
 _atom_site_label
 _atom_site_symmetry_multiplicity
 _atom_site_fract_x
 _atom_site_fract_y
 _atom_site_fract_z
 _atom_site_occupancy
  Au  Au0  1  0.07140300  0.12851000  0.14559200  1
  Au  Au1  1  0.57140300  0.37149000  0.85440800  1
  Au  Au2  1  0.42859700  0.62851000  0.35440800  1
  Au  Au3  1  0.92859700  0.87149000  0.64559200  1
  Au  Au4  1  0.92859700  0.87149000  0.85440800  1
  Au  Au5  1  0.42859700  0.62851000  0.14559200  1
  Au  Au6  1  0.57140300  0.37149000  0.64559200  1
  Au  Au7  1  0.07140300  0.12851000  0.35440800  1
  F  F8  1  0.24619300  0.02664200  0.05624200  1
  F  F9  1  0.74619300  0.47335800  0.94375800  1
  F  F10  1  0.25380700  0.52664200  0.44375800  1
  F  F11  1  0.75380700  0.97335800  0.55624200  1
  F  F12  1  0.75380700  0.97335800  0.94375800  1
  F  F13  1  0.25380700  0.52664200  0.05624200  1
  F  F14  1  0.74619300  0.47335800  0.55624200  1
  F  F15  1  0.24619300  0.02664200  0.44375800  1
  F  F16  1  0.36746600  0.25696900  0.35001800  1
  F  F17  1  0.86746600  0.24303100  0.64998200  1
  F  F18  1  0.13253400  0.75696900  0.14998200  1
  F  F19  1  0.63253400  0.74303100  0.85001800  1
  F  F20  1  0.63253400  0.74303100  0.64998200  1
  F  F21  1  0.13253400  0.75696900  0.35001800  1
  F  F22  1  0.86746600  0.24303100  0.85001800  1
  F  F23  1  0.36746600  0.25696900  0.14998200  1
  F  F24  1  0.90015000  0.23035800  0.25000000  1
  F  F25  1  0.40015000  0.26964200  0.75000000  1
  F  F26  1  0.59985000  0.73035800  0.25000000  1
  F  F27  1  0.09985000  0.76964200  0.75000000  1
  F  F28  1  0.23483500  0.02311900  0.25000000  1
  F  F29  1  0.73483500  0.47688100  0.75000000  1
  F  F30  1  0.26516500  0.52311900  0.25000000  1
  F  F31  1  0.76516500  0.97688100  0.75000000  1
  F  F32  1  0.77429000  0.00053000  0.35411400  1
  F  F33  1  0.27429000  0.49947000  0.64588600  1
  F  F34  1  0.72571000  0.50053000  0.14588600  1
  F  F35  1  0.22571000  0.99947000  0.85411400  1
  F  F36  1  0.22571000  0.99947000  0.64588600  1
  F  F37  1  0.72571000  0.50053000  0.35411400  1
  F  F38  1  0.27429000  0.49947000  0.85411400  1
  F  F39  1  0.77429000  0.00053000  0.14588600  1
  F  F40  1  0.90657400  0.23636800  0.44294200  1
  F  F41  1  0.40657400  0.26363200  0.55705800  1
  F  F42  1  0.59342600  0.73636800  0.05705800  1
  F  F43  1  0.09342600  0.76363200  0.94294200  1
  F  F44  1  0.09342600  0.76363200  0.55705800  1
  F  F45  1  0.59342600  0.73636800  0.44294200  1
  F  F46  1  0.40657400  0.26363200  0.94294200  1
  F  F47  1  0.90657400  0.23636800  0.05705800  1
