# generated using pymatgen
data_Zr3Ga2
_symmetry_space_group_name_H-M   'P 1'
_cell_length_a   7.37724700
_cell_length_b   7.37724700
_cell_length_c   3.70616700
_cell_angle_alpha   90.00000000
_cell_angle_beta   90.00000000
_cell_angle_gamma   90.00000000
_symmetry_Int_Tables_number   1
_chemical_formula_structural   Zr3Ga2
_chemical_formula_sum   'Zr6 Ga4'
_cell_volume   201.70359262
_cell_formula_units_Z   2
loop_
 _symmetry_equiv_pos_site_id
 _symmetry_equiv_pos_as_xyz
  1  'x, y, z'
loop_
 _atom_site_type_symbol
 _atom_site_label
 _atom_site_symmetry_multiplicity
 _atom_site_fract_x
 _atom_site_fract_y
 _atom_site_fract_z
 _atom_site_occupancy
  Zr  Zr0  1  0.00000000  0.00000000  0.00000000  1
  Zr  Zr1  1  0.50000000  0.50000000  0.00000000  1
  Zr  Zr2  1  0.67679700  0.17679700  0.50000000  1
  Zr  Zr3  1  0.17679700  0.32320300  0.50000000  1
  Zr  Zr4  1  0.82320300  0.67679700  0.50000000  1
  Zr  Zr5  1  0.32320300  0.82320300  0.50000000  1
  Ga  Ga6  1  0.87705300  0.37705300  0.00000000  1
  Ga  Ga7  1  0.37705300  0.12294700  0.00000000  1
  Ga  Ga8  1  0.62294700  0.87705300  0.00000000  1
  Ga  Ga9  1  0.12294700  0.62294700  0.00000000  1
