# generated using pymatgen
data_Sr3UO6
_symmetry_space_group_name_H-M   'P 1'
_cell_length_a   6.28418800
_cell_length_b   6.05300600
_cell_length_c   10.58074723
_cell_angle_alpha   55.43847029
_cell_angle_beta   90.00000000
_cell_angle_gamma   90.00000000
_symmetry_Int_Tables_number   1
_chemical_formula_structural   Sr3UO6
_chemical_formula_sum   'Sr6 U2 O12'
_cell_volume   331.44343412
_cell_formula_units_Z   2
loop_
 _symmetry_equiv_pos_site_id
 _symmetry_equiv_pos_as_xyz
  1  'x, y, z'
loop_
 _atom_site_type_symbol
 _atom_site_label
 _atom_site_symmetry_multiplicity
 _atom_site_fract_x
 _atom_site_fract_y
 _atom_site_fract_z
 _atom_site_occupancy
  Sr  Sr0  1  0.50000000  0.50000000  0.00000000  1
  Sr  Sr1  1  0.00000000  0.50000000  0.50000000  1
  Sr  Sr2  1  0.04882100  0.27166900  0.24283500  1
  Sr  Sr3  1  0.54882100  0.72833100  0.25716500  1
  Sr  Sr4  1  0.45117900  0.27166900  0.74283500  1
  Sr  Sr5  1  0.95117900  0.72833100  0.75716500  1
  U  U6  1  0.50000000  0.00000000  0.50000000  1
  U  U7  1  0.00000000  0.00000000  0.00000000  1
  O  O8  1  0.22717700  0.74986800  0.57669500  1
  O  O9  1  0.72717700  0.25013200  0.92330500  1
  O  O10  1  0.32360400  0.33171300  0.45019200  1
  O  O11  1  0.82360400  0.66828700  0.04980800  1
  O  O12  1  0.06248700  0.10624200  0.77589500  1
  O  O13  1  0.56248700  0.89375800  0.72410500  1
  O  O14  1  0.27282300  0.74986800  0.07669500  1
  O  O15  1  0.77282300  0.25013200  0.42330500  1
  O  O16  1  0.93751300  0.89375800  0.22410500  1
  O  O17  1  0.43751300  0.10624200  0.27589500  1
  O  O18  1  0.67639600  0.66828700  0.54980800  1
  O  O19  1  0.17639600  0.33171300  0.95019200  1
