# generated using pymatgen
data_K2Ta3Cl9
_symmetry_space_group_name_H-M   'P 1'
_cell_length_a   9.89033187
_cell_length_b   9.89033187
_cell_length_c   9.74115332
_cell_angle_alpha   77.36647047
_cell_angle_beta   77.36647047
_cell_angle_gamma   117.73214364
_symmetry_Int_Tables_number   1
_chemical_formula_structural   K2Ta3Cl9
_chemical_formula_sum   'K4 Ta6 Cl18'
_cell_volume   764.23713827
_cell_formula_units_Z   2
loop_
 _symmetry_equiv_pos_site_id
 _symmetry_equiv_pos_as_xyz
  1  'x, y, z'
loop_
 _atom_site_type_symbol
 _atom_site_label
 _atom_site_symmetry_multiplicity
 _atom_site_fract_x
 _atom_site_fract_y
 _atom_site_fract_z
 _atom_site_occupancy
  K  K0  1  0.22922700  0.55027300  0.82579200  1
  K  K1  1  0.44972700  0.77077300  0.17420800  1
  K  K2  1  0.77077300  0.44972700  0.17420800  1
  K  K3  1  0.55027300  0.22922700  0.82579200  1
  Ta  Ta4  1  0.11819100  0.11819100  0.62652500  1
  Ta  Ta5  1  0.88180900  0.88180900  0.37347500  1
  Ta  Ta6  1  0.21785000  0.04664700  0.36166700  1
  Ta  Ta7  1  0.95335300  0.78215000  0.63833300  1
  Ta  Ta8  1  0.78215000  0.95335300  0.63833300  1
  Ta  Ta9  1  0.04664700  0.21785000  0.36166700  1
  Cl  Cl10  1  0.79504800  0.20495200  0.50000000  1
  Cl  Cl11  1  0.89200200  0.50258600  0.82017800  1
  Cl  Cl12  1  0.50258600  0.89200200  0.82017800  1
  Cl  Cl13  1  0.10799800  0.49741400  0.17982200  1
  Cl  Cl14  1  0.73176500  0.73176500  0.21560700  1
  Cl  Cl15  1  0.26823500  0.26823500  0.78439300  1
  Cl  Cl16  1  0.19495300  0.40151400  0.48578300  1
  Cl  Cl17  1  0.59848600  0.80504700  0.51421700  1
  Cl  Cl18  1  0.80504700  0.59848600  0.51421700  1
  Cl  Cl19  1  0.40151400  0.19495300  0.48578300  1
  Cl  Cl20  1  0.68186000  0.68186000  0.82856600  1
  Cl  Cl21  1  0.11989600  0.91553400  0.18547000  1
  Cl  Cl22  1  0.91553400  0.11989600  0.18547000  1
  Cl  Cl23  1  0.88010400  0.08446600  0.81453000  1
  Cl  Cl24  1  0.08446600  0.88010400  0.81453000  1
  Cl  Cl25  1  0.20495200  0.79504800  0.50000000  1
  Cl  Cl26  1  0.31814000  0.31814000  0.17143400  1
  Cl  Cl27  1  0.49741400  0.10799800  0.17982200  1
