# generated using pymatgen
data_SrAu
_symmetry_space_group_name_H-M   'P 1'
_cell_length_a   4.81941600
_cell_length_b   6.23321300
_cell_length_c   40.42674546
_cell_angle_alpha   85.78611860
_cell_angle_beta   90.00000000
_cell_angle_gamma   90.00000000
_symmetry_Int_Tables_number   1
_chemical_formula_structural   SrAu
_chemical_formula_sum   'Sr20 Au20'
_cell_volume   1211.15449868
_cell_formula_units_Z   20
loop_
 _symmetry_equiv_pos_site_id
 _symmetry_equiv_pos_as_xyz
  1  'x, y, z'
loop_
 _atom_site_type_symbol
 _atom_site_label
 _atom_site_symmetry_multiplicity
 _atom_site_fract_x
 _atom_site_fract_y
 _atom_site_fract_z
 _atom_site_occupancy
  Sr  Sr0  1  0.75000000  0.94184500  0.08642400  1
  Sr  Sr1  1  0.25000000  0.05815500  0.91357600  1
  Sr  Sr2  1  0.75000000  0.65945300  0.18631600  1
  Sr  Sr3  1  0.25000000  0.34054700  0.81368400  1
  Sr  Sr4  1  0.75000000  0.84280500  0.28656300  1
  Sr  Sr5  1  0.25000000  0.15719500  0.71343700  1
  Sr  Sr6  1  0.75000000  0.03573000  0.38635300  1
  Sr  Sr7  1  0.25000000  0.96427000  0.61364700  1
  Sr  Sr8  1  0.75000000  0.76277700  0.48635900  1
  Sr  Sr9  1  0.25000000  0.23722300  0.51364100  1
  Sr  Sr10  1  0.75000000  0.47810600  0.58608500  1
  Sr  Sr11  1  0.25000000  0.52189400  0.41391500  1
  Sr  Sr12  1  0.75000000  0.65501200  0.68600200  1
  Sr  Sr13  1  0.25000000  0.34498800  0.31399800  1
  Sr  Sr14  1  0.75000000  0.85324400  0.78605500  1
  Sr  Sr15  1  0.25000000  0.14675600  0.21394500  1
  Sr  Sr16  1  0.75000000  0.57372200  0.88607700  1
  Sr  Sr17  1  0.25000000  0.42627800  0.11392300  1
  Sr  Sr18  1  0.75000000  0.74924300  0.98625800  1
  Sr  Sr19  1  0.25000000  0.25075700  0.01374200  1
  Au  Au20  1  0.75000000  0.45587900  0.05795900  1
  Au  Au21  1  0.25000000  0.54412100  0.94204100  1
  Au  Au22  1  0.75000000  0.17358300  0.15822500  1
  Au  Au23  1  0.25000000  0.82641700  0.84177500  1
  Au  Au24  1  0.75000000  0.35552300  0.25817000  1
  Au  Au25  1  0.25000000  0.64447700  0.74183000  1
  Au  Au26  1  0.75000000  0.54932900  0.35824800  1
  Au  Au27  1  0.25000000  0.45067100  0.64175200  1
  Au  Au28  1  0.75000000  0.27470100  0.45792100  1
  Au  Au29  1  0.25000000  0.72529900  0.54207900  1
  Au  Au30  1  0.75000000  0.99253400  0.55782700  1
  Au  Au31  1  0.25000000  0.00746600  0.44217300  1
  Au  Au32  1  0.75000000  0.16884800  0.65755100  1
  Au  Au33  1  0.25000000  0.83115200  0.34244900  1
  Au  Au34  1  0.75000000  0.36464000  0.75759600  1
  Au  Au35  1  0.25000000  0.63536000  0.24240400  1
  Au  Au36  1  0.75000000  0.08945900  0.85764800  1
  Au  Au37  1  0.25000000  0.91054100  0.14235200  1
  Au  Au38  1  0.75000000  0.26236600  0.95787800  1
  Au  Au39  1  0.25000000  0.73763400  0.04212200  1
