# generated using pymatgen
data_Sr3GeO
_symmetry_space_group_name_H-M   'P 1'
_cell_length_a   7.19562300
_cell_length_b   7.20463300
_cell_length_c   10.18439800
_cell_angle_alpha   90.00000000
_cell_angle_beta   90.00000000
_cell_angle_gamma   90.00000000
_symmetry_Int_Tables_number   1
_chemical_formula_structural   Sr3GeO
_chemical_formula_sum   'Sr12 Ge4 O4'
_cell_volume   527.97775768
_cell_formula_units_Z   4
loop_
 _symmetry_equiv_pos_site_id
 _symmetry_equiv_pos_as_xyz
  1  'x, y, z'
loop_
 _atom_site_type_symbol
 _atom_site_label
 _atom_site_symmetry_multiplicity
 _atom_site_fract_x
 _atom_site_fract_y
 _atom_site_fract_z
 _atom_site_occupancy
  Sr  Sr0  1  0.22211400  0.77749300  0.96854400  1
  Sr  Sr1  1  0.27788600  0.27749300  0.53145600  1
  Sr  Sr2  1  0.72211400  0.72250700  0.03145600  1
  Sr  Sr3  1  0.77788600  0.22250700  0.46854400  1
  Sr  Sr4  1  0.22211400  0.77749300  0.53145600  1
  Sr  Sr5  1  0.27788600  0.27749300  0.96854400  1
  Sr  Sr6  1  0.72211400  0.72250700  0.46854400  1
  Sr  Sr7  1  0.77788600  0.22250700  0.03145600  1
  Sr  Sr8  1  0.93930300  0.49136200  0.75000000  1
  Sr  Sr9  1  0.56069700  0.99136200  0.75000000  1
  Sr  Sr10  1  0.43930300  0.00863800  0.25000000  1
  Sr  Sr11  1  0.06069700  0.50863800  0.25000000  1
  Ge  Ge12  1  0.00507200  0.02076900  0.75000000  1
  Ge  Ge13  1  0.49492800  0.52076900  0.75000000  1
  Ge  Ge14  1  0.50507200  0.47923100  0.25000000  1
  Ge  Ge15  1  0.99492800  0.97923100  0.25000000  1
  O  O16  1  0.50000000  0.00000000  0.50000000  1
  O  O17  1  0.00000000  0.50000000  0.00000000  1
  O  O18  1  0.00000000  0.50000000  0.50000000  1
  O  O19  1  0.50000000  0.00000000  0.00000000  1
