# generated using pymatgen
data_BAsO4
_symmetry_space_group_name_H-M   'P 1'
_cell_length_a   4.72681657
_cell_length_b   4.72681657
_cell_length_c   4.72681657
_cell_angle_alpha   121.96538119
_cell_angle_beta   121.96538119
_cell_angle_gamma   86.62828707
_symmetry_Int_Tables_number   1
_chemical_formula_structural   BAsO4
_chemical_formula_sum   'B1 As1 O4'
_cell_volume   72.32303893
_cell_formula_units_Z   1
loop_
 _symmetry_equiv_pos_site_id
 _symmetry_equiv_pos_as_xyz
  1  'x, y, z'
loop_
 _atom_site_type_symbol
 _atom_site_label
 _atom_site_symmetry_multiplicity
 _atom_site_fract_x
 _atom_site_fract_y
 _atom_site_fract_z
 _atom_site_occupancy
  B  B0  1  0.25000000  0.75000000  0.50000000  1
  As  As1  1  0.00000000  0.00000000  0.00000000  1
  O  O2  1  0.28838000  0.41046000  0.43218200  1
  O  O3  1  0.58954000  0.02172200  0.87791900  1
  O  O4  1  0.97827800  0.85619700  0.56781800  1
  O  O5  1  0.14380300  0.71162000  0.12208100  1
