# generated using pymatgen
data_Ti3P
_symmetry_space_group_name_H-M   'P 1'
_cell_length_a   9.95669200
_cell_length_b   9.95669200
_cell_length_c   4.97903600
_cell_angle_alpha   90.00000000
_cell_angle_beta   90.00000000
_cell_angle_gamma   90.00000000
_symmetry_Int_Tables_number   1
_chemical_formula_structural   Ti3P
_chemical_formula_sum   'Ti24 P8'
_cell_volume   493.60029677
_cell_formula_units_Z   8
loop_
 _symmetry_equiv_pos_site_id
 _symmetry_equiv_pos_as_xyz
  1  'x, y, z'
loop_
 _atom_site_type_symbol
 _atom_site_label
 _atom_site_symmetry_multiplicity
 _atom_site_fract_x
 _atom_site_fract_y
 _atom_site_fract_z
 _atom_site_occupancy
  Ti  Ti0  1  0.97166300  0.86070000  0.28090000  1
  Ti  Ti1  1  0.36070000  0.52833700  0.78090000  1
  Ti  Ti2  1  0.63930000  0.47166300  0.78090000  1
  Ti  Ti3  1  0.02833700  0.13930000  0.28090000  1
  Ti  Ti4  1  0.52833700  0.63930000  0.21910000  1
  Ti  Ti5  1  0.13930000  0.97166300  0.71910000  1
  Ti  Ti6  1  0.86070000  0.02833700  0.71910000  1
  Ti  Ti7  1  0.47166300  0.36070000  0.21910000  1
  Ti  Ti8  1  0.81904700  0.28366200  0.00999300  1
  Ti  Ti9  1  0.78366200  0.68095300  0.50999300  1
  Ti  Ti10  1  0.21633800  0.31904700  0.50999300  1
  Ti  Ti11  1  0.18095300  0.71633800  0.00999300  1
  Ti  Ti12  1  0.68095300  0.21633800  0.49000700  1
  Ti  Ti13  1  0.71633800  0.81904700  0.99000700  1
  Ti  Ti14  1  0.28366200  0.18095300  0.99000700  1
  Ti  Ti15  1  0.31904700  0.78366200  0.49000700  1
  Ti  Ti16  1  0.91683300  0.39307800  0.53496300  1
  Ti  Ti17  1  0.89307800  0.58316700  0.03496300  1
  Ti  Ti18  1  0.10692200  0.41683300  0.03496300  1
  Ti  Ti19  1  0.08316700  0.60692200  0.53496300  1
  Ti  Ti20  1  0.58316700  0.10692200  0.96503700  1
  Ti  Ti21  1  0.60692200  0.91683300  0.46503700  1
  Ti  Ti22  1  0.39307800  0.08316700  0.46503700  1
  Ti  Ti23  1  0.41683300  0.89307800  0.96503700  1
  P  P24  1  0.45860100  0.29318900  0.71393500  1
  P  P25  1  0.79318900  0.04139900  0.21393500  1
  P  P26  1  0.20681100  0.95860100  0.21393500  1
  P  P27  1  0.54139900  0.70681100  0.71393500  1
  P  P28  1  0.04139900  0.20681100  0.78606500  1
  P  P29  1  0.70681100  0.45860100  0.28606500  1
  P  P30  1  0.29318900  0.54139900  0.28606500  1
  P  P31  1  0.95860100  0.79318900  0.78606500  1
