# generated using pymatgen
data_Ca3(GaPt)2
_symmetry_space_group_name_H-M   'P 1'
_cell_length_a   5.80857700
_cell_length_b   7.92891000
_cell_length_c   13.91376700
_cell_angle_alpha   90.00000000
_cell_angle_beta   90.00000000
_cell_angle_gamma   90.00000000
_symmetry_Int_Tables_number   1
_chemical_formula_structural   Ca3(GaPt)2
_chemical_formula_sum   'Ca12 Ga8 Pt8'
_cell_volume   640.80805983
_cell_formula_units_Z   4
loop_
 _symmetry_equiv_pos_site_id
 _symmetry_equiv_pos_as_xyz
  1  'x, y, z'
loop_
 _atom_site_type_symbol
 _atom_site_label
 _atom_site_symmetry_multiplicity
 _atom_site_fract_x
 _atom_site_fract_y
 _atom_site_fract_z
 _atom_site_occupancy
  Ca  Ca0  1  0.14302600  0.60686500  0.09843800  1
  Ca  Ca1  1  0.14302600  0.89313500  0.90156200  1
  Ca  Ca2  1  0.85697400  0.10686500  0.40156200  1
  Ca  Ca3  1  0.85697400  0.39313500  0.59843800  1
  Ca  Ca4  1  0.85697400  0.39313500  0.90156200  1
  Ca  Ca5  1  0.85697400  0.10686500  0.09843800  1
  Ca  Ca6  1  0.14302600  0.89313500  0.59843800  1
  Ca  Ca7  1  0.14302600  0.60686500  0.40156200  1
  Ca  Ca8  1  0.37092400  0.25727700  0.25000000  1
  Ca  Ca9  1  0.37092400  0.24272300  0.75000000  1
  Ca  Ca10  1  0.62907600  0.75727700  0.25000000  1
  Ca  Ca11  1  0.62907600  0.74272300  0.75000000  1
  Ga  Ga12  1  0.37804300  0.25000000  0.00000000  1
  Ga  Ga13  1  0.62195700  0.75000000  0.50000000  1
  Ga  Ga14  1  0.62195700  0.75000000  0.00000000  1
  Ga  Ga15  1  0.37804300  0.25000000  0.50000000  1
  Ga  Ga16  1  0.85814200  0.40835200  0.25000000  1
  Ga  Ga17  1  0.85814200  0.09164800  0.75000000  1
  Ga  Ga18  1  0.14185800  0.90835200  0.25000000  1
  Ga  Ga19  1  0.14185800  0.59164800  0.75000000  1
  Pt  Pt20  1  0.63900900  0.46846700  0.09408000  1
  Pt  Pt21  1  0.63900900  0.03153300  0.90592000  1
  Pt  Pt22  1  0.36099100  0.96846700  0.40592000  1
  Pt  Pt23  1  0.36099100  0.53153300  0.59408000  1
  Pt  Pt24  1  0.36099100  0.53153300  0.90592000  1
  Pt  Pt25  1  0.36099100  0.96846700  0.09408000  1
  Pt  Pt26  1  0.63900900  0.03153300  0.59408000  1
  Pt  Pt27  1  0.63900900  0.46846700  0.40592000  1
