# generated using pymatgen
data_Sb2MoS
_symmetry_space_group_name_H-M   'P 1'
_cell_length_a   18.79409749
_cell_length_b   18.79409749
_cell_length_c   6.61416791
_cell_angle_alpha   85.07636172
_cell_angle_beta   85.07636172
_cell_angle_gamma   19.79481164
_symmetry_Int_Tables_number   1
_chemical_formula_structural   Sb2MoS
_chemical_formula_sum   'Sb16 Mo8 S8'
_cell_volume   788.16681410
_cell_formula_units_Z   8
loop_
 _symmetry_equiv_pos_site_id
 _symmetry_equiv_pos_as_xyz
  1  'x, y, z'
loop_
 _atom_site_type_symbol
 _atom_site_label
 _atom_site_symmetry_multiplicity
 _atom_site_fract_x
 _atom_site_fract_y
 _atom_site_fract_z
 _atom_site_occupancy
  Sb  Sb0  1  0.99018600  0.99018600  0.79484000  1
  Sb  Sb1  1  0.00981400  0.00981400  0.20516000  1
  Sb  Sb2  1  0.49012300  0.49012300  0.79485200  1
  Sb  Sb3  1  0.50987700  0.50987700  0.20514800  1
  Sb  Sb4  1  0.91386900  0.91386900  0.92247300  1
  Sb  Sb5  1  0.08613100  0.08613100  0.07752700  1
  Sb  Sb6  1  0.41334600  0.91277200  0.92371900  1
  Sb  Sb7  1  0.08722800  0.58665400  0.07628100  1
  Sb  Sb8  1  0.58665400  0.08722800  0.07628100  1
  Sb  Sb9  1  0.91277200  0.41334600  0.92371900  1
  Sb  Sb10  1  0.41382400  0.41382400  0.92243600  1
  Sb  Sb11  1  0.58617600  0.58617600  0.07756400  1
  Sb  Sb12  1  0.51266800  0.96737600  0.79351700  1
  Sb  Sb13  1  0.03262400  0.48733200  0.20648300  1
  Sb  Sb14  1  0.48733200  0.03262400  0.20648300  1
  Sb  Sb15  1  0.96737600  0.51266800  0.79351700  1
  Mo  Mo16  1  0.87788400  0.87788400  0.32912400  1
  Mo  Mo17  1  0.12211600  0.12211600  0.67087600  1
  Mo  Mo18  1  0.37785600  0.87824100  0.32956800  1
  Mo  Mo19  1  0.12175900  0.62214400  0.67043200  1
  Mo  Mo20  1  0.62214400  0.12175900  0.67043200  1
  Mo  Mo21  1  0.87824100  0.37785600  0.32956800  1
  Mo  Mo22  1  0.37792900  0.37792900  0.32861900  1
  Mo  Mo23  1  0.62207100  0.62207100  0.67138100  1
  S  S24  1  0.32838300  0.32838300  0.58733700  1
  S  S25  1  0.67161700  0.67161700  0.41266300  1
  S  S26  1  0.32840300  0.82853100  0.58793900  1
  S  S27  1  0.17146900  0.67159700  0.41206100  1
  S  S28  1  0.67159700  0.17146900  0.41206100  1
  S  S29  1  0.82853100  0.32840300  0.58793900  1
  S  S30  1  0.82832000  0.82832000  0.58749700  1
  S  S31  1  0.17168000  0.17168000  0.41250300  1
