# generated using pymatgen
data_KMgF3
_symmetry_space_group_name_H-M   'P 1'
_cell_length_a   4.05344600
_cell_length_b   4.05344600
_cell_length_c   4.05344600
_cell_angle_alpha   90.00000000
_cell_angle_beta   90.00000000
_cell_angle_gamma   90.00000000
_symmetry_Int_Tables_number   1
_chemical_formula_structural   KMgF3
_chemical_formula_sum   'K1 Mg1 F3'
_cell_volume   66.59983837
_cell_formula_units_Z   1
loop_
 _symmetry_equiv_pos_site_id
 _symmetry_equiv_pos_as_xyz
  1  'x, y, z'
loop_
 _atom_site_type_symbol
 _atom_site_label
 _atom_site_symmetry_multiplicity
 _atom_site_fract_x
 _atom_site_fract_y
 _atom_site_fract_z
 _atom_site_occupancy
  K  K0  1  0.50000000  0.50000000  0.50000000  1
  Mg  Mg1  1  0.00000000  0.00000000  0.00000000  1
  F  F2  1  0.00000000  0.50000000  0.00000000  1
  F  F3  1  0.00000000  0.00000000  0.50000000  1
  F  F4  1  0.50000000  0.00000000  0.00000000  1
