# generated using pymatgen
data_Al(FeB)2
_symmetry_space_group_name_H-M   'P 1'
_cell_length_a   5.69553771
_cell_length_b   5.69553771
_cell_length_c   2.86311400
_cell_angle_alpha   90.00000000
_cell_angle_beta   90.00000000
_cell_angle_gamma   150.34349622
_symmetry_Int_Tables_number   1
_chemical_formula_structural   Al(FeB)2
_chemical_formula_sum   'Al1 Fe2 B2'
_cell_volume   45.95544820
_cell_formula_units_Z   1
loop_
 _symmetry_equiv_pos_site_id
 _symmetry_equiv_pos_as_xyz
  1  'x, y, z'
loop_
 _atom_site_type_symbol
 _atom_site_label
 _atom_site_symmetry_multiplicity
 _atom_site_fract_x
 _atom_site_fract_y
 _atom_site_fract_z
 _atom_site_occupancy
  Al  Al0  1  0.00000000  0.00000000  0.00000000  1
  Fe  Fe1  1  0.35363900  0.64636100  0.50000000  1
  Fe  Fe2  1  0.64636100  0.35363900  0.50000000  1
  B  B3  1  0.20639600  0.79360400  0.00000000  1
  B  B4  1  0.79360400  0.20639600  0.00000000  1
