# generated using pymatgen
data_TbAsO4
_symmetry_space_group_name_H-M   'P 1'
_cell_length_a   5.99841664
_cell_length_b   5.99841664
_cell_length_c   5.99841664
_cell_angle_alpha   106.42893963
_cell_angle_beta   106.42893963
_cell_angle_gamma   115.74381815
_symmetry_Int_Tables_number   1
_chemical_formula_structural   TbAsO4
_chemical_formula_sum   'Tb2 As2 O8'
_cell_volume   164.63572327
_cell_formula_units_Z   2
loop_
 _symmetry_equiv_pos_site_id
 _symmetry_equiv_pos_as_xyz
  1  'x, y, z'
loop_
 _atom_site_type_symbol
 _atom_site_label
 _atom_site_symmetry_multiplicity
 _atom_site_fract_x
 _atom_site_fract_y
 _atom_site_fract_z
 _atom_site_occupancy
  Tb  Tb0  1  0.75000000  0.25000000  0.50000000  1
  Tb  Tb1  1  0.50000000  0.50000000  0.00000000  1
  As  As2  1  0.25000000  0.75000000  0.50000000  1
  As  As3  1  0.00000000  0.00000000  0.00000000  1
  O  O4  1  0.82355400  0.00457100  0.18101700  1
  O  O5  1  0.89253700  0.57355400  0.31898300  1
  O  O6  1  0.25457100  0.57355400  0.68101700  1
  O  O7  1  0.82355400  0.64253700  0.81898300  1
  O  O8  1  0.35746300  0.17644600  0.18101700  1
  O  O9  1  0.42644600  0.74542900  0.31898300  1
  O  O10  1  0.42644600  0.10746300  0.68101700  1
  O  O11  1  0.99542900  0.17644600  0.81898300  1
