# generated using pymatgen
data_Mg2Ga
_symmetry_space_group_name_H-M   'P 1'
_cell_length_a   7.77751066
_cell_length_b   7.77751066
_cell_length_c   7.00749900
_cell_angle_alpha   90.00000000
_cell_angle_beta   90.00000000
_cell_angle_gamma   120.00000561
_symmetry_Int_Tables_number   1
_chemical_formula_structural   Mg2Ga
_chemical_formula_sum   'Mg12 Ga6'
_cell_volume   367.09196751
_cell_formula_units_Z   6
loop_
 _symmetry_equiv_pos_site_id
 _symmetry_equiv_pos_as_xyz
  1  'x, y, z'
loop_
 _atom_site_type_symbol
 _atom_site_label
 _atom_site_symmetry_multiplicity
 _atom_site_fract_x
 _atom_site_fract_y
 _atom_site_fract_z
 _atom_site_occupancy
  Mg  Mg0  1  0.27802400  0.00000000  0.00000000  1
  Mg  Mg1  1  0.72197600  0.72197600  0.50000000  1
  Mg  Mg2  1  0.00000000  0.27802400  0.50000000  1
  Mg  Mg3  1  0.00000000  0.27802400  0.00000000  1
  Mg  Mg4  1  0.72197600  0.72197600  0.00000000  1
  Mg  Mg5  1  0.27802400  0.00000000  0.50000000  1
  Mg  Mg6  1  0.62817500  0.02161500  0.25000000  1
  Mg  Mg7  1  0.39344100  0.37182500  0.25000000  1
  Mg  Mg8  1  0.97838500  0.60655900  0.25000000  1
  Mg  Mg9  1  0.60655900  0.97838500  0.75000000  1
  Mg  Mg10  1  0.37182500  0.39344100  0.75000000  1
  Mg  Mg11  1  0.02161500  0.62817500  0.75000000  1
  Ga  Ga12  1  0.00000000  0.00000000  0.25000000  1
  Ga  Ga13  1  0.00000000  0.00000000  0.75000000  1
  Ga  Ga14  1  0.33333300  0.66666700  0.03353600  1
  Ga  Ga15  1  0.33333300  0.66666700  0.46646400  1
  Ga  Ga16  1  0.66666700  0.33333300  0.96646400  1
  Ga  Ga17  1  0.66666700  0.33333300  0.53353600  1
