# generated using pymatgen
data_KCuO2
_symmetry_space_group_name_H-M   'P 1'
_cell_length_a   6.25185679
_cell_length_b   6.25185679
_cell_length_c   5.48625900
_cell_angle_alpha   90.00000000
_cell_angle_beta   90.00000000
_cell_angle_gamma   137.44563148
_symmetry_Int_Tables_number   1
_chemical_formula_structural   KCuO2
_chemical_formula_sum   'K2 Cu2 O4'
_cell_volume   145.01969985
_cell_formula_units_Z   2
loop_
 _symmetry_equiv_pos_site_id
 _symmetry_equiv_pos_as_xyz
  1  'x, y, z'
loop_
 _atom_site_type_symbol
 _atom_site_label
 _atom_site_symmetry_multiplicity
 _atom_site_fract_x
 _atom_site_fract_y
 _atom_site_fract_z
 _atom_site_occupancy
  K  K0  1  0.69674500  0.30325500  0.25000000  1
  K  K1  1  0.30325500  0.69674500  0.75000000  1
  Cu  Cu2  1  0.00254700  0.99745300  0.75000000  1
  Cu  Cu3  1  0.99745300  0.00254700  0.25000000  1
  O  O4  1  0.10591600  0.89408400  0.49519800  1
  O  O5  1  0.89408400  0.10591600  0.50480200  1
  O  O6  1  0.10591600  0.89408400  0.00480200  1
  O  O7  1  0.89408400  0.10591600  0.99519800  1
