# generated using pymatgen
data_K2CO3
_symmetry_space_group_name_H-M   'P 1'
_cell_length_a   9.87039600
_cell_length_b   5.73175900
_cell_length_c   7.14730831
_cell_angle_alpha   82.67138854
_cell_angle_beta   90.00000000
_cell_angle_gamma   90.00000000
_symmetry_Int_Tables_number   1
_chemical_formula_structural   K2CO3
_chemical_formula_sum   'K8 C4 O12'
_cell_volume   401.05379941
_cell_formula_units_Z   4
loop_
 _symmetry_equiv_pos_site_id
 _symmetry_equiv_pos_as_xyz
  1  'x, y, z'
loop_
 _atom_site_type_symbol
 _atom_site_label
 _atom_site_symmetry_multiplicity
 _atom_site_fract_x
 _atom_site_fract_y
 _atom_site_fract_z
 _atom_site_occupancy
  K  K0  1  0.76817600  0.74204200  0.52463700  1
  K  K1  1  0.26817600  0.25795800  0.97536300  1
  K  K2  1  0.23182400  0.25795800  0.47536300  1
  K  K3  1  0.73182400  0.74204200  0.02463700  1
  K  K4  1  0.58155800  0.24153800  0.30644000  1
  K  K5  1  0.08155800  0.75846200  0.19356000  1
  K  K6  1  0.41844200  0.75846200  0.69356000  1
  K  K7  1  0.91844200  0.24153800  0.80644000  1
  C  C8  1  0.58411200  0.25109700  0.74417600  1
  C  C9  1  0.91588800  0.25109700  0.24417600  1
  C  C10  1  0.41588800  0.74890300  0.25582400  1
  C  C11  1  0.08411200  0.74890300  0.75582400  1
  O  O12  1  0.84573400  0.06247300  0.22419300  1
  O  O13  1  0.34573400  0.93752700  0.27580700  1
  O  O14  1  0.15426600  0.93752700  0.77580700  1
  O  O15  1  0.65426600  0.06247300  0.72419300  1
  O  O16  1  0.85901500  0.42823200  0.31078700  1
  O  O17  1  0.64098500  0.42823200  0.81078700  1
  O  O18  1  0.14098500  0.57176800  0.68921300  1
  O  O19  1  0.35901500  0.57176800  0.18921300  1
  O  O20  1  0.95669600  0.73808600  0.80641400  1
  O  O21  1  0.45669600  0.26191400  0.69358600  1
  O  O22  1  0.04330400  0.26191400  0.19358600  1
  O  O23  1  0.54330400  0.73808600  0.30641400  1
