# generated using pymatgen
data_GaI3
_symmetry_space_group_name_H-M   'P 1'
_cell_length_a   6.69352300
_cell_length_b   10.15095300
_cell_length_c   12.71164837
_cell_angle_alpha   71.85806399
_cell_angle_beta   90.00000000
_cell_angle_gamma   90.00000000
_symmetry_Int_Tables_number   1
_chemical_formula_structural   GaI3
_chemical_formula_sum   'Ga4 I12'
_cell_volume   820.76481831
_cell_formula_units_Z   4
loop_
 _symmetry_equiv_pos_site_id
 _symmetry_equiv_pos_as_xyz
  1  'x, y, z'
loop_
 _atom_site_type_symbol
 _atom_site_label
 _atom_site_symmetry_multiplicity
 _atom_site_fract_x
 _atom_site_fract_y
 _atom_site_fract_z
 _atom_site_occupancy
  Ga  Ga0  1  0.00318300  0.19109800  0.95311800  1
  Ga  Ga1  1  0.50318300  0.80890200  0.54688200  1
  Ga  Ga2  1  0.99681700  0.80890200  0.04688200  1
  Ga  Ga3  1  0.49681700  0.19109800  0.45311800  1
  I  I4  1  0.77706200  0.32390800  0.79817200  1
  I  I5  1  0.27706200  0.67609200  0.70182800  1
  I  I6  1  0.22293800  0.67609200  0.20182800  1
  I  I7  1  0.72293800  0.32390800  0.29817200  1
  I  I8  1  0.23340300  0.31823300  0.04468500  1
  I  I9  1  0.73340300  0.68176700  0.45531500  1
  I  I10  1  0.76659700  0.68176700  0.95531500  1
  I  I11  1  0.26659700  0.31823300  0.54468500  1
  I  I12  1  0.78881700  0.00110000  0.11027400  1
  I  I13  1  0.28881700  0.99890000  0.38972600  1
  I  I14  1  0.21118300  0.99890000  0.88972600  1
  I  I15  1  0.71118300  0.00110000  0.61027400  1
