# generated using pymatgen
data_Be17Ru3
_symmetry_space_group_name_H-M   'P 1'
_cell_length_a   9.80586882
_cell_length_b   9.80586882
_cell_length_c   9.80586882
_cell_angle_alpha   109.47122063
_cell_angle_beta   109.47122063
_cell_angle_gamma   109.47122063
_symmetry_Int_Tables_number   1
_chemical_formula_structural   Be17Ru3
_chemical_formula_sum   'Be68 Ru12'
_cell_volume   725.83239221
_cell_formula_units_Z   4
loop_
 _symmetry_equiv_pos_site_id
 _symmetry_equiv_pos_as_xyz
  1  'x, y, z'
loop_
 _atom_site_type_symbol
 _atom_site_label
 _atom_site_symmetry_multiplicity
 _atom_site_fract_x
 _atom_site_fract_y
 _atom_site_fract_z
 _atom_site_occupancy
  Be  Be0  1  0.40300400  0.00000000  0.40300400  1
  Be  Be1  1  0.40300400  0.40300400  0.00000000  1
  Be  Be2  1  0.00000000  0.59699600  0.59699600  1
  Be  Be3  1  0.59699600  0.59699600  0.00000000  1
  Be  Be4  1  0.00000000  0.40300400  0.40300400  1
  Be  Be5  1  0.59699600  0.00000000  0.59699600  1
  Be  Be6  1  0.69463900  0.50000000  0.19463900  1
  Be  Be7  1  0.19463900  0.69463900  0.50000000  1
  Be  Be8  1  0.50000000  0.80536100  0.30536100  1
  Be  Be9  1  0.80536100  0.30536100  0.50000000  1
  Be  Be10  1  0.50000000  0.19463900  0.69463900  1
  Be  Be11  1  0.30536100  0.50000000  0.80536100  1
  Be  Be12  1  0.00000000  0.00000000  0.33014100  1
  Be  Be13  1  0.00000000  0.33014100  0.00000000  1
  Be  Be14  1  0.66985900  0.66985900  0.66985900  1
  Be  Be15  1  0.33014100  0.00000000  0.00000000  1
  Be  Be16  1  0.00000000  0.00000000  0.66985900  1
  Be  Be17  1  0.00000000  0.66985900  0.00000000  1
  Be  Be18  1  0.33014100  0.33014100  0.33014100  1
  Be  Be19  1  0.66985900  0.00000000  0.00000000  1
  Be  Be20  1  0.90651200  0.13784600  0.23133400  1
  Be  Be21  1  0.76866600  0.09348800  0.86215400  1
  Be  Be22  1  0.67517900  0.76866600  0.90651200  1
  Be  Be23  1  0.76866600  0.90651200  0.67517900  1
  Be  Be24  1  0.32482100  0.23133400  0.09348800  1
  Be  Be25  1  0.23133400  0.90651200  0.13784600  1
  Be  Be26  1  0.13784600  0.23133400  0.90651200  1
  Be  Be27  1  0.86215400  0.76866600  0.09348800  1
  Be  Be28  1  0.23133400  0.09348800  0.32482100  1
  Be  Be29  1  0.90651200  0.67517900  0.76866600  1
  Be  Be30  1  0.09348800  0.32482100  0.23133400  1
  Be  Be31  1  0.09348800  0.86215400  0.76866600  1
  Be  Be32  1  0.65099500  0.05573700  0.40474200  1
  Be  Be33  1  0.59525800  0.34900500  0.94426300  1
  Be  Be34  1  0.24625300  0.59525800  0.65099500  1
  Be  Be35  1  0.59525800  0.65099500  0.24625300  1
  Be  Be36  1  0.75374700  0.40474200  0.34900500  1
  Be  Be37  1  0.40474200  0.65099500  0.05573700  1
  Be  Be38  1  0.05573700  0.40474200  0.65099500  1
  Be  Be39  1  0.94426300  0.59525800  0.34900500  1
  Be  Be40  1  0.40474200  0.34900500  0.75374700  1
  Be  Be41  1  0.65099500  0.24625300  0.59525800  1
  Be  Be42  1  0.34900500  0.75374700  0.40474200  1
  Be  Be43  1  0.34900500  0.94426300  0.59525800  1
  Be  Be44  1  0.85933500  0.77214600  0.31486200  1
  Be  Be45  1  0.08718800  0.54271600  0.22785400  1
  Be  Be46  1  0.54447200  0.68513800  0.45728400  1
  Be  Be47  1  0.68513800  0.45728400  0.54447200  1
  Be  Be48  1  0.45552800  0.91281200  0.14066500  1
  Be  Be49  1  0.31486200  0.85933500  0.77214600  1
  Be  Be50  1  0.77214600  0.31486200  0.85933500  1
  Be  Be51  1  0.22785400  0.08718800  0.54271600  1
  Be  Be52  1  0.91281200  0.14066500  0.45552800  1
  Be  Be53  1  0.45728400  0.54447200  0.68513800  1
  Be  Be54  1  0.14066500  0.45552800  0.91281200  1
  Be  Be55  1  0.54271600  0.22785400  0.08718800  1
  Be  Be56  1  0.14066500  0.22785400  0.68513800  1
  Be  Be57  1  0.91281200  0.45728400  0.77214600  1
  Be  Be58  1  0.45552800  0.31486200  0.54271600  1
  Be  Be59  1  0.31486200  0.54271600  0.45552800  1
  Be  Be60  1  0.54447200  0.08718800  0.85933500  1
  Be  Be61  1  0.68513800  0.14066500  0.22785400  1
  Be  Be62  1  0.22785400  0.68513800  0.14066500  1
  Be  Be63  1  0.77214600  0.91281200  0.45728400  1
  Be  Be64  1  0.08718800  0.85933500  0.54447200  1
  Be  Be65  1  0.54271600  0.45552800  0.31486200  1
  Be  Be66  1  0.85933500  0.54447200  0.08718800  1
  Be  Be67  1  0.45728400  0.77214600  0.91281200  1
  Ru  Ru68  1  0.69873800  0.88680600  0.18806800  1
  Ru  Ru69  1  0.81193200  0.30126200  0.11319400  1
  Ru  Ru70  1  0.51067000  0.81193200  0.69873800  1
  Ru  Ru71  1  0.81193200  0.69873800  0.51067000  1
  Ru  Ru72  1  0.48933000  0.18806800  0.30126200  1
  Ru  Ru73  1  0.18806800  0.69873800  0.88680600  1
  Ru  Ru74  1  0.88680600  0.18806800  0.69873800  1
  Ru  Ru75  1  0.11319400  0.81193200  0.30126200  1
  Ru  Ru76  1  0.18806800  0.30126200  0.48933000  1
  Ru  Ru77  1  0.69873800  0.51067000  0.81193200  1
  Ru  Ru78  1  0.30126200  0.48933000  0.18806800  1
  Ru  Ru79  1  0.30126200  0.11319400  0.81193200  1
