# generated using pymatgen
data_SmAu3
_symmetry_space_group_name_H-M   'P 1'
_cell_length_a   5.11589900
_cell_length_b   5.20109800
_cell_length_c   6.37635400
_cell_angle_alpha   90.00000000
_cell_angle_beta   90.00000000
_cell_angle_gamma   90.00000000
_symmetry_Int_Tables_number   1
_chemical_formula_structural   SmAu3
_chemical_formula_sum   'Sm2 Au6'
_cell_volume   169.66388949
_cell_formula_units_Z   2
loop_
 _symmetry_equiv_pos_site_id
 _symmetry_equiv_pos_as_xyz
  1  'x, y, z'
loop_
 _atom_site_type_symbol
 _atom_site_label
 _atom_site_symmetry_multiplicity
 _atom_site_fract_x
 _atom_site_fract_y
 _atom_site_fract_z
 _atom_site_occupancy
  Sm  Sm0  1  0.50000000  0.65711100  0.50000000  1
  Sm  Sm1  1  0.00000000  0.34288900  0.00000000  1
  Au  Au2  1  0.00000000  0.83858100  0.25963600  1
  Au  Au3  1  0.50000000  0.16141900  0.24036400  1
  Au  Au4  1  0.00000000  0.83858100  0.74036400  1
  Au  Au5  1  0.50000000  0.16141900  0.75963600  1
  Au  Au6  1  0.00000000  0.32735000  0.50000000  1
  Au  Au7  1  0.50000000  0.67265000  0.00000000  1
