# generated using pymatgen
data_Rb3NbS4
_symmetry_space_group_name_H-M   'P 1'
_cell_length_a   9.71679300
_cell_length_b   9.88508500
_cell_length_c   11.28878500
_cell_angle_alpha   90.00000000
_cell_angle_beta   90.00000000
_cell_angle_gamma   90.00000000
_symmetry_Int_Tables_number   1
_chemical_formula_structural   Rb3NbS4
_chemical_formula_sum   'Rb12 Nb4 S16'
_cell_volume   1084.30275387
_cell_formula_units_Z   4
loop_
 _symmetry_equiv_pos_site_id
 _symmetry_equiv_pos_as_xyz
  1  'x, y, z'
loop_
 _atom_site_type_symbol
 _atom_site_label
 _atom_site_symmetry_multiplicity
 _atom_site_fract_x
 _atom_site_fract_y
 _atom_site_fract_z
 _atom_site_occupancy
  Rb  Rb0  1  0.05478200  0.28908200  0.54406500  1
  Rb  Rb1  1  0.86073200  0.92326100  0.75000000  1
  Rb  Rb2  1  0.13926800  0.07673900  0.25000000  1
  Rb  Rb3  1  0.63926800  0.42326100  0.25000000  1
  Rb  Rb4  1  0.94521800  0.71091800  0.45593500  1
  Rb  Rb5  1  0.44521800  0.78908200  0.04406500  1
  Rb  Rb6  1  0.55478200  0.21091800  0.54406500  1
  Rb  Rb7  1  0.05478200  0.28908200  0.95593500  1
  Rb  Rb8  1  0.94521800  0.71091800  0.04406500  1
  Rb  Rb9  1  0.55478200  0.21091800  0.95593500  1
  Rb  Rb10  1  0.44521800  0.78908200  0.45593500  1
  Rb  Rb11  1  0.36073200  0.57673900  0.75000000  1
  Nb  Nb12  1  0.28224600  0.01314300  0.75000000  1
  Nb  Nb13  1  0.78224600  0.48685700  0.75000000  1
  Nb  Nb14  1  0.21775400  0.51314300  0.25000000  1
  Nb  Nb15  1  0.71775400  0.98685700  0.25000000  1
  S  S16  1  0.30316800  0.24482700  0.75000000  1
  S  S17  1  0.80316800  0.25517300  0.75000000  1
  S  S18  1  0.19683200  0.74482700  0.25000000  1
  S  S19  1  0.69683200  0.75517300  0.25000000  1
  S  S20  1  0.99853700  0.58147500  0.75000000  1
  S  S21  1  0.49853700  0.91852500  0.75000000  1
  S  S22  1  0.50146300  0.08147500  0.25000000  1
  S  S23  1  0.00146300  0.41852500  0.25000000  1
  S  S24  1  0.83357600  0.05030600  0.08206600  1
  S  S25  1  0.33357600  0.44969400  0.41793400  1
  S  S26  1  0.66642400  0.55030600  0.91793400  1
  S  S27  1  0.16642400  0.94969400  0.58206600  1
  S  S28  1  0.16642400  0.94969400  0.91793400  1
  S  S29  1  0.83357600  0.05030600  0.41793400  1
  S  S30  1  0.33357600  0.44969400  0.08206600  1
  S  S31  1  0.66642400  0.55030600  0.58206600  1
