# generated using pymatgen
data_BaZn5
_symmetry_space_group_name_H-M   'P 1'
_cell_length_a   6.91794909
_cell_length_b   6.91794909
_cell_length_c   5.33743500
_cell_angle_alpha   90.00000000
_cell_angle_beta   90.00000000
_cell_angle_gamma   104.30313372
_symmetry_Int_Tables_number   1
_chemical_formula_structural   BaZn5
_chemical_formula_sum   'Ba2 Zn10'
_cell_volume   247.52102516
_cell_formula_units_Z   2
loop_
 _symmetry_equiv_pos_site_id
 _symmetry_equiv_pos_as_xyz
  1  'x, y, z'
loop_
 _atom_site_type_symbol
 _atom_site_label
 _atom_site_symmetry_multiplicity
 _atom_site_fract_x
 _atom_site_fract_y
 _atom_site_fract_z
 _atom_site_occupancy
  Ba  Ba0  1  0.66837800  0.66837800  0.25000000  1
  Ba  Ba1  1  0.33162200  0.33162200  0.75000000  1
  Zn  Zn2  1  0.79496500  0.20503500  0.50000000  1
  Zn  Zn3  1  0.20503500  0.79496500  0.00000000  1
  Zn  Zn4  1  0.92162000  0.92162000  0.75000000  1
  Zn  Zn5  1  0.07838000  0.07838000  0.25000000  1
  Zn  Zn6  1  0.53584400  0.91946600  0.75000000  1
  Zn  Zn7  1  0.46415600  0.08053400  0.25000000  1
  Zn  Zn8  1  0.91946600  0.53584400  0.75000000  1
  Zn  Zn9  1  0.08053400  0.46415600  0.25000000  1
  Zn  Zn10  1  0.79496500  0.20503500  0.00000000  1
  Zn  Zn11  1  0.20503500  0.79496500  0.50000000  1
