# generated using pymatgen
data_NdTiCdSbO7
_symmetry_space_group_name_H-M   'P 1'
_cell_length_a   7.36414200
_cell_length_b   7.36414200
_cell_length_c   10.46723700
_cell_angle_alpha   90.00000000
_cell_angle_beta   90.00000000
_cell_angle_gamma   90.00000000
_symmetry_Int_Tables_number   1
_chemical_formula_structural   NdTiCdSbO7
_chemical_formula_sum   'Nd4 Ti4 Cd4 Sb4 O28'
_cell_volume   567.64441092
_cell_formula_units_Z   4
loop_
 _symmetry_equiv_pos_site_id
 _symmetry_equiv_pos_as_xyz
  1  'x, y, z'
loop_
 _atom_site_type_symbol
 _atom_site_label
 _atom_site_symmetry_multiplicity
 _atom_site_fract_x
 _atom_site_fract_y
 _atom_site_fract_z
 _atom_site_occupancy
  Nd  Nd0  1  0.00000000  0.73614200  0.00000000  1
  Nd  Nd1  1  0.26385800  0.00000000  0.25000000  1
  Nd  Nd2  1  0.00000000  0.26385800  0.50000000  1
  Nd  Nd3  1  0.73614200  0.00000000  0.75000000  1
  Ti  Ti4  1  0.76161200  0.00000000  0.25000000  1
  Ti  Ti5  1  0.00000000  0.76161200  0.50000000  1
  Ti  Ti6  1  0.23838800  0.00000000  0.75000000  1
  Ti  Ti7  1  0.00000000  0.23838800  0.00000000  1
  Cd  Cd8  1  0.50000000  0.73575400  0.00000000  1
  Cd  Cd9  1  0.50000000  0.26424600  0.50000000  1
  Cd  Cd10  1  0.73575400  0.50000000  0.75000000  1
  Cd  Cd11  1  0.26424600  0.50000000  0.25000000  1
  Sb  Sb12  1  0.24405500  0.50000000  0.75000000  1
  Sb  Sb13  1  0.50000000  0.75594500  0.50000000  1
  Sb  Sb14  1  0.50000000  0.24405500  0.00000000  1
  Sb  Sb15  1  0.75594500  0.50000000  0.25000000  1
  O  O16  1  0.26069500  0.73930500  0.12500000  1
  O  O17  1  0.55519000  0.94561900  0.36940000  1
  O  O18  1  0.73930500  0.26069500  0.62500000  1
  O  O19  1  0.95257600  0.95257600  0.37500000  1
  O  O20  1  0.05438100  0.44481000  0.88060000  1
  O  O21  1  0.04742400  0.04742400  0.87500000  1
  O  O22  1  0.04742400  0.95257600  0.62500000  1
  O  O23  1  0.24956300  0.23594400  0.07171700  1
  O  O24  1  0.23594400  0.24956300  0.67828300  1
  O  O25  1  0.24956300  0.76405600  0.42828300  1
  O  O26  1  0.44848500  0.44848500  0.87500000  1
  O  O27  1  0.44481000  0.05438100  0.86940000  1
  O  O28  1  0.44481000  0.94561900  0.63060000  1
  O  O29  1  0.55151500  0.55151500  0.37500000  1
  O  O30  1  0.55519000  0.05438100  0.13060000  1
  O  O31  1  0.55151500  0.44848500  0.12500000  1
  O  O32  1  0.75043700  0.76405600  0.57171700  1
  O  O33  1  0.73930500  0.73930500  0.87500000  1
  O  O34  1  0.76405600  0.24956300  0.32171700  1
  O  O35  1  0.76405600  0.75043700  0.17828300  1
  O  O36  1  0.75043700  0.23594400  0.92828300  1
  O  O37  1  0.94561900  0.55519000  0.38060000  1
  O  O38  1  0.94561900  0.44481000  0.11940000  1
  O  O39  1  0.95257600  0.04742400  0.12500000  1
  O  O40  1  0.05438100  0.55519000  0.61940000  1
  O  O41  1  0.26069500  0.26069500  0.37500000  1
  O  O42  1  0.23594400  0.75043700  0.82171700  1
  O  O43  1  0.44848500  0.55151500  0.62500000  1
