# generated using pymatgen
data_Rb4P21I
_symmetry_space_group_name_H-M   'P 1'
_cell_length_a   13.07609474
_cell_length_b   13.07609474
_cell_length_c   9.94946600
_cell_angle_alpha   90.00000000
_cell_angle_beta   90.00000000
_cell_angle_gamma   115.42298324
_symmetry_Int_Tables_number   1
_chemical_formula_structural   Rb4P21I
_chemical_formula_sum   'Rb8 P42 I2'
_cell_volume   1536.46299177
_cell_formula_units_Z   2
loop_
 _symmetry_equiv_pos_site_id
 _symmetry_equiv_pos_as_xyz
  1  'x, y, z'
loop_
 _atom_site_type_symbol
 _atom_site_label
 _atom_site_symmetry_multiplicity
 _atom_site_fract_x
 _atom_site_fract_y
 _atom_site_fract_z
 _atom_site_occupancy
  Rb  Rb0  1  0.24026400  0.06463600  0.25000000  1
  Rb  Rb1  1  0.75973600  0.93536400  0.75000000  1
  Rb  Rb2  1  0.06463600  0.24026400  0.25000000  1
  Rb  Rb3  1  0.93536400  0.75973600  0.75000000  1
  Rb  Rb4  1  0.38017300  0.61982700  0.50000000  1
  Rb  Rb5  1  0.61982700  0.38017300  0.00000000  1
  Rb  Rb6  1  0.61982700  0.38017300  0.50000000  1
  Rb  Rb7  1  0.38017300  0.61982700  0.00000000  1
  P  P8  1  0.95041400  0.95041400  0.25000000  1
  P  P9  1  0.04958600  0.04958600  0.75000000  1
  P  P10  1  0.65998600  0.20054100  0.25000000  1
  P  P11  1  0.34001400  0.79945900  0.75000000  1
  P  P12  1  0.20054100  0.65998600  0.25000000  1
  P  P13  1  0.79945900  0.34001400  0.75000000  1
  P  P14  1  0.31534800  0.01371500  0.92300100  1
  P  P15  1  0.68465200  0.98628500  0.42300100  1
  P  P16  1  0.01371500  0.31534800  0.57699900  1
  P  P17  1  0.98628500  0.68465200  0.07699900  1
  P  P18  1  0.05741600  0.50040100  0.91495100  1
  P  P19  1  0.94258400  0.49959900  0.41495100  1
  P  P20  1  0.50040100  0.05741600  0.58504900  1
  P  P21  1  0.49959900  0.94258400  0.08504900  1
  P  P22  1  0.94258400  0.49959900  0.08504900  1
  P  P23  1  0.05741600  0.50040100  0.58504900  1
  P  P24  1  0.49959900  0.94258400  0.41495100  1
  P  P25  1  0.50040100  0.05741600  0.91495100  1
  P  P26  1  0.15120100  0.15120100  0.91209700  1
  P  P27  1  0.84879900  0.84879900  0.41209700  1
  P  P28  1  0.15120100  0.15120100  0.58790300  1
  P  P29  1  0.84879900  0.84879900  0.08790300  1
  P  P30  1  0.94284800  0.50383200  0.75000000  1
  P  P31  1  0.05715200  0.49616800  0.25000000  1
  P  P32  1  0.50383200  0.94284800  0.75000000  1
  P  P33  1  0.49616800  0.05715200  0.25000000  1
  P  P34  1  0.89290700  0.23927800  0.75000000  1
  P  P35  1  0.10709300  0.76072200  0.25000000  1
  P  P36  1  0.23927800  0.89290700  0.75000000  1
  P  P37  1  0.76072200  0.10709300  0.25000000  1
  P  P38  1  0.18168800  0.32965400  0.86406400  1
  P  P39  1  0.81831200  0.67034600  0.36406400  1
  P  P40  1  0.32965400  0.18168800  0.63593600  1
  P  P41  1  0.67034600  0.81831200  0.13593600  1
  P  P42  1  0.81831200  0.67034600  0.13593600  1
  P  P43  1  0.18168800  0.32965400  0.63593600  1
  P  P44  1  0.67034600  0.81831200  0.36406400  1
  P  P45  1  0.32965400  0.18168800  0.86406400  1
  P  P46  1  0.01371500  0.31534800  0.92300100  1
  P  P47  1  0.98628500  0.68465200  0.42300100  1
  P  P48  1  0.31534800  0.01371500  0.57699900  1
  P  P49  1  0.68465200  0.98628500  0.07699900  1
  I  I50  1  0.39797300  0.39797300  0.25000000  1
  I  I51  1  0.60202700  0.60202700  0.75000000  1
