# generated using pymatgen
data_Ba2NbCrO6
_symmetry_space_group_name_H-M   'P 1'
_cell_length_a   5.83300654
_cell_length_b   5.83300654
_cell_length_c   19.19067300
_cell_angle_alpha   90.00000000
_cell_angle_beta   90.00000000
_cell_angle_gamma   120.00000613
_symmetry_Int_Tables_number   1
_chemical_formula_structural   Ba2NbCrO6
_chemical_formula_sum   'Ba8 Nb4 Cr4 O24'
_cell_volume   565.46501033
_cell_formula_units_Z   4
loop_
 _symmetry_equiv_pos_site_id
 _symmetry_equiv_pos_as_xyz
  1  'x, y, z'
loop_
 _atom_site_type_symbol
 _atom_site_label
 _atom_site_symmetry_multiplicity
 _atom_site_fract_x
 _atom_site_fract_y
 _atom_site_fract_z
 _atom_site_occupancy
  Ba  Ba0  1  0.33333300  0.66666700  0.35818400  1
  Ba  Ba1  1  0.66666700  0.33333300  0.85818400  1
  Ba  Ba2  1  0.66666700  0.33333300  0.64181600  1
  Ba  Ba3  1  0.33333300  0.66666700  0.14181600  1
  Ba  Ba4  1  0.66666700  0.33333300  0.25000000  1
  Ba  Ba5  1  0.33333300  0.66666700  0.75000000  1
  Ba  Ba6  1  0.00000000  0.00000000  0.50000000  1
  Ba  Ba7  1  0.00000000  0.00000000  0.00000000  1
  Nb  Nb8  1  0.33333300  0.66666700  0.56399600  1
  Nb  Nb9  1  0.66666700  0.33333300  0.06399600  1
  Nb  Nb10  1  0.66666700  0.33333300  0.43600400  1
  Nb  Nb11  1  0.33333300  0.66666700  0.93600400  1
  Cr  Cr12  1  0.00000000  0.00000000  0.18168500  1
  Cr  Cr13  1  0.00000000  0.00000000  0.68168500  1
  Cr  Cr14  1  0.00000000  0.00000000  0.81831500  1
  Cr  Cr15  1  0.00000000  0.00000000  0.31831500  1
  O  O16  1  0.16966200  0.83033800  0.87927500  1
  O  O17  1  0.16966200  0.33932300  0.87927500  1
  O  O18  1  0.66067700  0.83033800  0.87927500  1
  O  O19  1  0.33932300  0.16966200  0.37927500  1
  O  O20  1  0.83033800  0.66067700  0.12072500  1
  O  O21  1  0.83033800  0.16966200  0.37927500  1
  O  O22  1  0.83033800  0.66067700  0.37927500  1
  O  O23  1  0.16966200  0.83033800  0.62072500  1
  O  O24  1  0.66067700  0.83033800  0.62072500  1
  O  O25  1  0.33932300  0.16966200  0.12072500  1
  O  O26  1  0.83033800  0.16966200  0.12072500  1
  O  O27  1  0.16966200  0.33932300  0.62072500  1
  O  O28  1  0.84973200  0.69946400  0.75000000  1
  O  O29  1  0.15026800  0.84973200  0.25000000  1
  O  O30  1  0.69946400  0.84973200  0.25000000  1
  O  O31  1  0.30053600  0.15026800  0.75000000  1
  O  O32  1  0.50000000  0.00000000  0.00000000  1
  O  O33  1  0.50000000  0.50000000  0.50000000  1
  O  O34  1  0.00000000  0.50000000  0.50000000  1
  O  O35  1  0.00000000  0.50000000  0.00000000  1
  O  O36  1  0.50000000  0.50000000  0.00000000  1
  O  O37  1  0.50000000  0.00000000  0.50000000  1
  O  O38  1  0.15026800  0.30053600  0.25000000  1
  O  O39  1  0.84973200  0.15026800  0.75000000  1
