# generated using pymatgen
data_AlTlF4
_symmetry_space_group_name_H-M   'P 1'
_cell_length_a   7.42035610
_cell_length_b   7.42035610
_cell_length_c   5.20513221
_cell_angle_alpha   69.83650532
_cell_angle_beta   69.83650532
_cell_angle_gamma   40.79659411
_symmetry_Int_Tables_number   1
_chemical_formula_structural   AlTlF4
_chemical_formula_sum   'Al2 Tl2 F8'
_cell_volume   174.13649681
_cell_formula_units_Z   2
loop_
 _symmetry_equiv_pos_site_id
 _symmetry_equiv_pos_as_xyz
  1  'x, y, z'
loop_
 _atom_site_type_symbol
 _atom_site_label
 _atom_site_symmetry_multiplicity
 _atom_site_fract_x
 _atom_site_fract_y
 _atom_site_fract_z
 _atom_site_occupancy
  Al  Al0  1  0.50000000  0.00000000  0.50000000  1
  Al  Al1  1  0.00000000  0.50000000  0.00000000  1
  Tl  Tl2  1  0.25661500  0.74338500  0.25000000  1
  Tl  Tl3  1  0.74338500  0.25661500  0.75000000  1
  F  F4  1  0.30716600  0.91965200  0.64012300  1
  F  F5  1  0.08034800  0.69283400  0.85987700  1
  F  F6  1  0.69283400  0.08034800  0.35987700  1
  F  F7  1  0.91965200  0.30716600  0.14012300  1
  F  F8  1  0.75756100  0.70498800  0.74270700  1
  F  F9  1  0.29501200  0.24243900  0.75729300  1
  F  F10  1  0.24243900  0.29501200  0.25729300  1
  F  F11  1  0.70498800  0.75756100  0.24270700  1
