# generated using pymatgen
data_SrSnAu
_symmetry_space_group_name_H-M   'P 1'
_cell_length_a   4.89710000
_cell_length_b   8.39972700
_cell_length_c   23.74859700
_cell_angle_alpha   90.00000000
_cell_angle_beta   90.00000000
_cell_angle_gamma   90.00000000
_symmetry_Int_Tables_number   1
_chemical_formula_structural   SrSnAu
_chemical_formula_sum   'Sr12 Sn12 Au12'
_cell_volume   976.88198700
_cell_formula_units_Z   12
loop_
 _symmetry_equiv_pos_site_id
 _symmetry_equiv_pos_as_xyz
  1  'x, y, z'
loop_
 _atom_site_type_symbol
 _atom_site_label
 _atom_site_symmetry_multiplicity
 _atom_site_fract_x
 _atom_site_fract_y
 _atom_site_fract_z
 _atom_site_occupancy
  Sr  Sr0  1  0.75000000  0.21189200  0.49785600  1
  Sr  Sr1  1  0.25000000  0.79119500  0.16607600  1
  Sr  Sr2  1  0.25000000  0.78810800  0.50214400  1
  Sr  Sr3  1  0.25000000  0.79281900  0.83321000  1
  Sr  Sr4  1  0.25000000  0.70718100  0.33321000  1
  Sr  Sr5  1  0.75000000  0.20880500  0.83392400  1
  Sr  Sr6  1  0.75000000  0.28810800  0.99785600  1
  Sr  Sr7  1  0.75000000  0.29281900  0.66679000  1
  Sr  Sr8  1  0.75000000  0.29119500  0.33392400  1
  Sr  Sr9  1  0.25000000  0.70880500  0.66607600  1
  Sr  Sr10  1  0.25000000  0.71189200  0.00214400  1
  Sr  Sr11  1  0.75000000  0.20718100  0.16679000  1
  Sn  Sn12  1  0.25000000  0.41411000  0.56595000  1
  Sn  Sn13  1  0.25000000  0.08369000  0.39819200  1
  Sn  Sn14  1  0.25000000  0.08589000  0.06595000  1
  Sn  Sn15  1  0.25000000  0.41631000  0.89819200  1
  Sn  Sn16  1  0.75000000  0.58369000  0.10180800  1
  Sn  Sn17  1  0.25000000  0.41778800  0.76898000  1
  Sn  Sn18  1  0.75000000  0.58221200  0.23102000  1
  Sn  Sn19  1  0.75000000  0.58589000  0.43405000  1
  Sn  Sn20  1  0.75000000  0.91411000  0.93405000  1
  Sn  Sn21  1  0.25000000  0.08221200  0.26898000  1
  Sn  Sn22  1  0.75000000  0.91631000  0.60180800  1
  Sn  Sn23  1  0.75000000  0.91778800  0.73102000  1
  Au  Au24  1  0.25000000  0.08687800  0.59378500  1
  Au  Au25  1  0.25000000  0.08690400  0.73879800  1
  Au  Au26  1  0.75000000  0.58687800  0.90621500  1
  Au  Au27  1  0.75000000  0.91312200  0.40621500  1
  Au  Au28  1  0.75000000  0.58409400  0.56698300  1
  Au  Au29  1  0.75000000  0.58690400  0.76120200  1
  Au  Au30  1  0.25000000  0.41590600  0.43301700  1
  Au  Au31  1  0.25000000  0.41309600  0.23879800  1
  Au  Au32  1  0.75000000  0.91590600  0.06698300  1
  Au  Au33  1  0.25000000  0.41312200  0.09378500  1
  Au  Au34  1  0.25000000  0.08409400  0.93301700  1
  Au  Au35  1  0.75000000  0.91309600  0.26120200  1
