# generated using pymatgen
data_Sc(Al2Fe)4
_symmetry_space_group_name_H-M   'P 1'
_cell_length_a   6.57373329
_cell_length_b   6.57373329
_cell_length_c   6.57373329
_cell_angle_alpha   98.32423565
_cell_angle_beta   98.32423565
_cell_angle_gamma   135.27158118
_symmetry_Int_Tables_number   1
_chemical_formula_structural   Sc(Al2Fe)4
_chemical_formula_sum   'Sc1 Al8 Fe4'
_cell_volume   184.88137437
_cell_formula_units_Z   1
loop_
 _symmetry_equiv_pos_site_id
 _symmetry_equiv_pos_as_xyz
  1  'x, y, z'
loop_
 _atom_site_type_symbol
 _atom_site_label
 _atom_site_symmetry_multiplicity
 _atom_site_fract_x
 _atom_site_fract_y
 _atom_site_fract_z
 _atom_site_occupancy
  Sc  Sc0  1  0.00000000  0.00000000  0.00000000  1
  Al  Al1  1  0.66443700  0.00000000  0.66443700  1
  Al  Al2  1  0.00000000  0.66443700  0.66443700  1
  Al  Al3  1  0.00000000  0.33556300  0.33556300  1
  Al  Al4  1  0.33556300  0.00000000  0.33556300  1
  Al  Al5  1  0.71785700  0.50000000  0.21785700  1
  Al  Al6  1  0.28214300  0.50000000  0.78214300  1
  Al  Al7  1  0.50000000  0.28214300  0.78214300  1
  Al  Al8  1  0.50000000  0.71785700  0.21785700  1
  Fe  Fe9  1  0.50000000  0.00000000  0.00000000  1
  Fe  Fe10  1  0.00000000  0.50000000  0.00000000  1
  Fe  Fe11  1  0.50000000  0.50000000  0.50000000  1
  Fe  Fe12  1  0.00000000  0.00000000  0.50000000  1
