# generated using pymatgen
data_Ca4P7Ir8
_symmetry_space_group_name_H-M   'P 1'
_cell_length_a   3.98246100
_cell_length_b   12.63393500
_cell_length_c   13.16998435
_cell_angle_alpha   81.08292003
_cell_angle_beta   90.00000000
_cell_angle_gamma   90.00000000
_symmetry_Int_Tables_number   1
_chemical_formula_structural   Ca4P7Ir8
_chemical_formula_sum   'Ca8 P14 Ir16'
_cell_volume   654.62778975
_cell_formula_units_Z   2
loop_
 _symmetry_equiv_pos_site_id
 _symmetry_equiv_pos_as_xyz
  1  'x, y, z'
loop_
 _atom_site_type_symbol
 _atom_site_label
 _atom_site_symmetry_multiplicity
 _atom_site_fract_x
 _atom_site_fract_y
 _atom_site_fract_z
 _atom_site_occupancy
  Ca  Ca0  1  0.75000000  0.78580200  0.56579000  1
  Ca  Ca1  1  0.25000000  0.21419800  0.43421000  1
  Ca  Ca2  1  0.75000000  0.48535700  0.70875900  1
  Ca  Ca3  1  0.25000000  0.51464300  0.29124100  1
  Ca  Ca4  1  0.75000000  0.71672400  0.89458000  1
  Ca  Ca5  1  0.25000000  0.10378100  0.79261400  1
  Ca  Ca6  1  0.75000000  0.89621900  0.20738600  1
  Ca  Ca7  1  0.25000000  0.28327600  0.10542000  1
  P  P8  1  0.25000000  0.90873500  0.41240600  1
  P  P9  1  0.75000000  0.47143200  0.12821100  1
  P  P10  1  0.25000000  0.52856800  0.87178900  1
  P  P11  1  0.75000000  0.09126500  0.58759400  1
  P  P12  1  0.25000000  0.74147200  0.07964400  1
  P  P13  1  0.75000000  0.25852800  0.92035600  1
  P  P14  1  0.75000000  0.15500400  0.28076300  1
  P  P15  1  0.25000000  0.84499600  0.71923700  1
  P  P16  1  0.25000000  0.05625500  0.09936300  1
  P  P17  1  0.75000000  0.94374500  0.90063700  1
  P  P18  1  0.25000000  0.30973200  0.68817200  1
  P  P19  1  0.75000000  0.69026800  0.31182800  1
  P  P20  1  0.25000000  0.61032800  0.56230800  1
  P  P21  1  0.75000000  0.38967200  0.43769200  1
  Ir  Ir22  1  0.25000000  0.98595500  0.57497400  1
  Ir  Ir23  1  0.75000000  0.01404500  0.42502600  1
  Ir  Ir24  1  0.25000000  0.66303700  0.72720400  1
  Ir  Ir25  1  0.75000000  0.33696300  0.27279600  1
  Ir  Ir26  1  0.25000000  0.55400300  0.04824000  1
  Ir  Ir27  1  0.75000000  0.44599700  0.95176000  1
  Ir  Ir28  1  0.25000000  0.06124000  0.27401100  1
  Ir  Ir29  1  0.75000000  0.93876000  0.72598900  1
  Ir  Ir30  1  0.25000000  0.42330400  0.52749600  1
  Ir  Ir31  1  0.75000000  0.57669600  0.47250400  1
  Ir  Ir32  1  0.25000000  0.91691400  0.99886800  1
  Ir  Ir33  1  0.75000000  0.08308600  0.00113200  1
  Ir  Ir34  1  0.25000000  0.72858400  0.39576200  1
  Ir  Ir35  1  0.75000000  0.27141600  0.60423800  1
  Ir  Ir36  1  0.25000000  0.33933400  0.85804700  1
  Ir  Ir37  1  0.75000000  0.66066600  0.14195300  1
