# generated using pymatgen
data_TbAgTe2
_symmetry_space_group_name_H-M   'P 1'
_cell_length_a   7.13318900
_cell_length_b   7.13318900
_cell_length_c   4.75690500
_cell_angle_alpha   90.00000000
_cell_angle_beta   90.00000000
_cell_angle_gamma   90.00000000
_symmetry_Int_Tables_number   1
_chemical_formula_structural   TbAgTe2
_chemical_formula_sum   'Tb2 Ag2 Te4'
_cell_volume   242.04267309
_cell_formula_units_Z   2
loop_
 _symmetry_equiv_pos_site_id
 _symmetry_equiv_pos_as_xyz
  1  'x, y, z'
loop_
 _atom_site_type_symbol
 _atom_site_label
 _atom_site_symmetry_multiplicity
 _atom_site_fract_x
 _atom_site_fract_y
 _atom_site_fract_z
 _atom_site_occupancy
  Tb  Tb0  1  0.50000000  0.00000000  0.19068800  1
  Tb  Tb1  1  0.00000000  0.50000000  0.80931200  1
  Ag  Ag2  1  0.00000000  0.00000000  0.00000000  1
  Ag  Ag3  1  0.50000000  0.50000000  0.00000000  1
  Te  Te4  1  0.20192000  0.29808000  0.29014200  1
  Te  Te5  1  0.70192000  0.20192000  0.70985800  1
  Te  Te6  1  0.79808000  0.70192000  0.29014200  1
  Te  Te7  1  0.29808000  0.79808000  0.70985800  1
