# generated using pymatgen
data_Al45Cr7
_symmetry_space_group_name_H-M   'P 1'
_cell_length_a   10.97133673
_cell_length_b   10.97133673
_cell_length_c   10.92766150
_cell_angle_alpha   73.73510682
_cell_angle_beta   73.73510682
_cell_angle_gamma   40.31091484
_symmetry_Int_Tables_number   1
_chemical_formula_structural   Al45Cr7
_chemical_formula_sum   'Al45 Cr7'
_cell_volume   812.20057252
_cell_formula_units_Z   1
loop_
 _symmetry_equiv_pos_site_id
 _symmetry_equiv_pos_as_xyz
  1  'x, y, z'
loop_
 _atom_site_type_symbol
 _atom_site_label
 _atom_site_symmetry_multiplicity
 _atom_site_fract_x
 _atom_site_fract_y
 _atom_site_fract_z
 _atom_site_occupancy
  Al  Al0  1  0.50000000  0.50000000  0.50000000  1
  Al  Al1  1  0.38492100  0.38492100  0.22918100  1
  Al  Al2  1  0.61507900  0.61507900  0.77081900  1
  Al  Al3  1  0.70757800  0.70757800  0.51397900  1
  Al  Al4  1  0.29242200  0.29242200  0.48602100  1
  Al  Al5  1  0.62594400  0.62594400  0.36591500  1
  Al  Al6  1  0.37405600  0.37405600  0.63408500  1
  Al  Al7  1  0.47794700  0.47794700  0.75634900  1
  Al  Al8  1  0.52205300  0.52205300  0.24365100  1
  Al  Al9  1  0.91943200  0.91943200  0.43962000  1
  Al  Al10  1  0.08056800  0.08056800  0.56038000  1
  Al  Al11  1  0.87151500  0.87151500  0.11213300  1
  Al  Al12  1  0.12848500  0.12848500  0.88786700  1
  Al  Al13  1  0.90961300  0.90961300  0.84257500  1
  Al  Al14  1  0.09038700  0.09038700  0.15742500  1
  Al  Al15  1  0.77602000  0.77602000  0.99061400  1
  Al  Al16  1  0.22398000  0.22398000  0.00938600  1
  Al  Al17  1  0.00516900  0.63143400  0.35492200  1
  Al  Al18  1  0.36856600  0.99483100  0.64507800  1
  Al  Al19  1  0.99483100  0.36856600  0.64507800  1
  Al  Al20  1  0.63143400  0.00516900  0.35492200  1
  Al  Al21  1  0.24837800  0.61305900  0.99022400  1
  Al  Al22  1  0.38694100  0.75162200  0.00977600  1
  Al  Al23  1  0.75162200  0.38694100  0.00977600  1
  Al  Al24  1  0.61305900  0.24837800  0.99022400  1
  Al  Al25  1  0.22435100  0.84743700  0.79485400  1
  Al  Al26  1  0.15256300  0.77564900  0.20514600  1
  Al  Al27  1  0.77564900  0.15256300  0.20514600  1
  Al  Al28  1  0.84743700  0.22435100  0.79485400  1
  Al  Al29  1  0.00450400  0.37505000  0.38090500  1
  Al  Al30  1  0.62495000  0.99549600  0.61909500  1
  Al  Al31  1  0.99549600  0.62495000  0.61909500  1
  Al  Al32  1  0.37505000  0.00450400  0.38090500  1
  Al  Al33  1  0.15104900  0.75777700  0.62175700  1
  Al  Al34  1  0.24222300  0.84895100  0.37824300  1
  Al  Al35  1  0.84895100  0.24222300  0.37824300  1
  Al  Al36  1  0.75777700  0.15104900  0.62175700  1
  Al  Al37  1  0.14152300  0.52763200  0.85476900  1
  Al  Al38  1  0.47236800  0.85847700  0.14523100  1
  Al  Al39  1  0.85847700  0.47236800  0.14523100  1
  Al  Al40  1  0.52763200  0.14152300  0.85476900  1
  Al  Al41  1  0.10613600  0.48089400  0.13430200  1
  Al  Al42  1  0.51910600  0.89386400  0.86569800  1
  Al  Al43  1  0.89386400  0.51910600  0.86569800  1
  Al  Al44  1  0.48089400  0.10613600  0.13430200  1
  Cr  Cr45  1  0.00000000  0.00000000  0.00000000  1
  Cr  Cr46  1  0.74979400  0.74979400  0.23827300  1
  Cr  Cr47  1  0.25020600  0.25020600  0.76172700  1
  Cr  Cr48  1  0.24009300  0.58950400  0.41788700  1
  Cr  Cr49  1  0.41049600  0.75990700  0.58211300  1
  Cr  Cr50  1  0.75990700  0.41049600  0.58211300  1
  Cr  Cr51  1  0.58950400  0.24009300  0.41788700  1
