# generated using pymatgen
data_Rb2ZnI4
_symmetry_space_group_name_H-M   'P 1'
_cell_length_a   8.35640400
_cell_length_b   7.93803000
_cell_length_c   10.53940515
_cell_angle_alpha   70.77774275
_cell_angle_beta   90.00000000
_cell_angle_gamma   90.00000000
_symmetry_Int_Tables_number   1
_chemical_formula_structural   Rb2ZnI4
_chemical_formula_sum   'Rb4 Zn2 I8'
_cell_volume   660.13778125
_cell_formula_units_Z   2
loop_
 _symmetry_equiv_pos_site_id
 _symmetry_equiv_pos_as_xyz
  1  'x, y, z'
loop_
 _atom_site_type_symbol
 _atom_site_label
 _atom_site_symmetry_multiplicity
 _atom_site_fract_x
 _atom_site_fract_y
 _atom_site_fract_z
 _atom_site_occupancy
  Rb  Rb0  1  0.25000000  0.78754200  0.41729900  1
  Rb  Rb1  1  0.75000000  0.21245800  0.58270100  1
  Rb  Rb2  1  0.75000000  0.29923600  0.03958800  1
  Rb  Rb3  1  0.25000000  0.70076400  0.96041200  1
  Zn  Zn4  1  0.75000000  0.70061300  0.21370000  1
  Zn  Zn5  1  0.25000000  0.29938700  0.78630000  1
  I  I6  1  0.25000000  0.13079400  0.04924400  1
  I  I7  1  0.75000000  0.86920600  0.95075600  1
  I  I8  1  0.25000000  0.08139100  0.64402500  1
  I  I9  1  0.75000000  0.91860900  0.35597500  1
  I  I10  1  0.99847100  0.51338100  0.72530400  1
  I  I11  1  0.49847100  0.48661900  0.27469600  1
  I  I12  1  0.00152900  0.48661900  0.27469600  1
  I  I13  1  0.50152900  0.51338100  0.72530400  1
