# generated using pymatgen
data_Sm(GePd)2
_symmetry_space_group_name_H-M   'P 1'
_cell_length_a   5.94258571
_cell_length_b   5.94258571
_cell_length_c   5.94258571
_cell_angle_alpha   137.33280134
_cell_angle_beta   137.33280134
_cell_angle_gamma   61.92639648
_symmetry_Int_Tables_number   1
_chemical_formula_structural   Sm(GePd)2
_chemical_formula_sum   'Sm1 Ge2 Pd2'
_cell_volume   95.26621926
_cell_formula_units_Z   1
loop_
 _symmetry_equiv_pos_site_id
 _symmetry_equiv_pos_as_xyz
  1  'x, y, z'
loop_
 _atom_site_type_symbol
 _atom_site_label
 _atom_site_symmetry_multiplicity
 _atom_site_fract_x
 _atom_site_fract_y
 _atom_site_fract_z
 _atom_site_occupancy
  Sm  Sm0  1  0.00000000  0.00000000  0.00000000  1
  Ge  Ge1  1  0.62149400  0.62149400  0.00000000  1
  Ge  Ge2  1  0.37850600  0.37850600  0.00000000  1
  Pd  Pd3  1  0.25000000  0.75000000  0.50000000  1
  Pd  Pd4  1  0.75000000  0.25000000  0.50000000  1
