# generated using pymatgen
data_Ho2Co12P7
_symmetry_space_group_name_H-M   'P 1'
_cell_length_a   8.99958815
_cell_length_b   8.99958815
_cell_length_c   3.58185300
_cell_angle_alpha   90.00000000
_cell_angle_beta   90.00000000
_cell_angle_gamma   120.00000107
_symmetry_Int_Tables_number   1
_chemical_formula_structural   Ho2Co12P7
_chemical_formula_sum   'Ho2 Co12 P7'
_cell_volume   251.23703264
_cell_formula_units_Z   1
loop_
 _symmetry_equiv_pos_site_id
 _symmetry_equiv_pos_as_xyz
  1  'x, y, z'
loop_
 _atom_site_type_symbol
 _atom_site_label
 _atom_site_symmetry_multiplicity
 _atom_site_fract_x
 _atom_site_fract_y
 _atom_site_fract_z
 _atom_site_occupancy
  Ho  Ho0  1  0.66666700  0.33333300  0.50000000  1
  Ho  Ho1  1  0.33333300  0.66666700  0.00000000  1
  Co  Co2  1  0.11913300  0.84633300  0.00000000  1
  Co  Co3  1  0.38250300  0.43522800  0.50000000  1
  Co  Co4  1  0.72720000  0.88086700  0.00000000  1
  Co  Co5  1  0.56477200  0.94727400  0.50000000  1
  Co  Co6  1  0.23406300  0.10251400  0.50000000  1
  Co  Co7  1  0.86845100  0.76593700  0.50000000  1
  Co  Co8  1  0.89748600  0.13154900  0.50000000  1
  Co  Co9  1  0.93994700  0.37437900  0.00000000  1
  Co  Co10  1  0.62562100  0.56556900  0.00000000  1
  Co  Co11  1  0.43443100  0.06005300  0.00000000  1
  Co  Co12  1  0.05272600  0.61749700  0.50000000  1
  Co  Co13  1  0.15366700  0.27280000  0.00000000  1
  P  P14  1  0.00000000  0.00000000  0.00000000  1
  P  P15  1  0.59731700  0.70869500  0.50000000  1
  P  P16  1  0.70631500  0.11287800  0.00000000  1
  P  P17  1  0.88712200  0.59343800  0.00000000  1
  P  P18  1  0.40656200  0.29368500  0.00000000  1
  P  P19  1  0.29130500  0.88862200  0.50000000  1
  P  P20  1  0.11137800  0.40268300  0.50000000  1
