# generated using pymatgen
data_Ca4As7Ir8
_symmetry_space_group_name_H-M   'P 1'
_cell_length_a   4.12424200
_cell_length_b   13.07853800
_cell_length_c   13.63517509
_cell_angle_alpha   81.85636930
_cell_angle_beta   90.00000000
_cell_angle_gamma   90.00000000
_symmetry_Int_Tables_number   1
_chemical_formula_structural   Ca4As7Ir8
_chemical_formula_sum   'Ca8 As14 Ir16'
_cell_volume   728.05205965
_cell_formula_units_Z   2
loop_
 _symmetry_equiv_pos_site_id
 _symmetry_equiv_pos_as_xyz
  1  'x, y, z'
loop_
 _atom_site_type_symbol
 _atom_site_label
 _atom_site_symmetry_multiplicity
 _atom_site_fract_x
 _atom_site_fract_y
 _atom_site_fract_z
 _atom_site_occupancy
  Ca  Ca0  1  0.25000000  0.10114800  0.79825100  1
  Ca  Ca1  1  0.75000000  0.89885200  0.20174900  1
  Ca  Ca2  1  0.25000000  0.28877900  0.10481000  1
  Ca  Ca3  1  0.75000000  0.71122100  0.89519000  1
  Ca  Ca4  1  0.25000000  0.51464800  0.29044300  1
  Ca  Ca5  1  0.75000000  0.48535200  0.70955700  1
  Ca  Ca6  1  0.25000000  0.21412100  0.43269800  1
  Ca  Ca7  1  0.75000000  0.78587900  0.56730200  1
  As  As8  1  0.25000000  0.06009700  0.10143700  1
  As  As9  1  0.75000000  0.93990300  0.89856300  1
  As  As10  1  0.25000000  0.30867900  0.68919700  1
  As  As11  1  0.75000000  0.69132100  0.31080300  1
  As  As12  1  0.25000000  0.60868900  0.56585400  1
  As  As13  1  0.75000000  0.39131100  0.43414600  1
  As  As14  1  0.25000000  0.84885600  0.72102800  1
  As  As15  1  0.75000000  0.15114400  0.27897200  1
  As  As16  1  0.75000000  0.25595500  0.91952800  1
  As  As17  1  0.25000000  0.74404500  0.08047200  1
  As  As18  1  0.75000000  0.09675600  0.58457700  1
  As  As19  1  0.25000000  0.90324400  0.41542300  1
  As  As20  1  0.75000000  0.46898100  0.12825700  1
  As  As21  1  0.25000000  0.53101900  0.87174300  1
  Ir  Ir22  1  0.25000000  0.98584400  0.57266900  1
  Ir  Ir23  1  0.75000000  0.01415600  0.42733100  1
  Ir  Ir24  1  0.25000000  0.66542300  0.72953000  1
  Ir  Ir25  1  0.75000000  0.33457700  0.27047000  1
  Ir  Ir26  1  0.25000000  0.55505500  0.04800900  1
  Ir  Ir27  1  0.75000000  0.44494500  0.95199100  1
  Ir  Ir28  1  0.25000000  0.05331800  0.28100000  1
  Ir  Ir29  1  0.75000000  0.94668200  0.71900000  1
  Ir  Ir30  1  0.25000000  0.42489200  0.52765500  1
  Ir  Ir31  1  0.75000000  0.57510800  0.47234500  1
  Ir  Ir32  1  0.25000000  0.92085700  0.99813300  1
  Ir  Ir33  1  0.75000000  0.07914300  0.00186700  1
  Ir  Ir34  1  0.25000000  0.72038200  0.40080700  1
  Ir  Ir35  1  0.75000000  0.27961800  0.59919300  1
  Ir  Ir36  1  0.25000000  0.34240700  0.86077000  1
  Ir  Ir37  1  0.75000000  0.65759300  0.13923000  1
