# generated using pymatgen
data_B5H6Br
_symmetry_space_group_name_H-M   'P 1'
_cell_length_a   7.59148500
_cell_length_b   12.22557000
_cell_length_c   13.77800838
_cell_angle_alpha   69.18913526
_cell_angle_beta   90.00000000
_cell_angle_gamma   90.00000000
_symmetry_Int_Tables_number   1
_chemical_formula_structural   B5H6Br
_chemical_formula_sum   'B40 H48 Br8'
_cell_volume   1195.31299205
_cell_formula_units_Z   8
loop_
 _symmetry_equiv_pos_site_id
 _symmetry_equiv_pos_as_xyz
  1  'x, y, z'
loop_
 _atom_site_type_symbol
 _atom_site_label
 _atom_site_symmetry_multiplicity
 _atom_site_fract_x
 _atom_site_fract_y
 _atom_site_fract_z
 _atom_site_occupancy
  B  B0  1  0.92429900  0.31374500  0.21039900  1
  B  B1  1  0.42429900  0.18625500  0.78960100  1
  B  B2  1  0.07570100  0.68625500  0.78960100  1
  B  B3  1  0.57570100  0.81374500  0.21039900  1
  B  B4  1  0.72766200  0.34760100  0.26486100  1
  B  B5  1  0.22766200  0.15239900  0.73513900  1
  B  B6  1  0.27233800  0.65239900  0.73513900  1
  B  B7  1  0.77233800  0.84760100  0.26486100  1
  B  B8  1  0.80033600  0.39494000  0.36626800  1
  B  B9  1  0.30033600  0.10506000  0.63373200  1
  B  B10  1  0.19966400  0.60506000  0.63373200  1
  B  B11  1  0.69966400  0.89494000  0.36626800  1
  B  B12  1  0.98667300  0.51256200  0.33453500  1
  B  B13  1  0.48667300  0.98743800  0.66546500  1
  B  B14  1  0.01332700  0.48743800  0.66546500  1
  B  B15  1  0.51332700  0.01256200  0.33453500  1
  B  B16  1  0.06855800  0.56534600  0.20521500  1
  B  B17  1  0.56855800  0.93465400  0.79478500  1
  B  B18  1  0.93144200  0.43465400  0.79478500  1
  B  B19  1  0.43144200  0.06534600  0.20521500  1
  B  B20  1  0.11421700  0.43714700  0.17622000  1
  B  B21  1  0.61421700  0.06285300  0.82378000  1
  B  B22  1  0.88578300  0.56285300  0.82378000  1
  B  B23  1  0.38578300  0.93714700  0.17622000  1
  B  B24  1  0.39599000  0.81321300  0.29067600  1
  B  B25  1  0.39135600  0.23117100  0.65288600  1
  B  B26  1  0.10864400  0.73117100  0.65288600  1
  B  B27  1  0.60864400  0.76882900  0.34711400  1
  B  B28  1  0.02444200  0.36182500  0.39021800  1
  B  B29  1  0.52444200  0.13817500  0.60978200  1
  B  B30  1  0.97555800  0.63817500  0.60978200  1
  B  B31  1  0.47555800  0.86182500  0.39021800  1
  B  B32  1  0.17583400  0.44987400  0.29672000  1
  B  B33  1  0.67583400  0.05012600  0.70328000  1
  B  B34  1  0.82416600  0.55012600  0.70328000  1
  B  B35  1  0.32416600  0.94987400  0.29672000  1
  B  B36  1  0.10401000  0.31321300  0.29067600  1
  B  B37  1  0.60401000  0.18678700  0.70932400  1
  B  B38  1  0.89599000  0.68678700  0.70932400  1
  B  B39  1  0.89135600  0.26882900  0.34711400  1
  H  H40  1  0.80295000  0.39616800  0.17026900  1
  H  H41  1  0.30295000  0.10383200  0.82973100  1
  H  H42  1  0.19705000  0.60383200  0.82973100  1
  H  H43  1  0.69705000  0.89616800  0.17026900  1
  H  H44  1  0.58248300  0.32019500  0.25029100  1
  H  H45  1  0.08248300  0.17980500  0.74970900  1
  H  H46  1  0.41751700  0.67980500  0.74970900  1
  H  H47  1  0.91751700  0.82019500  0.25029100  1
  H  H48  1  0.71771500  0.45146600  0.27698800  1
  H  H49  1  0.21771500  0.04853400  0.72301200  1
  H  H50  1  0.28228500  0.54853400  0.72301200  1
  H  H51  1  0.78228500  0.95146600  0.27698800  1
  H  H52  1  0.69673300  0.39428700  0.43141900  1
  H  H53  1  0.19673300  0.10571300  0.56858100  1
  H  H54  1  0.30326700  0.60571300  0.56858100  1
  H  H55  1  0.80326700  0.89428700  0.43141900  1
  H  H56  1  0.98900500  0.57599500  0.38311900  1
  H  H57  1  0.48900500  0.92400500  0.61688100  1
  H  H58  1  0.01099500  0.42400500  0.61688100  1
  H  H59  1  0.51099500  0.07599500  0.38311900  1
  H  H60  1  0.91046500  0.57524300  0.24503600  1
  H  H61  1  0.41046500  0.92475700  0.75496400  1
  H  H62  1  0.08953500  0.42475700  0.75496400  1
  H  H63  1  0.28835400  0.73967100  0.29781900  1
  H  H64  1  0.11779400  0.66132400  0.15558100  1
  H  H65  1  0.61779400  0.83867600  0.84441900  1
  H  H66  1  0.88220600  0.33867600  0.84441900  1
  H  H67  1  0.38220600  0.16132400  0.15558100  1
  H  H68  1  0.99552900  0.52131300  0.13711000  1
  H  H69  1  0.49552900  0.97868700  0.86289000  1
  H  H70  1  0.00447100  0.47868700  0.86289000  1
  H  H71  1  0.50447100  0.02131300  0.13711000  1
  H  H72  1  0.86589800  0.16969800  0.40126800  1
  H  H73  1  0.36589800  0.33030200  0.59873200  1
  H  H74  1  0.13410200  0.83030200  0.59873200  1
  H  H75  1  0.63410200  0.66969800  0.40126800  1
  H  H76  1  0.06637100  0.32820000  0.47944700  1
  H  H77  1  0.56637100  0.17180000  0.52055300  1
  H  H78  1  0.93362900  0.67180000  0.52055300  1
  H  H79  1  0.43362900  0.82820000  0.47944700  1
  H  H80  1  0.32417700  0.46127900  0.31981100  1
  H  H81  1  0.82417700  0.03872100  0.68018900  1
  H  H82  1  0.67582300  0.53872100  0.68018900  1
  H  H83  1  0.17582300  0.96127900  0.31981100  1
  H  H84  1  0.21164600  0.23967100  0.29781900  1
  H  H85  1  0.71164600  0.26032900  0.70218100  1
  H  H86  1  0.78835400  0.76032900  0.70218100  1
  H  H87  1  0.58953500  0.07524300  0.24503600  1
  Br  Br88  1  0.91640700  0.21407300  0.12660500  1
  Br  Br89  1  0.41640700  0.28592700  0.87339500  1
  Br  Br90  1  0.08359300  0.78592700  0.87339500  1
  Br  Br91  1  0.58359300  0.71407300  0.12660500  1
  Br  Br92  1  0.27296100  0.44638000  0.06164000  1
  Br  Br93  1  0.77296100  0.05362000  0.93836000  1
  Br  Br94  1  0.72703900  0.55362000  0.93836000  1
  Br  Br95  1  0.22703900  0.94638000  0.06164000  1
