# generated using pymatgen
data_ErGaPd
_symmetry_space_group_name_H-M   'P 1'
_cell_length_a   4.45783500
_cell_length_b   6.87955700
_cell_length_c   7.64293900
_cell_angle_alpha   90.00000000
_cell_angle_beta   90.00000000
_cell_angle_gamma   90.00000000
_symmetry_Int_Tables_number   1
_chemical_formula_structural   ErGaPd
_chemical_formula_sum   'Er4 Ga4 Pd4'
_cell_volume   234.39311809
_cell_formula_units_Z   4
loop_
 _symmetry_equiv_pos_site_id
 _symmetry_equiv_pos_as_xyz
  1  'x, y, z'
loop_
 _atom_site_type_symbol
 _atom_site_label
 _atom_site_symmetry_multiplicity
 _atom_site_fract_x
 _atom_site_fract_y
 _atom_site_fract_z
 _atom_site_occupancy
  Er  Er0  1  0.25000000  0.48493200  0.19924300  1
  Er  Er1  1  0.75000000  0.51506800  0.80075700  1
  Er  Er2  1  0.25000000  0.98493200  0.30075700  1
  Er  Er3  1  0.75000000  0.01506800  0.69924300  1
  Ga  Ga4  1  0.25000000  0.82247200  0.92351300  1
  Ga  Ga5  1  0.75000000  0.17752800  0.07648700  1
  Ga  Ga6  1  0.25000000  0.32247200  0.57648700  1
  Ga  Ga7  1  0.75000000  0.67752800  0.42351300  1
  Pd  Pd8  1  0.75000000  0.77850300  0.09535700  1
  Pd  Pd9  1  0.25000000  0.22149700  0.90464300  1
  Pd  Pd10  1  0.75000000  0.27850300  0.40464300  1
  Pd  Pd11  1  0.25000000  0.72149700  0.59535700  1
