# generated using pymatgen
data_Ho2Al3Si2
_symmetry_space_group_name_H-M   'P 1'
_cell_length_a   5.46722788
_cell_length_b   5.46722788
_cell_length_c   6.61284408
_cell_angle_alpha   79.85679108
_cell_angle_beta   79.85679108
_cell_angle_gamma   43.16371258
_symmetry_Int_Tables_number   1
_chemical_formula_structural   Ho2Al3Si2
_chemical_formula_sum   'Ho2 Al3 Si2'
_cell_volume   132.77041371
_cell_formula_units_Z   1
loop_
 _symmetry_equiv_pos_site_id
 _symmetry_equiv_pos_as_xyz
  1  'x, y, z'
loop_
 _atom_site_type_symbol
 _atom_site_label
 _atom_site_symmetry_multiplicity
 _atom_site_fract_x
 _atom_site_fract_y
 _atom_site_fract_z
 _atom_site_occupancy
  Ho  Ho0  1  0.61992200  0.61992200  0.67694900  1
  Ho  Ho1  1  0.38007800  0.38007800  0.32305100  1
  Al  Al2  1  0.30531500  0.30531500  0.86647400  1
  Al  Al3  1  0.00000000  0.00000000  0.00000000  1
  Al  Al4  1  0.69468500  0.69468500  0.13352600  1
  Si  Si5  1  0.09323000  0.09323000  0.36001300  1
  Si  Si6  1  0.90677000  0.90677000  0.63998700  1
