# generated using pymatgen
data_H4NCl
_symmetry_space_group_name_H-M   'P 1'
_cell_length_a   3.87711500
_cell_length_b   3.87711500
_cell_length_c   3.87711500
_cell_angle_alpha   90.00000000
_cell_angle_beta   90.00000000
_cell_angle_gamma   90.00000000
_symmetry_Int_Tables_number   1
_chemical_formula_structural   H4NCl
_chemical_formula_sum   'H4 N1 Cl1'
_cell_volume   58.28087303
_cell_formula_units_Z   1
loop_
 _symmetry_equiv_pos_site_id
 _symmetry_equiv_pos_as_xyz
  1  'x, y, z'
loop_
 _atom_site_type_symbol
 _atom_site_label
 _atom_site_symmetry_multiplicity
 _atom_site_fract_x
 _atom_site_fract_y
 _atom_site_fract_z
 _atom_site_occupancy
  H  H0  1  0.15515300  0.15515300  0.84484700  1
  H  H1  1  0.15515300  0.84484700  0.15515300  1
  H  H2  1  0.84484700  0.15515300  0.15515300  1
  H  H3  1  0.84484700  0.84484700  0.84484700  1
  N  N4  1  0.00000000  0.00000000  0.00000000  1
  Cl  Cl5  1  0.50000000  0.50000000  0.50000000  1
