# generated using pymatgen
data_Na14Al4O13
_symmetry_space_group_name_H-M   'P 1'
_cell_length_a   27.36852800
_cell_length_b   6.01054800
_cell_length_c   6.01747130
_cell_angle_alpha   60.38959638
_cell_angle_beta   90.00000000
_cell_angle_gamma   90.00000000
_symmetry_Int_Tables_number   1
_chemical_formula_structural   Na14Al4O13
_chemical_formula_sum   'Na28 Al8 O26'
_cell_volume   860.60087621
_cell_formula_units_Z   2
loop_
 _symmetry_equiv_pos_site_id
 _symmetry_equiv_pos_as_xyz
  1  'x, y, z'
loop_
 _atom_site_type_symbol
 _atom_site_label
 _atom_site_symmetry_multiplicity
 _atom_site_fract_x
 _atom_site_fract_y
 _atom_site_fract_z
 _atom_site_occupancy
  Na  Na0  1  0.44610600  0.35004200  0.50217800  1
  Na  Na1  1  0.38884100  0.74939900  0.96673100  1
  Na  Na2  1  0.99972000  0.76581300  0.46695000  1
  Na  Na3  1  0.49972000  0.23418700  0.03305000  1
  Na  Na4  1  0.00028000  0.23418700  0.53305000  1
  Na  Na5  1  0.50028000  0.76581300  0.96695000  1
  Na  Na6  1  0.11245600  0.21971500  0.53497100  1
  Na  Na7  1  0.61245600  0.78028500  0.96502900  1
  Na  Na8  1  0.88754400  0.78028500  0.46502900  1
  Na  Na9  1  0.38754400  0.21971500  0.03497100  1
  Na  Na10  1  0.61115900  0.25060100  0.03326900  1
  Na  Na11  1  0.11115900  0.74939900  0.46673100  1
  Na  Na12  1  0.27558100  0.21185400  0.06070200  1
  Na  Na13  1  0.77558100  0.78814600  0.43929800  1
  Na  Na14  1  0.72441900  0.78814600  0.93929800  1
  Na  Na15  1  0.22441900  0.21185400  0.56070200  1
  Na  Na16  1  0.33984600  0.63064500  0.50721300  1
  Na  Na17  1  0.83984600  0.36935500  0.99278700  1
  Na  Na18  1  0.21847800  0.78714800  0.45116200  1
  Na  Na19  1  0.16015400  0.63064500  0.00721300  1
  Na  Na20  1  0.66015400  0.36935500  0.49278700  1
  Na  Na21  1  0.94610600  0.64995800  0.99782200  1
  Na  Na22  1  0.55389400  0.64995800  0.49782200  1
  Na  Na23  1  0.05389400  0.35004200  0.00217800  1
  Na  Na24  1  0.28152200  0.78714800  0.95116200  1
  Na  Na25  1  0.78152200  0.21285200  0.54883800  1
  Na  Na26  1  0.71847800  0.21285200  0.04883800  1
  Na  Na27  1  0.88884100  0.25060100  0.53326900  1
  Al  Al28  1  0.33482800  0.15482400  0.50004500  1
  Al  Al29  1  0.83482800  0.84517600  0.99995500  1
  Al  Al30  1  0.66517200  0.84517600  0.49995500  1
  Al  Al31  1  0.16517200  0.15482400  0.00004500  1
  Al  Al32  1  0.44501800  0.83585600  0.50006900  1
  Al  Al33  1  0.94501800  0.16414400  0.99993100  1
  Al  Al34  1  0.55498200  0.16414400  0.49993100  1
  Al  Al35  1  0.05498200  0.83585600  0.00006900  1
  O  O36  1  0.50000000  0.00000000  0.50000000  1
  O  O37  1  0.00000000  0.00000000  0.00000000  1
  O  O38  1  0.29000900  0.93566300  0.50804800  1
  O  O39  1  0.79000900  0.06433700  0.99195200  1
  O  O40  1  0.70999100  0.06433700  0.49195200  1
  O  O41  1  0.20999100  0.93566300  0.00804800  1
  O  O42  1  0.44286300  0.53685100  0.78400000  1
  O  O43  1  0.94286300  0.46314900  0.71600000  1
  O  O44  1  0.55713700  0.46314900  0.21600000  1
  O  O45  1  0.05713700  0.53685100  0.28400000  1
  O  O46  1  0.32917100  0.45338200  0.21367300  1
  O  O47  1  0.82917100  0.54661800  0.28632700  1
  O  O48  1  0.67082900  0.54661800  0.78632700  1
  O  O49  1  0.17082900  0.45338200  0.71367300  1
  O  O50  1  0.32974200  0.17958300  0.78148500  1
  O  O51  1  0.82974200  0.82041700  0.71851500  1
  O  O52  1  0.67025800  0.82041700  0.21851500  1
  O  O53  1  0.17025800  0.17958300  0.28148500  1
  O  O54  1  0.44307500  0.81726200  0.21691500  1
  O  O55  1  0.94307500  0.18273800  0.28308500  1
  O  O56  1  0.55692500  0.18273800  0.78308500  1
  O  O57  1  0.05692500  0.81726200  0.71691500  1
  O  O58  1  0.39526900  0.02947000  0.50033300  1
  O  O59  1  0.89526900  0.97053000  0.99966700  1
  O  O60  1  0.60473100  0.97053000  0.49966700  1
  O  O61  1  0.10473100  0.02947000  0.00033300  1
