# generated using pymatgen
data_Na2RuO3
_symmetry_space_group_name_H-M   'P 1'
_cell_length_a   5.49185020
_cell_length_b   5.49185020
_cell_length_c   5.66968324
_cell_angle_alpha   80.59112849
_cell_angle_beta   80.59112849
_cell_angle_gamma   120.00238766
_symmetry_Int_Tables_number   1
_chemical_formula_structural   Na2RuO3
_chemical_formula_sum   'Na4 Ru2 O6'
_cell_volume   139.94720466
_cell_formula_units_Z   2
loop_
 _symmetry_equiv_pos_site_id
 _symmetry_equiv_pos_as_xyz
  1  'x, y, z'
loop_
 _atom_site_type_symbol
 _atom_site_label
 _atom_site_symmetry_multiplicity
 _atom_site_fract_x
 _atom_site_fract_y
 _atom_site_fract_z
 _atom_site_occupancy
  Na  Na0  1  0.66036900  0.33963100  0.50000000  1
  Na  Na1  1  0.33963100  0.66036900  0.50000000  1
  Na  Na2  1  0.00000000  0.00000000  0.50000000  1
  Na  Na3  1  0.50000000  0.50000000  0.00000000  1
  Ru  Ru4  1  0.16683100  0.83316900  0.00000000  1
  Ru  Ru5  1  0.83316900  0.16683100  0.00000000  1
  O  O6  1  0.43105700  0.06151200  0.20361400  1
  O  O7  1  0.06151200  0.43105700  0.20361400  1
  O  O8  1  0.79900400  0.79900400  0.20690600  1
  O  O9  1  0.56894300  0.93848800  0.79638600  1
  O  O10  1  0.20099600  0.20099600  0.79309400  1
  O  O11  1  0.93848800  0.56894300  0.79638600  1
