# generated using pymatgen
data_Zr6Co23
_symmetry_space_group_name_H-M   'P 1'
_cell_length_a   8.13517233
_cell_length_b   8.13517194
_cell_length_c   8.13517200
_cell_angle_alpha   59.99999974
_cell_angle_beta   60.00000135
_cell_angle_gamma   59.99999929
_symmetry_Int_Tables_number   1
_chemical_formula_structural   Zr6Co23
_chemical_formula_sum   'Zr6 Co23'
_cell_volume   380.70206843
_cell_formula_units_Z   1
loop_
 _symmetry_equiv_pos_site_id
 _symmetry_equiv_pos_as_xyz
  1  'x, y, z'
loop_
 _atom_site_type_symbol
 _atom_site_label
 _atom_site_symmetry_multiplicity
 _atom_site_fract_x
 _atom_site_fract_y
 _atom_site_fract_z
 _atom_site_occupancy
  Zr  Zr0  1  0.78883100  0.21116900  0.21116900  1
  Zr  Zr1  1  0.78883100  0.78883100  0.21116900  1
  Zr  Zr2  1  0.21116900  0.21116900  0.78883100  1
  Zr  Zr3  1  0.78883100  0.21116900  0.78883100  1
  Zr  Zr4  1  0.21116900  0.78883100  0.21116900  1
  Zr  Zr5  1  0.21116900  0.78883100  0.78883100  1
  Co  Co6  1  0.50000000  0.50000000  0.50000000  1
  Co  Co7  1  0.50000000  0.00000000  0.00000000  1
  Co  Co8  1  0.00000000  0.00000000  0.50000000  1
  Co  Co9  1  0.50000000  0.50000000  0.00000000  1
  Co  Co10  1  0.00000000  0.50000000  0.50000000  1
  Co  Co11  1  0.00000000  0.50000000  0.00000000  1
  Co  Co12  1  0.50000000  0.00000000  0.50000000  1
  Co  Co13  1  0.37895500  0.37895500  0.37895500  1
  Co  Co14  1  0.62104500  0.62104500  0.13686500  1
  Co  Co15  1  0.13686500  0.62104500  0.62104500  1
  Co  Co16  1  0.62104500  0.13686500  0.62104500  1
  Co  Co17  1  0.86313500  0.37895500  0.37895500  1
  Co  Co18  1  0.37895500  0.86313500  0.37895500  1
  Co  Co19  1  0.37895500  0.37895500  0.86313500  1
  Co  Co20  1  0.62104500  0.62104500  0.62104500  1
  Co  Co21  1  0.17493700  0.17493700  0.17493700  1
  Co  Co22  1  0.82506300  0.82506300  0.52481000  1
  Co  Co23  1  0.52481000  0.82506300  0.82506300  1
  Co  Co24  1  0.82506300  0.52481000  0.82506300  1
  Co  Co25  1  0.47519000  0.17493700  0.17493700  1
  Co  Co26  1  0.17493700  0.47519000  0.17493700  1
  Co  Co27  1  0.17493700  0.17493700  0.47519000  1
  Co  Co28  1  0.82506300  0.82506300  0.82506300  1
