# generated using pymatgen
data_PrPS4
_symmetry_space_group_name_H-M   'P 1'
_cell_length_a   12.52554275
_cell_length_b   12.52554275
_cell_length_c   12.52554275
_cell_angle_alpha   127.40150157
_cell_angle_beta   127.40150157
_cell_angle_gamma   77.59659799
_symmetry_Int_Tables_number   1
_chemical_formula_structural   PrPS4
_chemical_formula_sum   'Pr8 P8 S32'
_cell_volume   1202.56856322
_cell_formula_units_Z   8
loop_
 _symmetry_equiv_pos_site_id
 _symmetry_equiv_pos_as_xyz
  1  'x, y, z'
loop_
 _atom_site_type_symbol
 _atom_site_label
 _atom_site_symmetry_multiplicity
 _atom_site_fract_x
 _atom_site_fract_y
 _atom_site_fract_z
 _atom_site_occupancy
  Pr  Pr0  1  0.50000000  0.50000000  0.00000000  1
  Pr  Pr1  1  0.25000000  0.75000000  0.50000000  1
  Pr  Pr2  1  0.75000000  0.25000000  0.50000000  1
  Pr  Pr3  1  0.00000000  0.00000000  0.00000000  1
  Pr  Pr4  1  0.25000000  0.25000000  0.00000000  1
  Pr  Pr5  1  0.00000000  0.50000000  0.50000000  1
  Pr  Pr6  1  0.50000000  0.00000000  0.50000000  1
  Pr  Pr7  1  0.75000000  0.75000000  0.00000000  1
  P  P8  1  0.62500000  0.91214600  0.78714600  1
  P  P9  1  0.62500000  0.41214600  0.28714600  1
  P  P10  1  0.16214600  0.37500000  0.28714600  1
  P  P11  1  0.08785400  0.87500000  0.71285400  1
  P  P12  1  0.12500000  0.33785400  0.71285400  1
  P  P13  1  0.12500000  0.83785400  0.21285400  1
  P  P14  1  0.58785400  0.87500000  0.21285400  1
  P  P15  1  0.66214600  0.37500000  0.78714600  1
  S  S16  1  0.98821400  0.71707300  0.45787200  1
  S  S17  1  0.25920100  0.53034200  0.54212800  1
  S  S18  1  0.28034200  0.23821400  0.77114100  1
  S  S19  1  0.46707300  0.50920100  0.22885900  1
  S  S20  1  0.99079900  0.03292700  0.77114100  1
  S  S21  1  0.26178600  0.21965800  0.22885900  1
  S  S22  1  0.78292700  0.51178600  0.54212800  1
  S  S23  1  0.96965800  0.24079900  0.45787200  1
  S  S24  1  0.60350800  0.78644700  0.31432600  1
  S  S25  1  0.53644700  0.72212200  0.68293900  1
  S  S26  1  0.03918300  0.85350800  0.31706100  1
  S  S27  1  0.64649200  0.46081700  0.68293900  1
  S  S28  1  0.77787800  0.96355300  0.31706100  1
  S  S29  1  0.21081700  0.02787800  0.31432600  1
  S  S30  1  0.71355300  0.89649200  0.68567400  1
  S  S31  1  0.47212200  0.28918300  0.68567400  1
  S  S32  1  0.14649200  0.46355300  0.18567400  1
  S  S33  1  0.21355300  0.52787800  0.81706100  1
  S  S34  1  0.71081700  0.39649200  0.18293900  1
  S  S35  1  0.10350800  0.78918300  0.81706100  1
  S  S36  1  0.97212200  0.28644700  0.18293900  1
  S  S37  1  0.53918300  0.22212200  0.18567400  1
  S  S38  1  0.03644700  0.35350800  0.81432600  1
  S  S39  1  0.27787800  0.96081700  0.81432600  1
  S  S40  1  0.49079900  0.71965800  0.95787200  1
  S  S41  1  0.46965800  0.01178600  0.72885900  1
  S  S42  1  0.28292700  0.74079900  0.27114100  1
  S  S43  1  0.75920100  0.21707300  0.72885900  1
  S  S44  1  0.48821400  0.03034200  0.27114100  1
  S  S45  1  0.96707300  0.73821400  0.95787200  1
  S  S46  1  0.78034200  0.00920100  0.04212800  1
  S  S47  1  0.76178600  0.53292700  0.04212800  1
