# generated using pymatgen
data_Rb4(BS)9
_symmetry_space_group_name_H-M   'P 1'
_cell_length_a   10.18160300
_cell_length_b   10.34109820
_cell_length_c   10.80749350
_cell_angle_alpha   92.16177408
_cell_angle_beta   104.39460687
_cell_angle_gamma   109.63677674
_symmetry_Int_Tables_number   1
_chemical_formula_structural   Rb4(BS)9
_chemical_formula_sum   'Rb8 B18 S18'
_cell_volume   1028.87387139
_cell_formula_units_Z   2
loop_
 _symmetry_equiv_pos_site_id
 _symmetry_equiv_pos_as_xyz
  1  'x, y, z'
loop_
 _atom_site_type_symbol
 _atom_site_label
 _atom_site_symmetry_multiplicity
 _atom_site_fract_x
 _atom_site_fract_y
 _atom_site_fract_z
 _atom_site_occupancy
  Rb  Rb0  1  0.81839400  0.38044300  0.75213200  1
  Rb  Rb1  1  0.18160600  0.61955700  0.24786800  1
  Rb  Rb2  1  0.75169000  0.62264800  0.47083100  1
  Rb  Rb3  1  0.24831000  0.37735200  0.52916900  1
  Rb  Rb4  1  0.61418400  0.37372800  0.12904100  1
  Rb  Rb5  1  0.38581600  0.62627200  0.87095900  1
  Rb  Rb6  1  0.64696000  0.00726500  0.37483800  1
  Rb  Rb7  1  0.35304000  0.99273500  0.62516200  1
  B  B8  1  0.92617700  0.25863200  0.25396700  1
  B  B9  1  0.07382300  0.74136800  0.74603300  1
  B  B10  1  0.32990500  0.23594700  0.85606500  1
  B  B11  1  0.67009500  0.76405300  0.14393500  1
  B  B12  1  0.36323400  0.18038600  0.31199300  1
  B  B13  1  0.63676600  0.81961400  0.68800700  1
  B  B14  1  0.99085000  0.04107600  0.14851800  1
  B  B15  1  0.00915000  0.95892400  0.85148200  1
  B  B16  1  0.06199500  0.13515600  0.91773600  1
  B  B17  1  0.93800500  0.86484400  0.08226400  1
  B  B18  1  0.16747200  0.03358100  0.98126700  1
  B  B19  1  0.83252800  0.96641900  0.01873300  1
  B  B20  1  0.12641800  0.97622000  0.12589800  1
  B  B21  1  0.87358200  0.02378000  0.87410200  1
  B  B22  1  0.13232400  0.14334300  0.08805000  1
  B  B23  1  0.86767600  0.85665700  0.91195000  1
  B  B24  1  0.95146800  0.14026800  0.02297000  1
  B  B25  1  0.04853200  0.85973200  0.97703000  1
  S  S26  1  0.02536700  0.89226100  0.69578000  1
  S  S27  1  0.97463300  0.10773900  0.30422000  1
  S  S28  1  0.48583300  0.74226800  0.55115300  1
  S  S29  1  0.51416700  0.25773200  0.44884700  1
  S  S30  1  0.52687300  0.66010100  0.20273300  1
  S  S31  1  0.47312700  0.33989900  0.79726700  1
  S  S32  1  0.09672100  0.62839400  0.63361300  1
  S  S33  1  0.90327900  0.37160600  0.36638700  1
  S  S34  1  0.15941900  0.27278400  0.83181600  1
  S  S35  1  0.84058100  0.72721600  0.16818400  1
  S  S36  1  0.34607700  0.09030600  0.94460400  1
  S  S37  1  0.65392300  0.90969400  0.05539600  1
  S  S38  1  0.27708700  0.98838100  0.27159600  1
  S  S39  1  0.72291300  0.01161900  0.72840400  1
  S  S40  1  0.28531900  0.28538800  0.20237100  1
  S  S41  1  0.71468100  0.71461200  0.79762900  1
  S  S42  1  0.90790500  0.28873500  0.08231300  1
  S  S43  1  0.09209500  0.71126500  0.91768700  1
