# generated using pymatgen
data_Ho(NiB)2
_symmetry_space_group_name_H-M   'P 1'
_cell_length_a   4.94197078
_cell_length_b   4.94197078
_cell_length_c   6.85274582
_cell_angle_alpha   59.41389356
_cell_angle_beta   59.41389356
_cell_angle_gamma   64.01929028
_symmetry_Int_Tables_number   1
_chemical_formula_structural   Ho(NiB)2
_chemical_formula_sum   'Ho2 Ni4 B4'
_cell_volume   120.35354513
_cell_formula_units_Z   2
loop_
 _symmetry_equiv_pos_site_id
 _symmetry_equiv_pos_as_xyz
  1  'x, y, z'
loop_
 _atom_site_type_symbol
 _atom_site_label
 _atom_site_symmetry_multiplicity
 _atom_site_fract_x
 _atom_site_fract_y
 _atom_site_fract_z
 _atom_site_occupancy
  Ho  Ho0  1  0.11752800  0.88247200  0.75000000  1
  Ho  Ho1  1  0.88247200  0.11752800  0.25000000  1
  Ni  Ni2  1  0.72177100  0.53274400  0.80007000  1
  Ni  Ni3  1  0.46725600  0.27822900  0.69993000  1
  Ni  Ni4  1  0.53274400  0.72177100  0.30007000  1
  Ni  Ni5  1  0.27822900  0.46725600  0.19993000  1
  B  B6  1  0.15516600  0.50514800  0.52325600  1
  B  B7  1  0.49485200  0.84483400  0.97674400  1
  B  B8  1  0.84483400  0.49485200  0.47674400  1
  B  B9  1  0.50514800  0.15516600  0.02325600  1
