# generated using pymatgen
data_Cr2(Bi2O5)3
_symmetry_space_group_name_H-M   'P 1'
_cell_length_a   11.94956113
_cell_length_b   11.94956113
_cell_length_c   5.99156800
_cell_angle_alpha   90.00000000
_cell_angle_beta   90.00000000
_cell_angle_gamma   115.42900788
_symmetry_Int_Tables_number   1
_chemical_formula_structural   Cr2(Bi2O5)3
_chemical_formula_sum   'Cr4 Bi12 O30'
_cell_volume   772.66085137
_cell_formula_units_Z   2
loop_
 _symmetry_equiv_pos_site_id
 _symmetry_equiv_pos_as_xyz
  1  'x, y, z'
loop_
 _atom_site_type_symbol
 _atom_site_label
 _atom_site_symmetry_multiplicity
 _atom_site_fract_x
 _atom_site_fract_y
 _atom_site_fract_z
 _atom_site_occupancy
  Cr  Cr0  1  0.53459200  0.20910600  0.85399900  1
  Cr  Cr1  1  0.46540800  0.79089400  0.85399900  1
  Cr  Cr2  1  0.79089400  0.46540800  0.35399900  1
  Cr  Cr3  1  0.20910600  0.53459200  0.35399900  1
  Bi  Bi4  1  0.38524900  0.24797200  0.32459000  1
  Bi  Bi5  1  0.61475100  0.75202800  0.32459000  1
  Bi  Bi6  1  0.75202800  0.61475100  0.82459000  1
  Bi  Bi7  1  0.24797200  0.38524900  0.82459000  1
  Bi  Bi8  1  0.29785700  0.89425400  0.33015800  1
  Bi  Bi9  1  0.70214300  0.10574600  0.33015800  1
  Bi  Bi10  1  0.10574600  0.70214300  0.83015800  1
  Bi  Bi11  1  0.89425400  0.29785700  0.83015800  1
  Bi  Bi12  1  0.17119500  0.04606900  0.72396600  1
  Bi  Bi13  1  0.82880500  0.95393100  0.72396600  1
  Bi  Bi14  1  0.95393100  0.82880500  0.22396600  1
  Bi  Bi15  1  0.04606900  0.17119500  0.22396600  1
  O  O16  1  0.67603400  0.22191700  0.92270200  1
  O  O17  1  0.32396600  0.77808300  0.92270200  1
  O  O18  1  0.77808300  0.32396600  0.42270200  1
  O  O19  1  0.22191700  0.67603400  0.42270200  1
  O  O20  1  0.53145200  0.34497200  0.85996800  1
  O  O21  1  0.46854800  0.65502800  0.85996800  1
  O  O22  1  0.65502800  0.46854800  0.35996800  1
  O  O23  1  0.34497200  0.53145200  0.35996800  1
  O  O24  1  0.43346800  0.11994900  0.05078300  1
  O  O25  1  0.56653200  0.88005100  0.05078300  1
  O  O26  1  0.88005100  0.56653200  0.55078300  1
  O  O27  1  0.11994900  0.43346800  0.55078300  1
  O  O28  1  0.49273500  0.14669200  0.60087000  1
  O  O29  1  0.50726500  0.85330800  0.60087000  1
  O  O30  1  0.85330800  0.50726500  0.10087000  1
  O  O31  1  0.14669200  0.49273500  0.10087000  1
  O  O32  1  0.24983700  0.25415400  0.09002700  1
  O  O33  1  0.75016300  0.74584600  0.09002700  1
  O  O34  1  0.74584600  0.75016300  0.59002700  1
  O  O35  1  0.25415400  0.24983700  0.59002700  1
  O  O36  1  0.85697800  0.16871300  0.11019800  1
  O  O37  1  0.14302200  0.83128700  0.11019800  1
  O  O38  1  0.83128700  0.14302200  0.61019800  1
  O  O39  1  0.16871300  0.85697800  0.61019800  1
  O  O40  1  0.74580100  0.94213900  0.38013600  1
  O  O41  1  0.25419900  0.05786100  0.38013600  1
  O  O42  1  0.05786100  0.25419900  0.88013600  1
  O  O43  1  0.94213900  0.74580100  0.88013600  1
  O  O44  1  0.00000000  0.00000000  0.04030800  1
  O  O45  1  0.00000000  0.00000000  0.54030800  1
