# generated using pymatgen
data_Rb3Au7
_symmetry_space_group_name_H-M   'P 1'
_cell_length_a   7.45464253
_cell_length_b   7.45464253
_cell_length_c   7.34755400
_cell_angle_alpha   90.00000000
_cell_angle_beta   90.00000000
_cell_angle_gamma   135.15737396
_symmetry_Int_Tables_number   1
_chemical_formula_structural   Rb3Au7
_chemical_formula_sum   'Rb3 Au7'
_cell_volume   287.92891304
_cell_formula_units_Z   1
loop_
 _symmetry_equiv_pos_site_id
 _symmetry_equiv_pos_as_xyz
  1  'x, y, z'
loop_
 _atom_site_type_symbol
 _atom_site_label
 _atom_site_symmetry_multiplicity
 _atom_site_fract_x
 _atom_site_fract_y
 _atom_site_fract_z
 _atom_site_occupancy
  Rb  Rb0  1  0.50000000  0.50000000  0.00000000  1
  Rb  Rb1  1  0.66046200  0.33953800  0.50000000  1
  Rb  Rb2  1  0.33953800  0.66046200  0.50000000  1
  Au  Au3  1  0.00000000  0.00000000  0.50000000  1
  Au  Au4  1  0.50000000  0.00000000  0.00000000  1
  Au  Au5  1  0.00000000  0.50000000  0.00000000  1
  Au  Au6  1  0.10720500  0.89279500  0.19508500  1
  Au  Au7  1  0.89279500  0.10720500  0.19508500  1
  Au  Au8  1  0.89279500  0.10720500  0.80491500  1
  Au  Au9  1  0.10720500  0.89279500  0.80491500  1
