# generated using pymatgen
data_MgB4
_symmetry_space_group_name_H-M   'P 1'
_cell_length_a   4.39731000
_cell_length_b   5.48792200
_cell_length_c   7.42380600
_cell_angle_alpha   90.00000000
_cell_angle_beta   90.00000000
_cell_angle_gamma   90.00000000
_symmetry_Int_Tables_number   1
_chemical_formula_structural   MgB4
_chemical_formula_sum   'Mg4 B16'
_cell_volume   179.15198638
_cell_formula_units_Z   4
loop_
 _symmetry_equiv_pos_site_id
 _symmetry_equiv_pos_as_xyz
  1  'x, y, z'
loop_
 _atom_site_type_symbol
 _atom_site_label
 _atom_site_symmetry_multiplicity
 _atom_site_fract_x
 _atom_site_fract_y
 _atom_site_fract_z
 _atom_site_occupancy
  Mg  Mg0  1  0.75000000  0.45449200  0.63778500  1
  Mg  Mg1  1  0.25000000  0.54550800  0.36221500  1
  Mg  Mg2  1  0.75000000  0.95449200  0.86221500  1
  Mg  Mg3  1  0.25000000  0.04550800  0.13778500  1
  B  B4  1  0.75000000  0.77768500  0.15363400  1
  B  B5  1  0.25000000  0.22231500  0.84636600  1
  B  B6  1  0.75000000  0.27768500  0.34636600  1
  B  B7  1  0.25000000  0.72231500  0.65363400  1
  B  B8  1  0.75000000  0.94682100  0.35294200  1
  B  B9  1  0.25000000  0.05317900  0.64705800  1
  B  B10  1  0.75000000  0.44682100  0.14705800  1
  B  B11  1  0.25000000  0.55317900  0.85294200  1
  B  B12  1  0.94195200  0.36770100  0.93683600  1
  B  B13  1  0.44195200  0.63229900  0.06316400  1
  B  B14  1  0.55804800  0.86770100  0.56316400  1
  B  B15  1  0.05804800  0.13229900  0.43683600  1
  B  B16  1  0.05804800  0.63229900  0.06316400  1
  B  B17  1  0.55804800  0.36770100  0.93683600  1
  B  B18  1  0.44195200  0.13229900  0.43683600  1
  B  B19  1  0.94195200  0.86770100  0.56316400  1
