# generated using pymatgen
data_Ba2SnSe5
_symmetry_space_group_name_H-M   'P 1'
_cell_length_a   12.57113500
_cell_length_b   17.59336600
_cell_length_c   18.44793100
_cell_angle_alpha   90.00000000
_cell_angle_beta   90.00000000
_cell_angle_gamma   90.00000000
_symmetry_Int_Tables_number   1
_chemical_formula_structural   Ba2SnSe5
_chemical_formula_sum   'Ba32 Sn16 Se80'
_cell_volume   4080.10268643
_cell_formula_units_Z   16
loop_
 _symmetry_equiv_pos_site_id
 _symmetry_equiv_pos_as_xyz
  1  'x, y, z'
loop_
 _atom_site_type_symbol
 _atom_site_label
 _atom_site_symmetry_multiplicity
 _atom_site_fract_x
 _atom_site_fract_y
 _atom_site_fract_z
 _atom_site_occupancy
  Ba  Ba0  1  0.36336700  0.17744900  0.00320800  1
  Ba  Ba1  1  0.86336700  0.32255100  0.99679200  1
  Ba  Ba2  1  0.63663300  0.67744900  0.49679200  1
  Ba  Ba3  1  0.13663300  0.82255100  0.50320800  1
  Ba  Ba4  1  0.35842500  0.17745000  0.25382900  1
  Ba  Ba5  1  0.85842500  0.32255000  0.74617100  1
  Ba  Ba6  1  0.64157500  0.67745000  0.24617100  1
  Ba  Ba7  1  0.14157500  0.82255000  0.75382900  1
  Ba  Ba8  1  0.49546400  0.42738100  0.74345100  1
  Ba  Ba9  1  0.99546400  0.07261900  0.25654900  1
  Ba  Ba10  1  0.50453600  0.92738100  0.75654900  1
  Ba  Ba11  1  0.00453600  0.57261900  0.24345100  1
  Ba  Ba12  1  0.48902300  0.43448400  0.49418400  1
  Ba  Ba13  1  0.98902300  0.06551600  0.50581600  1
  Ba  Ba14  1  0.51097700  0.93448400  0.00581600  1
  Ba  Ba15  1  0.01097700  0.56551600  0.99418400  1
  Ba  Ba16  1  0.36631400  0.17681100  0.75348200  1
  Ba  Ba17  1  0.86631400  0.32318900  0.24651800  1
  Ba  Ba18  1  0.63368600  0.67681100  0.74651800  1
  Ba  Ba19  1  0.13368600  0.82318900  0.25348200  1
  Ba  Ba20  1  0.86718000  0.31743700  0.49648800  1
  Ba  Ba21  1  0.36718000  0.18256300  0.50351200  1
  Ba  Ba22  1  0.13282000  0.81743700  0.00351200  1
  Ba  Ba23  1  0.63282000  0.68256300  0.99648800  1
  Ba  Ba24  1  0.00559100  0.56650500  0.74613600  1
  Ba  Ba25  1  0.50559100  0.93349500  0.25386400  1
  Ba  Ba26  1  0.99440900  0.06650500  0.75386400  1
  Ba  Ba27  1  0.49440900  0.43349500  0.24613600  1
  Ba  Ba28  1  0.00694600  0.56875900  0.49384900  1
  Ba  Ba29  1  0.50694600  0.93124100  0.50615100  1
  Ba  Ba30  1  0.99305400  0.06875900  0.00615100  1
  Ba  Ba31  1  0.49305400  0.43124100  0.99384900  1
  Sn  Sn32  1  0.18473600  0.37120600  0.87138300  1
  Sn  Sn33  1  0.68473600  0.12879400  0.12861700  1
  Sn  Sn34  1  0.81526400  0.87120600  0.62861700  1
  Sn  Sn35  1  0.31526400  0.62879400  0.37138300  1
  Sn  Sn36  1  0.18147900  0.36735200  0.07281400  1
  Sn  Sn37  1  0.68147900  0.13264800  0.92718600  1
  Sn  Sn38  1  0.81852100  0.86735200  0.42718600  1
  Sn  Sn39  1  0.31852100  0.63264800  0.57281400  1
  Sn  Sn40  1  0.67937100  0.13033800  0.32868600  1
  Sn  Sn41  1  0.17937100  0.36966200  0.67131400  1
  Sn  Sn42  1  0.32062900  0.63033800  0.17131400  1
  Sn  Sn43  1  0.82062900  0.86966200  0.82868600  1
  Sn  Sn44  1  0.15151900  0.31415700  0.36004400  1
  Sn  Sn45  1  0.65151900  0.18584300  0.63995600  1
  Sn  Sn46  1  0.84848100  0.81415700  0.13995600  1
  Sn  Sn47  1  0.34848100  0.68584300  0.86004400  1
  Se  Se48  1  0.35757000  0.32519900  0.36983100  1
  Se  Se49  1  0.85757000  0.17480100  0.63016900  1
  Se  Se50  1  0.64243000  0.82519900  0.13016900  1
  Se  Se51  1  0.14243000  0.67480100  0.86983100  1
  Se  Se52  1  0.36214800  0.32457000  0.12362300  1
  Se  Se53  1  0.86214800  0.17543000  0.87637700  1
  Se  Se54  1  0.63785200  0.82457000  0.37637700  1
  Se  Se55  1  0.13785200  0.67543000  0.62362300  1
  Se  Se56  1  0.01391800  0.42259000  0.36851300  1
  Se  Se57  1  0.51391800  0.07741000  0.63148700  1
  Se  Se58  1  0.98608200  0.92259000  0.13148700  1
  Se  Se59  1  0.48608200  0.57741000  0.86851300  1
  Se  Se60  1  0.50810200  0.07498700  0.87940800  1
  Se  Se61  1  0.00810200  0.42501300  0.12059200  1
  Se  Se62  1  0.49189800  0.57498700  0.62059200  1
  Se  Se63  1  0.99189800  0.92501300  0.37940800  1
  Se  Se64  1  0.37988900  0.31595100  0.87287700  1
  Se  Se65  1  0.87988900  0.18404900  0.12712300  1
  Se  Se66  1  0.62011100  0.81595100  0.62712300  1
  Se  Se67  1  0.12011100  0.68404900  0.37287700  1
  Se  Se68  1  0.85748600  0.17399800  0.38101400  1
  Se  Se69  1  0.35748600  0.32600200  0.61898600  1
  Se  Se70  1  0.14251400  0.67399800  0.11898600  1
  Se  Se71  1  0.64251400  0.82600200  0.88101400  1
  Se  Se72  1  0.48984200  0.07524800  0.13149200  1
  Se  Se73  1  0.98984200  0.42475200  0.86850800  1
  Se  Se74  1  0.51015800  0.57524800  0.36850800  1
  Se  Se75  1  0.01015800  0.92475200  0.63149200  1
  Se  Se76  1  0.62111800  0.23842900  0.24186100  1
  Se  Se77  1  0.12111800  0.26157100  0.75813900  1
  Se  Se78  1  0.37888200  0.73842900  0.25813900  1
  Se  Se79  1  0.87888200  0.76157100  0.74186100  1
  Se  Se80  1  0.18824700  0.10128200  0.12832400  1
  Se  Se81  1  0.68824700  0.39871800  0.87167600  1
  Se  Se82  1  0.81175300  0.60128200  0.37167600  1
  Se  Se83  1  0.31175300  0.89871800  0.62832400  1
  Se  Se84  1  0.50826800  0.07662500  0.38309800  1
  Se  Se85  1  0.00826800  0.42337500  0.61690200  1
  Se  Se86  1  0.49173200  0.57662500  0.11690200  1
  Se  Se87  1  0.99173200  0.92337500  0.88309800  1
  Se  Se88  1  0.23902800  0.47441100  0.76179900  1
  Se  Se89  1  0.73902800  0.02558900  0.23820100  1
  Se  Se90  1  0.76097200  0.97441100  0.73820100  1
  Se  Se91  1  0.26097200  0.52558900  0.26179900  1
  Se  Se92  1  0.62139200  0.23712900  0.01986600  1
  Se  Se93  1  0.12139200  0.26287100  0.98013400  1
  Se  Se94  1  0.37860800  0.73712900  0.48013400  1
  Se  Se95  1  0.87860800  0.76287100  0.51986600  1
  Se  Se96  1  0.18874100  0.10370900  0.38740100  1
  Se  Se97  1  0.68874100  0.39629100  0.61259900  1
  Se  Se98  1  0.81125900  0.60370900  0.11259900  1
  Se  Se99  1  0.31125900  0.89629100  0.88740100  1
  Se  Se100  1  0.18761000  0.10740100  0.88037400  1
  Se  Se101  1  0.68761000  0.39259900  0.11962600  1
  Se  Se102  1  0.81239000  0.60740100  0.61962600  1
  Se  Se103  1  0.31239000  0.89259900  0.38037400  1
  Se  Se104  1  0.23938600  0.47269100  0.98123900  1
  Se  Se105  1  0.73938600  0.02730900  0.01876100  1
  Se  Se106  1  0.76061400  0.97269100  0.51876100  1
  Se  Se107  1  0.26061400  0.52730900  0.48123900  1
  Se  Se108  1  0.81106800  0.60840200  0.87358500  1
  Se  Se109  1  0.31106800  0.89159800  0.12641500  1
  Se  Se110  1  0.18893200  0.10840200  0.62641500  1
  Se  Se111  1  0.68893200  0.39159800  0.37358500  1
  Se  Se112  1  0.24874300  0.99605900  0.05322900  1
  Se  Se113  1  0.74874300  0.50394100  0.94677100  1
  Se  Se114  1  0.75125700  0.49605900  0.44677100  1
  Se  Se115  1  0.25125700  0.00394100  0.55322900  1
  Se  Se116  1  0.25038100  0.99728300  0.30670100  1
  Se  Se117  1  0.75038100  0.50271700  0.69329900  1
  Se  Se118  1  0.74961900  0.49728300  0.19329900  1
  Se  Se119  1  0.24961900  0.00271700  0.80670100  1
  Se  Se120  1  0.11245100  0.23409900  0.47407700  1
  Se  Se121  1  0.61245100  0.26590100  0.52592300  1
  Se  Se122  1  0.88754900  0.73409900  0.02592300  1
  Se  Se123  1  0.38754900  0.76590100  0.97407700  1
  Se  Se124  1  0.11035700  0.24844800  0.23867400  1
  Se  Se125  1  0.61035700  0.25155200  0.76132600  1
  Se  Se126  1  0.88964300  0.74844800  0.26132600  1
  Se  Se127  1  0.38964300  0.75155200  0.73867400  1
