# generated using pymatgen
data_Ba3Ta2NiO9
_symmetry_space_group_name_H-M   'P 1'
_cell_length_a   5.82541600
_cell_length_b   12.37449903
_cell_length_c   12.37449903
_cell_angle_alpha   109.24985722
_cell_angle_beta   90.00000000
_cell_angle_gamma   90.00000000
_symmetry_Int_Tables_number   1
_chemical_formula_structural   Ba3Ta2NiO9
_chemical_formula_sum   'Ba12 Ta8 Ni4 O36'
_cell_volume   842.16176704
_cell_formula_units_Z   4
loop_
 _symmetry_equiv_pos_site_id
 _symmetry_equiv_pos_as_xyz
  1  'x, y, z'
loop_
 _atom_site_type_symbol
 _atom_site_label
 _atom_site_symmetry_multiplicity
 _atom_site_fract_x
 _atom_site_fract_y
 _atom_site_fract_z
 _atom_site_occupancy
  Ba  Ba0  1  0.50000000  0.25000000  0.75000000  1
  Ba  Ba1  1  0.00000000  0.00000000  0.00000000  1
  Ba  Ba2  1  0.00000000  0.50000000  0.50000000  1
  Ba  Ba3  1  0.50000000  0.75000000  0.25000000  1
  Ba  Ba4  1  0.00000000  0.50251900  0.83585200  1
  Ba  Ba5  1  0.50000000  0.25251900  0.08585200  1
  Ba  Ba6  1  0.50000000  0.75251900  0.58585200  1
  Ba  Ba7  1  0.00000000  0.00251900  0.33585200  1
  Ba  Ba8  1  0.50000000  0.74748100  0.91414800  1
  Ba  Ba9  1  0.00000000  0.49748100  0.16414800  1
  Ba  Ba10  1  0.00000000  0.99748100  0.66414800  1
  Ba  Ba11  1  0.50000000  0.24748100  0.41414800  1
  Ta  Ta12  1  0.50000000  0.50486100  0.67152800  1
  Ta  Ta13  1  0.00000000  0.25486100  0.92152800  1
  Ta  Ta14  1  0.00000000  0.75486100  0.42152800  1
  Ta  Ta15  1  0.50000000  0.00486100  0.17152800  1
  Ta  Ta16  1  0.00000000  0.74513900  0.07847200  1
  Ta  Ta17  1  0.50000000  0.49513900  0.32847200  1
  Ta  Ta18  1  0.50000000  0.99513900  0.82847200  1
  Ta  Ta19  1  0.00000000  0.24513900  0.57847200  1
  Ni  Ni20  1  0.50000000  0.50000000  0.00000000  1
  Ni  Ni21  1  0.00000000  0.75000000  0.75000000  1
  Ni  Ni22  1  0.00000000  0.25000000  0.25000000  1
  Ni  Ni23  1  0.50000000  0.00000000  0.50000000  1
  O  O24  1  0.00000000  0.25000000  0.75000000  1
  O  O25  1  0.50000000  0.00000000  0.00000000  1
  O  O26  1  0.50000000  0.50000000  0.50000000  1
  O  O27  1  0.00000000  0.75000000  0.25000000  1
  O  O28  1  0.75000000  0.37500000  0.62500000  1
  O  O29  1  0.25000000  0.12500000  0.87500000  1
  O  O30  1  0.25000000  0.62500000  0.37500000  1
  O  O31  1  0.75000000  0.87500000  0.12500000  1
  O  O32  1  0.25000000  0.37500000  0.62500000  1
  O  O33  1  0.75000000  0.12500000  0.87500000  1
  O  O34  1  0.75000000  0.62500000  0.37500000  1
  O  O35  1  0.25000000  0.87500000  0.12500000  1
  O  O36  1  0.75757300  0.63056900  0.04471100  1
  O  O37  1  0.25757300  0.38056900  0.29471100  1
  O  O38  1  0.25757300  0.88056900  0.79471100  1
  O  O39  1  0.75757300  0.13056900  0.54471100  1
  O  O40  1  0.24242600  0.63056900  0.04471100  1
  O  O41  1  0.74242600  0.38056900  0.29471100  1
  O  O42  1  0.74242600  0.88056900  0.79471100  1
  O  O43  1  0.24242600  0.13056900  0.54471100  1
  O  O44  1  0.00000000  0.75178200  0.92349800  1
  O  O45  1  0.50000000  0.50178200  0.17349800  1
  O  O46  1  0.50000000  0.00178200  0.67349800  1
  O  O47  1  0.00000000  0.25178200  0.42349800  1
  O  O48  1  0.25757200  0.61943100  0.70528900  1
  O  O49  1  0.75757200  0.36943100  0.95528900  1
  O  O50  1  0.75757200  0.86943100  0.45528900  1
  O  O51  1  0.25757200  0.11943100  0.20528900  1
  O  O52  1  0.74242800  0.61943100  0.70528900  1
  O  O53  1  0.24242800  0.36943100  0.95528900  1
  O  O54  1  0.24242800  0.86943100  0.45528900  1
  O  O55  1  0.74242800  0.11943100  0.20528900  1
  O  O56  1  0.50000000  0.49821800  0.82650300  1
  O  O57  1  0.00000000  0.24821800  0.07650300  1
  O  O58  1  0.00000000  0.74821800  0.57650300  1
  O  O59  1  0.50000000  0.99821800  0.32650300  1
