# generated using pymatgen
data_Ca3(BO3)2
_symmetry_space_group_name_H-M   'P 1'
_cell_length_a   6.42706775
_cell_length_b   6.42706775
_cell_length_c   6.42706757
_cell_angle_alpha   85.10739020
_cell_angle_beta   85.10739020
_cell_angle_gamma   85.10739334
_symmetry_Int_Tables_number   1
_chemical_formula_structural   Ca3(BO3)2
_chemical_formula_sum   'Ca6 B4 O12'
_cell_volume   262.73792448
_cell_formula_units_Z   2
loop_
 _symmetry_equiv_pos_site_id
 _symmetry_equiv_pos_as_xyz
  1  'x, y, z'
loop_
 _atom_site_type_symbol
 _atom_site_label
 _atom_site_symmetry_multiplicity
 _atom_site_fract_x
 _atom_site_fract_y
 _atom_site_fract_z
 _atom_site_occupancy
  Ca  Ca0  1  0.25000000  0.60650200  0.89349800  1
  Ca  Ca1  1  0.89349800  0.25000000  0.60650200  1
  Ca  Ca2  1  0.60650200  0.89349800  0.25000000  1
  Ca  Ca3  1  0.75000000  0.39349800  0.10650200  1
  Ca  Ca4  1  0.10650200  0.75000000  0.39349800  1
  Ca  Ca5  1  0.39349800  0.10650200  0.75000000  1
  B  B6  1  0.88235400  0.88235400  0.88235400  1
  B  B7  1  0.11764600  0.11764600  0.11764600  1
  B  B8  1  0.38235400  0.38235400  0.38235400  1
  B  B9  1  0.61764600  0.61764600  0.61764600  1
  O  O10  1  0.21868800  0.39641900  0.53829100  1
  O  O11  1  0.53829100  0.21868800  0.39641900  1
  O  O12  1  0.39641900  0.53829100  0.21868800  1
  O  O13  1  0.10358100  0.28131200  0.96170900  1
  O  O14  1  0.28131200  0.96170900  0.10358100  1
  O  O15  1  0.96170900  0.10358100  0.28131200  1
  O  O16  1  0.46170900  0.78131200  0.60358100  1
  O  O17  1  0.78131200  0.60358100  0.46170900  1
  O  O18  1  0.60358100  0.46170900  0.78131200  1
  O  O19  1  0.71868800  0.03829100  0.89641900  1
  O  O20  1  0.03829100  0.89641900  0.71868800  1
  O  O21  1  0.89641900  0.71868800  0.03829100  1
