# generated using pymatgen
data_Nd2Ni5B4
_symmetry_space_group_name_H-M   'P 1'
_cell_length_a   5.52416946
_cell_length_b   5.52416946
_cell_length_c   6.77831408
_cell_angle_alpha   58.75697312
_cell_angle_beta   58.75697312
_cell_angle_gamma   54.92273233
_symmetry_Int_Tables_number   1
_chemical_formula_structural   Nd2Ni5B4
_chemical_formula_sum   'Nd2 Ni5 B4'
_cell_volume   137.34989113
_cell_formula_units_Z   1
loop_
 _symmetry_equiv_pos_site_id
 _symmetry_equiv_pos_as_xyz
  1  'x, y, z'
loop_
 _atom_site_type_symbol
 _atom_site_label
 _atom_site_symmetry_multiplicity
 _atom_site_fract_x
 _atom_site_fract_y
 _atom_site_fract_z
 _atom_site_occupancy
  Nd  Nd0  1  0.72540500  0.72540500  0.35108300  1
  Nd  Nd1  1  0.27459500  0.27459500  0.64891700  1
  Ni  Ni2  1  0.32690700  0.82313500  0.12791500  1
  Ni  Ni3  1  0.67309300  0.17686500  0.87208500  1
  Ni  Ni4  1  0.00000000  0.00000000  0.50000000  1
  Ni  Ni5  1  0.82313500  0.32690700  0.12791500  1
  Ni  Ni6  1  0.17686500  0.67309300  0.87208500  1
  B  B7  1  0.59923400  0.59923400  0.85974100  1
  B  B8  1  0.40076600  0.40076600  0.14025900  1
  B  B9  1  0.22184200  0.22184200  0.15956100  1
  B  B10  1  0.77815800  0.77815800  0.84043900  1
