# generated using pymatgen
data_ErNi7B3
_symmetry_space_group_name_H-M   'P 1'
_cell_length_a   9.46823357
_cell_length_b   9.46823357
_cell_length_c   9.46823357
_cell_angle_alpha   132.44962689
_cell_angle_beta   132.44962689
_cell_angle_gamma   69.51981043
_symmetry_Int_Tables_number   1
_chemical_formula_structural   ErNi7B3
_chemical_formula_sum   'Er4 Ni28 B12'
_cell_volume   453.34749877
_cell_formula_units_Z   4
loop_
 _symmetry_equiv_pos_site_id
 _symmetry_equiv_pos_as_xyz
  1  'x, y, z'
loop_
 _atom_site_type_symbol
 _atom_site_label
 _atom_site_symmetry_multiplicity
 _atom_site_fract_x
 _atom_site_fract_y
 _atom_site_fract_z
 _atom_site_occupancy
  Er  Er0  1  0.21585000  0.21585000  0.00000000  1
  Er  Er1  1  0.96585000  0.46585000  0.50000000  1
  Er  Er2  1  0.53415000  0.03415000  0.50000000  1
  Er  Er3  1  0.78415000  0.78415000  0.00000000  1
  Ni  Ni4  1  0.31234700  0.31234700  0.62469500  1
  Ni  Ni5  1  0.31234700  0.68765300  0.00000000  1
  Ni  Ni6  1  0.68765300  0.31234700  0.00000000  1
  Ni  Ni7  1  0.43765300  0.93765300  0.87530500  1
  Ni  Ni8  1  0.18147000  0.89319700  0.28827200  1
  Ni  Ni9  1  0.64319700  0.85492500  0.21172800  1
  Ni  Ni10  1  0.64319700  0.43147000  0.78827200  1
  Ni  Ni11  1  0.06234700  0.56234700  0.12469500  1
  Ni  Ni12  1  0.14507500  0.35680300  0.78827200  1
  Ni  Ni13  1  0.10680300  0.39507500  0.28827200  1
  Ni  Ni14  1  0.10680300  0.81853000  0.71172800  1
  Ni  Ni15  1  0.60492500  0.89319700  0.71172800  1
  Ni  Ni16  1  0.21863600  0.05638100  0.16225500  1
  Ni  Ni17  1  0.80638100  0.14412600  0.33774500  1
  Ni  Ni18  1  0.80638100  0.46863600  0.66225500  1
  Ni  Ni19  1  0.53136400  0.19361900  0.33774500  1
  Ni  Ni20  1  0.85587400  0.19361900  0.66225500  1
  Ni  Ni21  1  0.94361900  0.10587400  0.16225500  1
  Ni  Ni22  1  0.94361900  0.78136400  0.83774500  1
  Ni  Ni23  1  0.89412600  0.05638100  0.83774500  1
  Ni  Ni24  1  0.43765300  0.56234700  0.50000000  1
  Ni  Ni25  1  0.68765300  0.68765300  0.37530500  1
  Ni  Ni26  1  0.37500000  0.62500000  0.75000000  1
  Ni  Ni27  1  0.37500000  0.12500000  0.75000000  1
  Ni  Ni28  1  0.37500000  0.62500000  0.25000000  1
  Ni  Ni29  1  0.87500000  0.62500000  0.25000000  1
  Ni  Ni30  1  0.56853000  0.35680300  0.21172800  1
  Ni  Ni31  1  0.06234700  0.93765300  0.50000000  1
  B  B32  1  0.37500000  0.91513200  0.04013200  1
  B  B33  1  0.66513200  0.12500000  0.04013200  1
  B  B34  1  0.08486800  0.62500000  0.95986800  1
  B  B35  1  0.87500000  0.33486800  0.95986800  1
  B  B36  1  0.66513200  0.62500000  0.54013200  1
  B  B37  1  0.87500000  0.91513200  0.54013200  1
  B  B38  1  0.55851900  0.55851900  0.00000000  1
  B  B39  1  0.30851900  0.80851900  0.50000000  1
  B  B40  1  0.19148100  0.69148100  0.50000000  1
  B  B41  1  0.44148100  0.44148100  0.00000000  1
  B  B42  1  0.37500000  0.33486800  0.45986800  1
  B  B43  1  0.08486800  0.12500000  0.45986800  1
