# generated using pymatgen
data_Li2SnO3
_symmetry_space_group_name_H-M   'P 1'
_cell_length_a   5.37038576
_cell_length_b   5.37038576
_cell_length_c   10.15341363
_cell_angle_alpha   84.85715190
_cell_angle_beta   84.85715190
_cell_angle_gamma   120.15319019
_symmetry_Int_Tables_number   1
_chemical_formula_structural   Li2SnO3
_chemical_formula_sum   'Li8 Sn4 O12'
_cell_volume   249.08856581
_cell_formula_units_Z   4
loop_
 _symmetry_equiv_pos_site_id
 _symmetry_equiv_pos_as_xyz
  1  'x, y, z'
loop_
 _atom_site_type_symbol
 _atom_site_label
 _atom_site_symmetry_multiplicity
 _atom_site_fract_x
 _atom_site_fract_y
 _atom_site_fract_z
 _atom_site_occupancy
  Li  Li0  1  0.15884500  0.31564600  0.00090100  1
  Li  Li1  1  0.68435400  0.84115500  0.49909900  1
  Li  Li2  1  0.84115500  0.68435400  0.99909900  1
  Li  Li3  1  0.31564600  0.15884500  0.50090100  1
  Li  Li4  1  0.00000000  0.50000000  0.50000000  1
  Li  Li5  1  0.50000000  0.00000000  0.00000000  1
  Li  Li6  1  0.91513500  0.08486500  0.75000000  1
  Li  Li7  1  0.08486500  0.91513500  0.25000000  1
  Sn  Sn8  1  0.41718400  0.58281600  0.25000000  1
  Sn  Sn9  1  0.74974600  0.25025400  0.25000000  1
  Sn  Sn10  1  0.25025400  0.74974600  0.75000000  1
  Sn  Sn11  1  0.58281600  0.41718400  0.75000000  1
  O  O12  1  0.04187200  0.22708100  0.36969800  1
  O  O13  1  0.87634300  0.39592500  0.86700900  1
  O  O14  1  0.77291900  0.95812800  0.13030200  1
  O  O15  1  0.95812800  0.77291900  0.63030200  1
  O  O16  1  0.52695100  0.69323200  0.86705100  1
  O  O17  1  0.60407500  0.12365700  0.63299100  1
  O  O18  1  0.12365700  0.60407500  0.13299100  1
  O  O19  1  0.39592500  0.87634300  0.36700900  1
  O  O20  1  0.69323200  0.52695100  0.36705100  1
  O  O21  1  0.30676800  0.47304900  0.63294900  1
  O  O22  1  0.47304900  0.30676800  0.13294900  1
  O  O23  1  0.22708100  0.04187200  0.86969800  1
