# generated using pymatgen
data_Te3P2O11
_symmetry_space_group_name_H-M   'P 1'
_cell_length_a   7.49866700
_cell_length_b   10.14537400
_cell_length_c   12.66163091
_cell_angle_alpha   81.97364814
_cell_angle_beta   90.00000000
_cell_angle_gamma   90.00000000
_symmetry_Int_Tables_number   1
_chemical_formula_structural   Te3P2O11
_chemical_formula_sum   'Te12 P8 O44'
_cell_volume   953.82002395
_cell_formula_units_Z   4
loop_
 _symmetry_equiv_pos_site_id
 _symmetry_equiv_pos_as_xyz
  1  'x, y, z'
loop_
 _atom_site_type_symbol
 _atom_site_label
 _atom_site_symmetry_multiplicity
 _atom_site_fract_x
 _atom_site_fract_y
 _atom_site_fract_z
 _atom_site_occupancy
  Te  Te0  1  0.27845700  0.13272100  0.35890900  1
  Te  Te1  1  0.77845700  0.36727900  0.64109100  1
  Te  Te2  1  0.72154300  0.86727900  0.64109100  1
  Te  Te3  1  0.22154300  0.63272100  0.35890900  1
  Te  Te4  1  0.25591900  0.94633800  0.15054900  1
  Te  Te5  1  0.75591900  0.55366200  0.84945100  1
  Te  Te6  1  0.74408100  0.05366200  0.84945100  1
  Te  Te7  1  0.24408100  0.44633800  0.15054900  1
  Te  Te8  1  0.80474900  0.03060300  0.23649900  1
  Te  Te9  1  0.30474900  0.46939700  0.76350100  1
  Te  Te10  1  0.19525100  0.96939700  0.76350100  1
  Te  Te11  1  0.69525100  0.53060300  0.23649900  1
  P  P12  1  0.69477800  0.23157100  0.41259700  1
  P  P13  1  0.19477800  0.26842900  0.58740300  1
  P  P14  1  0.30522200  0.76842900  0.58740300  1
  P  P15  1  0.80522200  0.73157100  0.41259700  1
  P  P16  1  0.68573300  0.82683600  0.07275900  1
  P  P17  1  0.18573300  0.67316400  0.92724100  1
  P  P18  1  0.31426700  0.17316400  0.92724100  1
  P  P19  1  0.81426700  0.32683600  0.07275900  1
  O  O20  1  0.75222600  0.21189100  0.52991200  1
  O  O21  1  0.25222600  0.28810900  0.47008800  1
  O  O22  1  0.24777400  0.78810900  0.47008800  1
  O  O23  1  0.74777400  0.71189100  0.52991200  1
  O  O24  1  0.64338500  0.37756500  0.37469400  1
  O  O25  1  0.14338500  0.12243500  0.62530600  1
  O  O26  1  0.35661500  0.62243500  0.62530600  1
  O  O27  1  0.85661500  0.87756500  0.37469400  1
  O  O28  1  0.53260500  0.13186300  0.40476000  1
  O  O29  1  0.03260500  0.36813700  0.59524000  1
  O  O30  1  0.46739500  0.86813700  0.59524000  1
  O  O31  1  0.96739500  0.63186300  0.40476000  1
  O  O32  1  0.84324700  0.18284400  0.34048800  1
  O  O33  1  0.34324700  0.31715600  0.65951200  1
  O  O34  1  0.15675300  0.81715600  0.65951200  1
  O  O35  1  0.70887800  0.67313900  0.09625200  1
  O  O36  1  0.65675300  0.68284400  0.34048800  1
  O  O37  1  0.19032500  0.63677800  0.04938600  1
  O  O38  1  0.30967500  0.13677800  0.04938600  1
  O  O39  1  0.80967500  0.36322200  0.95061400  1
  O  O40  1  0.44185200  0.54901400  0.23008200  1
  O  O41  1  0.94185200  0.95098600  0.76991800  1
  O  O42  1  0.55814800  0.45098600  0.76991800  1
  O  O43  1  0.05814800  0.04901400  0.23008200  1
  O  O44  1  0.10633500  0.51986300  0.25577700  1
  O  O45  1  0.60633500  0.98013700  0.74422300  1
  O  O46  1  0.89366500  0.48013700  0.74422300  1
  O  O47  1  0.39366500  0.01986300  0.25577700  1
  O  O48  1  0.20085200  0.78077100  0.25516300  1
  O  O49  1  0.70085200  0.71922900  0.74483700  1
  O  O50  1  0.79914800  0.21922900  0.74483700  1
  O  O51  1  0.29914800  0.28077100  0.25516300  1
  O  O52  1  0.65443900  0.39508900  0.12545600  1
  O  O53  1  0.15443900  0.10491100  0.87454400  1
  O  O54  1  0.34556100  0.60491100  0.87454400  1
  O  O55  1  0.84556100  0.89508900  0.12545600  1
  O  O56  1  0.98779600  0.37176700  0.12216200  1
  O  O57  1  0.48779600  0.12823300  0.87783800  1
  O  O58  1  0.01220400  0.62823300  0.87783800  1
  O  O59  1  0.51220400  0.87176700  0.12216200  1
  O  O60  1  0.79112200  0.17313900  0.09625200  1
  O  O61  1  0.29112200  0.32686100  0.90374800  1
  O  O62  1  0.20887800  0.82686100  0.90374800  1
  O  O63  1  0.69032500  0.86322200  0.95061400  1
