# generated using pymatgen
data_Cs3AsO4
_symmetry_space_group_name_H-M   'P 1'
_cell_length_a   6.74091100
_cell_length_b   9.19864400
_cell_length_c   12.73989500
_cell_angle_alpha   90.00000000
_cell_angle_beta   90.00000000
_cell_angle_gamma   90.00000000
_symmetry_Int_Tables_number   1
_chemical_formula_structural   Cs3AsO4
_chemical_formula_sum   'Cs12 As4 O16'
_cell_volume   789.96573352
_cell_formula_units_Z   4
loop_
 _symmetry_equiv_pos_site_id
 _symmetry_equiv_pos_as_xyz
  1  'x, y, z'
loop_
 _atom_site_type_symbol
 _atom_site_label
 _atom_site_symmetry_multiplicity
 _atom_site_fract_x
 _atom_site_fract_y
 _atom_site_fract_z
 _atom_site_occupancy
  Cs  Cs0  1  0.18981000  0.99259000  0.35512000  1
  Cs  Cs1  1  0.85625700  0.75000000  0.92423200  1
  Cs  Cs2  1  0.64374300  0.75000000  0.42423200  1
  Cs  Cs3  1  0.14374300  0.25000000  0.07576800  1
  Cs  Cs4  1  0.35625700  0.25000000  0.57576800  1
  Cs  Cs5  1  0.68981000  0.00741000  0.14488000  1
  Cs  Cs6  1  0.81019000  0.49259000  0.64488000  1
  Cs  Cs7  1  0.31019000  0.50741000  0.85512000  1
  Cs  Cs8  1  0.81019000  0.00741000  0.64488000  1
  Cs  Cs9  1  0.31019000  0.99259000  0.85512000  1
  Cs  Cs10  1  0.18981000  0.50741000  0.35512000  1
  Cs  Cs11  1  0.68981000  0.49259000  0.14488000  1
  As  As12  1  0.27397300  0.75000000  0.11366900  1
  As  As13  1  0.72602700  0.25000000  0.88633100  1
  As  As14  1  0.77397300  0.25000000  0.38633100  1
  As  As15  1  0.22602700  0.75000000  0.61366900  1
  O  O16  1  0.62835000  0.40522700  0.39187800  1
  O  O17  1  0.12835000  0.59477300  0.10812200  1
  O  O18  1  0.37165000  0.90522700  0.60812200  1
  O  O19  1  0.87165000  0.09477300  0.89187800  1
  O  O20  1  0.37165000  0.59477300  0.60812200  1
  O  O21  1  0.87165000  0.40522700  0.89187800  1
  O  O22  1  0.62835000  0.09477300  0.39187800  1
  O  O23  1  0.12835000  0.90522700  0.10812200  1
  O  O24  1  0.05961000  0.75000000  0.50898800  1
  O  O25  1  0.41094100  0.75000000  0.22954900  1
  O  O26  1  0.94039000  0.25000000  0.49101200  1
  O  O27  1  0.44039000  0.75000000  0.00898800  1
  O  O28  1  0.08905900  0.75000000  0.72954900  1
  O  O29  1  0.58905900  0.25000000  0.77045100  1
  O  O30  1  0.91094100  0.25000000  0.27045100  1
  O  O31  1  0.55961000  0.25000000  0.99101200  1
