# generated using pymatgen
data_Cd2Te2O7
_symmetry_space_group_name_H-M   'P 1'
_cell_length_a   7.54877000
_cell_length_b   8.50689615
_cell_length_c   10.13132624
_cell_angle_alpha   86.63089389
_cell_angle_beta   78.84978651
_cell_angle_gamma   77.18722932
_symmetry_Int_Tables_number   1
_chemical_formula_structural   Cd2Te2O7
_chemical_formula_sum   'Cd8 Te8 O28'
_cell_volume   622.33841239
_cell_formula_units_Z   4
loop_
 _symmetry_equiv_pos_site_id
 _symmetry_equiv_pos_as_xyz
  1  'x, y, z'
loop_
 _atom_site_type_symbol
 _atom_site_label
 _atom_site_symmetry_multiplicity
 _atom_site_fract_x
 _atom_site_fract_y
 _atom_site_fract_z
 _atom_site_occupancy
  Cd  Cd0  1  0.19058300  0.34823100  0.89013200  1
  Cd  Cd1  1  0.80941700  0.65176900  0.10986800  1
  Cd  Cd2  1  0.25628000  0.49081600  0.49186500  1
  Cd  Cd3  1  0.74372000  0.50918400  0.50813500  1
  Cd  Cd4  1  0.30748900  0.62420900  0.11353700  1
  Cd  Cd5  1  0.69251100  0.37579100  0.88646300  1
  Cd  Cd6  1  0.50000000  0.00000000  0.00000000  1
  Cd  Cd7  1  0.00000000  0.00000000  0.00000000  1
  Te  Te8  1  0.04165100  0.16779700  0.64588500  1
  Te  Te9  1  0.95834900  0.83220300  0.35411500  1
  Te  Te10  1  0.11979100  0.26847500  0.23451600  1
  Te  Te11  1  0.88020900  0.73152500  0.76548400  1
  Te  Te12  1  0.55919300  0.10134100  0.65064800  1
  Te  Te13  1  0.44080700  0.89865900  0.34935200  1
  Te  Te14  1  0.62341100  0.27585200  0.22788600  1
  Te  Te15  1  0.37658900  0.72414800  0.77211400  1
  O  O16  1  0.11388800  0.80626500  0.75575200  1
  O  O17  1  0.88611200  0.19373500  0.24424800  1
  O  O18  1  0.31899200  0.84528900  0.93460700  1
  O  O19  1  0.68100800  0.15471100  0.06539300  1
  O  O20  1  0.36778500  0.53254700  0.88808400  1
  O  O21  1  0.63221500  0.46745300  0.11191600  1
  O  O22  1  0.41118900  0.93718700  0.66363100  1
  O  O23  1  0.58881100  0.06281300  0.33636900  1
  O  O24  1  0.42968000  0.61482100  0.60634700  1
  O  O25  1  0.57032000  0.38517900  0.39365300  1
  O  O26  1  0.49490000  0.18177900  0.82684600  1
  O  O27  1  0.50510000  0.81822100  0.17315400  1
  O  O28  1  0.64226800  0.66604000  0.77568300  1
  O  O29  1  0.35773200  0.33396000  0.22431700  1
  O  O30  1  0.76791500  0.71151900  0.35681300  1
  O  O31  1  0.23208500  0.28848100  0.64318700  1
  O  O32  1  0.00359600  0.81896300  0.16177400  1
  O  O33  1  0.99640400  0.18103700  0.83822600  1
  O  O34  1  0.04242300  0.35258100  0.41219600  1
  O  O35  1  0.95757700  0.64741900  0.58780400  1
  O  O36  1  0.06289500  0.46335900  0.13287000  1
  O  O37  1  0.93710500  0.53664100  0.86713000  1
  O  O38  1  0.20147400  0.69359600  0.34258700  1
  O  O39  1  0.79852600  0.30640400  0.65741300  1
  O  O40  1  0.20654500  0.15360100  0.06735600  1
  O  O41  1  0.79345500  0.84639900  0.93264400  1
  O  O42  1  0.20968600  0.05017500  0.32931400  1
  O  O43  1  0.79031400  0.94982500  0.67068600  1
