# generated using pymatgen
data_Sr4Ru2O9
_symmetry_space_group_name_H-M   'P 1'
_cell_length_a   9.76036522
_cell_length_b   9.76036522
_cell_length_c   8.13433200
_cell_angle_alpha   90.00000000
_cell_angle_beta   90.00000000
_cell_angle_gamma   119.99999468
_symmetry_Int_Tables_number   1
_chemical_formula_structural   Sr4Ru2O9
_chemical_formula_sum   'Sr12 Ru6 O27'
_cell_volume   671.09605517
_cell_formula_units_Z   3
loop_
 _symmetry_equiv_pos_site_id
 _symmetry_equiv_pos_as_xyz
  1  'x, y, z'
loop_
 _atom_site_type_symbol
 _atom_site_label
 _atom_site_symmetry_multiplicity
 _atom_site_fract_x
 _atom_site_fract_y
 _atom_site_fract_z
 _atom_site_occupancy
  Sr  Sr0  1  0.00000000  0.67355000  0.00000000  1
  Sr  Sr1  1  0.00000000  0.65565200  0.50000000  1
  Sr  Sr2  1  0.32095100  0.98612900  0.75293200  1
  Sr  Sr3  1  0.01387100  0.33482200  0.75293200  1
  Sr  Sr4  1  0.34434800  0.34434800  0.50000000  1
  Sr  Sr5  1  0.32645000  0.32645000  0.00000000  1
  Sr  Sr6  1  0.66517800  0.67904900  0.75293200  1
  Sr  Sr7  1  0.33482200  0.01387100  0.24706800  1
  Sr  Sr8  1  0.67904900  0.66517800  0.24706800  1
  Sr  Sr9  1  0.65565200  0.00000000  0.50000000  1
  Sr  Sr10  1  0.67355000  0.00000000  0.00000000  1
  Sr  Sr11  1  0.98612900  0.32095100  0.24706800  1
  Ru  Ru12  1  0.00000000  0.00000000  0.84413200  1
  Ru  Ru13  1  0.33333300  0.66666700  0.91208100  1
  Ru  Ru14  1  0.33333300  0.66666700  0.59600000  1
  Ru  Ru15  1  0.66666700  0.33333300  0.40400000  1
  Ru  Ru16  1  0.66666700  0.33333300  0.08791900  1
  Ru  Ru17  1  0.00000000  0.00000000  0.15586800  1
  O  O18  1  0.01114500  0.83607700  0.27602600  1
  O  O19  1  0.15193600  0.64439900  0.75314500  1
  O  O20  1  0.31926100  0.82412100  0.03229300  1
  O  O21  1  0.31045900  0.82364000  0.47583400  1
  O  O22  1  0.00000000  0.16608000  0.00000000  1
  O  O23  1  0.17587900  0.49514100  0.03229300  1
  O  O24  1  0.17636000  0.48681900  0.47583400  1
  O  O25  1  0.49246300  0.84806400  0.75314500  1
  O  O26  1  0.16392300  0.17506800  0.27602600  1
  O  O27  1  0.17506800  0.16392300  0.72397400  1
  O  O28  1  0.35560100  0.50753700  0.75314500  1
  O  O29  1  0.16608000  0.00000000  0.00000000  1
  O  O30  1  0.50485900  0.68073900  0.03229300  1
  O  O31  1  0.51318100  0.68954100  0.47583400  1
  O  O32  1  0.82493200  0.98885500  0.27602600  1
  O  O33  1  0.50753700  0.35560100  0.24685500  1
  O  O34  1  0.48681900  0.17636000  0.52416600  1
  O  O35  1  0.49514100  0.17587900  0.96770700  1
  O  O36  1  0.83392000  0.83392000  0.00000000  1
  O  O37  1  0.68954100  0.51318100  0.52416600  1
  O  O38  1  0.68073900  0.50485900  0.96770700  1
  O  O39  1  0.64439900  0.15193600  0.24685500  1
  O  O40  1  0.98885500  0.82493200  0.72397400  1
  O  O41  1  0.84806400  0.49246300  0.24685500  1
  O  O42  1  0.82412100  0.31926100  0.96770700  1
  O  O43  1  0.82364000  0.31045900  0.52416600  1
  O  O44  1  0.83607700  0.01114500  0.72397400  1
