# generated using pymatgen
data_Ca(NO3)2
_symmetry_space_group_name_H-M   'P 1'
_cell_length_a   7.82114000
_cell_length_b   7.82114000
_cell_length_c   7.82114000
_cell_angle_alpha   90.00000000
_cell_angle_beta   90.00000000
_cell_angle_gamma   90.00000000
_symmetry_Int_Tables_number   1
_chemical_formula_structural   Ca(NO3)2
_chemical_formula_sum   'Ca4 N8 O24'
_cell_volume   478.42093970
_cell_formula_units_Z   4
loop_
 _symmetry_equiv_pos_site_id
 _symmetry_equiv_pos_as_xyz
  1  'x, y, z'
loop_
 _atom_site_type_symbol
 _atom_site_label
 _atom_site_symmetry_multiplicity
 _atom_site_fract_x
 _atom_site_fract_y
 _atom_site_fract_z
 _atom_site_occupancy
  Ca  Ca0  1  0.00000000  0.50000000  0.50000000  1
  Ca  Ca1  1  0.50000000  0.50000000  0.00000000  1
  Ca  Ca2  1  0.50000000  0.00000000  0.50000000  1
  Ca  Ca3  1  0.00000000  0.00000000  0.00000000  1
  N  N4  1  0.33685400  0.33685400  0.33685400  1
  N  N5  1  0.33685400  0.16314600  0.83685400  1
  N  N6  1  0.16314600  0.83685400  0.33685400  1
  N  N7  1  0.83685400  0.33685400  0.16314600  1
  N  N8  1  0.66314600  0.66314600  0.66314600  1
  N  N9  1  0.16314600  0.66314600  0.83685400  1
  N  N10  1  0.83685400  0.16314600  0.66314600  1
  N  N11  1  0.66314600  0.83685400  0.16314600  1
  O  O12  1  0.74604900  0.29891600  0.03467500  1
  O  O13  1  0.20108400  0.96532500  0.24604900  1
  O  O14  1  0.25395100  0.79891600  0.46532500  1
  O  O15  1  0.24604900  0.20108400  0.96532500  1
  O  O16  1  0.24604900  0.29891600  0.46532500  1
  O  O17  1  0.46532500  0.24604900  0.29891600  1
  O  O18  1  0.29891600  0.46532500  0.24604900  1
  O  O19  1  0.20108400  0.53467500  0.74604900  1
  O  O20  1  0.96532500  0.25395100  0.70108400  1
  O  O21  1  0.70108400  0.96532500  0.25395100  1
  O  O22  1  0.03467500  0.75395100  0.79891600  1
  O  O23  1  0.53467500  0.74604900  0.20108400  1
  O  O24  1  0.79891600  0.03467500  0.75395100  1
  O  O25  1  0.74604900  0.20108400  0.53467500  1
  O  O26  1  0.75395100  0.79891600  0.03467500  1
  O  O27  1  0.25395100  0.70108400  0.96532500  1
  O  O28  1  0.75395100  0.70108400  0.53467500  1
  O  O29  1  0.53467500  0.75395100  0.70108400  1
  O  O30  1  0.70108400  0.53467500  0.75395100  1
  O  O31  1  0.79891600  0.46532500  0.25395100  1
  O  O32  1  0.03467500  0.74604900  0.29891600  1
  O  O33  1  0.29891600  0.03467500  0.74604900  1
  O  O34  1  0.96532500  0.24604900  0.20108400  1
  O  O35  1  0.46532500  0.25395100  0.79891600  1
