# generated using pymatgen
data_Sr2Nb2O7
_symmetry_space_group_name_H-M   'P 1'
_cell_length_a   13.81770169
_cell_length_b   13.81770169
_cell_length_c   5.82778000
_cell_angle_alpha   90.00000000
_cell_angle_beta   90.00000000
_cell_angle_gamma   163.34848039
_symmetry_Int_Tables_number   1
_chemical_formula_structural   Sr2Nb2O7
_chemical_formula_sum   'Sr4 Nb4 O14'
_cell_volume   318.84171061
_cell_formula_units_Z   2
loop_
 _symmetry_equiv_pos_site_id
 _symmetry_equiv_pos_as_xyz
  1  'x, y, z'
loop_
 _atom_site_type_symbol
 _atom_site_label
 _atom_site_symmetry_multiplicity
 _atom_site_fract_x
 _atom_site_fract_y
 _atom_site_fract_z
 _atom_site_occupancy
  Sr  Sr0  1  0.29087100  0.70912900  0.03979200  1
  Sr  Sr1  1  0.70912900  0.29087100  0.53979200  1
  Sr  Sr2  1  0.44906500  0.55093500  0.47581600  1
  Sr  Sr3  1  0.55093500  0.44906500  0.97581600  1
  Nb  Nb4  1  0.83882400  0.16117600  0.50435700  1
  Nb  Nb5  1  0.16117600  0.83882400  0.00435700  1
  Nb  Nb6  1  0.05847500  0.94152500  0.47279300  1
  Nb  Nb7  1  0.94152500  0.05847500  0.97279300  1
  O  O8  1  0.45160100  0.54839900  0.93872500  1
  O  O9  1  0.54839900  0.45160100  0.43872500  1
  O  O10  1  0.90776500  0.09223500  0.66357300  1
  O  O11  1  0.09223500  0.90776500  0.16357300  1
  O  O12  1  0.80072900  0.19927100  0.76699100  1
  O  O13  1  0.19927100  0.80072900  0.26699100  1
  O  O14  1  0.21447800  0.78552200  0.79260600  1
  O  O15  1  0.78552200  0.21447800  0.29260600  1
  O  O16  1  0.99148300  0.00851700  0.21743100  1
  O  O17  1  0.00851700  0.99148300  0.71743100  1
  O  O18  1  0.88880900  0.11119100  0.17146500  1
  O  O19  1  0.11119100  0.88880900  0.67146500  1
  O  O20  1  0.34952500  0.65047500  0.46657100  1
  O  O21  1  0.65047500  0.34952500  0.96657100  1
