# generated using pymatgen
data_MnPd3
_symmetry_space_group_name_H-M   'P 1'
_cell_length_a   8.33618212
_cell_length_b   8.33618212
_cell_length_c   8.33618212
_cell_angle_alpha   152.66541852
_cell_angle_beta   152.66541852
_cell_angle_gamma   39.04235847
_symmetry_Int_Tables_number   1
_chemical_formula_structural   MnPd3
_chemical_formula_sum   'Mn2 Pd6'
_cell_volume   121.93205879
_cell_formula_units_Z   2
loop_
 _symmetry_equiv_pos_site_id
 _symmetry_equiv_pos_as_xyz
  1  'x, y, z'
loop_
 _atom_site_type_symbol
 _atom_site_label
 _atom_site_symmetry_multiplicity
 _atom_site_fract_x
 _atom_site_fract_y
 _atom_site_fract_z
 _atom_site_occupancy
  Mn  Mn0  1  0.12443700  0.12443700  0.00000000  1
  Mn  Mn1  1  0.87556300  0.87556300  0.00000000  1
  Pd  Pd2  1  0.37458500  0.37458500  0.00000000  1
  Pd  Pd3  1  0.62541500  0.62541500  0.00000000  1
  Pd  Pd4  1  0.00000000  0.50000000  0.50000000  1
  Pd  Pd5  1  0.50000000  0.00000000  0.50000000  1
  Pd  Pd6  1  0.25000000  0.75000000  0.50000000  1
  Pd  Pd7  1  0.75000000  0.25000000  0.50000000  1
