# generated using pymatgen
data_PbF4
_symmetry_space_group_name_H-M   'P 1'
_cell_length_a   5.24441731
_cell_length_b   5.24441731
_cell_length_c   5.24441731
_cell_angle_alpha   130.73448652
_cell_angle_beta   130.73448652
_cell_angle_gamma   72.23526513
_symmetry_Int_Tables_number   1
_chemical_formula_structural   PbF4
_chemical_formula_sum   'Pb1 F4'
_cell_volume   80.96861449
_cell_formula_units_Z   1
loop_
 _symmetry_equiv_pos_site_id
 _symmetry_equiv_pos_as_xyz
  1  'x, y, z'
loop_
 _atom_site_type_symbol
 _atom_site_label
 _atom_site_symmetry_multiplicity
 _atom_site_fract_x
 _atom_site_fract_y
 _atom_site_fract_z
 _atom_site_occupancy
  Pb  Pb0  1  0.00000000  0.00000000  0.00000000  1
  F  F1  1  0.76433500  0.76433500  0.00000000  1
  F  F2  1  0.50000000  0.00000000  0.50000000  1
  F  F3  1  0.00000000  0.50000000  0.50000000  1
  F  F4  1  0.23566500  0.23566500  0.00000000  1
