# generated using pymatgen
data_Mg5(Si8Pt5)2
_symmetry_space_group_name_H-M   'P 1'
_cell_length_a   8.97565993
_cell_length_b   8.97565993
_cell_length_c   8.97565993
_cell_angle_alpha   60.00000000
_cell_angle_beta   60.00000000
_cell_angle_gamma   60.00000000
_symmetry_Int_Tables_number   1
_chemical_formula_structural   Mg5(Si8Pt5)2
_chemical_formula_sum   'Mg5 Si16 Pt10'
_cell_volume   511.30986361
_cell_formula_units_Z   1
loop_
 _symmetry_equiv_pos_site_id
 _symmetry_equiv_pos_as_xyz
  1  'x, y, z'
loop_
 _atom_site_type_symbol
 _atom_site_label
 _atom_site_symmetry_multiplicity
 _atom_site_fract_x
 _atom_site_fract_y
 _atom_site_fract_z
 _atom_site_occupancy
  Mg  Mg0  1  0.34419800  0.34419800  0.34419800  1
  Mg  Mg1  1  0.96740700  0.34419800  0.34419800  1
  Mg  Mg2  1  0.34419800  0.96740700  0.34419800  1
  Mg  Mg3  1  0.34419800  0.34419800  0.96740700  1
  Mg  Mg4  1  0.00000000  0.00000000  0.00000000  1
  Si  Si5  1  0.67708100  0.95566400  0.95566400  1
  Si  Si6  1  0.57263600  0.57263600  0.28209200  1
  Si  Si7  1  0.57263600  0.28209200  0.57263600  1
  Si  Si8  1  0.28209200  0.57263600  0.57263600  1
  Si  Si9  1  0.57263600  0.57263600  0.57263600  1
  Si  Si10  1  0.41159100  0.95566400  0.95566400  1
  Si  Si11  1  0.41159100  0.95566400  0.67708100  1
  Si  Si12  1  0.41159100  0.67708100  0.95566400  1
  Si  Si13  1  0.95566400  0.95566400  0.41159100  1
  Si  Si14  1  0.95566400  0.41159100  0.95566400  1
  Si  Si15  1  0.95566400  0.95566400  0.67708100  1
  Si  Si16  1  0.67708100  0.95566400  0.41159100  1
  Si  Si17  1  0.95566400  0.67708100  0.95566400  1
  Si  Si18  1  0.95566400  0.41159100  0.67708100  1
  Si  Si19  1  0.67708100  0.41159100  0.95566400  1
  Si  Si20  1  0.95566400  0.67708100  0.41159100  1
  Pt  Pt21  1  0.12671700  0.12671700  0.12671700  1
  Pt  Pt22  1  0.73212100  0.73212100  0.26787900  1
  Pt  Pt23  1  0.26787900  0.26787900  0.73212100  1
  Pt  Pt24  1  0.73212100  0.26787900  0.73212100  1
  Pt  Pt25  1  0.26787900  0.73212100  0.73212100  1
  Pt  Pt26  1  0.73212100  0.26787900  0.26787900  1
  Pt  Pt27  1  0.26787900  0.73212100  0.26787900  1
  Pt  Pt28  1  0.12671700  0.12671700  0.61984800  1
  Pt  Pt29  1  0.12671700  0.61984800  0.12671700  1
  Pt  Pt30  1  0.61984800  0.12671700  0.12671700  1
