# generated using pymatgen
data_K3VS4
_symmetry_space_group_name_H-M   'P 1'
_cell_length_a   9.22006100
_cell_length_b   9.31987500
_cell_length_c   10.73988300
_cell_angle_alpha   90.00000000
_cell_angle_beta   90.00000000
_cell_angle_gamma   90.00000000
_symmetry_Int_Tables_number   1
_chemical_formula_structural   K3VS4
_chemical_formula_sum   'K12 V4 S16'
_cell_volume   922.87617018
_cell_formula_units_Z   4
loop_
 _symmetry_equiv_pos_site_id
 _symmetry_equiv_pos_as_xyz
  1  'x, y, z'
loop_
 _atom_site_type_symbol
 _atom_site_label
 _atom_site_symmetry_multiplicity
 _atom_site_fract_x
 _atom_site_fract_y
 _atom_site_fract_z
 _atom_site_occupancy
  K  K0  1  0.05399000  0.20821900  0.04582500  1
  K  K1  1  0.13654300  0.41926700  0.75000000  1
  K  K2  1  0.36345700  0.91926700  0.25000000  1
  K  K3  1  0.63654300  0.08073300  0.75000000  1
  K  K4  1  0.86345700  0.58073300  0.25000000  1
  K  K5  1  0.94601000  0.79178100  0.54582500  1
  K  K6  1  0.55399000  0.29178100  0.45417500  1
  K  K7  1  0.44601000  0.70821900  0.95417500  1
  K  K8  1  0.55399000  0.29178100  0.04582500  1
  K  K9  1  0.05399000  0.20821900  0.45417500  1
  K  K10  1  0.44601000  0.70821900  0.54582500  1
  K  K11  1  0.94601000  0.79178100  0.95417500  1
  V  V12  1  0.78354600  0.01381500  0.25000000  1
  V  V13  1  0.71645400  0.51381500  0.75000000  1
  V  V14  1  0.28354600  0.48618500  0.25000000  1
  V  V15  1  0.21645400  0.98618500  0.75000000  1
  S  S16  1  0.33126600  0.05078100  0.91606900  1
  S  S17  1  0.19689700  0.75453600  0.75000000  1
  S  S18  1  0.30310300  0.25453600  0.25000000  1
  S  S19  1  0.69689700  0.74546400  0.75000000  1
  S  S20  1  0.80310300  0.24546400  0.25000000  1
  S  S21  1  0.00102500  0.08006600  0.75000000  1
  S  S22  1  0.49897500  0.58006600  0.25000000  1
  S  S23  1  0.50102500  0.41993400  0.75000000  1
  S  S24  1  0.99897500  0.91993400  0.25000000  1
  S  S25  1  0.66873400  0.94921900  0.41606900  1
  S  S26  1  0.83126600  0.44921900  0.58393100  1
  S  S27  1  0.16873400  0.55078100  0.08393100  1
  S  S28  1  0.66873400  0.94921900  0.08393100  1
  S  S29  1  0.33126600  0.05078100  0.58393100  1
  S  S30  1  0.16873400  0.55078100  0.41606900  1
  S  S31  1  0.83126600  0.44921900  0.91606900  1
