# generated using pymatgen
data_Hg2SeO5
_symmetry_space_group_name_H-M   'P 1'
_cell_length_a   7.31752700
_cell_length_b   9.79135400
_cell_length_c   15.49779826
_cell_angle_alpha   71.82828491
_cell_angle_beta   90.00000000
_cell_angle_gamma   90.00000000
_symmetry_Int_Tables_number   1
_chemical_formula_structural   Hg2SeO5
_chemical_formula_sum   'Hg16 Se8 O40'
_cell_volume   1055.01430633
_cell_formula_units_Z   8
loop_
 _symmetry_equiv_pos_site_id
 _symmetry_equiv_pos_as_xyz
  1  'x, y, z'
loop_
 _atom_site_type_symbol
 _atom_site_label
 _atom_site_symmetry_multiplicity
 _atom_site_fract_x
 _atom_site_fract_y
 _atom_site_fract_z
 _atom_site_occupancy
  Hg  Hg0  1  0.88278400  0.66854000  0.14207200  1
  Hg  Hg1  1  0.38278400  0.33146000  0.35792800  1
  Hg  Hg2  1  0.11721600  0.33146000  0.85792800  1
  Hg  Hg3  1  0.61721600  0.66854000  0.64207200  1
  Hg  Hg4  1  0.63538500  0.37038600  0.11228400  1
  Hg  Hg5  1  0.13538500  0.62961400  0.38771600  1
  Hg  Hg6  1  0.36461500  0.62961400  0.88771600  1
  Hg  Hg7  1  0.86461500  0.37038600  0.61228400  1
  Hg  Hg8  1  0.88227200  0.33042600  0.35587600  1
  Hg  Hg9  1  0.38227200  0.66957400  0.14412400  1
  Hg  Hg10  1  0.11772800  0.66957400  0.64412400  1
  Hg  Hg11  1  0.61772800  0.33042600  0.85587600  1
  Hg  Hg12  1  0.63535700  0.00596800  0.37668100  1
  Hg  Hg13  1  0.13535700  0.99403200  0.12331900  1
  Hg  Hg14  1  0.36464300  0.99403200  0.62331900  1
  Hg  Hg15  1  0.86464300  0.00596800  0.87668100  1
  Se  Se16  1  0.65339500  0.65713100  0.37769700  1
  Se  Se17  1  0.15339500  0.34286900  0.12230300  1
  Se  Se18  1  0.34660500  0.34286900  0.62230300  1
  Se  Se19  1  0.84660500  0.65713100  0.87769700  1
  Se  Se20  1  0.65289400  0.03921600  0.11375100  1
  Se  Se21  1  0.15289400  0.96078400  0.38624900  1
  Se  Se22  1  0.34710600  0.96078400  0.88624900  1
  Se  Se23  1  0.84710600  0.03921600  0.61375100  1
  O  O24  1  0.81577600  0.72721100  0.30092800  1
  O  O25  1  0.31577600  0.27278900  0.19907200  1
  O  O26  1  0.18422400  0.27278900  0.69907200  1
  O  O27  1  0.68422400  0.72721100  0.80092800  1
  O  O28  1  0.63223100  0.56112100  0.15049300  1
  O  O29  1  0.13223100  0.43887900  0.34950700  1
  O  O30  1  0.36776900  0.43887900  0.84950700  1
  O  O31  1  0.86776900  0.56112100  0.65049300  1
  O  O32  1  0.72796800  0.50277000  0.45079600  1
  O  O33  1  0.22796800  0.49723000  0.04920400  1
  O  O34  1  0.27203200  0.49723000  0.54920400  1
  O  O35  1  0.77203200  0.50277000  0.95079600  1
  O  O36  1  0.96067100  0.37373700  0.17232500  1
  O  O37  1  0.46067100  0.62626300  0.32767500  1
  O  O38  1  0.03932900  0.62626300  0.82767500  1
  O  O39  1  0.59787200  0.21050300  0.04455600  1
  O  O40  1  0.53932900  0.37373700  0.67232500  1
  O  O41  1  0.13061700  0.75871900  0.16288400  1
  O  O42  1  0.36938300  0.75871900  0.66288400  1
  O  O43  1  0.86938300  0.24128100  0.83711600  1
  O  O44  1  0.10556200  0.22723400  0.06171700  1
  O  O45  1  0.60556200  0.77276600  0.43828300  1
  O  O46  1  0.89443800  0.77276600  0.93828300  1
  O  O47  1  0.39443800  0.22723400  0.56171700  1
  O  O48  1  0.18381100  0.02827000  0.93795300  1
  O  O49  1  0.68381100  0.97173000  0.56204700  1
  O  O50  1  0.81618900  0.97173000  0.06204700  1
  O  O51  1  0.31618900  0.02827000  0.43795300  1
  O  O52  1  0.76961700  0.05950800  0.70965100  1
  O  O53  1  0.26961700  0.94049200  0.79034900  1
  O  O54  1  0.23038300  0.94049200  0.29034900  1
  O  O55  1  0.73038300  0.05950800  0.20965100  1
  O  O56  1  0.53293900  0.06287900  0.87692400  1
  O  O57  1  0.03293900  0.93712100  0.62307600  1
  O  O58  1  0.46706100  0.93712100  0.12307600  1
  O  O59  1  0.96706100  0.06287900  0.37692400  1
  O  O60  1  0.90212800  0.21050300  0.54455600  1
  O  O61  1  0.40212800  0.78949700  0.95544400  1
  O  O62  1  0.09787200  0.78949700  0.45544400  1
  O  O63  1  0.63061700  0.24128100  0.33711600  1
