# generated using pymatgen
data_CaZn
_symmetry_space_group_name_H-M   'P 1'
_cell_length_a   6.11125164
_cell_length_b   6.11125164
_cell_length_c   4.33910500
_cell_angle_alpha   90.00000000
_cell_angle_beta   90.00000000
_cell_angle_gamma   138.62643251
_symmetry_Int_Tables_number   1
_chemical_formula_structural   CaZn
_chemical_formula_sum   'Ca2 Zn2'
_cell_volume   107.11232465
_cell_formula_units_Z   2
loop_
 _symmetry_equiv_pos_site_id
 _symmetry_equiv_pos_as_xyz
  1  'x, y, z'
loop_
 _atom_site_type_symbol
 _atom_site_label
 _atom_site_symmetry_multiplicity
 _atom_site_fract_x
 _atom_site_fract_y
 _atom_site_fract_z
 _atom_site_occupancy
  Ca  Ca0  1  0.85419400  0.14580600  0.25000000  1
  Ca  Ca1  1  0.14580600  0.85419400  0.75000000  1
  Zn  Zn2  1  0.56508200  0.43491800  0.25000000  1
  Zn  Zn3  1  0.43491800  0.56508200  0.75000000  1
