# generated using pymatgen
data_K2TiF6
_symmetry_space_group_name_H-M   'P 1'
_cell_length_a   5.83003439
_cell_length_b   5.83003439
_cell_length_c   4.75529100
_cell_angle_alpha   90.00000000
_cell_angle_beta   90.00000000
_cell_angle_gamma   120.00000443
_symmetry_Int_Tables_number   1
_chemical_formula_structural   K2TiF6
_chemical_formula_sum   'K2 Ti1 F6'
_cell_volume   139.97482856
_cell_formula_units_Z   1
loop_
 _symmetry_equiv_pos_site_id
 _symmetry_equiv_pos_as_xyz
  1  'x, y, z'
loop_
 _atom_site_type_symbol
 _atom_site_label
 _atom_site_symmetry_multiplicity
 _atom_site_fract_x
 _atom_site_fract_y
 _atom_site_fract_z
 _atom_site_occupancy
  K  K0  1  0.33333300  0.66666700  0.69453000  1
  K  K1  1  0.66666700  0.33333300  0.30547000  1
  Ti  Ti2  1  0.00000000  0.00000000  0.00000000  1
  F  F3  1  0.31141700  0.15570800  0.77726100  1
  F  F4  1  0.84429200  0.15570800  0.77726100  1
  F  F5  1  0.84429200  0.68858300  0.77726100  1
  F  F6  1  0.15570800  0.31141700  0.22273900  1
  F  F7  1  0.68858300  0.84429200  0.22273900  1
  F  F8  1  0.15570800  0.84429200  0.22273900  1
