# generated using pymatgen
data_Sr(PRu)2
_symmetry_space_group_name_H-M   'P 1'
_cell_length_a   6.32987955
_cell_length_b   6.32987955
_cell_length_c   6.32987955
_cell_angle_alpha   142.52670848
_cell_angle_beta   142.52670848
_cell_angle_gamma   54.03619526
_symmetry_Int_Tables_number   1
_chemical_formula_structural   Sr(PRu)2
_chemical_formula_sum   'Sr1 P2 Ru2'
_cell_volume   93.25219597
_cell_formula_units_Z   1
loop_
 _symmetry_equiv_pos_site_id
 _symmetry_equiv_pos_as_xyz
  1  'x, y, z'
loop_
 _atom_site_type_symbol
 _atom_site_label
 _atom_site_symmetry_multiplicity
 _atom_site_fract_x
 _atom_site_fract_y
 _atom_site_fract_z
 _atom_site_occupancy
  Sr  Sr0  1  0.00000000  0.00000000  0.00000000  1
  P  P1  1  0.64884400  0.64884400  0.00000000  1
  P  P2  1  0.35115600  0.35115600  0.00000000  1
  Ru  Ru3  1  0.25000000  0.75000000  0.50000000  1
  Ru  Ru4  1  0.75000000  0.25000000  0.50000000  1
