# generated using pymatgen
data_Na2Ta4O11
_symmetry_space_group_name_H-M   'P 1'
_cell_length_a   12.87125783
_cell_length_b   12.87125783
_cell_length_c   12.87125678
_cell_angle_alpha   28.21244869
_cell_angle_beta   28.21244869
_cell_angle_gamma   28.21245093
_symmetry_Int_Tables_number   1
_chemical_formula_structural   Na2Ta4O11
_chemical_formula_sum   'Na4 Ta8 O22'
_cell_volume   421.03676588
_cell_formula_units_Z   2
loop_
 _symmetry_equiv_pos_site_id
 _symmetry_equiv_pos_as_xyz
  1  'x, y, z'
loop_
 _atom_site_type_symbol
 _atom_site_label
 _atom_site_symmetry_multiplicity
 _atom_site_fract_x
 _atom_site_fract_y
 _atom_site_fract_z
 _atom_site_occupancy
  Na  Na0  1  0.16545900  0.16545900  0.16545900  1
  Na  Na1  1  0.33454100  0.33454100  0.33454100  1
  Na  Na2  1  0.83454100  0.83454100  0.83454100  1
  Na  Na3  1  0.66545900  0.66545900  0.66545900  1
  Ta  Ta4  1  0.61267100  0.25000000  0.88732900  1
  Ta  Ta5  1  0.88732900  0.61267100  0.25000000  1
  Ta  Ta6  1  0.50000000  0.50000000  0.50000000  1
  Ta  Ta7  1  0.00000000  0.00000000  0.00000000  1
  Ta  Ta8  1  0.25000000  0.88732900  0.61267100  1
  Ta  Ta9  1  0.11267100  0.38732900  0.75000000  1
  Ta  Ta10  1  0.38732900  0.75000000  0.11267100  1
  Ta  Ta11  1  0.75000000  0.11267100  0.38732900  1
  O  O12  1  0.43784400  0.74573200  0.22410500  1
  O  O13  1  0.22410500  0.43784400  0.74573200  1
  O  O14  1  0.74573200  0.22410500  0.43784400  1
  O  O15  1  0.06215600  0.27589500  0.75426800  1
  O  O16  1  0.75426800  0.06215600  0.27589500  1
  O  O17  1  0.27589500  0.75426800  0.06215600  1
  O  O18  1  0.56215600  0.25426800  0.77589500  1
  O  O19  1  0.77589500  0.56215600  0.25426800  1
  O  O20  1  0.25426800  0.77589500  0.56215600  1
  O  O21  1  0.93784400  0.72410500  0.24573200  1
  O  O22  1  0.24573200  0.93784400  0.72410500  1
  O  O23  1  0.72410500  0.24573200  0.93784400  1
  O  O24  1  0.49720600  0.00279400  0.25000000  1
  O  O25  1  0.00279400  0.25000000  0.49720600  1
  O  O26  1  0.25000000  0.49720600  0.00279400  1
  O  O27  1  0.50279400  0.99720600  0.75000000  1
  O  O28  1  0.99720600  0.75000000  0.50279400  1
  O  O29  1  0.75000000  0.50279400  0.99720600  1
  O  O30  1  0.09393000  0.09393000  0.09393000  1
  O  O31  1  0.40607000  0.40607000  0.40607000  1
  O  O32  1  0.90607000  0.90607000  0.90607000  1
  O  O33  1  0.59393000  0.59393000  0.59393000  1
