# generated using pymatgen
data_Sr3Al2O6
_symmetry_space_group_name_H-M   'P 1'
_cell_length_a   15.99991462
_cell_length_b   15.99991462
_cell_length_c   15.99991462
_cell_angle_alpha   90.00000000
_cell_angle_beta   90.00000000
_cell_angle_gamma   90.00000000
_symmetry_Int_Tables_number   1
_chemical_formula_structural   Sr3Al2O6
_chemical_formula_sum   'Sr72 Al48 O144'
_cell_volume   4095.93442851
_cell_formula_units_Z   24
loop_
 _symmetry_equiv_pos_site_id
 _symmetry_equiv_pos_as_xyz
  1  'x, y, z'
loop_
 _atom_site_type_symbol
 _atom_site_label
 _atom_site_symmetry_multiplicity
 _atom_site_fract_x
 _atom_site_fract_y
 _atom_site_fract_z
 _atom_site_occupancy
  O  O0  1  0.26308370  0.12522085  0.00282982  1
  O  O1  1  0.00282982  0.26308370  0.12522085  1
  O  O2  1  0.12522085  0.00282982  0.26308370  1
  O  O3  1  0.37477915  0.99717018  0.76308370  1
  O  O4  1  0.50282982  0.23691630  0.87477915  1
  O  O5  1  0.87477915  0.50282982  0.23691630  1
  O  O6  1  0.49717018  0.73691630  0.62522085  1
  O  O7  1  0.99717018  0.76308370  0.37477915  1
  O  O8  1  0.62522085  0.49717018  0.73691630  1
  O  O9  1  0.76308370  0.37477915  0.99717018  1
  O  O10  1  0.73691630  0.62522085  0.49717018  1
  O  O11  1  0.23691630  0.87477915  0.50282982  1
  O  O12  1  0.73691630  0.87477915  0.99717018  1
  O  O13  1  0.99717018  0.73691630  0.87477915  1
  O  O14  1  0.87477915  0.99717018  0.73691630  1
  O  O15  1  0.62522085  0.00282982  0.23691630  1
  O  O16  1  0.49717018  0.76308370  0.12522085  1
  O  O17  1  0.12522085  0.49717018  0.76308370  1
  O  O18  1  0.50282982  0.26308370  0.37477915  1
  O  O19  1  0.00282982  0.23691630  0.62522085  1
  O  O20  1  0.37477915  0.50282982  0.26308370  1
  O  O21  1  0.23691630  0.62522085  0.00282982  1
  O  O22  1  0.26308370  0.37477915  0.50282982  1
  O  O23  1  0.76308370  0.12522085  0.49717018  1
  O  O24  1  0.49236305  0.12936601  0.24425445  1
  O  O25  1  0.24425445  0.49236305  0.12936601  1
  O  O26  1  0.12936601  0.24425445  0.49236305  1
  O  O27  1  0.37063399  0.75574555  0.99236305  1
  O  O28  1  0.74425445  0.00763695  0.87063399  1
  O  O29  1  0.87063399  0.74425445  0.00763695  1
  O  O30  1  0.25574555  0.50763695  0.62936601  1
  O  O31  1  0.75574555  0.99236305  0.37063399  1
  O  O32  1  0.62936601  0.25574555  0.50763695  1
  O  O33  1  0.99236305  0.37063399  0.75574555  1
  O  O34  1  0.50763695  0.62936601  0.25574555  1
  O  O35  1  0.00763695  0.87063399  0.74425445  1
  O  O36  1  0.50763695  0.87063399  0.75574555  1
  O  O37  1  0.75574555  0.50763695  0.87063399  1
  O  O38  1  0.87063399  0.75574555  0.50763695  1
  O  O39  1  0.62936601  0.24425445  0.00763695  1
  O  O40  1  0.25574555  0.99236305  0.12936601  1
  O  O41  1  0.12936601  0.25574555  0.99236305  1
  O  O42  1  0.74425445  0.49236305  0.37063399  1
  O  O43  1  0.24425445  0.00763695  0.62936601  1
  O  O44  1  0.37063399  0.74425445  0.49236305  1
  O  O45  1  0.00763695  0.62936601  0.24425445  1
  O  O46  1  0.49236305  0.37063399  0.74425445  1
  O  O47  1  0.99236305  0.12936601  0.25574555  1
  O  O48  1  0.26980406  0.27710803  0.10025450  1
  O  O49  1  0.10025450  0.26980406  0.27710803  1
  O  O50  1  0.27710803  0.10025450  0.26980406  1
  O  O51  1  0.22289197  0.89974550  0.76980406  1
  O  O52  1  0.60025450  0.23019594  0.72289197  1
  O  O53  1  0.72289197  0.60025450  0.23019594  1
  O  O54  1  0.39974550  0.73019594  0.77710803  1
  O  O55  1  0.89974550  0.76980406  0.22289197  1
  O  O56  1  0.77710803  0.39974550  0.73019594  1
  O  O57  1  0.76980406  0.22289197  0.89974550  1
  O  O58  1  0.73019594  0.77710803  0.39974550  1
  O  O59  1  0.23019594  0.72289197  0.60025450  1
  O  O60  1  0.73019594  0.72289197  0.89974550  1
  O  O61  1  0.89974550  0.73019594  0.72289197  1
  O  O62  1  0.72289197  0.89974550  0.73019594  1
  O  O63  1  0.77710803  0.10025450  0.23019594  1
  O  O64  1  0.39974550  0.76980406  0.27710803  1
  O  O65  1  0.27710803  0.39974550  0.76980406  1
  O  O66  1  0.60025450  0.26980406  0.22289197  1
  O  O67  1  0.10025450  0.23019594  0.77710803  1
  O  O68  1  0.22289197  0.60025450  0.26980406  1
  O  O69  1  0.23019594  0.77710803  0.10025450  1
  O  O70  1  0.26980406  0.22289197  0.60025450  1
  O  O71  1  0.76980406  0.27710803  0.39974550  1
  O  O72  1  0.23440971  0.40586727  0.27958581  1
  O  O73  1  0.27958581  0.23440971  0.40586727  1
  O  O74  1  0.40586727  0.27958581  0.23440971  1
  O  O75  1  0.09413273  0.72041419  0.73440971  1
  O  O76  1  0.77958581  0.26559029  0.59413273  1
  O  O77  1  0.59413273  0.77958581  0.26559029  1
  O  O78  1  0.22041419  0.76559029  0.90586727  1
  O  O79  1  0.72041419  0.73440971  0.09413273  1
  O  O80  1  0.90586727  0.22041419  0.76559029  1
  O  O81  1  0.73440971  0.09413273  0.72041419  1
  O  O82  1  0.76559029  0.90586727  0.22041419  1
  O  O83  1  0.26559029  0.59413273  0.77958581  1
  O  O84  1  0.76559029  0.59413273  0.72041419  1
  O  O85  1  0.72041419  0.76559029  0.59413273  1
  O  O86  1  0.59413273  0.72041419  0.76559029  1
  O  O87  1  0.90586727  0.27958581  0.26559029  1
  O  O88  1  0.22041419  0.73440971  0.40586727  1
  O  O89  1  0.40586727  0.22041419  0.73440971  1
  O  O90  1  0.77958581  0.23440971  0.09413273  1
  O  O91  1  0.27958581  0.26559029  0.90586727  1
  O  O92  1  0.09413273  0.77958581  0.23440971  1
  O  O93  1  0.26559029  0.90586727  0.27958581  1
  O  O94  1  0.23440971  0.09413273  0.77958581  1
  O  O95  1  0.73440971  0.40586727  0.22041419  1
  O  O96  1  0.34662024  0.97390418  0.98006348  1
  O  O97  1  0.98006348  0.34662024  0.97390418  1
  O  O98  1  0.97390418  0.98006348  0.34662024  1
  O  O99  1  0.52609582  0.01993652  0.84662024  1
  O  O100  1  0.48006348  0.15337976  0.02609582  1
  O  O101  1  0.02609582  0.48006348  0.15337976  1
  O  O102  1  0.51993652  0.65337976  0.47390418  1
  O  O103  1  0.01993652  0.84662024  0.52609582  1
  O  O104  1  0.47390418  0.51993652  0.65337976  1
  O  O105  1  0.84662024  0.52609582  0.01993652  1
  O  O106  1  0.65337976  0.47390418  0.51993652  1
  O  O107  1  0.15337976  0.02609582  0.48006348  1
  O  O108  1  0.65337976  0.02609582  0.01993652  1
  O  O109  1  0.01993652  0.65337976  0.02609582  1
  O  O110  1  0.02609582  0.01993652  0.65337976  1
  O  O111  1  0.47390418  0.98006348  0.15337976  1
  O  O112  1  0.51993652  0.84662024  0.97390418  1
  O  O113  1  0.97390418  0.51993652  0.84662024  1
  O  O114  1  0.48006348  0.34662024  0.52609582  1
  O  O115  1  0.98006348  0.15337976  0.47390418  1
  O  O116  1  0.52609582  0.48006348  0.34662024  1
  O  O117  1  0.15337976  0.47390418  0.98006348  1
  O  O118  1  0.34662024  0.52609582  0.48006348  1
  O  O119  1  0.84662024  0.97390418  0.51993652  1
  O  O120  1  0.15395483  0.98312829  0.98241583  1
  O  O121  1  0.98241583  0.15395483  0.98312829  1
  O  O122  1  0.98312829  0.98241583  0.15395483  1
  O  O123  1  0.51687171  0.01758417  0.65395483  1
  O  O124  1  0.48241583  0.34604517  0.01687171  1
  O  O125  1  0.01687171  0.48241583  0.34604517  1
  O  O126  1  0.51758417  0.84604517  0.48312829  1
  O  O127  1  0.01758417  0.65395483  0.51687171  1
  O  O128  1  0.48312829  0.51758417  0.84604517  1
  O  O129  1  0.65395483  0.51687171  0.01758417  1
  O  O130  1  0.84604517  0.48312829  0.51758417  1
  O  O131  1  0.34604517  0.01687171  0.48241583  1
  O  O132  1  0.84604517  0.01687171  0.01758417  1
  O  O133  1  0.01758417  0.84604517  0.01687171  1
  O  O134  1  0.01687171  0.01758417  0.84604517  1
  O  O135  1  0.48312829  0.98241583  0.34604517  1
  O  O136  1  0.51758417  0.65395483  0.98312829  1
  O  O137  1  0.98312829  0.51758417  0.65395483  1
  O  O138  1  0.48241583  0.15395483  0.51687171  1
  O  O139  1  0.98241583  0.34604517  0.48312829  1
  O  O140  1  0.51687171  0.48241583  0.15395483  1
  O  O141  1  0.34604517  0.48312829  0.98241583  1
  O  O142  1  0.15395483  0.51687171  0.48241583  1
  O  O143  1  0.65395483  0.98312829  0.51758417  1
  Al  Al144  1  0.25162436  0.01590410  0.02008892  1
  Al  Al145  1  0.02008892  0.25162436  0.01590410  1
  Al  Al146  1  0.01590410  0.02008892  0.25162436  1
  Al  Al147  1  0.48409590  0.97991108  0.75162436  1
  Al  Al148  1  0.52008892  0.24837564  0.98409590  1
  Al  Al149  1  0.98409590  0.52008892  0.24837564  1
  Al  Al150  1  0.47991108  0.74837564  0.51590410  1
  Al  Al151  1  0.97991108  0.75162436  0.48409590  1
  Al  Al152  1  0.51590410  0.47991108  0.74837564  1
  Al  Al153  1  0.75162436  0.48409590  0.97991108  1
  Al  Al154  1  0.74837564  0.51590410  0.47991108  1
  Al  Al155  1  0.24837564  0.98409590  0.52008892  1
  Al  Al156  1  0.74837564  0.98409590  0.97991108  1
  Al  Al157  1  0.97991108  0.74837564  0.98409590  1
  Al  Al158  1  0.98409590  0.97991108  0.74837564  1
  Al  Al159  1  0.51590410  0.02008892  0.24837564  1
  Al  Al160  1  0.47991108  0.75162436  0.01590410  1
  Al  Al161  1  0.01590410  0.47991108  0.75162436  1
  Al  Al162  1  0.52008892  0.25162436  0.48409590  1
  Al  Al163  1  0.02008892  0.24837564  0.51590410  1
  Al  Al164  1  0.48409590  0.52008892  0.25162436  1
  Al  Al165  1  0.24837564  0.51590410  0.02008892  1
  Al  Al166  1  0.25162436  0.48409590  0.52008892  1
  Al  Al167  1  0.75162436  0.01590410  0.47991108  1
  Al  Al168  1  0.23859991  0.23395493  0.00412636  1
  Al  Al169  1  0.00412636  0.23859991  0.23395493  1
  Al  Al170  1  0.23395493  0.00412636  0.23859991  1
  Al  Al171  1  0.26604507  0.99587364  0.73859991  1
  Al  Al172  1  0.50412636  0.26140009  0.76604507  1
  Al  Al173  1  0.76604507  0.50412636  0.26140009  1
  Al  Al174  1  0.49587364  0.76140009  0.73395493  1
  Al  Al175  1  0.99587364  0.73859991  0.26604507  1
  Al  Al176  1  0.73395493  0.49587364  0.76140009  1
  Al  Al177  1  0.73859991  0.26604507  0.99587364  1
  Al  Al178  1  0.76140009  0.73395493  0.49587364  1
  Al  Al179  1  0.26140009  0.76604507  0.50412636  1
  Al  Al180  1  0.76140009  0.76604507  0.99587364  1
  Al  Al181  1  0.99587364  0.76140009  0.76604507  1
  Al  Al182  1  0.76604507  0.99587364  0.76140009  1
  Al  Al183  1  0.73395493  0.00412636  0.26140009  1
  Al  Al184  1  0.49587364  0.73859991  0.23395493  1
  Al  Al185  1  0.23395493  0.49587364  0.73859991  1
  Al  Al186  1  0.50412636  0.23859991  0.26604507  1
  Al  Al187  1  0.00412636  0.26140009  0.73395493  1
  Al  Al188  1  0.26604507  0.50412636  0.23859991  1
  Al  Al189  1  0.26140009  0.73395493  0.00412636  1
  Al  Al190  1  0.23859991  0.26604507  0.50412636  1
  Al  Al191  1  0.73859991  0.23395493  0.49587364  1
  Sr  Sr192  1  0.00000000  0.00000000  0.00000000  1
  Sr  Sr193  1  0.50000000  0.00000000  0.50000000  1
  Sr  Sr194  1  0.50000000  0.50000000  0.00000000  1
  Sr  Sr195  1  0.00000000  0.50000000  0.50000000  1
  Sr  Sr196  1  0.50000000  0.00000000  0.00000000  1
  Sr  Sr197  1  0.00000000  0.50000000  0.00000000  1
  Sr  Sr198  1  0.00000000  0.00000000  0.50000000  1
  Sr  Sr199  1  0.50000000  0.50000000  0.50000000  1
  Sr  Sr200  1  0.25227153  0.25227153  0.25227153  1
  Sr  Sr201  1  0.24772847  0.74772847  0.75227153  1
  Sr  Sr202  1  0.75227153  0.24772847  0.74772847  1
  Sr  Sr203  1  0.74772847  0.75227153  0.24772847  1
  Sr  Sr204  1  0.74772847  0.74772847  0.74772847  1
  Sr  Sr205  1  0.75227153  0.25227153  0.24772847  1
  Sr  Sr206  1  0.24772847  0.75227153  0.25227153  1
  Sr  Sr207  1  0.25227153  0.24772847  0.75227153  1
  Sr  Sr208  1  0.37563243  0.37563243  0.37563243  1
  Sr  Sr209  1  0.12436757  0.62436757  0.87563243  1
  Sr  Sr210  1  0.87563243  0.12436757  0.62436757  1
  Sr  Sr211  1  0.62436757  0.87563243  0.12436757  1
  Sr  Sr212  1  0.62436757  0.62436757  0.62436757  1
  Sr  Sr213  1  0.87563243  0.37563243  0.12436757  1
  Sr  Sr214  1  0.12436757  0.87563243  0.37563243  1
  Sr  Sr215  1  0.37563243  0.12436757  0.87563243  1
  Sr  Sr216  1  0.13466962  0.37542833  0.13172051  1
  Sr  Sr217  1  0.13172051  0.13466962  0.37542833  1
  Sr  Sr218  1  0.37542833  0.13172051  0.13466962  1
  Sr  Sr219  1  0.12457167  0.86827949  0.63466962  1
  Sr  Sr220  1  0.63172051  0.36533038  0.62457167  1
  Sr  Sr221  1  0.62457167  0.63172051  0.36533038  1
  Sr  Sr222  1  0.36827949  0.86533038  0.87542833  1
  Sr  Sr223  1  0.86827949  0.63466962  0.12457167  1
  Sr  Sr224  1  0.87542833  0.36827949  0.86533038  1
  Sr  Sr225  1  0.63466962  0.12457167  0.86827949  1
  Sr  Sr226  1  0.86533038  0.87542833  0.36827949  1
  Sr  Sr227  1  0.36533038  0.62457167  0.63172051  1
  Sr  Sr228  1  0.86533038  0.62457167  0.86827949  1
  Sr  Sr229  1  0.86827949  0.86533038  0.62457167  1
  Sr  Sr230  1  0.62457167  0.86827949  0.86533038  1
  Sr  Sr231  1  0.87542833  0.13172051  0.36533038  1
  Sr  Sr232  1  0.36827949  0.63466962  0.37542833  1
  Sr  Sr233  1  0.37542833  0.36827949  0.63466962  1
  Sr  Sr234  1  0.63172051  0.13466962  0.12457167  1
  Sr  Sr235  1  0.13172051  0.36533038  0.87542833  1
  Sr  Sr236  1  0.12457167  0.63172051  0.13466962  1
  Sr  Sr237  1  0.36533038  0.87542833  0.13172051  1
  Sr  Sr238  1  0.13466962  0.12457167  0.63172051  1
  Sr  Sr239  1  0.63466962  0.37542833  0.36827949  1
  Sr  Sr240  1  0.38013872  0.38404598  0.12474275  1
  Sr  Sr241  1  0.12474275  0.38013872  0.38404598  1
  Sr  Sr242  1  0.38404598  0.12474275  0.38013872  1
  Sr  Sr243  1  0.11595402  0.87525725  0.88013872  1
  Sr  Sr244  1  0.62474275  0.11986128  0.61595402  1
  Sr  Sr245  1  0.61595402  0.62474275  0.11986128  1
  Sr  Sr246  1  0.37525725  0.61986128  0.88404598  1
  Sr  Sr247  1  0.87525725  0.88013872  0.11595402  1
  Sr  Sr248  1  0.88404598  0.37525725  0.61986128  1
  Sr  Sr249  1  0.88013872  0.11595402  0.87525725  1
  Sr  Sr250  1  0.61986128  0.88404598  0.37525725  1
  Sr  Sr251  1  0.11986128  0.61595402  0.62474275  1
  Sr  Sr252  1  0.61986128  0.61595402  0.87525725  1
  Sr  Sr253  1  0.87525725  0.61986128  0.61595402  1
  Sr  Sr254  1  0.61595402  0.87525725  0.61986128  1
  Sr  Sr255  1  0.88404598  0.12474275  0.11986128  1
  Sr  Sr256  1  0.37525725  0.88013872  0.38404598  1
  Sr  Sr257  1  0.38404598  0.37525725  0.88013872  1
  Sr  Sr258  1  0.62474275  0.38013872  0.11595402  1
  Sr  Sr259  1  0.12474275  0.11986128  0.88404598  1
  Sr  Sr260  1  0.11595402  0.62474275  0.38013872  1
  Sr  Sr261  1  0.11986128  0.88404598  0.12474275  1
  Sr  Sr262  1  0.38013872  0.11595402  0.62474275  1
  Sr  Sr263  1  0.88013872  0.38404598  0.37525725  1
