# generated using pymatgen
data_LaB5O9
_symmetry_space_group_name_H-M   'P 1'
_cell_length_a   11.82438700
_cell_length_b   6.50456800
_cell_length_c   8.26343061
_cell_angle_alpha   74.71968559
_cell_angle_beta   90.00000000
_cell_angle_gamma   90.00000000
_symmetry_Int_Tables_number   1
_chemical_formula_structural   LaB5O9
_chemical_formula_sum   'La4 B20 O36'
_cell_volume   613.09299863
_cell_formula_units_Z   4
loop_
 _symmetry_equiv_pos_site_id
 _symmetry_equiv_pos_as_xyz
  1  'x, y, z'
loop_
 _atom_site_type_symbol
 _atom_site_label
 _atom_site_symmetry_multiplicity
 _atom_site_fract_x
 _atom_site_fract_y
 _atom_site_fract_z
 _atom_site_occupancy
  La  La0  1  0.67407800  0.74976400  0.36004200  1
  La  La1  1  0.17407800  0.25023600  0.13995800  1
  La  La2  1  0.32592200  0.25023600  0.63995800  1
  La  La3  1  0.82592200  0.74976400  0.86004200  1
  B  B4  1  0.24870400  0.77375600  0.16904500  1
  B  B5  1  0.74870400  0.22624400  0.33095500  1
  B  B6  1  0.75129600  0.22624400  0.83095500  1
  B  B7  1  0.25129600  0.77375600  0.66904500  1
  B  B8  1  0.63038600  0.18784100  0.59210100  1
  B  B9  1  0.13038600  0.81215900  0.90789900  1
  B  B10  1  0.40204400  0.51917500  0.27425900  1
  B  B11  1  0.90204400  0.48082500  0.22574100  1
  B  B12  1  0.59795600  0.48082500  0.72574100  1
  B  B13  1  0.09795600  0.51917500  0.77425900  1
  B  B14  1  0.94473200  0.71069800  0.54568900  1
  B  B15  1  0.44473200  0.28930200  0.95431100  1
  B  B16  1  0.05526800  0.28930200  0.45431100  1
  B  B17  1  0.55526800  0.71069800  0.04568900  1
  B  B18  1  0.46404400  0.14682300  0.25547800  1
  B  B19  1  0.96404400  0.85317700  0.24452200  1
  B  B20  1  0.53595600  0.85317700  0.74452200  1
  B  B21  1  0.03595600  0.14682300  0.75547800  1
  B  B22  1  0.36961400  0.81215900  0.40789900  1
  B  B23  1  0.86961400  0.18784100  0.09210100  1
  O  O24  1  0.47398300  0.93372000  0.33870600  1
  O  O25  1  0.16784200  0.24322900  0.45081000  1
  O  O26  1  0.33215800  0.24322900  0.95081000  1
  O  O27  1  0.83215800  0.75677100  0.54919000  1
  O  O28  1  0.98883900  0.22045200  0.59712000  1
  O  O29  1  0.48883900  0.77954800  0.90288000  1
  O  O30  1  0.01116100  0.77954800  0.40288000  1
  O  O31  1  0.66784200  0.75677100  0.04919000  1
  O  O32  1  0.19900100  0.58658200  0.66401700  1
  O  O33  1  0.69900100  0.41341800  0.83598300  1
  O  O34  1  0.97398300  0.06628000  0.16129400  1
  O  O35  1  0.30099900  0.58658200  0.16401700  1
  O  O36  1  0.33855500  0.86264100  0.56457400  1
  O  O37  1  0.83855500  0.13735900  0.93542600  1
  O  O38  1  0.66144500  0.13735900  0.43542600  1
  O  O39  1  0.16144500  0.86264100  0.06457400  1
  O  O40  1  0.22221500  0.88933800  0.78086900  1
  O  O41  1  0.72221500  0.11066200  0.71913100  1
  O  O42  1  0.77778500  0.11066200  0.21913100  1
  O  O43  1  0.27778500  0.88933800  0.28086900  1
  O  O44  1  0.52601700  0.06628000  0.66129400  1
  O  O45  1  0.02601700  0.93372000  0.83870600  1
  O  O46  1  0.40163100  0.28086100  0.32598100  1
  O  O47  1  0.90163100  0.71913900  0.17401900  1
  O  O48  1  0.59836900  0.71913900  0.67401900  1
  O  O49  1  0.80099900  0.41341800  0.33598300  1
  O  O50  1  0.50950200  0.60198800  0.19812800  1
  O  O51  1  0.00950200  0.39801200  0.30187200  1
  O  O52  1  0.49049800  0.39801200  0.80187200  1
  O  O53  1  0.99049800  0.60198800  0.69812800  1
  O  O54  1  0.38699600  0.58449600  0.43050100  1
  O  O55  1  0.88699600  0.41550400  0.06949900  1
  O  O56  1  0.61300400  0.41550400  0.56950000  1
  O  O57  1  0.11300400  0.58449600  0.93050000  1
  O  O58  1  0.51116100  0.22045200  0.09712000  1
  O  O59  1  0.09836900  0.28086100  0.82598100  1
