# generated using pymatgen
data_Ag2S
_symmetry_space_group_name_H-M   'P 1'
_cell_length_a   5.89856400
_cell_length_b   4.34521100
_cell_length_c   5.91127983
_cell_angle_alpha   75.04651307
_cell_angle_beta   90.00000000
_cell_angle_gamma   90.00000000
_symmetry_Int_Tables_number   1
_chemical_formula_structural   Ag2S
_chemical_formula_sum   'Ag4 S2'
_cell_volume   146.37832686
_cell_formula_units_Z   2
loop_
 _symmetry_equiv_pos_site_id
 _symmetry_equiv_pos_as_xyz
  1  'x, y, z'
loop_
 _atom_site_type_symbol
 _atom_site_label
 _atom_site_symmetry_multiplicity
 _atom_site_fract_x
 _atom_site_fract_y
 _atom_site_fract_z
 _atom_site_occupancy
  Ag  Ag0  1  0.45417500  0.90592600  0.00863200  1
  Ag  Ag1  1  0.95417500  0.09407400  0.99136800  1
  Ag  Ag2  1  0.52464000  0.98319800  0.49124500  1
  Ag  Ag3  1  0.02464000  0.01680200  0.50875500  1
  S  S4  1  0.77118500  0.70583700  0.80453500  1
  S  S5  1  0.27118500  0.29416300  0.19546500  1
