# generated using pymatgen
data_SrUO4
_symmetry_space_group_name_H-M   'P 1'
_cell_length_a   5.59088700
_cell_length_b   8.03664200
_cell_length_c   8.18862300
_cell_angle_alpha   90.00000000
_cell_angle_beta   90.00000000
_cell_angle_gamma   90.00000000
_symmetry_Int_Tables_number   1
_chemical_formula_structural   SrUO4
_chemical_formula_sum   'Sr4 U4 O16'
_cell_volume   367.93085883
_cell_formula_units_Z   4
loop_
 _symmetry_equiv_pos_site_id
 _symmetry_equiv_pos_as_xyz
  1  'x, y, z'
loop_
 _atom_site_type_symbol
 _atom_site_label
 _atom_site_symmetry_multiplicity
 _atom_site_fract_x
 _atom_site_fract_y
 _atom_site_fract_z
 _atom_site_occupancy
  Sr  Sr0  1  0.48069500  0.19734400  0.25000000  1
  Sr  Sr1  1  0.48069500  0.30265600  0.75000000  1
  Sr  Sr2  1  0.51930500  0.69734400  0.25000000  1
  Sr  Sr3  1  0.51930500  0.80265600  0.75000000  1
  U  U4  1  0.00000000  0.00000000  0.00000000  1
  U  U5  1  0.00000000  0.50000000  0.00000000  1
  U  U6  1  0.00000000  0.50000000  0.50000000  1
  U  U7  1  0.00000000  0.00000000  0.50000000  1
  O  O8  1  0.13358800  0.96619600  0.75000000  1
  O  O9  1  0.13358800  0.53380400  0.25000000  1
  O  O10  1  0.86641200  0.46619600  0.75000000  1
  O  O11  1  0.86641200  0.03380400  0.25000000  1
  O  O12  1  0.16738200  0.25000000  0.50000000  1
  O  O13  1  0.83261800  0.75000000  0.00000000  1
  O  O14  1  0.83261800  0.75000000  0.50000000  1
  O  O15  1  0.16738200  0.25000000  0.00000000  1
  O  O16  1  0.30173000  0.91949800  0.07958800  1
  O  O17  1  0.30173000  0.58050200  0.92041200  1
  O  O18  1  0.69827000  0.41949800  0.42041200  1
  O  O19  1  0.69827000  0.08050200  0.57958800  1
  O  O20  1  0.69827000  0.08050200  0.92041200  1
  O  O21  1  0.69827000  0.41949800  0.07958800  1
  O  O22  1  0.30173000  0.58050200  0.57958800  1
  O  O23  1  0.30173000  0.91949800  0.42041200  1
