# generated using pymatgen
data_Tl3PdBr5
_symmetry_space_group_name_H-M   'P 1'
_cell_length_a   8.14596000
_cell_length_b   17.33608800
_cell_length_c   17.45799600
_cell_angle_alpha   90.00000000
_cell_angle_beta   90.00000000
_cell_angle_gamma   90.00000000
_symmetry_Int_Tables_number   1
_chemical_formula_structural   Tl3PdBr5
_chemical_formula_sum   'Tl24 Pd8 Br40'
_cell_volume   2465.40212337
_cell_formula_units_Z   8
loop_
 _symmetry_equiv_pos_site_id
 _symmetry_equiv_pos_as_xyz
  1  'x, y, z'
loop_
 _atom_site_type_symbol
 _atom_site_label
 _atom_site_symmetry_multiplicity
 _atom_site_fract_x
 _atom_site_fract_y
 _atom_site_fract_z
 _atom_site_occupancy
  Tl  Tl0  1  0.61731600  0.06526700  0.30367300  1
  Tl  Tl1  1  0.11731600  0.43473300  0.69632700  1
  Tl  Tl2  1  0.38268400  0.56526700  0.19632700  1
  Tl  Tl3  1  0.88268400  0.93473300  0.80367300  1
  Tl  Tl4  1  0.38268400  0.93473300  0.69632700  1
  Tl  Tl5  1  0.88268400  0.56526700  0.30367300  1
  Tl  Tl6  1  0.61731600  0.43473300  0.80367300  1
  Tl  Tl7  1  0.11731600  0.06526700  0.19632700  1
  Tl  Tl8  1  0.41913300  0.20028200  0.64705300  1
  Tl  Tl9  1  0.91913300  0.29971800  0.35294700  1
  Tl  Tl10  1  0.58086700  0.70028200  0.85294700  1
  Tl  Tl11  1  0.08086700  0.79971800  0.14705300  1
  Tl  Tl12  1  0.58086700  0.79971800  0.35294700  1
  Tl  Tl13  1  0.08086700  0.70028200  0.64705300  1
  Tl  Tl14  1  0.41913300  0.29971800  0.14705300  1
  Tl  Tl15  1  0.91913300  0.20028200  0.85294700  1
  Tl  Tl16  1  0.89526100  0.09401900  0.58724400  1
  Tl  Tl17  1  0.39526100  0.40598100  0.41275600  1
  Tl  Tl18  1  0.10473900  0.59401900  0.91275600  1
  Tl  Tl19  1  0.60473900  0.90598100  0.08724400  1
  Tl  Tl20  1  0.10473900  0.90598100  0.41275600  1
  Tl  Tl21  1  0.60473900  0.59401900  0.58724400  1
  Tl  Tl22  1  0.89526100  0.40598100  0.08724400  1
  Tl  Tl23  1  0.39526100  0.09401900  0.91275600  1
  Pd  Pd24  1  0.30861300  0.14349800  0.42756500  1
  Pd  Pd25  1  0.80861300  0.35650200  0.57243500  1
  Pd  Pd26  1  0.69138700  0.64349800  0.07243500  1
  Pd  Pd27  1  0.19138700  0.85650200  0.92756500  1
  Pd  Pd28  1  0.69138700  0.85650200  0.57243500  1
  Pd  Pd29  1  0.19138700  0.64349800  0.42756500  1
  Pd  Pd30  1  0.30861300  0.35650200  0.92756500  1
  Pd  Pd31  1  0.80861300  0.14349800  0.07243500  1
  Br  Br32  1  0.57222100  0.19796700  0.47369200  1
  Br  Br33  1  0.07222100  0.30203300  0.52630800  1
  Br  Br34  1  0.42777900  0.69796700  0.02630800  1
  Br  Br35  1  0.92777900  0.80203300  0.97369200  1
  Br  Br36  1  0.42777900  0.80203300  0.52630800  1
  Br  Br37  1  0.92777900  0.69796700  0.47369200  1
  Br  Br38  1  0.57222100  0.30203300  0.97369200  1
  Br  Br39  1  0.07222100  0.19796700  0.02630800  1
  Br  Br40  1  0.29190600  0.05471600  0.53812800  1
  Br  Br41  1  0.79190600  0.44528400  0.46187200  1
  Br  Br42  1  0.70809400  0.55471600  0.96187200  1
  Br  Br43  1  0.20809400  0.94528400  0.03812800  1
  Br  Br44  1  0.70809400  0.94528400  0.46187200  1
  Br  Br45  1  0.20809400  0.55471600  0.53812800  1
  Br  Br46  1  0.29190600  0.44528400  0.03812800  1
  Br  Br47  1  0.79190600  0.05471600  0.96187200  1
  Br  Br48  1  0.31633800  0.23055300  0.31630900  1
  Br  Br49  1  0.81633800  0.26944700  0.68369100  1
  Br  Br50  1  0.68366200  0.73055300  0.18369100  1
  Br  Br51  1  0.18366200  0.76944700  0.81630900  1
  Br  Br52  1  0.68366200  0.76944700  0.68369100  1
  Br  Br53  1  0.18366200  0.73055300  0.31630900  1
  Br  Br54  1  0.31633800  0.26944700  0.81630900  1
  Br  Br55  1  0.81633800  0.23055300  0.18369100  1
  Br  Br56  1  0.03854400  0.09496000  0.38283300  1
  Br  Br57  1  0.53854400  0.40504000  0.61716700  1
  Br  Br58  1  0.96145600  0.59496000  0.11716700  1
  Br  Br59  1  0.46145600  0.90504000  0.88283300  1
  Br  Br60  1  0.96145600  0.90504000  0.61716700  1
  Br  Br61  1  0.46145600  0.59496000  0.38283300  1
  Br  Br62  1  0.03854400  0.40504000  0.88283300  1
  Br  Br63  1  0.53854400  0.09496000  0.11716700  1
  Br  Br64  1  0.36863000  0.93199700  0.26258100  1
  Br  Br65  1  0.86863000  0.56800300  0.73741900  1
  Br  Br66  1  0.63137000  0.43199700  0.23741900  1
  Br  Br67  1  0.13137000  0.06800300  0.76258100  1
  Br  Br68  1  0.63137000  0.06800300  0.73741900  1
  Br  Br69  1  0.13137000  0.43199700  0.26258100  1
  Br  Br70  1  0.36863000  0.56800300  0.76258100  1
  Br  Br71  1  0.86863000  0.93199700  0.23741900  1
