# generated using pymatgen
data_Ho10In20Ni9
_symmetry_space_group_name_H-M   'P 1'
_cell_length_a   13.38459200
_cell_length_b   13.38459200
_cell_length_c   9.17852300
_cell_angle_alpha   90.00000000
_cell_angle_beta   90.00000000
_cell_angle_gamma   90.00000000
_symmetry_Int_Tables_number   1
_chemical_formula_structural   Ho10In20Ni9
_chemical_formula_sum   'Ho20 In40 Ni18'
_cell_volume   1644.30764103
_cell_formula_units_Z   2
loop_
 _symmetry_equiv_pos_site_id
 _symmetry_equiv_pos_as_xyz
  1  'x, y, z'
loop_
 _atom_site_type_symbol
 _atom_site_label
 _atom_site_symmetry_multiplicity
 _atom_site_fract_x
 _atom_site_fract_y
 _atom_site_fract_z
 _atom_site_occupancy
  Ho  Ho0  1  0.00000000  0.50000000  0.36326700  1
  Ho  Ho1  1  0.50000000  0.00000000  0.63673300  1
  Ho  Ho2  1  0.00000000  0.50000000  0.83523700  1
  Ho  Ho3  1  0.50000000  0.00000000  0.16476300  1
  Ho  Ho4  1  0.27671000  0.50000000  0.76812800  1
  Ho  Ho5  1  0.00000000  0.22329000  0.76812800  1
  Ho  Ho6  1  0.00000000  0.77671000  0.76812800  1
  Ho  Ho7  1  0.72329000  0.50000000  0.76812800  1
  Ho  Ho8  1  0.22329000  0.00000000  0.23187200  1
  Ho  Ho9  1  0.77671000  0.00000000  0.23187200  1
  Ho  Ho10  1  0.50000000  0.27671000  0.23187200  1
  Ho  Ho11  1  0.50000000  0.72329000  0.23187200  1
  Ho  Ho12  1  0.20339500  0.70339500  0.26839400  1
  Ho  Ho13  1  0.20339500  0.29660500  0.26839400  1
  Ho  Ho14  1  0.79660500  0.70339500  0.26839400  1
  Ho  Ho15  1  0.79660500  0.29660500  0.26839400  1
  Ho  Ho16  1  0.29660500  0.20339500  0.73160600  1
  Ho  Ho17  1  0.70339500  0.79660500  0.73160600  1
  Ho  Ho18  1  0.70339500  0.20339500  0.73160600  1
  Ho  Ho19  1  0.29660500  0.79660500  0.73160600  1
  In  In20  1  0.84490800  0.84490800  0.00000000  1
  In  In21  1  0.34490800  0.65509200  0.00000000  1
  In  In22  1  0.65509200  0.34490800  0.00000000  1
  In  In23  1  0.15509200  0.15509200  0.00000000  1
  In  In24  1  0.65509200  0.65509200  0.00000000  1
  In  In25  1  0.15509200  0.84490800  0.00000000  1
  In  In26  1  0.84490800  0.15509200  0.00000000  1
  In  In27  1  0.34490800  0.34490800  0.00000000  1
  In  In28  1  0.36976600  0.36976600  0.50000000  1
  In  In29  1  0.86976600  0.13023400  0.50000000  1
  In  In30  1  0.13023400  0.86976600  0.50000000  1
  In  In31  1  0.63023400  0.63023400  0.50000000  1
  In  In32  1  0.13023400  0.13023400  0.50000000  1
  In  In33  1  0.63023400  0.36976600  0.50000000  1
  In  In34  1  0.36976600  0.63023400  0.50000000  1
  In  In35  1  0.86976600  0.86976600  0.50000000  1
  In  In36  1  0.83343900  0.50000000  0.09299700  1
  In  In37  1  0.00000000  0.66656100  0.09299700  1
  In  In38  1  0.00000000  0.33343900  0.09299700  1
  In  In39  1  0.16656100  0.50000000  0.09299700  1
  In  In40  1  0.66656100  0.00000000  0.90700300  1
  In  In41  1  0.33343900  0.00000000  0.90700300  1
  In  In42  1  0.50000000  0.83343900  0.90700300  1
  In  In43  1  0.50000000  0.16656100  0.90700300  1
  In  In44  1  0.61598100  0.50000000  0.23461700  1
  In  In45  1  0.00000000  0.88401900  0.23461700  1
  In  In46  1  0.00000000  0.11598100  0.23461700  1
  In  In47  1  0.38401900  0.50000000  0.23461700  1
  In  In48  1  0.88401900  0.00000000  0.76538300  1
  In  In49  1  0.11598100  0.00000000  0.76538300  1
  In  In50  1  0.50000000  0.61598100  0.76538300  1
  In  In51  1  0.50000000  0.38401900  0.76538300  1
  In  In52  1  0.13193200  0.63193200  0.59021500  1
  In  In53  1  0.13193200  0.36806800  0.59021500  1
  In  In54  1  0.86806800  0.63193200  0.59021500  1
  In  In55  1  0.86806800  0.36806800  0.59021500  1
  In  In56  1  0.36806800  0.13193200  0.40978500  1
  In  In57  1  0.63193200  0.86806800  0.40978500  1
  In  In58  1  0.63193200  0.13193200  0.40978500  1
  In  In59  1  0.36806800  0.86806800  0.40978500  1
  Ni  Ni60  1  0.50000000  0.50000000  0.00000000  1
  Ni  Ni61  1  0.00000000  0.00000000  0.00000000  1
  Ni  Ni62  1  0.77727800  0.50000000  0.40883700  1
  Ni  Ni63  1  0.00000000  0.72272200  0.40883700  1
  Ni  Ni64  1  0.00000000  0.27727800  0.40883700  1
  Ni  Ni65  1  0.22272200  0.50000000  0.40883700  1
  Ni  Ni66  1  0.72272200  0.00000000  0.59116300  1
  Ni  Ni67  1  0.27727800  0.00000000  0.59116300  1
  Ni  Ni68  1  0.50000000  0.77727800  0.59116300  1
  Ni  Ni69  1  0.50000000  0.22272200  0.59116300  1
  Ni  Ni70  1  0.34478200  0.84478200  0.10452900  1
  Ni  Ni71  1  0.34478200  0.15521800  0.10452900  1
  Ni  Ni72  1  0.65521800  0.84478200  0.10452900  1
  Ni  Ni73  1  0.65521800  0.15521800  0.10452900  1
  Ni  Ni74  1  0.15521800  0.34478200  0.89547100  1
  Ni  Ni75  1  0.84478200  0.65521800  0.89547100  1
  Ni  Ni76  1  0.84478200  0.34478200  0.89547100  1
  Ni  Ni77  1  0.15521800  0.65521800  0.89547100  1
