# generated using pymatgen
data_Sr(AlCl4)2
_symmetry_space_group_name_H-M   'P 1'
_cell_length_a   11.62196200
_cell_length_b   11.74725100
_cell_length_c   20.61068100
_cell_angle_alpha   90.00000000
_cell_angle_beta   90.00000000
_cell_angle_gamma   90.00000000
_symmetry_Int_Tables_number   1
_chemical_formula_structural   Sr(AlCl4)2
_chemical_formula_sum   'Sr8 Al16 Cl64'
_cell_volume   2813.89599269
_cell_formula_units_Z   8
loop_
 _symmetry_equiv_pos_site_id
 _symmetry_equiv_pos_as_xyz
  1  'x, y, z'
loop_
 _atom_site_type_symbol
 _atom_site_label
 _atom_site_symmetry_multiplicity
 _atom_site_fract_x
 _atom_site_fract_y
 _atom_site_fract_z
 _atom_site_occupancy
  Sr  Sr0  1  0.76340500  0.00822000  0.12455300  1
  Sr  Sr1  1  0.26340500  0.99178000  0.37544700  1
  Sr  Sr2  1  0.73659500  0.50822000  0.87544700  1
  Sr  Sr3  1  0.23659500  0.49178000  0.62455300  1
  Sr  Sr4  1  0.23659500  0.99178000  0.87544700  1
  Sr  Sr5  1  0.73659500  0.00822000  0.62455300  1
  Sr  Sr6  1  0.26340500  0.49178000  0.12455300  1
  Sr  Sr7  1  0.76340500  0.50822000  0.37544700  1
  Al  Al8  1  0.52843300  0.54111400  0.23931700  1
  Al  Al9  1  0.78595400  0.25252900  0.49772700  1
  Al  Al10  1  0.28595400  0.74747100  0.00227300  1
  Al  Al11  1  0.71404600  0.75252900  0.50227300  1
  Al  Al12  1  0.21404600  0.24747100  0.99772700  1
  Al  Al13  1  0.21404600  0.74747100  0.50227300  1
  Al  Al14  1  0.71404600  0.25252900  0.99772700  1
  Al  Al15  1  0.28595400  0.24747100  0.49772700  1
  Al  Al16  1  0.78595400  0.75252900  0.00227300  1
  Al  Al17  1  0.02843300  0.45888600  0.26068300  1
  Al  Al18  1  0.97156700  0.04111400  0.76068300  1
  Al  Al19  1  0.47156700  0.95888600  0.73931700  1
  Al  Al20  1  0.47156700  0.45888600  0.76068300  1
  Al  Al21  1  0.97156700  0.54111400  0.73931700  1
  Al  Al22  1  0.02843300  0.95888600  0.23931700  1
  Al  Al23  1  0.52843300  0.04111400  0.26068300  1
  Cl  Cl24  1  0.59296300  0.38963800  0.98227800  1
  Cl  Cl25  1  0.79589600  0.76162900  0.40816000  1
  Cl  Cl26  1  0.29589600  0.23837100  0.09184000  1
  Cl  Cl27  1  0.70410400  0.26162900  0.59184000  1
  Cl  Cl28  1  0.20410400  0.73837100  0.90816000  1
  Cl  Cl29  1  0.20410400  0.23837100  0.59184000  1
  Cl  Cl30  1  0.70410400  0.76162900  0.90816000  1
  Cl  Cl31  1  0.29589600  0.73837100  0.40816000  1
  Cl  Cl32  1  0.66505400  0.77587200  0.08063200  1
  Cl  Cl33  1  0.16505400  0.22412800  0.41936800  1
  Cl  Cl34  1  0.83494600  0.27587200  0.91936800  1
  Cl  Cl35  1  0.33494600  0.72412800  0.58063200  1
  Cl  Cl36  1  0.33494600  0.22412800  0.91936800  1
  Cl  Cl37  1  0.83494600  0.77587200  0.58063200  1
  Cl  Cl38  1  0.16505400  0.72412800  0.08063200  1
  Cl  Cl39  1  0.66505400  0.27587200  0.41936800  1
  Cl  Cl40  1  0.50353500  0.90356100  0.32879100  1
  Cl  Cl41  1  0.00353500  0.09643900  0.17120900  1
  Cl  Cl42  1  0.99646500  0.40356100  0.67120900  1
  Cl  Cl43  1  0.49646500  0.59643900  0.82879100  1
  Cl  Cl44  1  0.49646500  0.09643900  0.67120900  1
  Cl  Cl45  1  0.99646500  0.90356100  0.82879100  1
  Cl  Cl46  1  0.00353500  0.59643900  0.32879100  1
  Cl  Cl47  1  0.50353500  0.40356100  0.17120900  1
  Cl  Cl48  1  0.89842800  0.83772500  0.21001400  1
  Cl  Cl49  1  0.39842800  0.16227500  0.28998600  1
  Cl  Cl50  1  0.60157200  0.33772500  0.78998600  1
  Cl  Cl51  1  0.10157200  0.66227500  0.71001400  1
  Cl  Cl52  1  0.10157200  0.16227500  0.78998600  1
  Cl  Cl53  1  0.60157200  0.83772500  0.71001400  1
  Cl  Cl54  1  0.39842800  0.66227500  0.21001400  1
  Cl  Cl55  1  0.89842800  0.33772500  0.28998600  1
  Cl  Cl56  1  0.86147900  0.58445000  0.00121700  1
  Cl  Cl57  1  0.36147900  0.41555000  0.49878300  1
  Cl  Cl58  1  0.63852100  0.08445000  0.99878300  1
  Cl  Cl59  1  0.13852100  0.91555000  0.50121700  1
  Cl  Cl60  1  0.13852100  0.41555000  0.99878300  1
  Cl  Cl61  1  0.63852100  0.58445000  0.50121700  1
  Cl  Cl62  1  0.36147900  0.91555000  0.00121700  1
  Cl  Cl63  1  0.86147900  0.08445000  0.49878300  1
  Cl  Cl64  1  0.90703700  0.88963800  0.01772200  1
  Cl  Cl65  1  0.40703700  0.11036200  0.48227800  1
  Cl  Cl66  1  0.79589600  0.26162900  0.09184000  1
  Cl  Cl67  1  0.09296300  0.61036200  0.51772200  1
  Cl  Cl68  1  0.09296300  0.11036200  0.98227800  1
  Cl  Cl69  1  0.59296300  0.88963800  0.51772200  1
  Cl  Cl70  1  0.40703700  0.61036200  0.01772200  1
  Cl  Cl71  1  0.90703700  0.38963800  0.48227800  1
  Cl  Cl72  1  0.50701700  0.98834200  0.16105800  1
  Cl  Cl73  1  0.00701700  0.01165800  0.33894200  1
  Cl  Cl74  1  0.70354300  0.10368400  0.26069600  1
  Cl  Cl75  1  0.49298300  0.51165800  0.66105800  1
  Cl  Cl76  1  0.49298300  0.01165800  0.83894200  1
  Cl  Cl77  1  0.99298300  0.98834200  0.66105800  1
  Cl  Cl78  1  0.00701700  0.51165800  0.16105800  1
  Cl  Cl79  1  0.50701700  0.48834200  0.33894200  1
  Cl  Cl80  1  0.70354300  0.60368400  0.23930400  1
  Cl  Cl81  1  0.20354300  0.39631600  0.26069600  1
  Cl  Cl82  1  0.79645700  0.10368400  0.76069600  1
  Cl  Cl83  1  0.29645700  0.89631600  0.73930400  1
  Cl  Cl84  1  0.29645700  0.39631600  0.76069600  1
  Cl  Cl85  1  0.79645700  0.60368400  0.73930400  1
  Cl  Cl86  1  0.20354300  0.89631600  0.23930400  1
  Cl  Cl87  1  0.99298300  0.48834200  0.83894200  1
