# generated using pymatgen
data_Ga2Te3
_symmetry_space_group_name_H-M   'P 1'
_cell_length_a   7.46779103
_cell_length_b   7.46779103
_cell_length_c   7.31824736
_cell_angle_alpha   80.99041827
_cell_angle_beta   80.99041827
_cell_angle_gamma   120.95724593
_symmetry_Int_Tables_number   1
_chemical_formula_structural   Ga2Te3
_chemical_formula_sum   'Ga4 Te6'
_cell_volume   331.84160676
_cell_formula_units_Z   2
loop_
 _symmetry_equiv_pos_site_id
 _symmetry_equiv_pos_as_xyz
  1  'x, y, z'
loop_
 _atom_site_type_symbol
 _atom_site_label
 _atom_site_symmetry_multiplicity
 _atom_site_fract_x
 _atom_site_fract_y
 _atom_site_fract_z
 _atom_site_occupancy
  Ga  Ga0  1  0.35755600  0.52464500  0.87814800  1
  Ga  Ga1  1  0.71922900  0.21681900  0.87727700  1
  Ga  Ga2  1  0.52464500  0.35755600  0.37814800  1
  Ga  Ga3  1  0.21681900  0.71922900  0.37727700  1
  Te  Te4  1  0.98813700  0.15177100  0.01590700  1
  Te  Te5  1  0.68780400  0.52916800  0.99101200  1
  Te  Te6  1  0.52916800  0.68780400  0.49101200  1
  Te  Te7  1  0.32061000  0.83759800  0.98765500  1
  Te  Te8  1  0.15177100  0.98813700  0.51590700  1
  Te  Te9  1  0.83759800  0.32061000  0.48765500  1
