# generated using pymatgen
data_AgSbS2
_symmetry_space_group_name_H-M   'P 1'
_cell_length_a   6.88907020
_cell_length_b   6.88907020
_cell_length_c   13.27130029
_cell_angle_alpha   81.61729739
_cell_angle_beta   81.61729739
_cell_angle_gamma   39.55060323
_symmetry_Int_Tables_number   1
_chemical_formula_structural   AgSbS2
_chemical_formula_sum   'Ag4 Sb4 S8'
_cell_volume   396.21866615
_cell_formula_units_Z   4
loop_
 _symmetry_equiv_pos_site_id
 _symmetry_equiv_pos_as_xyz
  1  'x, y, z'
loop_
 _atom_site_type_symbol
 _atom_site_label
 _atom_site_symmetry_multiplicity
 _atom_site_fract_x
 _atom_site_fract_y
 _atom_site_fract_z
 _atom_site_occupancy
  Ag  Ag0  1  0.50000000  0.50000000  0.00000000  1
  Ag  Ag1  1  0.99788700  0.00211300  0.75000000  1
  Ag  Ag2  1  0.50000000  0.50000000  0.50000000  1
  Ag  Ag3  1  0.00211300  0.99788700  0.25000000  1
  Sb  Sb4  1  0.77318200  0.71900300  0.62614600  1
  Sb  Sb5  1  0.28099700  0.22681800  0.87385400  1
  Sb  Sb6  1  0.22681800  0.28099700  0.37385400  1
  Sb  Sb7  1  0.71900300  0.77318200  0.12614600  1
  S  S8  1  0.08382000  0.69717300  0.91489200  1
  S  S9  1  0.30282700  0.91618000  0.58510800  1
  S  S10  1  0.91618000  0.30282700  0.08510800  1
  S  S11  1  0.69717300  0.08382000  0.41489200  1
  S  S12  1  0.20276300  0.50804900  0.19794600  1
  S  S13  1  0.50804900  0.20276300  0.69794600  1
  S  S14  1  0.79723700  0.49195100  0.80205400  1
  S  S15  1  0.49195100  0.79723700  0.30205400  1
