# generated using pymatgen
data_BaHgO2
_symmetry_space_group_name_H-M   'P 1'
_cell_length_a   6.98570004
_cell_length_b   6.98570004
_cell_length_c   6.98570050
_cell_angle_alpha   35.00952754
_cell_angle_beta   35.00952754
_cell_angle_gamma   35.00951995
_symmetry_Int_Tables_number   1
_chemical_formula_structural   BaHgO2
_chemical_formula_sum   'Ba1 Hg1 O2'
_cell_volume   100.18878503
_cell_formula_units_Z   1
loop_
 _symmetry_equiv_pos_site_id
 _symmetry_equiv_pos_as_xyz
  1  'x, y, z'
loop_
 _atom_site_type_symbol
 _atom_site_label
 _atom_site_symmetry_multiplicity
 _atom_site_fract_x
 _atom_site_fract_y
 _atom_site_fract_z
 _atom_site_occupancy
  Ba  Ba0  1  0.50000000  0.50000000  0.50000000  1
  Hg  Hg1  1  0.00000000  0.00000000  0.00000000  1
  O  O2  1  0.89819700  0.89819700  0.89819700  1
  O  O3  1  0.10180300  0.10180300  0.10180300  1
