# generated using pymatgen
data_Tb3(CuGe)4
_symmetry_space_group_name_H-M   'P 1'
_cell_length_a   8.02813703
_cell_length_b   8.02813703
_cell_length_c   8.02813703
_cell_angle_alpha   149.56450934
_cell_angle_beta   130.88124667
_cell_angle_gamma   58.88928621
_symmetry_Int_Tables_number   1
_chemical_formula_structural   Tb3(CuGe)4
_chemical_formula_sum   'Tb3 Cu4 Ge4'
_cell_volume   196.63505511
_cell_formula_units_Z   1
loop_
 _symmetry_equiv_pos_site_id
 _symmetry_equiv_pos_as_xyz
  1  'x, y, z'
loop_
 _atom_site_type_symbol
 _atom_site_label
 _atom_site_symmetry_multiplicity
 _atom_site_fract_x
 _atom_site_fract_y
 _atom_site_fract_z
 _atom_site_occupancy
  Tb  Tb0  1  0.86952500  0.86952500  0.00000000  1
  Tb  Tb1  1  0.13047500  0.13047500  0.00000000  1
  Tb  Tb2  1  0.50000000  0.00000000  0.50000000  1
  Cu  Cu3  1  0.85745500  0.66845200  0.18900300  1
  Cu  Cu4  1  0.14254500  0.33154800  0.81099700  1
  Cu  Cu5  1  0.47944900  0.66845200  0.81099700  1
  Cu  Cu6  1  0.52055100  0.33154800  0.18900300  1
  Ge  Ge7  1  0.28316700  0.78316700  0.50000000  1
  Ge  Ge8  1  0.80888100  0.50000000  0.30888100  1
  Ge  Ge9  1  0.19111900  0.50000000  0.69111900  1
  Ge  Ge10  1  0.71683300  0.21683300  0.50000000  1
