# generated using pymatgen
data_LiTa3N4
_symmetry_space_group_name_H-M   'P 1'
_cell_length_a   5.22427800
_cell_length_b   9.04648800
_cell_length_c   10.40461900
_cell_angle_alpha   90.00000000
_cell_angle_beta   90.00000000
_cell_angle_gamma   90.00000000
_symmetry_Int_Tables_number   1
_chemical_formula_structural   LiTa3N4
_chemical_formula_sum   'Li6 Ta18 N24'
_cell_volume   491.73652991
_cell_formula_units_Z   6
loop_
 _symmetry_equiv_pos_site_id
 _symmetry_equiv_pos_as_xyz
  1  'x, y, z'
loop_
 _atom_site_type_symbol
 _atom_site_label
 _atom_site_symmetry_multiplicity
 _atom_site_fract_x
 _atom_site_fract_y
 _atom_site_fract_z
 _atom_site_occupancy
  Li  Li0  1  0.00000000  0.00664800  0.50000000  1
  Li  Li1  1  0.00000000  0.67233400  0.00000000  1
  Li  Li2  1  0.00000000  0.98877100  0.00000000  1
  Li  Li3  1  0.50000000  0.50664800  0.00000000  1
  Li  Li4  1  0.50000000  0.48877100  0.50000000  1
  Li  Li5  1  0.50000000  0.17233400  0.50000000  1
  Ta  Ta6  1  0.15938200  0.83445600  0.75266300  1
  Ta  Ta7  1  0.32987400  0.00184100  0.25234600  1
  Ta  Ta8  1  0.50000000  0.81858500  0.00000000  1
  Ta  Ta9  1  0.50000000  0.84955500  0.50000000  1
  Ta  Ta10  1  0.66609200  0.66357700  0.75084400  1
  Ta  Ta11  1  0.65938200  0.33445600  0.74733700  1
  Ta  Ta12  1  0.67012600  0.00184100  0.74765400  1
  Ta  Ta13  1  0.82987400  0.50184100  0.24765400  1
  Ta  Ta14  1  0.84061800  0.83445600  0.24733700  1
  Ta  Ta15  1  0.00000000  0.66325600  0.50000000  1
  Ta  Ta16  1  0.00000000  0.34955500  0.00000000  1
  Ta  Ta17  1  0.00000000  0.31858500  0.50000000  1
  Ta  Ta18  1  0.16609200  0.16357700  0.74915600  1
  Ta  Ta19  1  0.17012600  0.50184100  0.75234600  1
  Ta  Ta20  1  0.33390800  0.66357700  0.24915600  1
  Ta  Ta21  1  0.34061800  0.33445600  0.25266300  1
  Ta  Ta22  1  0.50000000  0.16325600  0.00000000  1
  Ta  Ta23  1  0.83390800  0.16357700  0.25084400  1
  N  N24  1  0.17732200  0.83248000  0.12279500  1
  N  N25  1  0.33421700  0.66895200  0.87857500  1
  N  N26  1  0.33396700  0.99858400  0.62132200  1
  N  N27  1  0.66479300  0.99801800  0.11970500  1
  N  N28  1  0.66696600  0.66920800  0.38014100  1
  N  N29  1  0.66578300  0.66895200  0.12142500  1
  N  N30  1  0.83223800  0.83330900  0.61921000  1
  N  N31  1  0.82267800  0.83248000  0.87720500  1
  N  N32  1  0.83421700  0.16895200  0.62142500  1
  N  N33  1  0.83303400  0.16920800  0.88014100  1
  N  N34  1  0.83396700  0.49858400  0.87867800  1
  N  N35  1  0.83520700  0.49801800  0.61970500  1
  N  N36  1  0.16479300  0.49801800  0.38029500  1
  N  N37  1  0.16603300  0.49858400  0.12132200  1
  N  N38  1  0.16776200  0.83330900  0.38079000  1
  N  N39  1  0.16696600  0.16920800  0.11985900  1
  N  N40  1  0.16578300  0.16895200  0.37857500  1
  N  N41  1  0.33303400  0.66920800  0.61985900  1
  N  N42  1  0.32267800  0.33248000  0.62279500  1
  N  N43  1  0.33223800  0.33330900  0.88079000  1
  N  N44  1  0.33520700  0.99801800  0.88029500  1
  N  N45  1  0.66603300  0.99858400  0.37867800  1
  N  N46  1  0.67732200  0.33248000  0.37720500  1
  N  N47  1  0.66776200  0.33330900  0.11921000  1
