# generated using pymatgen
data_HoZrSb
_symmetry_space_group_name_H-M   'P 1'
_cell_length_a   8.82791268
_cell_length_b   8.82791268
_cell_length_c   8.82791268
_cell_angle_alpha   152.01172391
_cell_angle_beta   152.01172391
_cell_angle_gamma   39.99618188
_symmetry_Int_Tables_number   1
_chemical_formula_structural   HoZrSb
_chemical_formula_sum   'Ho2 Zr2 Sb2'
_cell_volume   151.22340610
_cell_formula_units_Z   2
loop_
 _symmetry_equiv_pos_site_id
 _symmetry_equiv_pos_as_xyz
  1  'x, y, z'
loop_
 _atom_site_type_symbol
 _atom_site_label
 _atom_site_symmetry_multiplicity
 _atom_site_fract_x
 _atom_site_fract_y
 _atom_site_fract_z
 _atom_site_occupancy
  Ho  Ho0  1  0.67647800  0.67647800  0.00000000  1
  Ho  Ho1  1  0.32352200  0.32352200  0.00000000  1
  Zr  Zr2  1  0.50000000  0.00000000  0.50000000  1
  Zr  Zr3  1  0.00000000  0.50000000  0.50000000  1
  Sb  Sb4  1  0.13401800  0.13401800  0.00000000  1
  Sb  Sb5  1  0.86598200  0.86598200  0.00000000  1
