# generated using pymatgen
data_Tb2Te4O11
_symmetry_space_group_name_H-M   'P 1'
_cell_length_a   6.78003472
_cell_length_b   6.78003472
_cell_length_c   16.38412338
_cell_angle_alpha   76.06143340
_cell_angle_beta   76.06143340
_cell_angle_gamma   45.01573392
_symmetry_Int_Tables_number   1
_chemical_formula_structural   Tb2Te4O11
_chemical_formula_sum   'Tb4 Te8 O22'
_cell_volume   514.28313816
_cell_formula_units_Z   2
loop_
 _symmetry_equiv_pos_site_id
 _symmetry_equiv_pos_as_xyz
  1  'x, y, z'
loop_
 _atom_site_type_symbol
 _atom_site_label
 _atom_site_symmetry_multiplicity
 _atom_site_fract_x
 _atom_site_fract_y
 _atom_site_fract_z
 _atom_site_occupancy
  Tb  Tb0  1  0.13101100  0.63101400  0.53724900  1
  Tb  Tb1  1  0.36898600  0.86898900  0.96275100  1
  Tb  Tb2  1  0.86898900  0.36898600  0.46275100  1
  Tb  Tb3  1  0.63101400  0.13101100  0.03724900  1
  Te  Te4  1  0.60047000  0.15757500  0.69818000  1
  Te  Te5  1  0.84242500  0.39953000  0.80182000  1
  Te  Te6  1  0.39953000  0.84242500  0.30182000  1
  Te  Te7  1  0.15757500  0.60047000  0.19818000  1
  Te  Te8  1  0.15356200  0.58825500  0.87496700  1
  Te  Te9  1  0.41174500  0.84643800  0.62503300  1
  Te  Te10  1  0.84643800  0.41174500  0.12503300  1
  Te  Te11  1  0.58825500  0.15356200  0.37496700  1
  O  O12  1  0.85406200  0.14593800  0.75000000  1
  O  O13  1  0.14593800  0.85406200  0.25000000  1
  O  O14  1  0.20485300  0.09237100  0.83264500  1
  O  O15  1  0.90762900  0.79514700  0.66735500  1
  O  O16  1  0.79514700  0.90762900  0.16735500  1
  O  O17  1  0.09237100  0.20485300  0.33264500  1
  O  O18  1  0.60324300  0.44505500  0.90332600  1
  O  O19  1  0.55494500  0.39675700  0.59667400  1
  O  O20  1  0.39675700  0.55494500  0.09667400  1
  O  O21  1  0.44505500  0.60324300  0.40332600  1
  O  O22  1  0.03918000  0.82164400  0.95502500  1
  O  O23  1  0.17835600  0.96082000  0.54497500  1
  O  O24  1  0.68326800  0.81070600  0.37284600  1
  O  O25  1  0.18929400  0.31673200  0.12715400  1
  O  O26  1  0.31673200  0.18929400  0.62715400  1
  O  O27  1  0.81070600  0.68326800  0.87284600  1
  O  O28  1  0.24745100  0.33661900  0.44755300  1
  O  O29  1  0.66338100  0.75254900  0.05244700  1
  O  O30  1  0.75254900  0.66338100  0.55244700  1
  O  O31  1  0.33661900  0.24745100  0.94755300  1
  O  O32  1  0.82164400  0.03918000  0.45502500  1
  O  O33  1  0.96082000  0.17835600  0.04497500  1
