# generated using pymatgen
data_NpCo2
_symmetry_space_group_name_H-M   'P 1'
_cell_length_a   4.91956948
_cell_length_b   4.91956978
_cell_length_c   4.91956900
_cell_angle_alpha   59.99999850
_cell_angle_beta   59.99999653
_cell_angle_gamma   60.00000354
_symmetry_Int_Tables_number   1
_chemical_formula_structural   NpCo2
_chemical_formula_sum   'Np2 Co4'
_cell_volume   84.19111815
_cell_formula_units_Z   2
loop_
 _symmetry_equiv_pos_site_id
 _symmetry_equiv_pos_as_xyz
  1  'x, y, z'
loop_
 _atom_site_type_symbol
 _atom_site_label
 _atom_site_symmetry_multiplicity
 _atom_site_fract_x
 _atom_site_fract_y
 _atom_site_fract_z
 _atom_site_occupancy
  Np  Np0  1  0.87500000  0.87500000  0.87500000  1
  Np  Np1  1  0.12500000  0.12500000  0.12500000  1
  Co  Co2  1  0.50000000  0.50000000  0.50000000  1
  Co  Co3  1  0.50000000  0.50000000  0.00000000  1
  Co  Co4  1  0.00000000  0.50000000  0.50000000  1
  Co  Co5  1  0.50000000  0.00000000  0.50000000  1
