# generated using pymatgen
data_La5Sn3I
_symmetry_space_group_name_H-M   'P 1'
_cell_length_a   9.78752003
_cell_length_b   9.78752003
_cell_length_c   7.14127500
_cell_angle_alpha   90.00000000
_cell_angle_beta   90.00000000
_cell_angle_gamma   120.00000023
_symmetry_Int_Tables_number   1
_chemical_formula_structural   La5Sn3I
_chemical_formula_sum   'La10 Sn6 I2'
_cell_volume   592.45001691
_cell_formula_units_Z   2
loop_
 _symmetry_equiv_pos_site_id
 _symmetry_equiv_pos_as_xyz
  1  'x, y, z'
loop_
 _atom_site_type_symbol
 _atom_site_label
 _atom_site_symmetry_multiplicity
 _atom_site_fract_x
 _atom_site_fract_y
 _atom_site_fract_z
 _atom_site_occupancy
  La  La0  1  0.72280400  0.72280400  0.25000000  1
  La  La1  1  0.33333300  0.66666700  0.50000000  1
  La  La2  1  0.27719600  0.27719600  0.75000000  1
  La  La3  1  0.00000000  0.27719600  0.25000000  1
  La  La4  1  0.66666700  0.33333300  0.50000000  1
  La  La5  1  0.27719600  0.00000000  0.25000000  1
  La  La6  1  0.72280400  0.00000000  0.75000000  1
  La  La7  1  0.33333300  0.66666700  0.00000000  1
  La  La8  1  0.66666700  0.33333300  0.00000000  1
  La  La9  1  0.00000000  0.72280400  0.75000000  1
  Sn  Sn10  1  0.38604500  0.38604500  0.25000000  1
  Sn  Sn11  1  0.61395500  0.61395500  0.75000000  1
  Sn  Sn12  1  0.38604500  0.00000000  0.75000000  1
  Sn  Sn13  1  0.00000000  0.61395500  0.25000000  1
  Sn  Sn14  1  0.61395500  0.00000000  0.25000000  1
  Sn  Sn15  1  0.00000000  0.38604500  0.75000000  1
  I  I16  1  0.00000000  0.00000000  0.00000000  1
  I  I17  1  0.00000000  0.00000000  0.50000000  1
