# generated using pymatgen
data_BaAs2
_symmetry_space_group_name_H-M   'P 1'
_cell_length_a   12.77320800
_cell_length_b   6.68505800
_cell_length_c   8.21441018
_cell_angle_alpha   52.16174037
_cell_angle_beta   90.00000000
_cell_angle_gamma   90.00000000
_symmetry_Int_Tables_number   1
_chemical_formula_structural   BaAs2
_chemical_formula_sum   'Ba6 As12'
_cell_volume   553.94767540
_cell_formula_units_Z   6
loop_
 _symmetry_equiv_pos_site_id
 _symmetry_equiv_pos_as_xyz
  1  'x, y, z'
loop_
 _atom_site_type_symbol
 _atom_site_label
 _atom_site_symmetry_multiplicity
 _atom_site_fract_x
 _atom_site_fract_y
 _atom_site_fract_z
 _atom_site_occupancy
  Ba  Ba0  1  0.22746200  0.82659800  0.82092500  1
  Ba  Ba1  1  0.77253800  0.82659800  0.32092500  1
  Ba  Ba2  1  0.08192000  0.55446700  0.45295200  1
  Ba  Ba3  1  0.91808000  0.55446700  0.95295200  1
  Ba  Ba4  1  0.42406800  0.10568100  0.25012300  1
  Ba  Ba5  1  0.57593200  0.10568100  0.75012300  1
  As  As6  1  0.42366000  0.67232700  0.15809900  1
  As  As7  1  0.57634000  0.67232700  0.65809900  1
  As  As8  1  0.60992800  0.53107600  0.21186900  1
  As  As9  1  0.39007200  0.53107600  0.71186900  1
  As  As10  1  0.34388900  0.38398700  0.50217700  1
  As  As11  1  0.65611100  0.38398700  0.00217700  1
  As  As12  1  0.98451700  0.00461000  0.99178400  1
  As  As13  1  0.01548300  0.00461000  0.49178400  1
  As  As14  1  0.84809400  0.20721100  0.46342400  1
  As  As15  1  0.15190600  0.20721100  0.96342400  1
  As  As16  1  0.84181700  0.26014400  0.74924900  1
  As  As17  1  0.15818300  0.26014400  0.24924900  1
