# generated using pymatgen
data_Al2CdSe4
_symmetry_space_group_name_H-M   'P 1'
_cell_length_a   6.84787659
_cell_length_b   6.84787659
_cell_length_c   6.84787659
_cell_angle_alpha   129.15696101
_cell_angle_beta   129.15696101
_cell_angle_gamma   74.75814766
_symmetry_Int_Tables_number   1
_chemical_formula_structural   Al2CdSe4
_chemical_formula_sum   'Al2 Cd1 Se4'
_cell_volume   188.09019957
_cell_formula_units_Z   1
loop_
 _symmetry_equiv_pos_site_id
 _symmetry_equiv_pos_as_xyz
  1  'x, y, z'
loop_
 _atom_site_type_symbol
 _atom_site_label
 _atom_site_symmetry_multiplicity
 _atom_site_fract_x
 _atom_site_fract_y
 _atom_site_fract_z
 _atom_site_occupancy
  Al  Al0  1  0.25000000  0.75000000  0.50000000  1
  Al  Al1  1  0.50000000  0.50000000  0.00000000  1
  Cd  Cd2  1  0.00000000  0.00000000  0.00000000  1
  Se  Se3  1  0.13220800  0.59298800  0.99904000  1
  Se  Se4  1  0.59394700  0.13316700  0.00096000  1
  Se  Se5  1  0.40701200  0.40605300  0.53922000  1
  Se  Se6  1  0.86683300  0.86779200  0.46078000  1
