# generated using pymatgen
data_Mo2(PO4)3
_symmetry_space_group_name_H-M   'P 1'
_cell_length_a   8.81215576
_cell_length_b   8.97816997
_cell_length_c   8.81215546
_cell_angle_alpha   90.02935629
_cell_angle_beta   59.61101489
_cell_angle_gamma   119.04572450
_symmetry_Int_Tables_number   1
_chemical_formula_structural   Mo2(PO4)3
_chemical_formula_sum   'Mo4 P6 O24'
_cell_volume   497.22595319
_cell_formula_units_Z   2
loop_
 _symmetry_equiv_pos_site_id
 _symmetry_equiv_pos_as_xyz
  1  'x, y, z'
loop_
 _atom_site_type_symbol
 _atom_site_label
 _atom_site_symmetry_multiplicity
 _atom_site_fract_x
 _atom_site_fract_y
 _atom_site_fract_z
 _atom_site_occupancy
  Mo  Mo0  1  0.28481600  0.92728300  0.35630600  1
  Mo  Mo1  1  0.28477200  0.42532500  0.85845300  1
  Mo  Mo2  1  0.71641100  0.57271800  0.14246600  1
  Mo  Mo3  1  0.71622200  0.07467600  0.64055300  1
  P  P4  1  0.78518400  0.75168200  0.75211700  1
  P  P5  1  0.49997900  0.24949100  0.53458900  1
  P  P6  1  0.49620000  0.74831700  0.46649900  1
  P  P7  1  0.21591800  0.25050800  0.24951300  1
  P  P8  1  0.78595200  0.25000100  0.96404800  1
  P  P9  1  0.21383100  0.74999900  0.03616800  1
  O  O10  1  0.64801300  0.91729100  0.48029700  1
  O  O11  1  0.01800900  0.73158300  0.06144700  1
  O  O12  1  0.21238400  0.58112500  0.00611500  1
  O  O13  1  0.20696800  0.76841700  0.21357400  1
  O  O14  1  0.96656000  0.25858300  0.95345100  1
  O  O15  1  0.78300300  0.41916000  0.00689800  1
  O  O16  1  0.78796800  0.24141700  0.79202300  1
  O  O17  1  0.80464700  0.73031600  0.91412700  1
  O  O18  1  0.99660100  0.78739100  0.57435500  1
  O  O19  1  0.64896800  0.23224700  0.56421900  1
  O  O20  1  0.78420200  0.92031000  0.72979300  1
  O  O21  1  0.60241300  0.58271000  0.76927600  1
  O  O22  1  0.57394300  0.08084000  0.13615600  1
  O  O23  1  0.64196800  0.42049900  0.36646800  1
  O  O24  1  0.20353400  0.26775300  0.08327900  1
  O  O25  1  0.34142100  0.26624800  0.70868800  1
  O  O26  1  0.63825200  0.71260800  0.29079100  1
  O  O27  1  0.02506400  0.23375200  0.42482700  1
  O  O28  1  0.41276100  0.91887500  0.86874000  1
  O  O29  1  0.34989700  0.57969100  0.63610700  1
  O  O30  1  0.21303200  0.07950100  0.27853200  1
  O  O31  1  0.41895100  0.42014800  0.21112300  1
  O  O32  1  0.35555700  0.76968400  0.42566800  1
  O  O33  1  0.36873000  0.07985200  0.50119700  1
