# generated using pymatgen
data_Sr3P2
_symmetry_space_group_name_H-M   'P 1'
_cell_length_a   15.51204543
_cell_length_b   15.51204543
_cell_length_c   15.51204543
_cell_angle_alpha   144.81176034
_cell_angle_beta   144.81176034
_cell_angle_gamma   50.61513306
_symmetry_Int_Tables_number   1
_chemical_formula_structural   Sr3P2
_chemical_formula_sum   'Sr24 P16'
_cell_volume   1233.23031391
_cell_formula_units_Z   8
loop_
 _symmetry_equiv_pos_site_id
 _symmetry_equiv_pos_as_xyz
  1  'x, y, z'
loop_
 _atom_site_type_symbol
 _atom_site_label
 _atom_site_symmetry_multiplicity
 _atom_site_fract_x
 _atom_site_fract_y
 _atom_site_fract_z
 _atom_site_occupancy
  Sr  Sr0  1  0.69491000  0.82312000  0.73964600  1
  Sr  Sr1  1  0.37803400  0.62757700  0.13410100  1
  Sr  Sr2  1  0.25652400  0.62242300  0.25045700  1
  Sr  Sr3  1  0.49347600  0.24393400  0.86589900  1
  Sr  Sr4  1  0.37196600  0.00606600  0.74954300  1
  Sr  Sr5  1  0.08347400  0.95526300  0.26035400  1
  Sr  Sr6  1  0.05509000  0.29473700  0.62821000  1
  Sr  Sr7  1  0.06532400  0.15067100  0.75478900  1
  Sr  Sr8  1  0.68946400  0.93467600  0.08534600  1
  Sr  Sr9  1  0.66652600  0.42688000  0.37179000  1
  Sr  Sr10  1  0.57312000  0.94491000  0.23964600  1
  Sr  Sr11  1  0.84932900  0.60411800  0.91465400  1
  Sr  Sr12  1  0.70526300  0.33347400  0.76035400  1
  Sr  Sr13  1  0.39588200  0.31053600  0.24521100  1
  Sr  Sr14  1  0.37757700  0.62803400  0.63410100  1
  Sr  Sr15  1  0.37242300  0.50652400  0.75045700  1
  Sr  Sr16  1  0.04473700  0.30509000  0.12821000  1
  Sr  Sr17  1  0.99393400  0.74347600  0.36589900  1
  Sr  Sr18  1  0.90067100  0.31532400  0.25478900  1
  Sr  Sr19  1  0.17688000  0.91652600  0.87179000  1
  Sr  Sr20  1  0.06053600  0.64588200  0.74521100  1
  Sr  Sr21  1  0.75606600  0.62196600  0.24954300  1
  Sr  Sr22  1  0.68467600  0.93946400  0.58534600  1
  Sr  Sr23  1  0.35411800  0.09932900  0.41465400  1
  P  P24  1  0.41376100  0.91376100  0.50000000  1
  P  P25  1  0.99606700  0.62500000  0.87106700  1
  P  P26  1  0.33623900  0.33623900  0.00000000  1
  P  P27  1  0.02662600  0.93525700  0.38697800  1
  P  P28  1  0.54827900  0.63964700  0.61302200  1
  P  P29  1  0.75393300  0.12500000  0.12893300  1
  P  P30  1  0.36035300  0.97337400  0.90863100  1
  P  P31  1  0.37500000  0.24606700  0.37106700  1
  P  P32  1  0.66376100  0.66376100  0.00000000  1
  P  P33  1  0.06474300  0.45172100  0.09136900  1
  P  P34  1  0.87500000  0.00393300  0.62893300  1
  P  P35  1  0.08623900  0.58623900  0.50000000  1
  P  P36  1  0.68525700  0.27662600  0.88697800  1
  P  P37  1  0.72337400  0.61035300  0.40863100  1
  P  P38  1  0.20172100  0.31474300  0.59136900  1
  P  P39  1  0.38964700  0.79827900  0.11302200  1
