# generated using pymatgen
data_Ba2TaCrO6
_symmetry_space_group_name_H-M   'P 1'
_cell_length_a   5.81948700
_cell_length_b   5.81948625
_cell_length_c   19.14643700
_cell_angle_alpha   90.00000000
_cell_angle_beta   90.00000000
_cell_angle_gamma   119.99999859
_symmetry_Int_Tables_number   1
_chemical_formula_structural   Ba2TaCrO6
_chemical_formula_sum   'Ba8 Ta4 Cr4 O24'
_cell_volume   561.54938197
_cell_formula_units_Z   4
loop_
 _symmetry_equiv_pos_site_id
 _symmetry_equiv_pos_as_xyz
  1  'x, y, z'
loop_
 _atom_site_type_symbol
 _atom_site_label
 _atom_site_symmetry_multiplicity
 _atom_site_fract_x
 _atom_site_fract_y
 _atom_site_fract_z
 _atom_site_occupancy
  Ba  Ba0  1  0.00000000  0.00000000  0.00000000  1
  Ba  Ba1  1  0.66666700  0.33333300  0.25000000  1
  Ba  Ba2  1  0.33333300  0.66666600  0.75000000  1
  Ba  Ba3  1  0.00000000  0.00000000  0.50000000  1
  Ba  Ba4  1  0.33333300  0.66666600  0.14205800  1
  Ba  Ba5  1  0.66666700  0.33333300  0.85794200  1
  Ba  Ba6  1  0.66666700  0.33333300  0.64205800  1
  Ba  Ba7  1  0.33333300  0.66666600  0.35794200  1
  Ta  Ta8  1  0.33333300  0.66666600  0.56341900  1
  Ta  Ta9  1  0.66666700  0.33333300  0.06341900  1
  Ta  Ta10  1  0.66666700  0.33333300  0.43658100  1
  Ta  Ta11  1  0.33333300  0.66666600  0.93658100  1
  Cr  Cr12  1  0.00000000  0.00000000  0.81861200  1
  Cr  Cr13  1  0.00000000  0.00000000  0.18138800  1
  Cr  Cr14  1  0.00000000  0.00000000  0.68138800  1
  Cr  Cr15  1  0.00000000  0.00000000  0.31861200  1
  O  O16  1  0.17066000  0.82934000  0.87992900  1
  O  O17  1  0.17066000  0.34131900  0.87992900  1
  O  O18  1  0.65868100  0.82934000  0.87992900  1
  O  O19  1  0.34132000  0.17066100  0.37992900  1
  O  O20  1  0.82934100  0.65868200  0.12007100  1
  O  O21  1  0.82934100  0.17066100  0.37992900  1
  O  O22  1  0.82934100  0.65868200  0.37992900  1
  O  O23  1  0.17066000  0.82934000  0.62007000  1
  O  O24  1  0.65868100  0.82934000  0.62007000  1
  O  O25  1  0.34132000  0.17066100  0.12007100  1
  O  O26  1  0.82934100  0.17066100  0.12007100  1
  O  O27  1  0.17066000  0.34131900  0.62007000  1
  O  O28  1  0.84971800  0.69943600  0.75000000  1
  O  O29  1  0.15028200  0.84971800  0.25000000  1
  O  O30  1  0.69943700  0.84971800  0.25000000  1
  O  O31  1  0.30056400  0.15028200  0.75000000  1
  O  O32  1  0.50000000  0.00000000  0.00000000  1
  O  O33  1  0.49999900  0.50000000  0.50000000  1
  O  O34  1  0.00000100  0.50000000  0.50000000  1
  O  O35  1  0.00000100  0.50000000  0.00000000  1
  O  O36  1  0.84971900  0.15028200  0.75000000  1
  O  O37  1  0.50000000  0.00000000  0.50000000  1
  O  O38  1  0.15028100  0.30056300  0.25000000  1
  O  O39  1  0.49999900  0.50000000  0.00000000  1
