# generated using pymatgen
data_EuPO4
_symmetry_space_group_name_H-M   'P 1'
_cell_length_a   7.03202700
_cell_length_b   6.48673900
_cell_length_c   8.20033448
_cell_angle_alpha   53.85288529
_cell_angle_beta   90.00000000
_cell_angle_gamma   90.00000000
_symmetry_Int_Tables_number   1
_chemical_formula_structural   EuPO4
_chemical_formula_sum   'Eu4 P4 O16'
_cell_volume   302.05344973
_cell_formula_units_Z   4
loop_
 _symmetry_equiv_pos_site_id
 _symmetry_equiv_pos_as_xyz
  1  'x, y, z'
loop_
 _atom_site_type_symbol
 _atom_site_label
 _atom_site_symmetry_multiplicity
 _atom_site_fract_x
 _atom_site_fract_y
 _atom_site_fract_z
 _atom_site_occupancy
  Eu  Eu0  1  0.65695100  0.18501500  0.21730900  1
  Eu  Eu1  1  0.15695100  0.81498500  0.28269100  1
  Eu  Eu2  1  0.34304900  0.81498500  0.78269100  1
  Eu  Eu3  1  0.84304900  0.18501500  0.71730900  1
  P  P4  1  0.66157200  0.69320300  0.19547100  1
  P  P5  1  0.16157200  0.30679700  0.30452900  1
  P  P6  1  0.33842800  0.30679700  0.80452900  1
  P  P7  1  0.83842800  0.69320300  0.69547100  1
  O  O8  1  0.71047500  0.41601600  0.37505300  1
  O  O9  1  0.21047500  0.58398400  0.12494700  1
  O  O10  1  0.28952500  0.58398400  0.62494700  1
  O  O11  1  0.78952500  0.41601600  0.87505300  1
  O  O12  1  0.60160800  0.66306600  0.02842400  1
  O  O13  1  0.10160800  0.33693400  0.47157600  1
  O  O14  1  0.39839200  0.33693400  0.97157600  1
  O  O15  1  0.89839200  0.66306600  0.52842400  1
  O  O16  1  0.99491900  0.81226400  0.74906600  1
  O  O17  1  0.49491900  0.18773600  0.75093400  1
  O  O18  1  0.00508100  0.18773600  0.25093400  1
  O  O19  1  0.50508100  0.81226400  0.24906600  1
  O  O20  1  0.66708400  0.88085200  0.61707100  1
  O  O21  1  0.16708400  0.11914800  0.88292900  1
  O  O22  1  0.33291600  0.11914800  0.38292900  1
  O  O23  1  0.83291600  0.88085200  0.11707100  1
