# generated using pymatgen
data_Na4Al3Si3HO13
_symmetry_space_group_name_H-M   'P 1'
_cell_length_a   8.83353767
_cell_length_b   8.83353767
_cell_length_c   8.83353751
_cell_angle_alpha   90.35149938
_cell_angle_beta   90.35149938
_cell_angle_gamma   90.35150309
_symmetry_Int_Tables_number   1
_chemical_formula_structural   Na4Al3Si3HO13
_chemical_formula_sum   'Na8 Al6 Si6 H2 O26'
_cell_volume   689.25411716
_cell_formula_units_Z   2
loop_
 _symmetry_equiv_pos_site_id
 _symmetry_equiv_pos_as_xyz
  1  'x, y, z'
loop_
 _atom_site_type_symbol
 _atom_site_label
 _atom_site_symmetry_multiplicity
 _atom_site_fract_x
 _atom_site_fract_y
 _atom_site_fract_z
 _atom_site_occupancy
  Na  Na0  1  0.84169500  0.84199800  0.16890200  1
  Na  Na1  1  0.14971200  0.14971200  0.14971200  1
  Na  Na2  1  0.34169500  0.66890200  0.34199800  1
  Na  Na3  1  0.66890200  0.34199800  0.34169500  1
  Na  Na4  1  0.64971200  0.64971200  0.64971200  1
  Na  Na5  1  0.34199800  0.34169500  0.66890200  1
  Na  Na6  1  0.16890200  0.84169500  0.84199800  1
  Na  Na7  1  0.84199800  0.16890200  0.84169500  1
  Al  Al8  1  0.50148400  0.74991200  0.00033300  1
  Al  Al9  1  0.00148400  0.50033300  0.24991200  1
  Al  Al10  1  0.24991200  0.00148400  0.50033300  1
  Al  Al11  1  0.74991200  0.00033300  0.50148400  1
  Al  Al12  1  0.00033300  0.50148400  0.74991200  1
  Al  Al13  1  0.50033300  0.24991200  0.00148400  1
  Si  Si14  1  0.75048400  0.50156000  0.99974500  1
  Si  Si15  1  0.25048400  0.49974500  0.00156000  1
  Si  Si16  1  0.49974500  0.00156000  0.25048400  1
  Si  Si17  1  0.00156000  0.25048400  0.49974500  1
  Si  Si18  1  0.99974500  0.75048400  0.50156000  1
  Si  Si19  1  0.50156000  0.99974500  0.75048400  1
  H  H20  1  0.42538000  0.42538000  0.42538000  1
  H  H21  1  0.92538000  0.92538000  0.92538000  1
  O  O22  1  0.98950100  0.98950100  0.98950100  1
  O  O23  1  0.35454100  0.63686600  0.07399900  1
  O  O24  1  0.64824900  0.36474500  0.07267200  1
  O  O25  1  0.85454100  0.57399900  0.13686600  1
  O  O26  1  0.14736100  0.42633100  0.13690400  1
  O  O27  1  0.57267200  0.86474500  0.14824900  1
  O  O28  1  0.42633100  0.13690400  0.14736100  1
  O  O29  1  0.36285700  0.92980300  0.35296400  1
  O  O30  1  0.63686600  0.07399900  0.35454100  1
  O  O31  1  0.07267200  0.64824900  0.36474500  1
  O  O32  1  0.92980300  0.35296400  0.36285700  1
  O  O33  1  0.86285700  0.85296400  0.42980300  1
  O  O34  1  0.13690400  0.14736100  0.42633100  1
  O  O35  1  0.48950100  0.48950100  0.48950100  1
  O  O36  1  0.13686600  0.85454100  0.57399900  1
  O  O37  1  0.86474500  0.14824900  0.57267200  1
  O  O38  1  0.92633100  0.64736100  0.63690400  1
  O  O39  1  0.07399900  0.35454100  0.63686600  1
  O  O40  1  0.63690400  0.92633100  0.64736100  1
  O  O41  1  0.36474500  0.07267200  0.64824900  1
  O  O42  1  0.42980300  0.86285700  0.85296400  1
  O  O43  1  0.57399900  0.13686600  0.85454100  1
  O  O44  1  0.85296400  0.42980300  0.86285700  1
  O  O45  1  0.14824900  0.57267200  0.86474500  1
  O  O46  1  0.64736100  0.63690400  0.92633100  1
  O  O47  1  0.35296400  0.36285700  0.92980300  1
