# generated using pymatgen
data_Al5BO9
_symmetry_space_group_name_H-M   'P 1'
_cell_length_a   8.10210933
_cell_length_b   8.10210933
_cell_length_c   7.76573800
_cell_angle_alpha   90.00000000
_cell_angle_beta   90.00000000
_cell_angle_gamma   138.57660668
_symmetry_Int_Tables_number   1
_chemical_formula_structural   Al5BO9
_chemical_formula_sum   'Al10 B2 O18'
_cell_volume   337.27666339
_cell_formula_units_Z   2
loop_
 _symmetry_equiv_pos_site_id
 _symmetry_equiv_pos_as_xyz
  1  'x, y, z'
loop_
 _atom_site_type_symbol
 _atom_site_label
 _atom_site_symmetry_multiplicity
 _atom_site_fract_x
 _atom_site_fract_y
 _atom_site_fract_z
 _atom_site_occupancy
  Al  Al0  1  0.36792600  0.13613200  0.49978000  1
  Al  Al1  1  0.29659400  0.70340600  0.33366600  1
  Al  Al2  1  0.70340600  0.29659400  0.83366600  1
  Al  Al3  1  0.55645700  0.44354300  0.18318500  1
  Al  Al4  1  0.44354300  0.55645700  0.68318500  1
  Al  Al5  1  0.74461500  0.25538500  0.18493000  1
  Al  Al6  1  0.25538500  0.74461500  0.68493000  1
  Al  Al7  1  0.13613200  0.36792600  0.99978000  1
  Al  Al8  1  0.86386800  0.63207400  0.49978000  1
  Al  Al9  1  0.63207400  0.86386800  0.99978000  1
  B  B10  1  0.98435600  0.01564400  0.72082200  1
  B  B11  1  0.01564400  0.98435600  0.22082200  1
  O  O12  1  0.19106000  0.80894000  0.43588100  1
  O  O13  1  0.95361300  0.04638700  0.09306600  1
  O  O14  1  0.04638700  0.95361300  0.59306600  1
  O  O15  1  0.45464400  0.54535600  0.07178000  1
  O  O16  1  0.54535600  0.45464400  0.57178000  1
  O  O17  1  0.66930900  0.33069100  0.36819500  1
  O  O18  1  0.33069100  0.66930900  0.86819500  1
  O  O19  1  0.83822100  0.74201900  0.28483600  1
  O  O20  1  0.80894000  0.19106000  0.93588100  1
  O  O21  1  0.64828100  0.35171900  0.03723900  1
  O  O22  1  0.74201900  0.83822100  0.78483600  1
  O  O23  1  0.25798100  0.16177900  0.28483600  1
  O  O24  1  0.16177900  0.25798100  0.78483600  1
  O  O25  1  0.44752700  0.06702100  0.70040100  1
  O  O26  1  0.06702100  0.44752700  0.20040100  1
  O  O27  1  0.55247300  0.93297900  0.20040100  1
  O  O28  1  0.93297900  0.55247300  0.70040100  1
  O  O29  1  0.35171900  0.64828100  0.53723900  1
