# generated using pymatgen
data_Na2BeF4
_symmetry_space_group_name_H-M   'P 1'
_cell_length_a   4.95492400
_cell_length_b   6.64661600
_cell_length_c   11.09084900
_cell_angle_alpha   90.00000000
_cell_angle_beta   90.00000000
_cell_angle_gamma   90.00000000
_symmetry_Int_Tables_number   1
_chemical_formula_structural   Na2BeF4
_chemical_formula_sum   'Na8 Be4 F16'
_cell_volume   365.26022197
_cell_formula_units_Z   4
loop_
 _symmetry_equiv_pos_site_id
 _symmetry_equiv_pos_as_xyz
  1  'x, y, z'
loop_
 _atom_site_type_symbol
 _atom_site_label
 _atom_site_symmetry_multiplicity
 _atom_site_fract_x
 _atom_site_fract_y
 _atom_site_fract_z
 _atom_site_occupancy
  Na  Na0  1  0.51165400  0.25000000  0.77970000  1
  Na  Na1  1  0.01165400  0.75000000  0.72030000  1
  Na  Na2  1  0.48834600  0.75000000  0.22030000  1
  Na  Na3  1  0.98834600  0.25000000  0.27970000  1
  Na  Na4  1  0.50000000  0.50000000  0.50000000  1
  Na  Na5  1  0.00000000  0.50000000  0.00000000  1
  Na  Na6  1  0.50000000  0.00000000  0.50000000  1
  Na  Na7  1  0.00000000  0.00000000  0.00000000  1
  Be  Be8  1  0.42565700  0.25000000  0.09603100  1
  Be  Be9  1  0.57434300  0.75000000  0.90396900  1
  Be  Be10  1  0.07434300  0.25000000  0.59603100  1
  Be  Be11  1  0.92565700  0.75000000  0.40396900  1
  F  F12  1  0.69619800  0.94066000  0.83945300  1
  F  F13  1  0.19619800  0.05934000  0.66054700  1
  F  F14  1  0.30380200  0.44066000  0.16054700  1
  F  F15  1  0.80380200  0.55934000  0.33945300  1
  F  F16  1  0.19619800  0.44066000  0.66054700  1
  F  F17  1  0.30380200  0.05934000  0.16054700  1
  F  F18  1  0.69619800  0.55934000  0.83945300  1
  F  F19  1  0.80380200  0.94066000  0.33945300  1
  F  F20  1  0.73974700  0.25000000  0.09380700  1
  F  F21  1  0.23974700  0.75000000  0.40619300  1
  F  F22  1  0.26025300  0.75000000  0.90619300  1
  F  F23  1  0.76025300  0.25000000  0.59380700  1
  F  F24  1  0.69608900  0.75000000  0.03649300  1
  F  F25  1  0.19608900  0.25000000  0.46350700  1
  F  F26  1  0.30391100  0.25000000  0.96350700  1
  F  F27  1  0.80391100  0.75000000  0.53649300  1
