# generated using pymatgen
data_In2(Se2O5)3
_symmetry_space_group_name_H-M   'P 1'
_cell_length_a   13.59151100
_cell_length_b   10.06338100
_cell_length_c   11.51231343
_cell_angle_alpha   74.62983707
_cell_angle_beta   90.00000000
_cell_angle_gamma   90.00000000
_symmetry_Int_Tables_number   1
_chemical_formula_structural   In2(Se2O5)3
_chemical_formula_sum   'In8 Se24 O60'
_cell_volume   1518.29620259
_cell_formula_units_Z   4
loop_
 _symmetry_equiv_pos_site_id
 _symmetry_equiv_pos_as_xyz
  1  'x, y, z'
loop_
 _atom_site_type_symbol
 _atom_site_label
 _atom_site_symmetry_multiplicity
 _atom_site_fract_x
 _atom_site_fract_y
 _atom_site_fract_z
 _atom_site_occupancy
  In  In0  1  0.70739800  0.57735500  0.86115300  1
  In  In1  1  0.29260200  0.07735500  0.86115300  1
  In  In2  1  0.95356700  0.53642000  0.32903100  1
  In  In3  1  0.04643300  0.03642000  0.32903100  1
  In  In4  1  0.45518600  0.51665600  0.33317000  1
  In  In5  1  0.54481400  0.01665600  0.33317000  1
  In  In6  1  0.79567000  0.08702200  0.84449400  1
  In  In7  1  0.20433000  0.58702200  0.84449400  1
  Se  Se8  1  0.53412200  0.68884800  0.54344900  1
  Se  Se9  1  0.46587800  0.18884800  0.54344900  1
  Se  Se10  1  0.48969200  0.34234100  0.12041300  1
  Se  Se11  1  0.51030800  0.84234100  0.12041300  1
  Se  Se12  1  0.98559500  0.35532900  0.10867900  1
  Se  Se13  1  0.01440500  0.85532900  0.10867900  1
  Se  Se14  1  0.73900600  0.77659100  0.07801900  1
  Se  Se15  1  0.26099400  0.27659100  0.07801900  1
  Se  Se16  1  0.95606300  0.18401600  0.53936000  1
  Se  Se17  1  0.04393700  0.68401600  0.53936000  1
  Se  Se18  1  0.53380600  0.18625100  0.81962200  1
  Se  Se19  1  0.46619400  0.68625100  0.81962200  1
  Se  Se20  1  0.23468000  0.74739600  0.06278700  1
  Se  Se21  1  0.76532000  0.24739600  0.06278700  1
  Se  Se22  1  0.04487200  0.18242900  0.80187100  1
  Se  Se23  1  0.95512800  0.68242900  0.80187100  1
  Se  Se24  1  0.77248900  0.42132700  0.63944200  1
  Se  Se25  1  0.22751100  0.92132700  0.63944200  1
  Se  Se26  1  0.79600000  0.91688900  0.38295200  1
  Se  Se27  1  0.20400000  0.41688900  0.38295200  1
  Se  Se28  1  0.71333600  0.41899100  0.36252300  1
  Se  Se29  1  0.28666400  0.91899100  0.36252300  1
  Se  Se30  1  0.70063000  0.91495900  0.64506300  1
  Se  Se31  1  0.29937000  0.41495900  0.64506300  1
  O  O32  1  0.39213600  0.29500700  0.02742900  1
  O  O33  1  0.60786400  0.79500700  0.02742900  1
  O  O34  1  0.55512300  0.15252200  0.66878400  1
  O  O35  1  0.44487700  0.65252200  0.66878400  1
  O  O36  1  0.86213100  0.28364900  0.16219700  1
  O  O37  1  0.13786900  0.78364900  0.16219700  1
  O  O38  1  0.01818500  0.27109800  0.64495300  1
  O  O39  1  0.98181500  0.77109800  0.64495300  1
  O  O40  1  0.68368800  0.44501600  0.51216300  1
  O  O41  1  0.31631200  0.94501600  0.51216300  1
  O  O42  1  0.77154400  0.83484200  0.54311200  1
  O  O43  1  0.22845600  0.33484200  0.54311200  1
  O  O44  1  0.65171700  0.76268200  0.72783600  1
  O  O45  1  0.34828300  0.26268200  0.72783600  1
  O  O46  1  0.68454700  0.44637700  0.73705300  1
  O  O47  1  0.31545300  0.94637700  0.73705300  1
  O  O48  1  0.45222000  0.05998600  0.88645300  1
  O  O49  1  0.54778000  0.55998600  0.88645300  1
  O  O50  1  0.14270300  0.08016000  0.78998000  1
  O  O51  1  0.85729700  0.58016000  0.78998000  1
  O  O52  1  0.29370100  0.90110500  0.01926800  1
  O  O53  1  0.70629900  0.40110500  0.01926800  1
  O  O54  1  0.89401300  0.01939900  0.39199000  1
  O  O55  1  0.77501900  0.68931200  0.97810500  1
  O  O56  1  0.91228300  0.33196200  0.44349700  1
  O  O57  1  0.08771700  0.83196200  0.44349700  1
  O  O58  1  0.98195900  0.50354500  0.15264100  1
  O  O59  1  0.01804100  0.00354500  0.15264100  1
  O  O60  1  0.05994900  0.14160700  0.47396200  1
  O  O61  1  0.94005100  0.64160700  0.47396200  1
  O  O62  1  0.05452600  0.25185200  0.21858800  1
  O  O63  1  0.94547400  0.75185200  0.21858800  1
  O  O64  1  0.21297500  0.74661500  0.67473800  1
  O  O65  1  0.78702500  0.24661500  0.67473800  1
  O  O66  1  0.83456400  0.24061200  0.94050700  1
  O  O67  1  0.16543600  0.74061200  0.94050700  1
  O  O68  1  0.36090300  0.61032000  0.88335000  1
  O  O69  1  0.63909700  0.11032000  0.88335000  1
  O  O70  1  0.20555000  0.44000000  0.73526200  1
  O  O71  1  0.79445000  0.94000000  0.73526200  1
  O  O72  1  0.21105900  0.43647300  0.02069300  1
  O  O73  1  0.78894100  0.93647300  0.02069300  1
  O  O74  1  0.04480700  0.55895500  0.83252900  1
  O  O75  1  0.95519300  0.05895500  0.83252900  1
  O  O76  1  0.54784000  0.16645700  0.43864000  1
  O  O77  1  0.45216000  0.66645700  0.43864000  1
  O  O78  1  0.45831300  0.36485200  0.50828100  1
  O  O79  1  0.54168700  0.86485200  0.50828100  1
  O  O80  1  0.45231200  0.68770900  0.17088900  1
  O  O81  1  0.54768800  0.18770900  0.17088900  1
  O  O82  1  0.38985900  0.99533500  0.29127800  1
  O  O83  1  0.61014100  0.49533500  0.29127800  1
  O  O84  1  0.58299700  0.86373800  0.23632100  1
  O  O85  1  0.41700300  0.36373800  0.23632100  1
  O  O86  1  0.29370900  0.53848800  0.34705700  1
  O  O87  1  0.70629100  0.03848800  0.34705700  1
  O  O88  1  0.20522500  0.04960500  0.30793700  1
  O  O89  1  0.79477500  0.54960500  0.30793700  1
  O  O90  1  0.10598700  0.51939900  0.39199000  1
  O  O91  1  0.22498100  0.18931200  0.97810500  1
