# generated using pymatgen
data_NaAsO2
_symmetry_space_group_name_H-M   'P 1'
_cell_length_a   5.17068500
_cell_length_b   6.79042400
_cell_length_c   15.90307600
_cell_angle_alpha   90.00000000
_cell_angle_beta   90.00000000
_cell_angle_gamma   90.00000000
_symmetry_Int_Tables_number   1
_chemical_formula_structural   NaAsO2
_chemical_formula_sum   'Na8 As8 O16'
_cell_volume   558.37518385
_cell_formula_units_Z   8
loop_
 _symmetry_equiv_pos_site_id
 _symmetry_equiv_pos_as_xyz
  1  'x, y, z'
loop_
 _atom_site_type_symbol
 _atom_site_label
 _atom_site_symmetry_multiplicity
 _atom_site_fract_x
 _atom_site_fract_y
 _atom_site_fract_z
 _atom_site_occupancy
  Na  Na0  1  0.24269000  0.09849500  0.94964000  1
  Na  Na1  1  0.74269000  0.40150500  0.94964000  1
  Na  Na2  1  0.25731000  0.09849500  0.44964000  1
  Na  Na3  1  0.75731000  0.90150500  0.05036000  1
  Na  Na4  1  0.75731000  0.40150500  0.44964000  1
  Na  Na5  1  0.25731000  0.59849500  0.05036000  1
  Na  Na6  1  0.74269000  0.90150500  0.55036000  1
  Na  Na7  1  0.24269000  0.59849500  0.55036000  1
  As  As8  1  0.26799700  0.59873100  0.33935100  1
  As  As9  1  0.76799700  0.40126900  0.16064900  1
  As  As10  1  0.23200300  0.09873100  0.66064900  1
  As  As11  1  0.73200300  0.90126900  0.83935100  1
  As  As12  1  0.73200300  0.40126900  0.66064900  1
  As  As13  1  0.23200300  0.59873100  0.83935100  1
  As  As14  1  0.76799700  0.90126900  0.33935100  1
  As  As15  1  0.26799700  0.09873100  0.16064900  1
  O  O16  1  0.08166300  0.31375200  0.11691700  1
  O  O17  1  0.58166300  0.68624800  0.38308300  1
  O  O18  1  0.41833700  0.81375200  0.88308300  1
  O  O19  1  0.91833700  0.18624800  0.61691700  1
  O  O20  1  0.91833700  0.68624800  0.88308300  1
  O  O21  1  0.41833700  0.31375200  0.61691700  1
  O  O22  1  0.58166300  0.18624800  0.11691700  1
  O  O23  1  0.08166300  0.81375200  0.38308300  1
  O  O24  1  0.21088100  0.92981900  0.08141900  1
  O  O25  1  0.71088100  0.07018100  0.41858100  1
  O  O26  1  0.28911900  0.42981900  0.91858100  1
  O  O27  1  0.21088100  0.42981900  0.41858100  1
  O  O28  1  0.78911900  0.07018100  0.91858100  1
  O  O29  1  0.28911900  0.92981900  0.58141900  1
  O  O30  1  0.71088100  0.57018100  0.08141900  1
  O  O31  1  0.78911900  0.57018100  0.58141900  1
