# generated using pymatgen
data_TbP5O14
_symmetry_space_group_name_H-M   'P 1'
_cell_length_a   9.01736400
_cell_length_b   8.83634100
_cell_length_c   13.00955704
_cell_angle_alpha   89.54509704
_cell_angle_beta   90.00000000
_cell_angle_gamma   90.00000000
_symmetry_Int_Tables_number   1
_chemical_formula_structural   TbP5O14
_chemical_formula_sum   'Tb4 P20 O56'
_cell_volume   1036.57537949
_cell_formula_units_Z   4
loop_
 _symmetry_equiv_pos_site_id
 _symmetry_equiv_pos_as_xyz
  1  'x, y, z'
loop_
 _atom_site_type_symbol
 _atom_site_label
 _atom_site_symmetry_multiplicity
 _atom_site_fract_x
 _atom_site_fract_y
 _atom_site_fract_z
 _atom_site_occupancy
  Tb  Tb0  1  0.68808600  0.77722500  0.50133800  1
  Tb  Tb1  1  0.18808600  0.22277500  0.99866200  1
  Tb  Tb2  1  0.31191400  0.22277500  0.49866200  1
  Tb  Tb3  1  0.81191400  0.77722500  0.00133800  1
  P  P4  1  0.50289900  0.50626700  0.32910200  1
  P  P5  1  0.00289900  0.49373300  0.17089800  1
  P  P6  1  0.49710100  0.49373300  0.67089800  1
  P  P7  1  0.99710100  0.50626700  0.82910200  1
  P  P8  1  0.45497200  0.74560500  0.16527100  1
  P  P9  1  0.95497200  0.25439500  0.33472900  1
  P  P10  1  0.54502800  0.25439500  0.83472900  1
  P  P11  1  0.04502800  0.74560500  0.66527100  1
  P  P12  1  0.24443100  0.81713000  0.00001000  1
  P  P13  1  0.74443100  0.18287000  0.49999000  1
  P  P14  1  0.75556900  0.18287000  0.99999000  1
  P  P15  1  0.25556900  0.81713000  0.50001000  1
  P  P16  1  0.45038900  0.72824600  0.83562000  1
  P  P17  1  0.95038900  0.27175400  0.66438000  1
  P  P18  1  0.54961100  0.27175400  0.16438000  1
  P  P19  1  0.04961100  0.72824600  0.33562000  1
  P  P20  1  0.49452200  0.99223200  0.70000000  1
  P  P21  1  0.99452200  0.00776800  0.80000000  1
  P  P22  1  0.50547800  0.00776800  0.30000000  1
  P  P23  1  0.00547800  0.99223200  0.20000000  1
  O  O24  1  0.38441100  0.41613500  0.38027800  1
  O  O25  1  0.88441100  0.58386500  0.11972200  1
  O  O26  1  0.61558900  0.58386500  0.61972200  1
  O  O27  1  0.11558900  0.41613500  0.88027800  1
  O  O28  1  0.62343500  0.58072500  0.38833900  1
  O  O29  1  0.12343500  0.41927500  0.11166100  1
  O  O30  1  0.37656500  0.41927500  0.61166100  1
  O  O31  1  0.87656500  0.58072500  0.88833900  1
  O  O32  1  0.42055100  0.63282900  0.25648500  1
  O  O33  1  0.92055100  0.36717100  0.24351500  1
  O  O34  1  0.57944900  0.36717100  0.74351500  1
  O  O35  1  0.07944900  0.63282900  0.75648500  1
  O  O36  1  0.59627200  0.72409500  0.10975400  1
  O  O37  1  0.09627200  0.27590500  0.39024600  1
  O  O38  1  0.40372800  0.27590500  0.89024600  1
  O  O39  1  0.90372800  0.72409500  0.60975400  1
  O  O40  1  0.30985800  0.72348100  0.09934500  1
  O  O41  1  0.80985800  0.27651900  0.40065500  1
  O  O42  1  0.69014200  0.27651900  0.90065500  1
  O  O43  1  0.08195800  0.78907200  0.99964700  1
  O  O44  1  0.19014200  0.72348100  0.59934500  1
  O  O45  1  0.81030900  0.02807700  0.50503800  1
  O  O46  1  0.68969100  0.02807700  0.00503800  1
  O  O47  1  0.18969100  0.97192300  0.49496200  1
  O  O48  1  0.11796100  0.08582000  0.14508200  1
  O  O49  1  0.61796100  0.91418000  0.35491800  1
  O  O50  1  0.88203900  0.91418000  0.85491800  1
  O  O51  1  0.38203900  0.08582000  0.64508200  1
  O  O52  1  0.88401900  0.91063300  0.14653100  1
  O  O53  1  0.38401900  0.08936700  0.35346900  1
  O  O54  1  0.11598100  0.08936700  0.85346900  1
  O  O55  1  0.61598100  0.91063300  0.64653100  1
  O  O56  1  0.09733000  0.87354500  0.27143000  1
  O  O57  1  0.59733000  0.12645500  0.22857000  1
  O  O58  1  0.90267000  0.12645500  0.72857000  1
  O  O59  1  0.40267000  0.87354500  0.77143000  1
  O  O60  1  0.92742300  0.09222300  0.28876400  1
  O  O61  1  0.42742300  0.90777700  0.21123600  1
  O  O62  1  0.07257700  0.90777700  0.71123600  1
  O  O63  1  0.57257700  0.09222300  0.78876400  1
  O  O64  1  0.90235700  0.73281200  0.38496900  1
  O  O65  1  0.40235700  0.26718800  0.11503100  1
  O  O66  1  0.09764300  0.26718800  0.61503100  1
  O  O67  1  0.59764300  0.73281200  0.88496900  1
  O  O68  1  0.18570400  0.70907900  0.41053100  1
  O  O69  1  0.68570400  0.29092100  0.08946900  1
  O  O70  1  0.81429600  0.29092100  0.58946900  1
  O  O71  1  0.31429600  0.70907900  0.91053100  1
  O  O72  1  0.08221800  0.59212400  0.26140400  1
  O  O73  1  0.58221800  0.40787600  0.23859600  1
  O  O74  1  0.91778200  0.40787600  0.73859600  1
  O  O75  1  0.41778200  0.59212400  0.76140400  1
  O  O76  1  0.41804200  0.78907200  0.49964700  1
  O  O77  1  0.91804200  0.21092800  0.00035300  1
  O  O78  1  0.58195800  0.21092800  0.50035300  1
  O  O79  1  0.31030900  0.97192300  0.99496200  1
