# generated using pymatgen
data_Sr11Bi10
_symmetry_space_group_name_H-M   'P 1'
_cell_length_a   13.06933562
_cell_length_b   13.06933562
_cell_length_c   13.06933562
_cell_angle_alpha   120.32222883
_cell_angle_beta   120.32222883
_cell_angle_gamma   89.44278355
_symmetry_Int_Tables_number   1
_chemical_formula_structural   Sr11Bi10
_chemical_formula_sum   'Sr22 Bi20'
_cell_volume   1570.73485074
_cell_formula_units_Z   2
loop_
 _symmetry_equiv_pos_site_id
 _symmetry_equiv_pos_as_xyz
  1  'x, y, z'
loop_
 _atom_site_type_symbol
 _atom_site_label
 _atom_site_symmetry_multiplicity
 _atom_site_fract_x
 _atom_site_fract_y
 _atom_site_fract_z
 _atom_site_occupancy
  Sr  Sr0  1  0.80965100  0.06023700  0.25058600  1
  Sr  Sr1  1  0.80965100  0.55906500  0.74941400  1
  Sr  Sr2  1  0.06023700  0.80965100  0.25058600  1
  Sr  Sr3  1  0.55906500  0.80965100  0.74941400  1
  Sr  Sr4  1  0.19034900  0.93976300  0.74941400  1
  Sr  Sr5  1  0.19034900  0.44093500  0.25058600  1
  Sr  Sr6  1  0.93976300  0.19034900  0.74941400  1
  Sr  Sr7  1  0.44093500  0.19034900  0.25058600  1
  Sr  Sr8  1  0.16534500  0.16534500  0.33069000  1
  Sr  Sr9  1  0.83465500  0.83465500  0.66931000  1
  Sr  Sr10  1  0.16534500  0.83465500  0.00000000  1
  Sr  Sr11  1  0.83465500  0.16534500  0.00000000  1
  Sr  Sr12  1  0.66144600  0.66144600  0.00000000  1
  Sr  Sr13  1  0.33855400  0.33855400  0.00000000  1
  Sr  Sr14  1  0.60387600  0.94273200  0.33885600  1
  Sr  Sr15  1  0.60387600  0.26502000  0.66114400  1
  Sr  Sr16  1  0.94273200  0.60387600  0.33885600  1
  Sr  Sr17  1  0.26502000  0.60387600  0.66114400  1
  Sr  Sr18  1  0.39612400  0.05726800  0.66114400  1
  Sr  Sr19  1  0.39612400  0.73498000  0.33885600  1
  Sr  Sr20  1  0.05726800  0.39612400  0.66114400  1
  Sr  Sr21  1  0.73498000  0.39612400  0.33885600  1
  Bi  Bi22  1  0.35040800  0.00000000  0.35040800  1
  Bi  Bi23  1  0.64959200  0.00000000  0.64959200  1
  Bi  Bi24  1  0.00000000  0.64959200  0.64959200  1
  Bi  Bi25  1  0.00000000  0.35040800  0.35040800  1
  Bi  Bi26  1  0.87432400  0.87432400  0.00000000  1
  Bi  Bi27  1  0.12567600  0.12567600  0.00000000  1
  Bi  Bi28  1  0.37220500  0.37220500  0.74441000  1
  Bi  Bi29  1  0.62779500  0.62779500  0.25559000  1
  Bi  Bi30  1  0.37220500  0.62779500  0.00000000  1
  Bi  Bi31  1  0.62779500  0.37220500  0.00000000  1
  Bi  Bi32  1  0.75000000  0.25000000  0.50000000  1
  Bi  Bi33  1  0.25000000  0.75000000  0.50000000  1
  Bi  Bi34  1  0.87975200  0.87975200  0.41252300  1
  Bi  Bi35  1  0.46723000  0.46723000  0.58747700  1
  Bi  Bi36  1  0.87975200  0.46723000  0.00000000  1
  Bi  Bi37  1  0.46723000  0.87975200  0.00000000  1
  Bi  Bi38  1  0.12024800  0.12024800  0.58747700  1
  Bi  Bi39  1  0.53277000  0.53277000  0.41252300  1
  Bi  Bi40  1  0.12024800  0.53277000  0.00000000  1
  Bi  Bi41  1  0.53277000  0.12024800  0.00000000  1
