# generated using pymatgen
data_Zr5Ir3
_symmetry_space_group_name_H-M   'P 1'
_cell_length_a   7.99020208
_cell_length_b   7.99020208
_cell_length_c   17.22553800
_cell_angle_alpha   90.00000000
_cell_angle_beta   90.00000000
_cell_angle_gamma   120.00000062
_symmetry_Int_Tables_number   1
_chemical_formula_structural   Zr5Ir3
_chemical_formula_sum   'Zr30 Ir18'
_cell_volume   952.39904178
_cell_formula_units_Z   6
loop_
 _symmetry_equiv_pos_site_id
 _symmetry_equiv_pos_as_xyz
  1  'x, y, z'
loop_
 _atom_site_type_symbol
 _atom_site_label
 _atom_site_symmetry_multiplicity
 _atom_site_fract_x
 _atom_site_fract_y
 _atom_site_fract_z
 _atom_site_occupancy
  Zr  Zr0  1  0.23771900  0.23100300  0.82637000  1
  Zr  Zr1  1  0.76899700  0.00671600  0.15970400  1
  Zr  Zr2  1  0.99328400  0.76228100  0.49303700  1
  Zr  Zr3  1  0.00671600  0.23771900  0.99303700  1
  Zr  Zr4  1  0.76228100  0.99328400  0.84029600  1
  Zr  Zr5  1  0.76228100  0.76899700  0.32637000  1
  Zr  Zr6  1  0.23100300  0.99328400  0.65970400  1
  Zr  Zr7  1  0.76899700  0.76228100  0.00696300  1
  Zr  Zr8  1  0.99328400  0.23100300  0.67363000  1
  Zr  Zr9  1  0.00671600  0.76899700  0.17363000  1
  Zr  Zr10  1  0.23100300  0.23771900  0.50696300  1
  Zr  Zr11  1  0.23771900  0.00671600  0.34029600  1
  Zr  Zr12  1  0.34613700  0.69227400  0.75000000  1
  Zr  Zr13  1  0.65386300  0.34613700  0.91666700  1
  Zr  Zr14  1  0.69227400  0.34613700  0.58333300  1
  Zr  Zr15  1  0.30772600  0.65386300  0.08333300  1
  Zr  Zr16  1  0.34613700  0.65386300  0.41666700  1
  Zr  Zr17  1  0.65386300  0.30772600  0.25000000  1
  Zr  Zr18  1  0.24817700  0.00000000  0.00000000  1
  Zr  Zr19  1  0.24817700  0.24817700  0.16666700  1
  Zr  Zr20  1  0.00000000  0.75182300  0.83333300  1
  Zr  Zr21  1  0.00000000  0.24817700  0.33333300  1
  Zr  Zr22  1  0.75182300  0.75182300  0.66666700  1
  Zr  Zr23  1  0.75182300  0.00000000  0.50000000  1
  Zr  Zr24  1  0.37416900  0.74833800  0.25000000  1
  Zr  Zr25  1  0.62583100  0.37416900  0.41666700  1
  Zr  Zr26  1  0.74833800  0.37416900  0.08333300  1
  Zr  Zr27  1  0.25166200  0.62583100  0.58333300  1
  Zr  Zr28  1  0.37416900  0.62583100  0.91666700  1
  Zr  Zr29  1  0.62583100  0.25166200  0.75000000  1
  Ir  Ir30  1  0.41314500  0.39393100  0.02322600  1
  Ir  Ir31  1  0.60606900  0.01921400  0.35655900  1
  Ir  Ir32  1  0.98078600  0.58685500  0.68989200  1
  Ir  Ir33  1  0.01921400  0.41314500  0.18989200  1
  Ir  Ir34  1  0.58685500  0.98078600  0.64344100  1
  Ir  Ir35  1  0.58685500  0.60606900  0.52322600  1
  Ir  Ir36  1  0.39393100  0.98078600  0.85655900  1
  Ir  Ir37  1  0.60606900  0.58685500  0.81010800  1
  Ir  Ir38  1  0.98078600  0.39393100  0.47677400  1
  Ir  Ir39  1  0.01921400  0.60606900  0.97677400  1
  Ir  Ir40  1  0.39393100  0.41314500  0.31010800  1
  Ir  Ir41  1  0.41314500  0.01921400  0.14344100  1
  Ir  Ir42  1  0.38544300  0.00000000  0.50000000  1
  Ir  Ir43  1  0.38544300  0.38544300  0.66666700  1
  Ir  Ir44  1  0.00000000  0.61455700  0.33333300  1
  Ir  Ir45  1  0.00000000  0.38544300  0.83333300  1
  Ir  Ir46  1  0.61455700  0.61455700  0.16666700  1
  Ir  Ir47  1  0.61455700  0.00000000  0.00000000  1
