# generated using pymatgen
data_Tm3Ga5
_symmetry_space_group_name_H-M   'P 1'
_cell_length_a   6.04879600
_cell_length_b   9.62498500
_cell_length_c   11.26815700
_cell_angle_alpha   90.00000000
_cell_angle_beta   90.00000000
_cell_angle_gamma   90.00000000
_symmetry_Int_Tables_number   1
_chemical_formula_structural   Tm3Ga5
_chemical_formula_sum   'Tm12 Ga20'
_cell_volume   656.02726389
_cell_formula_units_Z   4
loop_
 _symmetry_equiv_pos_site_id
 _symmetry_equiv_pos_as_xyz
  1  'x, y, z'
loop_
 _atom_site_type_symbol
 _atom_site_label
 _atom_site_symmetry_multiplicity
 _atom_site_fract_x
 _atom_site_fract_y
 _atom_site_fract_z
 _atom_site_occupancy
  Tm  Tm0  1  0.84790400  0.75000000  0.07268000  1
  Tm  Tm1  1  0.65209600  0.75000000  0.57268000  1
  Tm  Tm2  1  0.15209600  0.25000000  0.92732000  1
  Tm  Tm3  1  0.34790400  0.25000000  0.42732000  1
  Tm  Tm4  1  0.88937400  0.50972000  0.35245800  1
  Tm  Tm5  1  0.61062600  0.99028000  0.85245800  1
  Tm  Tm6  1  0.11062600  0.00972000  0.64754200  1
  Tm  Tm7  1  0.38937400  0.49028000  0.14754200  1
  Tm  Tm8  1  0.11062600  0.49028000  0.64754200  1
  Tm  Tm9  1  0.38937400  0.00972000  0.14754200  1
  Tm  Tm10  1  0.88937400  0.99028000  0.35245800  1
  Tm  Tm11  1  0.61062600  0.50972000  0.85245800  1
  Ga  Ga12  1  0.87392100  0.05144400  0.09095000  1
  Ga  Ga13  1  0.62607900  0.44855600  0.59095000  1
  Ga  Ga14  1  0.12607900  0.55144400  0.90905000  1
  Ga  Ga15  1  0.37392100  0.94855600  0.40905000  1
  Ga  Ga16  1  0.12607900  0.94855600  0.90905000  1
  Ga  Ga17  1  0.37392100  0.55144400  0.40905000  1
  Ga  Ga18  1  0.87392100  0.44855600  0.09095000  1
  Ga  Ga19  1  0.62607900  0.05144400  0.59095000  1
  Ga  Ga20  1  0.17403600  0.75000000  0.25108500  1
  Ga  Ga21  1  0.32596400  0.75000000  0.75108500  1
  Ga  Ga22  1  0.82596400  0.25000000  0.74891500  1
  Ga  Ga23  1  0.67403600  0.25000000  0.24891500  1
  Ga  Ga24  1  0.37252500  0.75000000  0.00617300  1
  Ga  Ga25  1  0.12747500  0.75000000  0.50617300  1
  Ga  Ga26  1  0.62747500  0.25000000  0.99382700  1
  Ga  Ga27  1  0.87252500  0.25000000  0.49382700  1
  Ga  Ga28  1  0.60671100  0.75000000  0.29875700  1
  Ga  Ga29  1  0.89328900  0.75000000  0.79875700  1
  Ga  Ga30  1  0.39328900  0.25000000  0.70124300  1
  Ga  Ga31  1  0.10671100  0.25000000  0.20124300  1
