# generated using pymatgen
data_Sr7Pt3
_symmetry_space_group_name_H-M   'P 1'
_cell_length_a   7.19186900
_cell_length_b   8.00746200
_cell_length_c   24.54257800
_cell_angle_alpha   90.00000000
_cell_angle_beta   90.00000000
_cell_angle_gamma   90.00000000
_symmetry_Int_Tables_number   1
_chemical_formula_structural   Sr7Pt3
_chemical_formula_sum   'Sr28 Pt12'
_cell_volume   1413.37314246
_cell_formula_units_Z   4
loop_
 _symmetry_equiv_pos_site_id
 _symmetry_equiv_pos_as_xyz
  1  'x, y, z'
loop_
 _atom_site_type_symbol
 _atom_site_label
 _atom_site_symmetry_multiplicity
 _atom_site_fract_x
 _atom_site_fract_y
 _atom_site_fract_z
 _atom_site_occupancy
  Sr  Sr0  1  0.65437100  0.45720000  0.38228600  1
  Sr  Sr1  1  0.15437100  0.04280000  0.61771400  1
  Sr  Sr2  1  0.84562900  0.95720000  0.11771400  1
  Sr  Sr3  1  0.34562900  0.54280000  0.88228600  1
  Sr  Sr4  1  0.34562900  0.54280000  0.61771400  1
  Sr  Sr5  1  0.84562900  0.95720000  0.38228600  1
  Sr  Sr6  1  0.15437100  0.04280000  0.88228600  1
  Sr  Sr7  1  0.65437100  0.45720000  0.11771400  1
  Sr  Sr8  1  0.17695200  0.33198700  0.47743600  1
  Sr  Sr9  1  0.67695200  0.16801300  0.52256400  1
  Sr  Sr10  1  0.32304800  0.83198700  0.02256400  1
  Sr  Sr11  1  0.82304800  0.66801300  0.97743600  1
  Sr  Sr12  1  0.64762300  0.17667800  0.25000000  1
  Sr  Sr13  1  0.14762300  0.32332200  0.75000000  1
  Sr  Sr14  1  0.85237700  0.67667800  0.25000000  1
  Sr  Sr15  1  0.35237700  0.82332200  0.75000000  1
  Sr  Sr16  1  0.18430800  0.32031700  0.17431700  1
  Sr  Sr17  1  0.68430800  0.17968300  0.82568300  1
  Sr  Sr18  1  0.31569200  0.82031700  0.32568300  1
  Sr  Sr19  1  0.81569200  0.67968300  0.67431700  1
  Sr  Sr20  1  0.81569200  0.67968300  0.82568300  1
  Sr  Sr21  1  0.31569200  0.82031700  0.17431700  1
  Sr  Sr22  1  0.68430800  0.17968300  0.67431700  1
  Sr  Sr23  1  0.18430800  0.32031700  0.32568300  1
  Sr  Sr24  1  0.17695200  0.33198700  0.02256400  1
  Sr  Sr25  1  0.67695200  0.16801300  0.97743600  1
  Sr  Sr26  1  0.32304800  0.83198700  0.47743600  1
  Sr  Sr27  1  0.82304800  0.66801300  0.52256400  1
  Pt  Pt28  1  0.46299300  0.12155900  0.40516400  1
  Pt  Pt29  1  0.96299300  0.37844100  0.59483600  1
  Pt  Pt30  1  0.03700700  0.62155900  0.09483600  1
  Pt  Pt31  1  0.53700700  0.87844100  0.90516400  1
  Pt  Pt32  1  0.53700700  0.87844100  0.59483600  1
  Pt  Pt33  1  0.03700700  0.62155900  0.40516400  1
  Pt  Pt34  1  0.96299300  0.37844100  0.90516400  1
  Pt  Pt35  1  0.46299300  0.12155900  0.09483600  1
  Pt  Pt36  1  0.96519300  0.97835000  0.75000000  1
  Pt  Pt37  1  0.46519300  0.52165000  0.25000000  1
  Pt  Pt38  1  0.53480700  0.47835000  0.75000000  1
  Pt  Pt39  1  0.03480700  0.02165000  0.25000000  1
