# generated using pymatgen
data_Sm2Te4O11
_symmetry_space_group_name_H-M   'P 1'
_cell_length_a   6.85557577
_cell_length_b   6.85557577
_cell_length_c   16.56734419
_cell_angle_alpha   76.44239490
_cell_angle_beta   76.44239490
_cell_angle_gamma   45.08911404
_symmetry_Int_Tables_number   1
_chemical_formula_structural   Sm2Te4O11
_chemical_formula_sum   'Sm4 Te8 O22'
_cell_volume   533.38361380
_cell_formula_units_Z   2
loop_
 _symmetry_equiv_pos_site_id
 _symmetry_equiv_pos_as_xyz
  1  'x, y, z'
loop_
 _atom_site_type_symbol
 _atom_site_label
 _atom_site_symmetry_multiplicity
 _atom_site_fract_x
 _atom_site_fract_y
 _atom_site_fract_z
 _atom_site_occupancy
  Sm  Sm0  1  0.13131200  0.63207700  0.03763000  1
  Sm  Sm1  1  0.36792300  0.86868800  0.46237000  1
  Sm  Sm2  1  0.86868800  0.36792300  0.96237000  1
  Sm  Sm3  1  0.63207700  0.13131200  0.53763000  1
  Te  Te4  1  0.91345400  0.35007900  0.62485900  1
  Te  Te5  1  0.64992100  0.08654600  0.87514100  1
  Te  Te6  1  0.08654600  0.64992100  0.37514100  1
  Te  Te7  1  0.35007900  0.91345400  0.12485900  1
  Te  Te8  1  0.10122900  0.66032600  0.69831000  1
  Te  Te9  1  0.33967400  0.89877100  0.80169000  1
  Te  Te10  1  0.89877100  0.33967400  0.30169000  1
  Te  Te11  1  0.66032600  0.10122900  0.19831000  1
  O  O12  1  0.34993700  0.65006300  0.75000000  1
  O  O13  1  0.65006300  0.34993700  0.25000000  1
  O  O14  1  0.68377300  0.45771200  0.54596800  1
  O  O15  1  0.54228800  0.31622700  0.95403200  1
  O  O16  1  0.31622700  0.54228800  0.45403200  1
  O  O17  1  0.45771200  0.68377300  0.04596800  1
  O  O18  1  0.69831600  0.59711500  0.83160400  1
  O  O19  1  0.40288500  0.30168400  0.66839600  1
  O  O20  1  0.30168400  0.40288500  0.16839600  1
  O  O21  1  0.59711500  0.69831600  0.33160400  1
  O  O22  1  0.81858200  0.68890900  0.62650800  1
  O  O23  1  0.31109100  0.18141800  0.87349200  1
  O  O24  1  0.89386700  0.05865400  0.09845800  1
  O  O25  1  0.94134600  0.10613300  0.40154200  1
  O  O26  1  0.10613300  0.94134600  0.90154200  1
  O  O27  1  0.05865400  0.89386700  0.59845800  1
  O  O28  1  0.75062900  0.83267600  0.44670000  1
  O  O29  1  0.16732400  0.24937100  0.05330000  1
  O  O30  1  0.24937100  0.16732400  0.55330000  1
  O  O31  1  0.83267600  0.75062900  0.94670000  1
  O  O32  1  0.68890900  0.81858200  0.12650800  1
  O  O33  1  0.18141800  0.31109100  0.37349200  1
