# generated using pymatgen
data_CeNiGe2
_symmetry_space_group_name_H-M   'P 1'
_cell_length_a   8.56986061
_cell_length_b   8.56986061
_cell_length_c   4.22605200
_cell_angle_alpha   90.00000000
_cell_angle_beta   90.00000000
_cell_angle_gamma   151.46928104
_symmetry_Int_Tables_number   1
_chemical_formula_structural   CeNiGe2
_chemical_formula_sum   'Ce2 Ni2 Ge4'
_cell_volume   148.24287505
_cell_formula_units_Z   2
loop_
 _symmetry_equiv_pos_site_id
 _symmetry_equiv_pos_as_xyz
  1  'x, y, z'
loop_
 _atom_site_type_symbol
 _atom_site_label
 _atom_site_symmetry_multiplicity
 _atom_site_fract_x
 _atom_site_fract_y
 _atom_site_fract_z
 _atom_site_occupancy
  Ce  Ce0  1  0.89177900  0.10822100  0.25000000  1
  Ce  Ce1  1  0.10822100  0.89177900  0.75000000  1
  Ni  Ni2  1  0.68134900  0.31865100  0.25000000  1
  Ni  Ni3  1  0.31865100  0.68134900  0.75000000  1
  Ge  Ge4  1  0.45812000  0.54188000  0.75000000  1
  Ge  Ge5  1  0.54188000  0.45812000  0.25000000  1
  Ge  Ge6  1  0.75023800  0.24976200  0.75000000  1
  Ge  Ge7  1  0.24976200  0.75023800  0.25000000  1
