# generated using pymatgen
data_NdTaO4
_symmetry_space_group_name_H-M   'P 1'
_cell_length_a   5.66419200
_cell_length_b   5.28166700
_cell_length_c   5.47201764
_cell_angle_alpha   83.17618492
_cell_angle_beta   90.00000000
_cell_angle_gamma   90.00000000
_symmetry_Int_Tables_number   1
_chemical_formula_structural   NdTaO4
_chemical_formula_sum   'Nd2 Ta2 O8'
_cell_volume   162.54329931
_cell_formula_units_Z   2
loop_
 _symmetry_equiv_pos_site_id
 _symmetry_equiv_pos_as_xyz
  1  'x, y, z'
loop_
 _atom_site_type_symbol
 _atom_site_label
 _atom_site_symmetry_multiplicity
 _atom_site_fract_x
 _atom_site_fract_y
 _atom_site_fract_z
 _atom_site_occupancy
  Nd  Nd0  1  0.76506000  0.00000000  0.75000000  1
  Nd  Nd1  1  0.23494000  0.00000000  0.25000000  1
  Ta  Ta2  1  0.68626400  0.50000000  0.25000000  1
  Ta  Ta3  1  0.31373600  0.50000000  0.75000000  1
  O  O4  1  0.56271200  0.27513600  0.00731200  1
  O  O5  1  0.56271200  0.72486400  0.49268800  1
  O  O6  1  0.43728800  0.72486400  0.99268800  1
  O  O7  1  0.43728800  0.27513600  0.50731200  1
  O  O8  1  0.09477800  0.74446100  0.61090600  1
  O  O9  1  0.09477800  0.25553900  0.88909400  1
  O  O10  1  0.90522200  0.25553900  0.38909400  1
  O  O11  1  0.90522200  0.74446100  0.11090600  1
