# generated using pymatgen
data_ThF4
_symmetry_space_group_name_H-M   'P 1'
_cell_length_a   8.61226403
_cell_length_b   8.61226403
_cell_length_c   8.61051617
_cell_angle_alpha   63.23068244
_cell_angle_beta   63.23068244
_cell_angle_gamma   80.21578200
_symmetry_Int_Tables_number   1
_chemical_formula_structural   ThF4
_chemical_formula_sum   'Th6 F24'
_cell_volume   508.66039995
_cell_formula_units_Z   6
loop_
 _symmetry_equiv_pos_site_id
 _symmetry_equiv_pos_as_xyz
  1  'x, y, z'
loop_
 _atom_site_type_symbol
 _atom_site_label
 _atom_site_symmetry_multiplicity
 _atom_site_fract_x
 _atom_site_fract_y
 _atom_site_fract_z
 _atom_site_occupancy
  Th  Th0  1  0.78732100  0.21267900  0.75000000  1
  Th  Th1  1  0.21267900  0.78732100  0.25000000  1
  Th  Th2  1  0.22433700  0.36788100  0.83020500  1
  Th  Th3  1  0.63211900  0.77566300  0.66979500  1
  Th  Th4  1  0.77566300  0.63211900  0.16979500  1
  Th  Th5  1  0.36788100  0.22433700  0.33020500  1
  F  F6  1  0.31850900  0.26057900  0.60256300  1
  F  F7  1  0.73942100  0.68149100  0.89743700  1
  F  F8  1  0.68149100  0.73942100  0.39743700  1
  F  F9  1  0.26057900  0.31850900  0.10256300  1
  F  F10  1  0.81277700  0.40213400  0.43167100  1
  F  F11  1  0.59786600  0.18722300  0.06832900  1
  F  F12  1  0.60332300  0.39667700  0.25000000  1
  F  F13  1  0.39667700  0.60332300  0.75000000  1
  F  F14  1  0.26261700  0.50304000  0.28039300  1
  F  F15  1  0.49696000  0.73738300  0.21960700  1
  F  F16  1  0.73738300  0.49696000  0.71960700  1
  F  F17  1  0.50304000  0.26261700  0.78039300  1
  F  F18  1  0.02650600  0.72216400  0.15542100  1
  F  F19  1  0.27783600  0.97349400  0.34457900  1
  F  F20  1  0.97349400  0.27783600  0.84457900  1
  F  F21  1  0.72216400  0.02650600  0.65542100  1
  F  F22  1  0.00000000  0.50000000  0.00000000  1
  F  F23  1  0.50000000  0.00000000  0.50000000  1
  F  F24  1  0.17525100  0.06706100  0.04258000  1
  F  F25  1  0.93293900  0.82474900  0.45742000  1
  F  F26  1  0.82474900  0.93293900  0.95742000  1
  F  F27  1  0.06706100  0.17525100  0.54258000  1
  F  F28  1  0.40213400  0.81277700  0.93167100  1
  F  F29  1  0.18722300  0.59786600  0.56832900  1
