# generated using pymatgen
data_USO
_symmetry_space_group_name_H-M   'P 1'
_cell_length_a   3.79148800
_cell_length_b   3.79148800
_cell_length_c   6.74790300
_cell_angle_alpha   90.00000000
_cell_angle_beta   90.00000000
_cell_angle_gamma   90.00000000
_symmetry_Int_Tables_number   1
_chemical_formula_structural   USO
_chemical_formula_sum   'U2 S2 O2'
_cell_volume   97.00367829
_cell_formula_units_Z   2
loop_
 _symmetry_equiv_pos_site_id
 _symmetry_equiv_pos_as_xyz
  1  'x, y, z'
loop_
 _atom_site_type_symbol
 _atom_site_label
 _atom_site_symmetry_multiplicity
 _atom_site_fract_x
 _atom_site_fract_y
 _atom_site_fract_z
 _atom_site_occupancy
  U  U0  1  0.00000000  0.50000000  0.79945400  1
  U  U1  1  0.50000000  0.00000000  0.20054600  1
  S  S2  1  0.50000000  0.00000000  0.63401300  1
  S  S3  1  0.00000000  0.50000000  0.36598700  1
  O  O4  1  0.00000000  0.00000000  0.00000000  1
  O  O5  1  0.50000000  0.50000000  0.00000000  1
