# generated using pymatgen
data_RbBi
_symmetry_space_group_name_H-M   'P 1'
_cell_length_a   7.65941600
_cell_length_b   14.22470000
_cell_length_c   15.14759945
_cell_angle_alpha   66.78211896
_cell_angle_beta   90.00000000
_cell_angle_gamma   90.00000000
_symmetry_Int_Tables_number   1
_chemical_formula_structural   RbBi
_chemical_formula_sum   'Rb16 Bi16'
_cell_volume   1516.71483513
_cell_formula_units_Z   16
loop_
 _symmetry_equiv_pos_site_id
 _symmetry_equiv_pos_as_xyz
  1  'x, y, z'
loop_
 _atom_site_type_symbol
 _atom_site_label
 _atom_site_symmetry_multiplicity
 _atom_site_fract_x
 _atom_site_fract_y
 _atom_site_fract_z
 _atom_site_occupancy
  Rb  Rb0  1  0.85774500  0.44957100  0.85184900  1
  Rb  Rb1  1  0.35774500  0.05042900  0.14815100  1
  Rb  Rb2  1  0.14225500  0.55042900  0.14815100  1
  Rb  Rb3  1  0.64225500  0.94957100  0.85184900  1
  Rb  Rb4  1  0.57722700  0.30964600  0.65656600  1
  Rb  Rb5  1  0.07722700  0.19035400  0.34343400  1
  Rb  Rb6  1  0.42277300  0.69035400  0.34343400  1
  Rb  Rb7  1  0.92277300  0.80964600  0.65656600  1
  Rb  Rb8  1  0.80481700  0.46492100  0.39576200  1
  Rb  Rb9  1  0.30481700  0.03507900  0.60423800  1
  Rb  Rb10  1  0.19518300  0.53507900  0.60423800  1
  Rb  Rb11  1  0.69518300  0.96492100  0.39576200  1
  Rb  Rb12  1  0.61708400  0.35462600  0.12482200  1
  Rb  Rb13  1  0.11708400  0.14537400  0.87517800  1
  Rb  Rb14  1  0.38291600  0.64537400  0.87517800  1
  Rb  Rb15  1  0.88291600  0.85462600  0.12482200  1
  Bi  Bi16  1  0.79908000  0.11979400  0.57313500  1
  Bi  Bi17  1  0.29908000  0.38020600  0.42686500  1
  Bi  Bi18  1  0.20092000  0.88020600  0.42686500  1
  Bi  Bi19  1  0.70092000  0.61979400  0.57313500  1
  Bi  Bi20  1  0.56583200  0.23030900  0.39828600  1
  Bi  Bi21  1  0.06583200  0.26969100  0.60171400  1
  Bi  Bi22  1  0.43416800  0.76969100  0.60171400  1
  Bi  Bi23  1  0.93416800  0.73030900  0.39828600  1
  Bi  Bi24  1  0.87412400  0.13743800  0.10331600  1
  Bi  Bi25  1  0.37412400  0.36256200  0.89668400  1
  Bi  Bi26  1  0.12587600  0.86256200  0.89668400  1
  Bi  Bi27  1  0.62587600  0.63743800  0.10331600  1
  Bi  Bi28  1  0.13321200  0.31356500  0.07064700  1
  Bi  Bi29  1  0.63321200  0.18643500  0.92935300  1
  Bi  Bi30  1  0.86678800  0.68643500  0.92935300  1
  Bi  Bi31  1  0.36678800  0.81356500  0.07064700  1
