# generated using pymatgen
data_BiKrF7
_symmetry_space_group_name_H-M   'P 1'
_cell_length_a   10.84372500
_cell_length_b   5.57881500
_cell_length_c   11.51833882
_cell_angle_alpha   84.70638804
_cell_angle_beta   90.00000000
_cell_angle_gamma   90.00000000
_symmetry_Int_Tables_number   1
_chemical_formula_structural   BiKrF7
_chemical_formula_sum   'Bi4 Kr4 F28'
_cell_volume   693.83159665
_cell_formula_units_Z   4
loop_
 _symmetry_equiv_pos_site_id
 _symmetry_equiv_pos_as_xyz
  1  'x, y, z'
loop_
 _atom_site_type_symbol
 _atom_site_label
 _atom_site_symmetry_multiplicity
 _atom_site_fract_x
 _atom_site_fract_y
 _atom_site_fract_z
 _atom_site_occupancy
  Bi  Bi0  1  0.98946400  0.59973600  0.73222900  1
  Bi  Bi1  1  0.48946400  0.40026400  0.76777100  1
  Bi  Bi2  1  0.01053600  0.40026400  0.26777100  1
  Bi  Bi3  1  0.51053600  0.59973600  0.23222900  1
  Kr  Kr4  1  0.23214000  0.98380700  0.52866500  1
  Kr  Kr5  1  0.73214000  0.01619300  0.97133500  1
  Kr  Kr6  1  0.76786000  0.01619300  0.47133500  1
  Kr  Kr7  1  0.26786000  0.98380700  0.02866500  1
  F  F8  1  0.37566000  0.14586300  0.48161900  1
  F  F9  1  0.87566000  0.85413700  0.01838100  1
  F  F10  1  0.62434000  0.85413700  0.51838100  1
  F  F11  1  0.12434000  0.14586300  0.98161900  1
  F  F12  1  0.63233100  0.50477800  0.11062100  1
  F  F13  1  0.13233100  0.49522200  0.38937900  1
  F  F14  1  0.36766900  0.49522200  0.88937900  1
  F  F15  1  0.86766900  0.50477800  0.61062100  1
  F  F16  1  0.61461400  0.89975100  0.24490000  1
  F  F17  1  0.11461400  0.10024900  0.25510000  1
  F  F18  1  0.38538600  0.10024900  0.75510000  1
  F  F19  1  0.88538600  0.89975100  0.74490000  1
  F  F20  1  0.43212500  0.81186600  0.07432600  1
  F  F21  1  0.93212500  0.18813400  0.42567400  1
  F  F22  1  0.56787500  0.18813400  0.92567400  1
  F  F23  1  0.06787500  0.81186600  0.57432600  1
  F  F24  1  0.59125900  0.41122800  0.37041900  1
  F  F25  1  0.09125900  0.58877200  0.12958100  1
  F  F26  1  0.40874100  0.58877200  0.62958100  1
  F  F27  1  0.90874100  0.41122800  0.87041900  1
  F  F28  1  0.39562400  0.33212900  0.19245600  1
  F  F29  1  0.89562400  0.66787100  0.30754400  1
  F  F30  1  0.60437600  0.66787100  0.80754400  1
  F  F31  1  0.10437600  0.33212900  0.69245600  1
  F  F32  1  0.12822900  0.74481500  0.82023000  1
  F  F33  1  0.62822900  0.25518500  0.67977000  1
  F  F34  1  0.87177100  0.25518500  0.17977000  1
  F  F35  1  0.37177100  0.74481500  0.32023000  1
