# generated using pymatgen
data_La5(AlBr)4
_symmetry_space_group_name_H-M   'P 1'
_cell_length_a   11.74835087
_cell_length_b   11.74835087
_cell_length_c   11.74835087
_cell_angle_alpha   138.47468876
_cell_angle_beta   138.47468876
_cell_angle_gamma   60.17676310
_symmetry_Int_Tables_number   1
_chemical_formula_structural   La5(AlBr)4
_chemical_formula_sum   'La10 Al8 Br8'
_cell_volume   705.27816687
_cell_formula_units_Z   2
loop_
 _symmetry_equiv_pos_site_id
 _symmetry_equiv_pos_as_xyz
  1  'x, y, z'
loop_
 _atom_site_type_symbol
 _atom_site_label
 _atom_site_symmetry_multiplicity
 _atom_site_fract_x
 _atom_site_fract_y
 _atom_site_fract_z
 _atom_site_occupancy
  La  La0  1  0.25000000  0.25000000  0.00000000  1
  La  La1  1  0.75000000  0.75000000  0.00000000  1
  La  La2  1  0.72375700  0.54732000  0.50000000  1
  La  La3  1  0.27624300  0.45268000  0.50000000  1
  La  La4  1  0.95268000  0.77624300  0.50000000  1
  La  La5  1  0.77624300  0.27624300  0.82356300  1
  La  La6  1  0.45268000  0.95268000  0.17643700  1
  La  La7  1  0.54732000  0.04732000  0.82356300  1
  La  La8  1  0.22375700  0.72375700  0.17643700  1
  La  La9  1  0.04732000  0.22375700  0.50000000  1
  Al  Al10  1  0.57760400  0.36271900  0.50000000  1
  Al  Al11  1  0.42239600  0.63728100  0.50000000  1
  Al  Al12  1  0.13728100  0.92239600  0.50000000  1
  Al  Al13  1  0.92239600  0.42239600  0.78511500  1
  Al  Al14  1  0.63728100  0.13728100  0.21488500  1
  Al  Al15  1  0.36271900  0.86271900  0.78511500  1
  Al  Al16  1  0.07760400  0.57760400  0.21488500  1
  Al  Al17  1  0.86271900  0.07760400  0.50000000  1
  Br  Br18  1  0.64403900  0.85596100  0.50000000  1
  Br  Br19  1  0.85596100  0.35596100  0.21192100  1
  Br  Br20  1  0.90531300  0.90531300  0.00000000  1
  Br  Br21  1  0.59468700  0.59468700  0.00000000  1
  Br  Br22  1  0.09468700  0.09468700  0.00000000  1
  Br  Br23  1  0.40531300  0.40531300  0.00000000  1
  Br  Br24  1  0.35596100  0.14403900  0.50000000  1
  Br  Br25  1  0.14403900  0.64403900  0.78807900  1
