# generated using pymatgen
data_ZrCoSn
_symmetry_space_group_name_H-M   'P 1'
_cell_length_a   7.15682366
_cell_length_b   7.15682366
_cell_length_c   3.60997900
_cell_angle_alpha   90.00000000
_cell_angle_beta   90.00000000
_cell_angle_gamma   119.99999684
_symmetry_Int_Tables_number   1
_chemical_formula_structural   ZrCoSn
_chemical_formula_sum   'Zr3 Co3 Sn3'
_cell_volume   160.13119846
_cell_formula_units_Z   3
loop_
 _symmetry_equiv_pos_site_id
 _symmetry_equiv_pos_as_xyz
  1  'x, y, z'
loop_
 _atom_site_type_symbol
 _atom_site_label
 _atom_site_symmetry_multiplicity
 _atom_site_fract_x
 _atom_site_fract_y
 _atom_site_fract_z
 _atom_site_occupancy
  Zr  Zr0  1  0.39799700  0.39799700  0.50000000  1
  Zr  Zr1  1  0.00000000  0.60200300  0.50000000  1
  Zr  Zr2  1  0.60200300  0.00000000  0.50000000  1
  Co  Co3  1  0.00000000  0.00000000  0.50000000  1
  Co  Co4  1  0.33333300  0.66666700  0.00000000  1
  Co  Co5  1  0.66666700  0.33333300  0.00000000  1
  Sn  Sn6  1  0.00000000  0.26521900  0.00000000  1
  Sn  Sn7  1  0.26521900  0.00000000  0.00000000  1
  Sn  Sn8  1  0.73478100  0.73478100  0.00000000  1
