# generated using pymatgen
data_Eu(Mo3S4)2
_symmetry_space_group_name_H-M   'P 1'
_cell_length_a   6.57565837
_cell_length_b   6.57565837
_cell_length_c   6.57565776
_cell_angle_alpha   89.10246929
_cell_angle_beta   89.10246929
_cell_angle_gamma   89.10247012
_symmetry_Int_Tables_number   1
_chemical_formula_structural   Eu(Mo3S4)2
_chemical_formula_sum   'Eu1 Mo6 S8'
_cell_volume   284.22315362
_cell_formula_units_Z   1
loop_
 _symmetry_equiv_pos_site_id
 _symmetry_equiv_pos_as_xyz
  1  'x, y, z'
loop_
 _atom_site_type_symbol
 _atom_site_label
 _atom_site_symmetry_multiplicity
 _atom_site_fract_x
 _atom_site_fract_y
 _atom_site_fract_z
 _atom_site_occupancy
  Eu  Eu0  1  0.00000000  0.00000000  0.00000000  1
  Mo  Mo1  1  0.77375600  0.58171900  0.43837600  1
  Mo  Mo2  1  0.43837600  0.77375600  0.58171900  1
  Mo  Mo3  1  0.58171900  0.43837600  0.77375600  1
  Mo  Mo4  1  0.22624400  0.41828100  0.56162400  1
  Mo  Mo5  1  0.56162400  0.22624400  0.41828100  1
  Mo  Mo6  1  0.41828100  0.56162400  0.22624400  1
  S  S7  1  0.75680600  0.75680600  0.75680600  1
  S  S8  1  0.24319400  0.24319400  0.24319400  1
  S  S9  1  0.87305200  0.25566700  0.62040700  1
  S  S10  1  0.62040700  0.87305200  0.25566700  1
  S  S11  1  0.25566700  0.62040700  0.87305200  1
  S  S12  1  0.12694800  0.74433300  0.37959300  1
  S  S13  1  0.37959300  0.12694800  0.74433300  1
  S  S14  1  0.74433300  0.37959300  0.12694800  1
