# generated using pymatgen
data_Li2B2Se5
_symmetry_space_group_name_H-M   'P 1'
_cell_length_a   6.01645714
_cell_length_b   6.01645714
_cell_length_c   12.57834081
_cell_angle_alpha   72.06237465
_cell_angle_beta   72.06237465
_cell_angle_gamma   52.63189540
_symmetry_Int_Tables_number   1
_chemical_formula_structural   Li2B2Se5
_chemical_formula_sum   'Li4 B4 Se10'
_cell_volume   339.82704532
_cell_formula_units_Z   2
loop_
 _symmetry_equiv_pos_site_id
 _symmetry_equiv_pos_as_xyz
  1  'x, y, z'
loop_
 _atom_site_type_symbol
 _atom_site_label
 _atom_site_symmetry_multiplicity
 _atom_site_fract_x
 _atom_site_fract_y
 _atom_site_fract_z
 _atom_site_occupancy
  Li  Li0  1  0.85562100  0.89431400  0.93239100  1
  Li  Li1  1  0.10568600  0.14437900  0.56760900  1
  Li  Li2  1  0.14437900  0.10568600  0.06760900  1
  Li  Li3  1  0.89431400  0.85562100  0.43239100  1
  B  B4  1  0.30748900  0.41142600  0.70737400  1
  B  B5  1  0.58857400  0.69251100  0.79262600  1
  B  B6  1  0.69251100  0.58857400  0.29262600  1
  B  B7  1  0.41142600  0.30748900  0.20737400  1
  Se  Se8  1  0.75440700  0.24559300  0.25000000  1
  Se  Se9  1  0.24559300  0.75440700  0.75000000  1
  Se  Se10  1  0.43223900  0.07449000  0.83946300  1
  Se  Se11  1  0.92551000  0.56776100  0.66053700  1
  Se  Se12  1  0.56776100  0.92551000  0.16053700  1
  Se  Se13  1  0.07449000  0.43223900  0.33946300  1
  Se  Se14  1  0.59879400  0.26968300  0.56138200  1
  Se  Se15  1  0.73031700  0.40120600  0.93861800  1
  Se  Se16  1  0.40120600  0.73031700  0.43861800  1
  Se  Se17  1  0.26968300  0.59879400  0.06138200  1
