# generated using pymatgen
data_Cu2P2O7
_symmetry_space_group_name_H-M   'P 1'
_cell_length_a   5.45423954
_cell_length_b   5.45423954
_cell_length_c   9.37708878
_cell_angle_alpha   76.09873051
_cell_angle_beta   76.09873051
_cell_angle_gamma   97.61192524
_symmetry_Int_Tables_number   1
_chemical_formula_structural   Cu2P2O7
_chemical_formula_sum   'Cu4 P4 O14'
_cell_volume   257.44561545
_cell_formula_units_Z   2
loop_
 _symmetry_equiv_pos_site_id
 _symmetry_equiv_pos_as_xyz
  1  'x, y, z'
loop_
 _atom_site_type_symbol
 _atom_site_label
 _atom_site_symmetry_multiplicity
 _atom_site_fract_x
 _atom_site_fract_y
 _atom_site_fract_z
 _atom_site_occupancy
  Cu  Cu0  1  0.28875800  0.66167400  0.99132400  1
  Cu  Cu1  1  0.33832600  0.71124200  0.50867600  1
  Cu  Cu2  1  0.71124200  0.33832600  0.00867600  1
  Cu  Cu3  1  0.66167400  0.28875800  0.49132400  1
  P  P4  1  0.20076700  0.17827300  0.29294400  1
  P  P5  1  0.82172700  0.79923300  0.20705600  1
  P  P6  1  0.79923300  0.82172700  0.70705600  1
  P  P7  1  0.17827300  0.20076700  0.79294400  1
  O  O8  1  0.01155900  0.31009500  0.37698900  1
  O  O9  1  0.68990500  0.98844100  0.12301100  1
  O  O10  1  0.98844100  0.68990500  0.62301100  1
  O  O11  1  0.31009500  0.01155900  0.87698900  1
  O  O12  1  0.37568300  0.06456200  0.38591800  1
  O  O13  1  0.93543800  0.62431700  0.11408200  1
  O  O14  1  0.62431700  0.93543800  0.61408200  1
  O  O15  1  0.06456200  0.37568300  0.88591800  1
  O  O16  1  0.93949000  0.06051000  0.75000000  1
  O  O17  1  0.06051000  0.93949000  0.25000000  1
  O  O18  1  0.37001000  0.37146900  0.63778500  1
  O  O19  1  0.62853100  0.62999000  0.86221500  1
  O  O20  1  0.62999000  0.62853100  0.36221500  1
  O  O21  1  0.37146900  0.37001000  0.13778500  1
