# generated using pymatgen
data_Sn4BRh6
_symmetry_space_group_name_H-M   'P 1'
_cell_length_a   5.67706791
_cell_length_b   5.67706791
_cell_length_c   13.87929900
_cell_angle_alpha   90.00000000
_cell_angle_beta   90.00000000
_cell_angle_gamma   119.99999892
_symmetry_Int_Tables_number   1
_chemical_formula_structural   Sn4BRh6
_chemical_formula_sum   'Sn8 B2 Rh12'
_cell_volume   387.38816320
_cell_formula_units_Z   2
loop_
 _symmetry_equiv_pos_site_id
 _symmetry_equiv_pos_as_xyz
  1  'x, y, z'
loop_
 _atom_site_type_symbol
 _atom_site_label
 _atom_site_symmetry_multiplicity
 _atom_site_fract_x
 _atom_site_fract_y
 _atom_site_fract_z
 _atom_site_occupancy
  Sn  Sn0  1  0.00000000  0.00000000  0.75000000  1
  Sn  Sn1  1  0.00000000  0.00000000  0.25000000  1
  Sn  Sn2  1  0.33333300  0.66666700  0.75000000  1
  Sn  Sn3  1  0.66666700  0.33333300  0.25000000  1
  Sn  Sn4  1  0.33333300  0.66666700  0.42301700  1
  Sn  Sn5  1  0.66666700  0.33333300  0.92301700  1
  Sn  Sn6  1  0.66666700  0.33333300  0.57698300  1
  Sn  Sn7  1  0.33333300  0.66666700  0.07698300  1
  B  B8  1  0.00000000  0.00000000  0.50000000  1
  B  B9  1  0.00000000  0.00000000  0.00000000  1
  Rh  Rh10  1  0.33589300  0.16794700  0.40665600  1
  Rh  Rh11  1  0.83205300  0.16794700  0.40665600  1
  Rh  Rh12  1  0.83205300  0.66410700  0.40665600  1
  Rh  Rh13  1  0.16794700  0.33589300  0.90665600  1
  Rh  Rh14  1  0.66410700  0.83205300  0.59334400  1
  Rh  Rh15  1  0.66410700  0.83205300  0.90665600  1
  Rh  Rh16  1  0.33589300  0.16794700  0.09334400  1
  Rh  Rh17  1  0.16794700  0.33589300  0.59334400  1
  Rh  Rh18  1  0.16794700  0.83205300  0.59334400  1
  Rh  Rh19  1  0.83205300  0.16794700  0.09334400  1
  Rh  Rh20  1  0.83205300  0.66410700  0.09334400  1
  Rh  Rh21  1  0.16794700  0.83205300  0.90665600  1
