# generated using pymatgen
data_AgAuS2
_symmetry_space_group_name_H-M   'P 1'
_cell_length_a   4.89042000
_cell_length_b   5.57993800
_cell_length_c   7.93329800
_cell_angle_alpha   90.00000000
_cell_angle_beta   90.00000000
_cell_angle_gamma   90.00000000
_symmetry_Int_Tables_number   1
_chemical_formula_structural   AgAuS2
_chemical_formula_sum   'Ag2 Au2 S4'
_cell_volume   216.48574294
_cell_formula_units_Z   2
loop_
 _symmetry_equiv_pos_site_id
 _symmetry_equiv_pos_as_xyz
  1  'x, y, z'
loop_
 _atom_site_type_symbol
 _atom_site_label
 _atom_site_symmetry_multiplicity
 _atom_site_fract_x
 _atom_site_fract_y
 _atom_site_fract_z
 _atom_site_occupancy
  Ag  Ag0  1  0.00000000  0.00000000  0.25000000  1
  Ag  Ag1  1  0.00000000  0.00000000  0.75000000  1
  Au  Au2  1  0.50000000  0.50000000  0.00000000  1
  Au  Au3  1  0.50000000  0.50000000  0.50000000  1
  S  S4  1  0.67405700  0.88482300  0.00000000  1
  S  S5  1  0.67405700  0.11517700  0.50000000  1
  S  S6  1  0.32594300  0.88482300  0.50000000  1
  S  S7  1  0.32594300  0.11517700  0.00000000  1
