# generated using pymatgen
data_K5Sb4
_symmetry_space_group_name_H-M   'P 1'
_cell_length_a   6.86553026
_cell_length_b   6.86553026
_cell_length_c   11.41641912
_cell_angle_alpha   70.34658309
_cell_angle_beta   70.34658309
_cell_angle_gamma   47.55561249
_symmetry_Int_Tables_number   1
_chemical_formula_structural   K5Sb4
_chemical_formula_sum   'K5 Sb4'
_cell_volume   369.30383722
_cell_formula_units_Z   1
loop_
 _symmetry_equiv_pos_site_id
 _symmetry_equiv_pos_as_xyz
  1  'x, y, z'
loop_
 _atom_site_type_symbol
 _atom_site_label
 _atom_site_symmetry_multiplicity
 _atom_site_fract_x
 _atom_site_fract_y
 _atom_site_fract_z
 _atom_site_occupancy
  K  K0  1  0.89960600  0.89960600  0.39133600  1
  K  K1  1  0.10039400  0.10039400  0.60866400  1
  K  K2  1  0.24522600  0.24522600  0.16593700  1
  K  K3  1  0.75477400  0.75477400  0.83406300  1
  K  K4  1  0.00000000  0.00000000  0.00000000  1
  Sb  Sb5  1  0.54391200  0.54391200  0.17589600  1
  Sb  Sb6  1  0.45608800  0.45608800  0.82410400  1
  Sb  Sb7  1  0.60475100  0.60475100  0.39164700  1
  Sb  Sb8  1  0.39524900  0.39524900  0.60835300  1
