# generated using pymatgen
data_GaCl3
_symmetry_space_group_name_H-M   'P 1'
_cell_length_a   7.28575491
_cell_length_b   7.28575491
_cell_length_c   7.44598719
_cell_angle_alpha   59.41364946
_cell_angle_beta   59.41364946
_cell_angle_gamma   61.82675054
_symmetry_Int_Tables_number   1
_chemical_formula_structural   GaCl3
_chemical_formula_sum   'Ga2 Cl6'
_cell_volume   280.52780449
_cell_formula_units_Z   2
loop_
 _symmetry_equiv_pos_site_id
 _symmetry_equiv_pos_as_xyz
  1  'x, y, z'
loop_
 _atom_site_type_symbol
 _atom_site_label
 _atom_site_symmetry_multiplicity
 _atom_site_fract_x
 _atom_site_fract_y
 _atom_site_fract_z
 _atom_site_occupancy
  Ga  Ga0  1  0.34474900  0.34474900  0.08430500  1
  Ga  Ga1  1  0.65525100  0.65525100  0.91569500  1
  Cl  Cl2  1  0.27874700  0.72125300  0.00000000  1
  Cl  Cl3  1  0.72125300  0.27874700  0.00000000  1
  Cl  Cl4  1  0.68943600  0.68943600  0.16491200  1
  Cl  Cl5  1  0.31056400  0.31056400  0.83508800  1
  Cl  Cl6  1  0.81309200  0.81309200  0.56936500  1
  Cl  Cl7  1  0.18690800  0.18690800  0.43063500  1
