# generated using pymatgen
data_BaUO3
_symmetry_space_group_name_H-M   'P 1'
_cell_length_a   6.26745000
_cell_length_b   6.29211000
_cell_length_c   8.81888100
_cell_angle_alpha   90.00000000
_cell_angle_beta   90.00000000
_cell_angle_gamma   90.00000000
_symmetry_Int_Tables_number   1
_chemical_formula_structural   BaUO3
_chemical_formula_sum   'Ba4 U4 O12'
_cell_volume   347.77684780
_cell_formula_units_Z   4
loop_
 _symmetry_equiv_pos_site_id
 _symmetry_equiv_pos_as_xyz
  1  'x, y, z'
loop_
 _atom_site_type_symbol
 _atom_site_label
 _atom_site_symmetry_multiplicity
 _atom_site_fract_x
 _atom_site_fract_y
 _atom_site_fract_z
 _atom_site_occupancy
  Ba  Ba0  1  0.01599000  0.99190400  0.75000000  1
  Ba  Ba1  1  0.48401100  0.49190400  0.25000000  1
  Ba  Ba2  1  0.51598900  0.50809600  0.75000000  1
  Ba  Ba3  1  0.98401100  0.00809600  0.25000000  1
  U  U4  1  0.00000000  0.50000000  0.00000000  1
  U  U5  1  0.00000000  0.50000000  0.50000000  1
  U  U6  1  0.50000000  0.00000000  0.50000000  1
  U  U7  1  0.50000000  0.00000000  0.00000000  1
  O  O8  1  0.23267500  0.23363700  0.04147600  1
  O  O9  1  0.51217100  0.92498300  0.25000000  1
  O  O10  1  0.73267500  0.26636300  0.45852400  1
  O  O11  1  0.73267500  0.26636300  0.04147600  1
  O  O12  1  0.76732500  0.76636300  0.54147600  1
  O  O13  1  0.01217100  0.57501700  0.25000000  1
  O  O14  1  0.23267500  0.23363700  0.45852400  1
  O  O15  1  0.26732500  0.73363700  0.95852400  1
  O  O16  1  0.26732500  0.73363700  0.54147600  1
  O  O17  1  0.48782900  0.07501700  0.75000000  1
  O  O18  1  0.76732500  0.76636300  0.95852400  1
  O  O19  1  0.98782900  0.42498300  0.75000000  1
