# generated using pymatgen
data_Al2NiO4
_symmetry_space_group_name_H-M   'P 1'
_cell_length_a   5.67406438
_cell_length_b   5.78887920
_cell_length_c   8.11726092
_cell_angle_alpha   90.00000064
_cell_angle_beta   89.99999671
_cell_angle_gamma   90.00000485
_symmetry_Int_Tables_number   1
_chemical_formula_structural   Al2NiO4
_chemical_formula_sum   'Al8 Ni4 O16'
_cell_volume   266.62339366
_cell_formula_units_Z   4
loop_
 _symmetry_equiv_pos_site_id
 _symmetry_equiv_pos_as_xyz
  1  'x, y, z'
loop_
 _atom_site_type_symbol
 _atom_site_label
 _atom_site_symmetry_multiplicity
 _atom_site_fract_x
 _atom_site_fract_y
 _atom_site_fract_z
 _atom_site_occupancy
  Al  Al0  1  0.00000000  0.25000000  0.13329800  1
  Al  Al1  1  0.50000000  0.75000000  0.63329800  1
  Al  Al2  1  0.00000000  0.75000000  0.86670200  1
  Al  Al3  1  0.50000000  0.25000000  0.36670200  1
  Al  Al4  1  0.00000000  0.50000000  0.50000000  1
  Al  Al5  1  0.50000000  0.00000000  0.00000000  1
  Al  Al6  1  0.00000000  0.00000000  0.50000000  1
  Al  Al7  1  0.50000000  0.50000000  0.00000000  1
  Ni  Ni8  1  0.25000000  0.25000000  0.75000000  1
  Ni  Ni9  1  0.75000000  0.25000000  0.75000000  1
  Ni  Ni10  1  0.75000000  0.75000000  0.25000000  1
  Ni  Ni11  1  0.25000000  0.75000000  0.25000000  1
  O  O12  1  0.00000000  0.49825700  0.26582000  1
  O  O13  1  0.50000000  0.99825700  0.76582000  1
  O  O14  1  0.00000000  0.00174300  0.26582000  1
  O  O15  1  0.50000000  0.50174300  0.76582000  1
  O  O16  1  0.00000000  0.99825700  0.73418000  1
  O  O17  1  0.50000000  0.49825700  0.23418000  1
  O  O18  1  0.00000000  0.50174300  0.73418000  1
  O  O19  1  0.50000000  0.00174300  0.23418000  1
  O  O20  1  0.23460100  0.75000000  0.50435100  1
  O  O21  1  0.73460100  0.25000000  0.00435100  1
  O  O22  1  0.76539900  0.75000000  0.50435100  1
  O  O23  1  0.26539900  0.25000000  0.00435100  1
  O  O24  1  0.23460100  0.25000000  0.49564900  1
  O  O25  1  0.73460100  0.75000000  0.99564900  1
  O  O26  1  0.76539900  0.25000000  0.49564900  1
  O  O27  1  0.26539900  0.75000000  0.99564900  1
