# generated using pymatgen
data_Y2Au5F21
_symmetry_space_group_name_H-M   'P 1'
_cell_length_a   8.12708500
_cell_length_b   9.20319100
_cell_length_c   15.12257694
_cell_angle_alpha   53.44316290
_cell_angle_beta   90.00000000
_cell_angle_gamma   90.00000000
_symmetry_Int_Tables_number   1
_chemical_formula_structural   Y2Au5F21
_chemical_formula_sum   'Y4 Au10 F42'
_cell_volume   908.57052448
_cell_formula_units_Z   2
loop_
 _symmetry_equiv_pos_site_id
 _symmetry_equiv_pos_as_xyz
  1  'x, y, z'
loop_
 _atom_site_type_symbol
 _atom_site_label
 _atom_site_symmetry_multiplicity
 _atom_site_fract_x
 _atom_site_fract_y
 _atom_site_fract_z
 _atom_site_occupancy
  Y  Y0  1  0.66794900  0.18474100  0.49796200  1
  Y  Y1  1  0.66794900  0.81525900  0.00203800  1
  Y  Y2  1  0.33205100  0.81525900  0.50203800  1
  Y  Y3  1  0.33205100  0.18474100  0.99796200  1
  Au  Au4  1  0.56015400  0.30580200  0.70636600  1
  Au  Au5  1  0.56015400  0.69419800  0.79363400  1
  Au  Au6  1  0.83180500  0.12788000  0.09513200  1
  Au  Au7  1  0.83180500  0.87212000  0.40486800  1
  Au  Au8  1  0.16819500  0.87212000  0.90486800  1
  Au  Au9  1  0.16819500  0.12788000  0.59513200  1
  Au  Au10  1  0.43984600  0.30580200  0.20636600  1
  Au  Au11  1  0.43984600  0.69419800  0.29363400  1
  Au  Au12  1  0.01800700  0.50000000  0.25000000  1
  Au  Au13  1  0.98199300  0.50000000  0.75000000  1
  F  F14  1  0.41685000  0.30665800  0.81062900  1
  F  F15  1  0.41685000  0.69334200  0.68937100  1
  F  F16  1  0.58315000  0.69334200  0.18937100  1
  F  F17  1  0.58315000  0.30665800  0.31062900  1
  F  F18  1  0.41009000  0.85727600  0.89745100  1
  F  F19  1  0.41009000  0.14272400  0.60254900  1
  F  F20  1  0.58991000  0.14272400  0.10254900  1
  F  F21  1  0.58991000  0.85727600  0.39745100  1
  F  F22  1  0.17492200  0.01514800  0.96487000  1
  F  F23  1  0.17492200  0.98485200  0.53513000  1
  F  F24  1  0.82507800  0.98485200  0.03513000  1
  F  F25  1  0.82507800  0.01514800  0.46487000  1
  F  F26  1  0.14927400  0.39621500  0.86915000  1
  F  F27  1  0.14927400  0.60378500  0.63085000  1
  F  F28  1  0.67409300  0.91839900  0.67893300  1
  F  F29  1  0.67409300  0.08160100  0.82106700  1
  F  F30  1  0.32590700  0.08160100  0.32106700  1
  F  F31  1  0.32590700  0.91839900  0.17893300  1
  F  F32  1  0.92669300  0.88039500  0.90997600  1
  F  F33  1  0.92669300  0.11960500  0.59002400  1
  F  F34  1  0.07330700  0.11960500  0.09002400  1
  F  F35  1  0.07330700  0.88039500  0.40997600  1
  F  F36  1  0.69976100  0.69570900  0.89965900  1
  F  F37  1  0.69976100  0.30429100  0.60034100  1
  F  F38  1  0.30023900  0.30429100  0.10034100  1
  F  F39  1  0.30023900  0.69570900  0.39965900  1
  F  F40  1  0.15378800  0.74695800  0.83798000  1
  F  F41  1  0.15378800  0.25304200  0.66202000  1
  F  F42  1  0.84621200  0.25304200  0.16202000  1
  F  F43  1  0.84621200  0.74695800  0.33798000  1
  F  F44  1  0.50000000  0.00000000  0.00000000  1
  F  F45  1  0.50000000  0.00000000  0.50000000  1
  F  F46  1  0.53639800  0.46267200  0.41550200  1
  F  F47  1  0.53639800  0.53732800  0.08449800  1
  F  F48  1  0.46360200  0.53732800  0.58449800  1
  F  F49  1  0.46360200  0.46267200  0.91550200  1
  F  F50  1  0.18953500  0.40069700  0.36101000  1
  F  F51  1  0.18953500  0.59930300  0.13899000  1
  F  F52  1  0.81046500  0.59930300  0.63899000  1
  F  F53  1  0.81046500  0.40069700  0.86101000  1
  F  F54  1  0.85072600  0.39621500  0.36915000  1
  F  F55  1  0.85072600  0.60378500  0.13085000  1
