# generated using pymatgen
data_NaTaO3
_symmetry_space_group_name_H-M   'P 1'
_cell_length_a   5.52965100
_cell_length_b   5.58393400
_cell_length_c   7.86973000
_cell_angle_alpha   90.00000000
_cell_angle_beta   90.00000000
_cell_angle_gamma   90.00000000
_symmetry_Int_Tables_number   1
_chemical_formula_structural   NaTaO3
_chemical_formula_sum   'Na4 Ta4 O12'
_cell_volume   242.99527616
_cell_formula_units_Z   4
loop_
 _symmetry_equiv_pos_site_id
 _symmetry_equiv_pos_as_xyz
  1  'x, y, z'
loop_
 _atom_site_type_symbol
 _atom_site_label
 _atom_site_symmetry_multiplicity
 _atom_site_fract_x
 _atom_site_fract_y
 _atom_site_fract_z
 _atom_site_occupancy
  Na  Na0  1  0.99709600  0.98001600  0.75000000  1
  Na  Na1  1  0.00290400  0.01998400  0.25000000  1
  Na  Na2  1  0.50290400  0.48001600  0.75000000  1
  Na  Na3  1  0.49709600  0.51998400  0.25000000  1
  Ta  Ta4  1  0.50000000  0.00000000  0.50000000  1
  Ta  Ta5  1  0.50000000  0.00000000  0.00000000  1
  Ta  Ta6  1  0.00000000  0.50000000  0.50000000  1
  Ta  Ta7  1  0.00000000  0.50000000  0.00000000  1
  O  O8  1  0.21490000  0.78453200  0.46905500  1
  O  O9  1  0.78510000  0.21546800  0.96905500  1
  O  O10  1  0.28510000  0.28453200  0.46905500  1
  O  O11  1  0.71490000  0.71546800  0.96905500  1
  O  O12  1  0.21490000  0.78453200  0.03094500  1
  O  O13  1  0.78510000  0.21546800  0.53094500  1
  O  O14  1  0.28510000  0.28453200  0.03094500  1
  O  O15  1  0.71490000  0.71546800  0.53094500  1
  O  O16  1  0.06239800  0.51119900  0.75000000  1
  O  O17  1  0.93760200  0.48880100  0.25000000  1
  O  O18  1  0.43760200  0.01119900  0.75000000  1
  O  O19  1  0.56239800  0.98880100  0.25000000  1
