# generated using pymatgen
data_Nd5Ir3
_symmetry_space_group_name_H-M   'P 1'
_cell_length_a   11.26233600
_cell_length_b   11.26233600
_cell_length_c   6.60495400
_cell_angle_alpha   90.00000000
_cell_angle_beta   90.00000000
_cell_angle_gamma   90.00000000
_symmetry_Int_Tables_number   1
_chemical_formula_structural   Nd5Ir3
_chemical_formula_sum   'Nd20 Ir12'
_cell_volume   837.77376678
_cell_formula_units_Z   4
loop_
 _symmetry_equiv_pos_site_id
 _symmetry_equiv_pos_as_xyz
  1  'x, y, z'
loop_
 _atom_site_type_symbol
 _atom_site_label
 _atom_site_symmetry_multiplicity
 _atom_site_fract_x
 _atom_site_fract_y
 _atom_site_fract_z
 _atom_site_occupancy
  Nd  Nd0  1  0.08997400  0.29242300  0.11761300  1
  Nd  Nd1  1  0.79242300  0.41002600  0.11761300  1
  Nd  Nd2  1  0.20757700  0.58997400  0.11761300  1
  Nd  Nd3  1  0.91002600  0.70757700  0.11761300  1
  Nd  Nd4  1  0.41002600  0.79242300  0.38238700  1
  Nd  Nd5  1  0.58997400  0.20757700  0.38238700  1
  Nd  Nd6  1  0.29242300  0.08997400  0.38238700  1
  Nd  Nd7  1  0.70757700  0.91002600  0.38238700  1
  Nd  Nd8  1  0.41002600  0.20757700  0.88238700  1
  Nd  Nd9  1  0.70757700  0.08997400  0.88238700  1
  Nd  Nd10  1  0.29242300  0.91002600  0.88238700  1
  Nd  Nd11  1  0.58997400  0.79242300  0.88238700  1
  Nd  Nd12  1  0.08997400  0.70757700  0.61761300  1
  Nd  Nd13  1  0.91002600  0.29242300  0.61761300  1
  Nd  Nd14  1  0.20757700  0.41002600  0.61761300  1
  Nd  Nd15  1  0.79242300  0.58997400  0.61761300  1
  Nd  Nd16  1  0.00000000  0.00000000  0.00000000  1
  Nd  Nd17  1  0.50000000  0.50000000  0.00000000  1
  Nd  Nd18  1  0.50000000  0.50000000  0.50000000  1
  Nd  Nd19  1  0.00000000  0.00000000  0.50000000  1
  Ir  Ir20  1  0.15355200  0.84644800  0.25000000  1
  Ir  Ir21  1  0.34644800  0.34644800  0.25000000  1
  Ir  Ir22  1  0.65355200  0.65355200  0.25000000  1
  Ir  Ir23  1  0.84644800  0.15355200  0.25000000  1
  Ir  Ir24  1  0.34644800  0.65355200  0.75000000  1
  Ir  Ir25  1  0.15355200  0.15355200  0.75000000  1
  Ir  Ir26  1  0.84644800  0.84644800  0.75000000  1
  Ir  Ir27  1  0.65355200  0.34644800  0.75000000  1
  Ir  Ir28  1  0.00000000  0.50000000  0.37996200  1
  Ir  Ir29  1  0.50000000  0.00000000  0.12003800  1
  Ir  Ir30  1  0.50000000  0.00000000  0.62003800  1
  Ir  Ir31  1  0.00000000  0.50000000  0.87996200  1
