# generated using pymatgen
data_NdO2
_symmetry_space_group_name_H-M   'P 1'
_cell_length_a   3.93735419
_cell_length_b   3.93735419
_cell_length_c   6.55708044
_cell_angle_alpha   83.26261298
_cell_angle_beta   83.26261298
_cell_angle_gamma   61.95948697
_symmetry_Int_Tables_number   1
_chemical_formula_structural   NdO2
_chemical_formula_sum   'Nd2 O4'
_cell_volume   88.87638432
_cell_formula_units_Z   2
loop_
 _symmetry_equiv_pos_site_id
 _symmetry_equiv_pos_as_xyz
  1  'x, y, z'
loop_
 _atom_site_type_symbol
 _atom_site_label
 _atom_site_symmetry_multiplicity
 _atom_site_fract_x
 _atom_site_fract_y
 _atom_site_fract_z
 _atom_site_occupancy
  Nd  Nd0  1  0.80176700  0.80176700  0.23040800  1
  Nd  Nd1  1  0.19823300  0.19823300  0.76959200  1
  O  O2  1  0.84768700  0.84768700  0.85870300  1
  O  O3  1  0.15231300  0.15231300  0.14129700  1
  O  O4  1  0.57890000  0.57890000  0.57114900  1
  O  O5  1  0.42110000  0.42110000  0.42885100  1
