# generated using pymatgen
data_Ca9Cd4Bi9
_symmetry_space_group_name_H-M   'P 1'
_cell_length_a   4.80060300
_cell_length_b   12.87698300
_cell_length_c   22.76566100
_cell_angle_alpha   90.00000000
_cell_angle_beta   90.00000000
_cell_angle_gamma   90.00000000
_symmetry_Int_Tables_number   1
_chemical_formula_structural   Ca9Cd4Bi9
_chemical_formula_sum   'Ca18 Cd8 Bi18'
_cell_volume   1407.31131374
_cell_formula_units_Z   2
loop_
 _symmetry_equiv_pos_site_id
 _symmetry_equiv_pos_as_xyz
  1  'x, y, z'
loop_
 _atom_site_type_symbol
 _atom_site_label
 _atom_site_symmetry_multiplicity
 _atom_site_fract_x
 _atom_site_fract_y
 _atom_site_fract_z
 _atom_site_occupancy
  Ca  Ca0  1  0.00000000  0.36704300  0.63584400  1
  Ca  Ca1  1  0.00000000  0.56713900  0.91139800  1
  Ca  Ca2  1  0.00000000  0.63295700  0.36415600  1
  Ca  Ca3  1  0.00000000  0.43286100  0.08860200  1
  Ca  Ca4  1  0.00000000  0.13295700  0.13584400  1
  Ca  Ca5  1  0.00000000  0.86704300  0.86415600  1
  Ca  Ca6  1  0.50000000  0.50000000  0.50000000  1
  Ca  Ca7  1  0.50000000  0.00000000  0.00000000  1
  Ca  Ca8  1  0.50000000  0.70781200  0.10019300  1
  Ca  Ca9  1  0.50000000  0.29218800  0.89980700  1
  Ca  Ca10  1  0.50000000  0.20781200  0.39980700  1
  Ca  Ca11  1  0.50000000  0.79218800  0.60019300  1
  Ca  Ca12  1  0.00000000  0.87554300  0.23316600  1
  Ca  Ca13  1  0.00000000  0.12445700  0.76683400  1
  Ca  Ca14  1  0.00000000  0.37554300  0.26683400  1
  Ca  Ca15  1  0.00000000  0.62445700  0.73316600  1
  Ca  Ca16  1  0.00000000  0.93286100  0.41139800  1
  Ca  Ca17  1  0.00000000  0.06713900  0.58860200  1
  Cd  Cd18  1  0.50000000  0.73287600  0.95279500  1
  Cd  Cd19  1  0.50000000  0.26712400  0.04720500  1
  Cd  Cd20  1  0.50000000  0.23287600  0.54720500  1
  Cd  Cd21  1  0.50000000  0.76712400  0.45279500  1
  Cd  Cd22  1  0.50000000  0.61321500  0.25982800  1
  Cd  Cd23  1  0.50000000  0.11321500  0.24017200  1
  Cd  Cd24  1  0.50000000  0.38678500  0.74017200  1
  Cd  Cd25  1  0.50000000  0.88678500  0.75982800  1
  Bi  Bi26  1  0.50000000  0.81806000  0.32751900  1
  Bi  Bi27  1  0.50000000  0.18194000  0.67248100  1
  Bi  Bi28  1  0.50000000  0.31806000  0.17248100  1
  Bi  Bi29  1  0.50000000  0.68194000  0.82751900  1
  Bi  Bi30  1  0.50000000  0.95476900  0.14337300  1
  Bi  Bi31  1  0.50000000  0.04523100  0.85662700  1
  Bi  Bi32  1  0.50000000  0.45476900  0.35662700  1
  Bi  Bi33  1  0.50000000  0.54523100  0.64337300  1
  Bi  Bi34  1  0.00000000  0.61903700  0.18593900  1
  Bi  Bi35  1  0.00000000  0.38096300  0.81406100  1
  Bi  Bi36  1  0.00000000  0.11903700  0.31406100  1
  Bi  Bi37  1  0.00000000  0.88096300  0.68593900  1
  Bi  Bi38  1  0.00000000  0.81877300  0.01319400  1
  Bi  Bi39  1  0.00000000  0.18122700  0.98680600  1
  Bi  Bi40  1  0.00000000  0.31877300  0.48680600  1
  Bi  Bi41  1  0.00000000  0.68122700  0.51319400  1
  Bi  Bi42  1  0.50000000  0.00000000  0.50000000  1
  Bi  Bi43  1  0.50000000  0.50000000  0.00000000  1
