# generated using pymatgen
data_Na15Sn4
_symmetry_space_group_name_H-M   'P 1'
_cell_length_a   11.40724159
_cell_length_b   11.40724159
_cell_length_c   11.40724159
_cell_angle_alpha   109.47122063
_cell_angle_beta   109.47122063
_cell_angle_gamma   109.47122063
_symmetry_Int_Tables_number   1
_chemical_formula_structural   Na15Sn4
_chemical_formula_sum   'Na30 Sn8'
_cell_volume   1142.66789915
_cell_formula_units_Z   2
loop_
 _symmetry_equiv_pos_site_id
 _symmetry_equiv_pos_as_xyz
  1  'x, y, z'
loop_
 _atom_site_type_symbol
 _atom_site_label
 _atom_site_symmetry_multiplicity
 _atom_site_fract_x
 _atom_site_fract_y
 _atom_site_fract_z
 _atom_site_occupancy
  Na  Na0  1  0.62500000  0.37500000  0.25000000  1
  Na  Na1  1  0.25000000  0.62500000  0.37500000  1
  Na  Na2  1  0.75000000  0.87500000  0.12500000  1
  Na  Na3  1  0.12500000  0.75000000  0.87500000  1
  Na  Na4  1  0.37500000  0.25000000  0.62500000  1
  Na  Na5  1  0.87500000  0.12500000  0.75000000  1
  Na  Na6  1  0.08534000  0.27739300  0.11581600  1
  Na  Na7  1  0.69205200  0.03047500  0.91466000  1
  Na  Na8  1  0.88418400  0.46952500  0.16157700  1
  Na  Na9  1  0.16157700  0.88418400  0.46952500  1
  Na  Na10  1  0.33842300  0.80794800  0.72260700  1
  Na  Na11  1  0.72260700  0.33842300  0.80794800  1
  Na  Na12  1  0.03047500  0.91466000  0.69205200  1
  Na  Na13  1  0.22260700  0.30794800  0.83842300  1
  Na  Na14  1  0.19205200  0.41466000  0.53047500  1
  Na  Na15  1  0.96952500  0.38418400  0.66157700  1
  Na  Na16  1  0.30794800  0.83842300  0.22260700  1
  Na  Na17  1  0.53047500  0.19205200  0.41466000  1
  Na  Na18  1  0.38418400  0.66157700  0.96952500  1
  Na  Na19  1  0.11581600  0.08534000  0.27739300  1
  Na  Na20  1  0.27739300  0.11581600  0.08534000  1
  Na  Na21  1  0.83842300  0.22260700  0.30794800  1
  Na  Na22  1  0.41466000  0.53047500  0.19205200  1
  Na  Na23  1  0.66157700  0.96952500  0.38418400  1
  Na  Na24  1  0.61581600  0.77739300  0.58534000  1
  Na  Na25  1  0.58534000  0.61581600  0.77739300  1
  Na  Na26  1  0.77739300  0.58534000  0.61581600  1
  Na  Na27  1  0.80794800  0.72260700  0.33842300  1
  Na  Na28  1  0.91466000  0.69205200  0.03047500  1
  Na  Na29  1  0.46952500  0.16157700  0.88418400  1
  Sn  Sn30  1  0.41816900  0.41816900  0.41816900  1
  Sn  Sn31  1  0.50000000  0.00000000  0.58183100  1
  Sn  Sn32  1  0.58183100  0.50000000  0.00000000  1
  Sn  Sn33  1  0.00000000  0.58183100  0.50000000  1
  Sn  Sn34  1  0.08183100  0.50000000  0.00000000  1
  Sn  Sn35  1  0.00000000  0.08183100  0.50000000  1
  Sn  Sn36  1  0.50000000  0.00000000  0.08183100  1
  Sn  Sn37  1  0.91816900  0.91816900  0.91816900  1
