# generated using pymatgen
data_BaCd11
_symmetry_space_group_name_H-M   'P 1'
_cell_length_a   9.52102920
_cell_length_b   9.52102920
_cell_length_c   9.52102920
_cell_angle_alpha   99.91404109
_cell_angle_beta   99.91404109
_cell_angle_gamma   130.96963633
_symmetry_Int_Tables_number   1
_chemical_formula_structural   BaCd11
_chemical_formula_sum   'Ba2 Cd22'
_cell_volume   592.92800489
_cell_formula_units_Z   2
loop_
 _symmetry_equiv_pos_site_id
 _symmetry_equiv_pos_as_xyz
  1  'x, y, z'
loop_
 _atom_site_type_symbol
 _atom_site_label
 _atom_site_symmetry_multiplicity
 _atom_site_fract_x
 _atom_site_fract_y
 _atom_site_fract_z
 _atom_site_occupancy
  Ba  Ba0  1  0.75000000  0.25000000  0.50000000  1
  Ba  Ba1  1  0.50000000  0.50000000  0.00000000  1
  Cd  Cd2  1  0.92227700  0.00595900  0.32558100  1
  Cd  Cd3  1  0.68037800  0.59669700  0.67441900  1
  Cd  Cd4  1  0.25000000  0.75000000  0.50000000  1
  Cd  Cd5  1  0.00000000  0.00000000  0.00000000  1
  Cd  Cd6  1  0.12500000  0.87500000  0.25000000  1
  Cd  Cd7  1  0.12500000  0.37500000  0.25000000  1
  Cd  Cd8  1  0.12500000  0.87500000  0.75000000  1
  Cd  Cd9  1  0.62500000  0.87500000  0.75000000  1
  Cd  Cd10  1  0.92227700  0.59669700  0.91631900  1
  Cd  Cd11  1  0.84669700  0.43037800  0.17441900  1
  Cd  Cd12  1  0.25595900  0.67227700  0.82558100  1
  Cd  Cd13  1  0.68037800  0.00595900  0.08368100  1
  Cd  Cd14  1  0.40330300  0.07772300  0.08368100  1
  Cd  Cd15  1  0.99404100  0.31962200  0.91631900  1
  Cd  Cd16  1  0.56962200  0.15330300  0.82558100  1
  Cd  Cd17  1  0.32772300  0.74404100  0.17441900  1
  Cd  Cd18  1  0.32772300  0.15330300  0.58368100  1
  Cd  Cd19  1  0.40330300  0.31962200  0.32558100  1
  Cd  Cd20  1  0.99404100  0.07772300  0.67441900  1
  Cd  Cd21  1  0.56962200  0.74404100  0.41631900  1
  Cd  Cd22  1  0.84669700  0.67227700  0.41631900  1
  Cd  Cd23  1  0.25595900  0.43037800  0.58368100  1
