# generated using pymatgen
data_CsNO2
_symmetry_space_group_name_H-M   'P 1'
_cell_length_a   6.07636709
_cell_length_b   6.07636709
_cell_length_c   8.09620300
_cell_angle_alpha   90.00000000
_cell_angle_beta   90.00000000
_cell_angle_gamma   119.99999009
_symmetry_Int_Tables_number   1
_chemical_formula_structural   CsNO2
_chemical_formula_sum   'Cs3 N3 O6'
_cell_volume   258.88093577
_cell_formula_units_Z   3
loop_
 _symmetry_equiv_pos_site_id
 _symmetry_equiv_pos_as_xyz
  1  'x, y, z'
loop_
 _atom_site_type_symbol
 _atom_site_label
 _atom_site_symmetry_multiplicity
 _atom_site_fract_x
 _atom_site_fract_y
 _atom_site_fract_z
 _atom_site_occupancy
  Cs  Cs0  1  0.00000000  0.69064600  0.66666700  1
  Cs  Cs1  1  0.69064600  0.00000000  0.33333300  1
  Cs  Cs2  1  0.30935400  0.30935400  0.00000000  1
  N  N3  1  0.69137100  0.00000000  0.83333300  1
  N  N4  1  0.00000000  0.69137100  0.16666700  1
  N  N5  1  0.30862900  0.30862900  0.50000000  1
  O  O6  1  0.89805300  0.52800600  0.05165600  1
  O  O7  1  0.47199400  0.37004700  0.38498900  1
  O  O8  1  0.62995300  0.10194700  0.71832300  1
  O  O9  1  0.37004700  0.47199400  0.61501100  1
  O  O10  1  0.52800600  0.89805300  0.94834400  1
  O  O11  1  0.10194700  0.62995300  0.28167700  1
