# generated using pymatgen
data_La5Sn4
_symmetry_space_group_name_H-M   'P 1'
_cell_length_a   8.55408800
_cell_length_b   8.64158200
_cell_length_c   16.34543500
_cell_angle_alpha   90.00000000
_cell_angle_beta   90.00000000
_cell_angle_gamma   90.00000000
_symmetry_Int_Tables_number   1
_chemical_formula_structural   La5Sn4
_chemical_formula_sum   'La20 Sn16'
_cell_volume   1208.26849601
_cell_formula_units_Z   4
loop_
 _symmetry_equiv_pos_site_id
 _symmetry_equiv_pos_as_xyz
  1  'x, y, z'
loop_
 _atom_site_type_symbol
 _atom_site_label
 _atom_site_symmetry_multiplicity
 _atom_site_fract_x
 _atom_site_fract_y
 _atom_site_fract_z
 _atom_site_occupancy
  La  La0  1  0.97382300  0.81962000  0.89894300  1
  La  La1  1  0.47382300  0.68038000  0.60105700  1
  La  La2  1  0.52617700  0.31962000  0.10105700  1
  La  La3  1  0.02617700  0.18038000  0.39894300  1
  La  La4  1  0.97382300  0.81962000  0.60105700  1
  La  La5  1  0.47382300  0.68038000  0.89894300  1
  La  La6  1  0.52617700  0.31962000  0.39894300  1
  La  La7  1  0.02617700  0.18038000  0.10105700  1
  La  La8  1  0.88066500  0.66148300  0.38303900  1
  La  La9  1  0.38066500  0.83851700  0.11696100  1
  La  La10  1  0.61933500  0.16148300  0.61696100  1
  La  La11  1  0.11933500  0.33851700  0.88303900  1
  La  La12  1  0.11933500  0.33851700  0.61696100  1
  La  La13  1  0.61933500  0.16148300  0.88303900  1
  La  La14  1  0.38066500  0.83851700  0.38303900  1
  La  La15  1  0.88066500  0.66148300  0.11696100  1
  La  La16  1  0.28948700  0.00334800  0.75000000  1
  La  La17  1  0.78948700  0.49665200  0.75000000  1
  La  La18  1  0.21051300  0.50334800  0.25000000  1
  La  La19  1  0.71051300  0.99665200  0.25000000  1
  Sn  Sn20  1  0.78038800  0.46880200  0.54391200  1
  Sn  Sn21  1  0.28038800  0.03119800  0.95608800  1
  Sn  Sn22  1  0.71961200  0.96880200  0.45608800  1
  Sn  Sn23  1  0.21961200  0.53119800  0.04391200  1
  Sn  Sn24  1  0.21961200  0.53119800  0.45608800  1
  Sn  Sn25  1  0.71961200  0.96880200  0.04391200  1
  Sn  Sn26  1  0.28038800  0.03119800  0.54391200  1
  Sn  Sn27  1  0.78038800  0.46880200  0.95608800  1
  Sn  Sn28  1  0.17162100  0.63816100  0.75000000  1
  Sn  Sn29  1  0.67162100  0.86183900  0.75000000  1
  Sn  Sn30  1  0.32837900  0.13816100  0.25000000  1
  Sn  Sn31  1  0.82837900  0.36183900  0.25000000  1
  Sn  Sn32  1  0.91841900  0.11406700  0.75000000  1
  Sn  Sn33  1  0.41841900  0.38593300  0.75000000  1
  Sn  Sn34  1  0.58158100  0.61406700  0.25000000  1
  Sn  Sn35  1  0.08158100  0.88593300  0.25000000  1
