# generated using pymatgen
data_Er3Pb4F17
_symmetry_space_group_name_H-M   'P 1'
_cell_length_a   9.15156200
_cell_length_b   9.15295245
_cell_length_c   9.20292939
_cell_angle_alpha   72.97386227
_cell_angle_beta   73.21584952
_cell_angle_gamma   73.15224887
_symmetry_Int_Tables_number   1
_chemical_formula_structural   Er3Pb4F17
_chemical_formula_sum   'Er6 Pb8 F34'
_cell_volume   687.71502985
_cell_formula_units_Z   2
loop_
 _symmetry_equiv_pos_site_id
 _symmetry_equiv_pos_as_xyz
  1  'x, y, z'
loop_
 _atom_site_type_symbol
 _atom_site_label
 _atom_site_symmetry_multiplicity
 _atom_site_fract_x
 _atom_site_fract_y
 _atom_site_fract_z
 _atom_site_occupancy
  Er  Er0  1  0.53023500  0.39290500  0.83734100  1
  Er  Er1  1  0.39219600  0.83940000  0.53112800  1
  Er  Er2  1  0.81462600  0.52584300  0.39522600  1
  Er  Er3  1  0.16074000  0.47021200  0.60761700  1
  Er  Er4  1  0.60547100  0.18482000  0.46609700  1
  Er  Er5  1  0.47513700  0.60154700  0.17735700  1
  Pb  Pb6  1  0.09861500  0.69374400  0.96725100  1
  Pb  Pb7  1  0.73367900  0.73981700  0.73601200  1
  Pb  Pb8  1  0.95384000  0.10650300  0.68391600  1
  Pb  Pb9  1  0.31031200  0.03705300  0.90024300  1
  Pb  Pb10  1  0.68902400  0.95913900  0.10643200  1
  Pb  Pb11  1  0.03555300  0.89642300  0.31026500  1
  Pb  Pb12  1  0.26025400  0.26729000  0.26420900  1
  Pb  Pb13  1  0.89721000  0.31272700  0.04152000  1
  F  F14  1  0.00182700  0.98978200  0.00924400  1
  F  F15  1  0.86053400  0.86457100  0.86228200  1
  F  F16  1  0.54446500  0.81964900  0.98165100  1
  F  F17  1  0.64152700  0.51001000  0.95622800  1
  F  F18  1  0.98067100  0.54766400  0.81949600  1
  F  F19  1  0.74449700  0.21048100  0.91783500  1
  F  F20  1  0.21093900  0.91395800  0.74480200  1
  F  F21  1  0.50682600  0.96389500  0.64322800  1
  F  F22  1  0.45793600  0.65192300  0.73441100  1
  F  F23  1  0.81564300  0.98106900  0.54922700  1
  F  F24  1  0.74078100  0.45053900  0.65612100  1
  F  F25  1  0.30378800  0.41367900  0.78494400  1
  F  F26  1  0.95273100  0.64342700  0.51109300  1
  F  F27  1  0.59168200  0.20790400  0.70210700  1
  F  F28  1  0.65093100  0.74348100  0.45540100  1
  F  F29  1  0.08321600  0.25520100  0.78936500  1
  F  F30  1  0.21449000  0.69827300  0.57963100  1
  F  F31  1  0.82241000  0.27793000  0.40667600  1
  F  F32  1  0.55863900  0.47500400  0.44661700  1
  F  F33  1  0.91104800  0.74035400  0.21891600  1
  F  F34  1  0.34529100  0.26438200  0.54287800  1
  F  F35  1  0.42076600  0.79440700  0.29895500  1
  F  F36  1  0.03869300  0.35901300  0.49248300  1
  F  F37  1  0.71964100  0.59082100  0.17929200  1
  F  F38  1  0.26129700  0.54175400  0.34889000  1
  F  F39  1  0.17869300  0.02124500  0.45505900  1
  F  F40  1  0.54814500  0.33802500  0.24156700  1
  F  F41  1  0.48993200  0.04653800  0.35914800  1
  F  F42  1  0.78655000  0.08424200  0.25813400  1
  F  F43  1  0.25894400  0.78406400  0.09176400  1
  F  F44  1  0.02001100  0.45301500  0.18165300  1
  F  F45  1  0.35509900  0.49350400  0.04207200  1
  F  F46  1  0.45137900  0.18090300  0.01933900  1
  F  F47  1  0.13808600  0.13787100  0.13687400  1
