# generated using pymatgen
data_AsKrF7
_symmetry_space_group_name_H-M   'P 1'
_cell_length_a   10.46495300
_cell_length_b   5.38272100
_cell_length_c   11.09435974
_cell_angle_alpha   84.44240331
_cell_angle_beta   90.00000000
_cell_angle_gamma   90.00000000
_symmetry_Int_Tables_number   1
_chemical_formula_structural   AsKrF7
_chemical_formula_sum   'As4 Kr4 F28'
_cell_volume   622.00677474
_cell_formula_units_Z   4
loop_
 _symmetry_equiv_pos_site_id
 _symmetry_equiv_pos_as_xyz
  1  'x, y, z'
loop_
 _atom_site_type_symbol
 _atom_site_label
 _atom_site_symmetry_multiplicity
 _atom_site_fract_x
 _atom_site_fract_y
 _atom_site_fract_z
 _atom_site_occupancy
  As  As0  1  0.98706000  0.90676500  0.76878200  1
  As  As1  1  0.48706000  0.09323500  0.73121800  1
  As  As2  1  0.01294000  0.09323500  0.23121800  1
  As  As3  1  0.51294000  0.90676500  0.26878200  1
  Kr  Kr4  1  0.22129000  0.53705900  0.96705300  1
  Kr  Kr5  1  0.72129000  0.46294100  0.53294700  1
  Kr  Kr6  1  0.77871000  0.46294100  0.03294700  1
  Kr  Kr7  1  0.27871000  0.53705900  0.46705300  1
  F  F8  1  0.09331800  0.13810100  0.80685600  1
  F  F9  1  0.59331800  0.86189900  0.69314400  1
  F  F10  1  0.90668200  0.86189900  0.19314400  1
  F  F11  1  0.40668200  0.13810100  0.30685600  1
  F  F12  1  0.87338900  0.01331300  0.86810800  1
  F  F13  1  0.37338900  0.98668700  0.63189200  1
  F  F14  1  0.12661100  0.98668700  0.13189200  1
  F  F15  1  0.62661100  0.01331300  0.36810800  1
  F  F16  1  0.45259900  0.70957300  0.42146000  1
  F  F17  1  0.95259900  0.29042700  0.07854000  1
  F  F18  1  0.54740100  0.29042700  0.57854000  1
  F  F19  1  0.04740100  0.70957300  0.92146000  1
  F  F20  1  0.12903200  0.37466900  0.51721500  1
  F  F21  1  0.62903200  0.62533100  0.98278500  1
  F  F22  1  0.87096800  0.62533100  0.48278500  1
  F  F23  1  0.37096800  0.37466900  0.01721500  1
  F  F24  1  0.38877000  0.76408300  0.19573800  1
  F  F25  1  0.88877000  0.23591700  0.30426200  1
  F  F26  1  0.61123000  0.23591700  0.80426200  1
  F  F27  1  0.11123000  0.76408300  0.69573800  1
  F  F28  1  0.57208600  0.07813700  0.14030600  1
  F  F29  1  0.07208600  0.92186300  0.35969400  1
  F  F30  1  0.42791400  0.92186300  0.85969400  1
  F  F31  1  0.92791400  0.07813700  0.64030600  1
  F  F32  1  0.61064600  0.64612600  0.25394600  1
  F  F33  1  0.11064600  0.35387400  0.24605400  1
  F  F34  1  0.38935400  0.35387400  0.74605400  1
  F  F35  1  0.88935400  0.64612600  0.75394600  1
