# generated using pymatgen
data_Er4(Al8Pt3)3
_symmetry_space_group_name_H-M   'P 1'
_cell_length_a   7.52154700
_cell_length_b   7.52208882
_cell_length_c   13.14464750
_cell_angle_alpha   84.59438385
_cell_angle_beta   100.96226753
_cell_angle_gamma   119.82536843
_symmetry_Int_Tables_number   1
_chemical_formula_structural   Er4(Al8Pt3)3
_chemical_formula_sum   'Er4 Al24 Pt9'
_cell_volume   633.41563719
_cell_formula_units_Z   1
loop_
 _symmetry_equiv_pos_site_id
 _symmetry_equiv_pos_as_xyz
  1  'x, y, z'
loop_
 _atom_site_type_symbol
 _atom_site_label
 _atom_site_symmetry_multiplicity
 _atom_site_fract_x
 _atom_site_fract_y
 _atom_site_fract_z
 _atom_site_occupancy
  Er  Er0  1  0.73274000  0.99901600  0.19229200  1
  Er  Er1  1  0.26726000  0.00098400  0.80770800  1
  Er  Er2  1  0.06235600  0.66819400  0.19222300  1
  Er  Er3  1  0.93764400  0.33180600  0.80777700  1
  Al  Al4  1  0.80756800  0.86913500  0.81546000  1
  Al  Al5  1  0.19243200  0.13086500  0.18454000  1
  Al  Al6  1  0.98219300  0.66593700  0.94400500  1
  Al  Al7  1  0.01780700  0.33406300  0.05599500  1
  Al  Al8  1  0.39786600  0.66371900  0.81684100  1
  Al  Al9  1  0.60213400  0.33628100  0.18315900  1
  Al  Al10  1  0.88272800  0.66523000  0.67114300  1
  Al  Al11  1  0.11727200  0.33477000  0.32885700  1
  Al  Al12  1  0.60289700  0.45784500  0.81627400  1
  Al  Al13  1  0.39710300  0.54215500  0.18372600  1
  Al  Al14  1  0.22993500  0.33968700  0.66970400  1
  Al  Al15  1  0.77006500  0.66031300  0.33029600  1
  Al  Al16  1  0.85308200  0.33306900  0.55884300  1
  Al  Al17  1  0.18560800  0.99909000  0.55883600  1
  Al  Al18  1  0.81439200  0.00091000  0.44116400  1
  Al  Al19  1  0.35262000  0.99909400  0.05603600  1
  Al  Al20  1  0.64738000  0.00090600  0.94396400  1
  Al  Al21  1  0.55608500  0.99371200  0.67137900  1
  Al  Al22  1  0.44391500  0.00628800  0.32862100  1
  Al  Al23  1  0.52082800  0.66718800  0.56170500  1
  Al  Al24  1  0.47917200  0.33281200  0.43829500  1
  Al  Al25  1  0.68380600  0.66835900  0.04738800  1
  Al  Al26  1  0.31619400  0.33164100  0.95261200  1
  Al  Al27  1  0.14691800  0.66693100  0.44115700  1
  Pt  Pt28  1  0.32842000  0.67134200  0.00007600  1
  Pt  Pt29  1  0.54569200  0.32458700  0.63738100  1
  Pt  Pt30  1  0.45430800  0.67541300  0.36261900  1
  Pt  Pt31  1  0.88804900  0.00850600  0.63901600  1
  Pt  Pt32  1  0.11195100  0.99149400  0.36098400  1
  Pt  Pt33  1  0.67158000  0.32865800  0.99992400  1
  Pt  Pt34  1  0.20408800  0.66661000  0.63901600  1
  Pt  Pt35  1  0.79591200  0.33339000  0.36098400  1
  Pt  Pt36  1  0.00000000  0.00000000  0.00000000  1
