# generated using pymatgen
data_CuTe2Br
_symmetry_space_group_name_H-M   'P 1'
_cell_length_a   5.22846400
_cell_length_b   8.39697300
_cell_length_c   12.77589753
_cell_angle_alpha   64.63235631
_cell_angle_beta   90.00000000
_cell_angle_gamma   90.00000000
_symmetry_Int_Tables_number   1
_chemical_formula_structural   CuTe2Br
_chemical_formula_sum   'Cu4 Te8 Br4'
_cell_volume   506.81988772
_cell_formula_units_Z   4
loop_
 _symmetry_equiv_pos_site_id
 _symmetry_equiv_pos_as_xyz
  1  'x, y, z'
loop_
 _atom_site_type_symbol
 _atom_site_label
 _atom_site_symmetry_multiplicity
 _atom_site_fract_x
 _atom_site_fract_y
 _atom_site_fract_z
 _atom_site_occupancy
  Cu  Cu0  1  0.13023400  0.17901500  0.25089100  1
  Cu  Cu1  1  0.63023400  0.82098500  0.24910900  1
  Cu  Cu2  1  0.86976600  0.82098500  0.74910900  1
  Cu  Cu3  1  0.36976600  0.17901500  0.75089100  1
  Te  Te4  1  0.03035800  0.27869200  0.85380500  1
  Te  Te5  1  0.78816900  0.41205800  0.14962800  1
  Te  Te6  1  0.71183100  0.41205800  0.64962800  1
  Te  Te7  1  0.21183100  0.58794200  0.85037200  1
  Te  Te8  1  0.53035800  0.72130800  0.64619500  1
  Te  Te9  1  0.96964200  0.72130800  0.14619500  1
  Te  Te10  1  0.46964200  0.27869200  0.35380500  1
  Te  Te11  1  0.28816900  0.58794200  0.35037200  1
  Br  Br12  1  0.12363100  0.08451100  0.62114400  1
  Br  Br13  1  0.37636900  0.08451100  0.12114400  1
  Br  Br14  1  0.87636900  0.91548900  0.37885600  1
  Br  Br15  1  0.62363100  0.91548900  0.87885600  1
