# generated using pymatgen
data_Pr3OsO7
_symmetry_space_group_name_H-M   'P 1'
_cell_length_a   6.71048563
_cell_length_b   6.71048563
_cell_length_c   7.65575100
_cell_angle_alpha   90.00000000
_cell_angle_beta   90.00000000
_cell_angle_gamma   111.41113011
_symmetry_Int_Tables_number   1
_chemical_formula_structural   Pr3OsO7
_chemical_formula_sum   'Pr6 Os2 O14'
_cell_volume   320.95071414
_cell_formula_units_Z   2
loop_
 _symmetry_equiv_pos_site_id
 _symmetry_equiv_pos_as_xyz
  1  'x, y, z'
loop_
 _atom_site_type_symbol
 _atom_site_label
 _atom_site_symmetry_multiplicity
 _atom_site_fract_x
 _atom_site_fract_y
 _atom_site_fract_z
 _atom_site_occupancy
  Pr  Pr0  1  0.00000000  0.00000000  0.00000000  1
  Pr  Pr1  1  0.00000000  0.00000000  0.50000000  1
  Pr  Pr2  1  0.47242800  0.91717200  0.75000000  1
  Pr  Pr3  1  0.52757200  0.08282800  0.25000000  1
  Pr  Pr4  1  0.91717200  0.47242800  0.75000000  1
  Pr  Pr5  1  0.08282800  0.52757200  0.25000000  1
  Os  Os6  1  0.50000000  0.50000000  0.00000000  1
  Os  Os7  1  0.50000000  0.50000000  0.50000000  1
  O  O8  1  0.58253000  0.58253000  0.75000000  1
  O  O9  1  0.41747000  0.41747000  0.25000000  1
  O  O10  1  0.84194000  0.10526100  0.75000000  1
  O  O11  1  0.15806000  0.89473900  0.25000000  1
  O  O12  1  0.10526100  0.84194000  0.75000000  1
  O  O13  1  0.89473900  0.15806000  0.25000000  1
  O  O14  1  0.44013400  0.19051700  0.96108500  1
  O  O15  1  0.55986600  0.80948300  0.46108500  1
  O  O16  1  0.19051700  0.44013400  0.96108500  1
  O  O17  1  0.80948300  0.55986600  0.46108500  1
  O  O18  1  0.44013400  0.19051700  0.53891500  1
  O  O19  1  0.55986600  0.80948300  0.03891500  1
  O  O20  1  0.80948300  0.55986600  0.03891500  1
  O  O21  1  0.19051700  0.44013400  0.53891500  1
