# generated using pymatgen
data_K(WO3)6
_symmetry_space_group_name_H-M   'P 1'
_cell_length_a   7.51681324
_cell_length_b   7.51681324
_cell_length_c   7.72941000
_cell_angle_alpha   90.00000000
_cell_angle_beta   90.00000000
_cell_angle_gamma   119.99999330
_symmetry_Int_Tables_number   1
_chemical_formula_structural   K(WO3)6
_chemical_formula_sum   'K1 W6 O18'
_cell_volume   378.22003079
_cell_formula_units_Z   1
loop_
 _symmetry_equiv_pos_site_id
 _symmetry_equiv_pos_as_xyz
  1  'x, y, z'
loop_
 _atom_site_type_symbol
 _atom_site_label
 _atom_site_symmetry_multiplicity
 _atom_site_fract_x
 _atom_site_fract_y
 _atom_site_fract_z
 _atom_site_occupancy
  K  K0  1  0.00000000  0.00000000  0.50000000  1
  W  W1  1  0.00000000  0.50000000  0.24949000  1
  W  W2  1  0.50000000  0.00000000  0.24949000  1
  W  W3  1  0.50000000  0.00000000  0.75051000  1
  W  W4  1  0.50000000  0.50000000  0.75051000  1
  W  W5  1  0.50000000  0.50000000  0.24949000  1
  W  W6  1  0.00000000  0.50000000  0.75051000  1
  O  O7  1  0.00000000  0.50000000  0.50000000  1
  O  O8  1  0.00000000  0.50000000  0.00000000  1
  O  O9  1  0.21197900  0.78802100  0.25199500  1
  O  O10  1  0.21197900  0.78802100  0.74800500  1
  O  O11  1  0.21197900  0.42395800  0.25199500  1
  O  O12  1  0.21197900  0.42395800  0.74800500  1
  O  O13  1  0.50000000  0.00000000  0.50000000  1
  O  O14  1  0.57604200  0.78802100  0.25199500  1
  O  O15  1  0.57604200  0.78802100  0.74800500  1
  O  O16  1  0.50000000  0.50000000  0.50000000  1
  O  O17  1  0.50000000  0.50000000  0.00000000  1
  O  O18  1  0.42395800  0.21197900  0.25199500  1
  O  O19  1  0.42395800  0.21197900  0.74800500  1
  O  O20  1  0.50000000  0.00000000  0.00000000  1
  O  O21  1  0.78802100  0.57604200  0.74800500  1
  O  O22  1  0.78802100  0.57604200  0.25199500  1
  O  O23  1  0.78802100  0.21197900  0.25199500  1
  O  O24  1  0.78802100  0.21197900  0.74800500  1
