# generated using pymatgen
data_Rb2CrCl4
_symmetry_space_group_name_H-M   'P 1'
_cell_length_a   8.84202828
_cell_length_b   8.84202828
_cell_length_c   7.23608300
_cell_angle_alpha   90.00000000
_cell_angle_beta   90.00000000
_cell_angle_gamma   131.69053561
_symmetry_Int_Tables_number   1
_chemical_formula_structural   Rb2CrCl4
_chemical_formula_sum   'Rb4 Cr2 Cl8'
_cell_volume   422.45595907
_cell_formula_units_Z   2
loop_
 _symmetry_equiv_pos_site_id
 _symmetry_equiv_pos_as_xyz
  1  'x, y, z'
loop_
 _atom_site_type_symbol
 _atom_site_label
 _atom_site_symmetry_multiplicity
 _atom_site_fract_x
 _atom_site_fract_y
 _atom_site_fract_z
 _atom_site_occupancy
  Rb  Rb0  1  0.86052000  0.13948000  0.50000000  1
  Rb  Rb1  1  0.63948000  0.36052000  0.00000000  1
  Rb  Rb2  1  0.36052000  0.63948000  0.00000000  1
  Rb  Rb3  1  0.13948000  0.86052000  0.50000000  1
  Cr  Cr4  1  0.00000000  0.00000000  0.00000000  1
  Cr  Cr5  1  0.50000000  0.50000000  0.50000000  1
  Cl  Cl6  1  0.65152800  0.34847200  0.50000000  1
  Cl  Cl7  1  0.26153400  0.26153400  0.73847200  1
  Cl  Cl8  1  0.84847200  0.15152800  0.00000000  1
  Cl  Cl9  1  0.15152800  0.84847200  0.00000000  1
  Cl  Cl10  1  0.76153400  0.76153400  0.76152800  1
  Cl  Cl11  1  0.73846600  0.73846600  0.26152800  1
  Cl  Cl12  1  0.34847200  0.65152800  0.50000000  1
  Cl  Cl13  1  0.23846600  0.23846600  0.23847200  1
