# generated using pymatgen
data_TcO2
_symmetry_space_group_name_H-M   'P 1'
_cell_length_a   4.81341900
_cell_length_b   5.53275300
_cell_length_c   5.58818688
_cell_angle_alpha   61.85130477
_cell_angle_beta   90.00000000
_cell_angle_gamma   90.00000000
_symmetry_Int_Tables_number   1
_chemical_formula_structural   TcO2
_chemical_formula_sum   'Tc4 O8'
_cell_volume   131.21988009
_cell_formula_units_Z   4
loop_
 _symmetry_equiv_pos_site_id
 _symmetry_equiv_pos_as_xyz
  1  'x, y, z'
loop_
 _atom_site_type_symbol
 _atom_site_label
 _atom_site_symmetry_multiplicity
 _atom_site_fract_x
 _atom_site_fract_y
 _atom_site_fract_z
 _atom_site_occupancy
  Tc  Tc0  1  0.50485900  0.73480900  0.78016400  1
  Tc  Tc1  1  0.00485900  0.26519100  0.71983600  1
  Tc  Tc2  1  0.49514100  0.26519100  0.21983600  1
  Tc  Tc3  1  0.99514100  0.73480900  0.28016400  1
  O  O4  1  0.21307900  0.60744500  0.62380500  1
  O  O5  1  0.19126300  0.10561100  0.08679300  1
  O  O6  1  0.80873700  0.89438900  0.91320700  1
  O  O7  1  0.69126300  0.89438900  0.41320700  1
  O  O8  1  0.30873700  0.10561100  0.58679300  1
  O  O9  1  0.28692100  0.60744500  0.12380500  1
  O  O10  1  0.71307900  0.39255500  0.87619500  1
  O  O11  1  0.78692100  0.39255500  0.37619500  1
