# generated using pymatgen
data_Sr(AlTe2)2
_symmetry_space_group_name_H-M   'P 1'
_cell_length_a   6.84805905
_cell_length_b   6.84805905
_cell_length_c   6.84805905
_cell_angle_alpha   103.98394836
_cell_angle_beta   103.98394836
_cell_angle_gamma   121.11114597
_symmetry_Int_Tables_number   1
_chemical_formula_structural   Sr(AlTe2)2
_chemical_formula_sum   'Sr1 Al2 Te4'
_cell_volume   239.43938799
_cell_formula_units_Z   1
loop_
 _symmetry_equiv_pos_site_id
 _symmetry_equiv_pos_as_xyz
  1  'x, y, z'
loop_
 _atom_site_type_symbol
 _atom_site_label
 _atom_site_symmetry_multiplicity
 _atom_site_fract_x
 _atom_site_fract_y
 _atom_site_fract_z
 _atom_site_occupancy
  Sr  Sr0  1  0.00000000  0.00000000  0.00000000  1
  Al  Al1  1  0.50000000  0.00000000  0.50000000  1
  Al  Al2  1  0.00000000  0.50000000  0.50000000  1
  Te  Te3  1  0.92191500  0.07808500  0.50000000  1
  Te  Te4  1  0.07808500  0.57808500  0.15616900  1
  Te  Te5  1  0.42191500  0.92191500  0.84383100  1
  Te  Te6  1  0.57808500  0.42191500  0.50000000  1
