# generated using pymatgen
data_PbSO4
_symmetry_space_group_name_H-M   'P 1'
_cell_length_a   5.52183700
_cell_length_b   7.09933500
_cell_length_c   8.56079800
_cell_angle_alpha   90.00000000
_cell_angle_beta   90.00000000
_cell_angle_gamma   90.00000000
_symmetry_Int_Tables_number   1
_chemical_formula_structural   PbSO4
_chemical_formula_sum   'Pb4 S4 O16'
_cell_volume   335.59501570
_cell_formula_units_Z   4
loop_
 _symmetry_equiv_pos_site_id
 _symmetry_equiv_pos_as_xyz
  1  'x, y, z'
loop_
 _atom_site_type_symbol
 _atom_site_label
 _atom_site_symmetry_multiplicity
 _atom_site_fract_x
 _atom_site_fract_y
 _atom_site_fract_z
 _atom_site_occupancy
  Pb  Pb0  1  0.25000000  0.32775900  0.69633800  1
  Pb  Pb1  1  0.75000000  0.67224100  0.30366200  1
  Pb  Pb2  1  0.75000000  0.82775900  0.80366200  1
  Pb  Pb3  1  0.25000000  0.17224100  0.19633800  1
  S  S4  1  0.75000000  0.31971200  0.93655400  1
  S  S5  1  0.25000000  0.68028800  0.06344600  1
  S  S6  1  0.25000000  0.81971200  0.56344600  1
  S  S7  1  0.75000000  0.18028800  0.43655400  1
  O  O8  1  0.75000000  0.40578700  0.09306900  1
  O  O9  1  0.25000000  0.59421300  0.90693100  1
  O  O10  1  0.25000000  0.90578700  0.40693100  1
  O  O11  1  0.75000000  0.09421300  0.59306900  1
  O  O12  1  0.47146500  0.80278400  0.08124100  1
  O  O13  1  0.97146500  0.19721600  0.91875900  1
  O  O14  1  0.52853500  0.30278400  0.41875900  1
  O  O15  1  0.02853500  0.69721600  0.58124100  1
  O  O16  1  0.75000000  0.03822000  0.30784100  1
  O  O17  1  0.25000000  0.96178000  0.69215900  1
  O  O18  1  0.25000000  0.53822000  0.19215900  1
  O  O19  1  0.75000000  0.46178000  0.80784100  1
  O  O20  1  0.97146500  0.30278400  0.41875900  1
  O  O21  1  0.47146500  0.69721600  0.58124100  1
  O  O22  1  0.02853500  0.80278400  0.08124100  1
  O  O23  1  0.52853500  0.19721600  0.91875900  1
