# generated using pymatgen
data_ErCuP2
_symmetry_space_group_name_H-M   'P 1'
_cell_length_a   3.69985300
_cell_length_b   3.73236800
_cell_length_c   19.33047800
_cell_angle_alpha   90.00000000
_cell_angle_beta   90.00000000
_cell_angle_gamma   90.00000000
_symmetry_Int_Tables_number   1
_chemical_formula_structural   ErCuP2
_chemical_formula_sum   'Er4 Cu4 P8'
_cell_volume   266.93868697
_cell_formula_units_Z   4
loop_
 _symmetry_equiv_pos_site_id
 _symmetry_equiv_pos_as_xyz
  1  'x, y, z'
loop_
 _atom_site_type_symbol
 _atom_site_label
 _atom_site_symmetry_multiplicity
 _atom_site_fract_x
 _atom_site_fract_y
 _atom_site_fract_z
 _atom_site_occupancy
  Er  Er0  1  0.25000000  0.72646000  0.38274800  1
  Er  Er1  1  0.25000000  0.77354000  0.88274800  1
  Er  Er2  1  0.75000000  0.27354000  0.61725200  1
  Er  Er3  1  0.75000000  0.22646000  0.11725200  1
  Cu  Cu4  1  0.25000000  0.22885900  0.25004200  1
  Cu  Cu5  1  0.75000000  0.77114100  0.74995800  1
  Cu  Cu6  1  0.25000000  0.27114100  0.75004200  1
  Cu  Cu7  1  0.75000000  0.72885900  0.24995800  1
  P  P8  1  0.75000000  0.80260700  0.50134300  1
  P  P9  1  0.75000000  0.69739300  0.00134300  1
  P  P10  1  0.25000000  0.19739300  0.49865700  1
  P  P11  1  0.25000000  0.30260700  0.99865700  1
  P  P12  1  0.25000000  0.72776400  0.17062500  1
  P  P13  1  0.75000000  0.22776400  0.32937500  1
  P  P14  1  0.75000000  0.27223600  0.82937500  1
  P  P15  1  0.25000000  0.77223600  0.67062500  1
