# generated using pymatgen
data_Bi5NO10
_symmetry_space_group_name_H-M   'P 1'
_cell_length_a   23.50622500
_cell_length_b   5.68721100
_cell_length_c   8.78840228
_cell_angle_alpha   72.01506427
_cell_angle_beta   90.00000000
_cell_angle_gamma   90.00000000
_symmetry_Int_Tables_number   1
_chemical_formula_structural   Bi5NO10
_chemical_formula_sum   'Bi20 N4 O40'
_cell_volume   1117.46921633
_cell_formula_units_Z   4
loop_
 _symmetry_equiv_pos_site_id
 _symmetry_equiv_pos_as_xyz
  1  'x, y, z'
loop_
 _atom_site_type_symbol
 _atom_site_label
 _atom_site_symmetry_multiplicity
 _atom_site_fract_x
 _atom_site_fract_y
 _atom_site_fract_z
 _atom_site_occupancy
  Bi  Bi0  1  0.79847100  0.79073100  0.00507100  1
  Bi  Bi1  1  0.29847100  0.70926900  0.99492900  1
  Bi  Bi2  1  0.20152900  0.20926900  0.99492900  1
  Bi  Bi3  1  0.70152900  0.29073100  0.00507100  1
  Bi  Bi4  1  0.68781200  0.54590700  0.35320200  1
  Bi  Bi5  1  0.18781200  0.95409300  0.64679800  1
  Bi  Bi6  1  0.31218800  0.45409300  0.64679800  1
  Bi  Bi7  1  0.81218800  0.04590700  0.35320200  1
  Bi  Bi8  1  0.69141200  0.96766700  0.65456000  1
  Bi  Bi9  1  0.19141200  0.53233300  0.34544000  1
  Bi  Bi10  1  0.30858800  0.03233300  0.34544000  1
  Bi  Bi11  1  0.80858800  0.46766700  0.65456000  1
  Bi  Bi12  1  0.93832800  0.59871800  0.30599200  1
  Bi  Bi13  1  0.43832800  0.90128200  0.69400800  1
  Bi  Bi14  1  0.06167200  0.40128200  0.69400800  1
  Bi  Bi15  1  0.56167200  0.09871800  0.30599200  1
  Bi  Bi16  1  0.93817600  0.96705900  0.63454700  1
  Bi  Bi17  1  0.43817600  0.53294100  0.36545300  1
  Bi  Bi18  1  0.06182400  0.03294100  0.36545300  1
  Bi  Bi19  1  0.56182400  0.46705900  0.63454700  1
  N  N20  1  0.57346000  0.80910000  0.99776900  1
  N  N21  1  0.92654000  0.30910000  0.99776900  1
  N  N22  1  0.42654000  0.19090000  0.00223100  1
  N  N23  1  0.07346000  0.69090000  0.00223100  1
  O  O24  1  0.25461000  0.76349000  0.51411800  1
  O  O25  1  0.08503400  0.69002100  0.14421100  1
  O  O26  1  0.41496600  0.19002100  0.14421100  1
  O  O27  1  0.91496600  0.30997900  0.85578900  1
  O  O28  1  0.60905100  0.90571600  0.07182800  1
  O  O29  1  0.10905100  0.59428400  0.92817200  1
  O  O30  1  0.39094900  0.09428400  0.92817200  1
  O  O31  1  0.89094900  0.40571600  0.07182800  1
  O  O32  1  0.52785400  0.71722000  0.06429000  1
  O  O33  1  0.97214600  0.21722000  0.06429000  1
  O  O34  1  0.47214600  0.28278000  0.93571000  1
  O  O35  1  0.02785400  0.78278000  0.93571000  1
  O  O36  1  0.73817000  0.06404900  0.84006800  1
  O  O37  1  0.23817000  0.43595100  0.15993200  1
  O  O38  1  0.26183000  0.93595100  0.15993200  1
  O  O39  1  0.76183000  0.56404900  0.84006800  1
  O  O40  1  0.75461000  0.73651000  0.48588200  1
  O  O41  1  0.58503400  0.80997900  0.85578900  1
  O  O42  1  0.24539000  0.26349000  0.51411800  1
  O  O43  1  0.74539000  0.23651000  0.48588200  1
  O  O44  1  0.60081200  0.80027800  0.48573400  1
  O  O45  1  0.10081200  0.69972200  0.51426600  1
  O  O46  1  0.39918800  0.19972200  0.51426600  1
  O  O47  1  0.89918800  0.30027800  0.48573400  1
  O  O48  1  0.75384700  0.99983900  0.15083300  1
  O  O49  1  0.25384700  0.50016100  0.84916700  1
  O  O50  1  0.24615300  0.00016100  0.84916700  1
  O  O51  1  0.74615300  0.49983900  0.15083300  1
  O  O52  1  0.97297300  0.80670600  0.46058700  1
  O  O53  1  0.35426200  0.67655700  0.39806100  1
  O  O54  1  0.14573800  0.17655700  0.39806100  1
  O  O55  1  0.64573800  0.32344300  0.60193900  1
  O  O56  1  0.64017000  0.27624300  0.24884900  1
  O  O57  1  0.14017000  0.22375700  0.75115100  1
  O  O58  1  0.35983000  0.72375700  0.75115100  1
  O  O59  1  0.85983000  0.77624300  0.24884900  1
  O  O60  1  0.52702700  0.30670600  0.46058700  1
  O  O61  1  0.02702700  0.19329400  0.53941300  1
  O  O62  1  0.47297300  0.69329400  0.53941300  1
  O  O63  1  0.85426200  0.82344300  0.60193900  1
