# generated using pymatgen
data_Y4AsSe3
_symmetry_space_group_name_H-M   'P 1'
_cell_length_a   7.10247730
_cell_length_b   7.10247730
_cell_length_c   7.10247730
_cell_angle_alpha   131.86683372
_cell_angle_beta   131.86683372
_cell_angle_gamma   70.43943002
_symmetry_Int_Tables_number   1
_chemical_formula_structural   Y4AsSe3
_chemical_formula_sum   'Y4 As1 Se3'
_cell_volume   194.70331446
_cell_formula_units_Z   1
loop_
 _symmetry_equiv_pos_site_id
 _symmetry_equiv_pos_as_xyz
  1  'x, y, z'
loop_
 _atom_site_type_symbol
 _atom_site_label
 _atom_site_symmetry_multiplicity
 _atom_site_fract_x
 _atom_site_fract_y
 _atom_site_fract_z
 _atom_site_occupancy
  Y  Y0  1  0.24348700  0.24348700  0.00000000  1
  Y  Y1  1  0.75651300  0.75651300  0.00000000  1
  Y  Y2  1  0.50000000  0.00000000  0.50000000  1
  Y  Y3  1  0.00000000  0.50000000  0.50000000  1
  As  As4  1  0.00000000  0.00000000  0.00000000  1
  Se  Se5  1  0.75000000  0.25000000  0.50000000  1
  Se  Se6  1  0.25000000  0.75000000  0.50000000  1
  Se  Se7  1  0.50000000  0.50000000  0.00000000  1
