# generated using pymatgen
data_K7LiSi8
_symmetry_space_group_name_H-M   'P 1'
_cell_length_a   12.56130900
_cell_length_b   12.56130900
_cell_length_c   12.56130900
_cell_angle_alpha   90.00000000
_cell_angle_beta   90.00000000
_cell_angle_gamma   90.00000000
_symmetry_Int_Tables_number   1
_chemical_formula_structural   K7LiSi8
_chemical_formula_sum   'K28 Li4 Si32'
_cell_volume   1982.00477895
_cell_formula_units_Z   4
loop_
 _symmetry_equiv_pos_site_id
 _symmetry_equiv_pos_as_xyz
  1  'x, y, z'
loop_
 _atom_site_type_symbol
 _atom_site_label
 _atom_site_symmetry_multiplicity
 _atom_site_fract_x
 _atom_site_fract_y
 _atom_site_fract_z
 _atom_site_occupancy
  K  K0  1  0.27308800  0.81039400  0.04346600  1
  K  K1  1  0.04346600  0.27308800  0.81039400  1
  K  K2  1  0.72691200  0.31039400  0.45653400  1
  K  K3  1  0.22691200  0.18960600  0.54346600  1
  K  K4  1  0.45653400  0.72691200  0.31039400  1
  K  K5  1  0.18960600  0.54346600  0.22691200  1
  K  K6  1  0.31039400  0.45653400  0.72691200  1
  K  K7  1  0.81039400  0.04346600  0.27308800  1
  K  K8  1  0.31039400  0.04346600  0.22691200  1
  K  K9  1  0.22691200  0.31039400  0.04346600  1
  K  K10  1  0.04346600  0.22691200  0.31039400  1
  K  K11  1  0.45653400  0.77308800  0.81039400  1
  K  K12  1  0.54346600  0.22691200  0.18960600  1
  K  K13  1  0.95653400  0.72691200  0.18960600  1
  K  K14  1  0.27308800  0.68960600  0.54346600  1
  K  K15  1  0.77308800  0.81039400  0.45653400  1
  K  K16  1  0.54346600  0.27308800  0.68960600  1
  K  K17  1  0.81039400  0.45653400  0.77308800  1
  K  K18  1  0.68960600  0.54346600  0.27308800  1
  K  K19  1  0.18960600  0.95653400  0.72691200  1
  K  K20  1  0.00000000  0.00000000  0.00000000  1
  K  K21  1  0.50000000  0.00000000  0.50000000  1
  K  K22  1  0.50000000  0.50000000  0.00000000  1
  K  K23  1  0.00000000  0.50000000  0.50000000  1
  K  K24  1  0.95653400  0.77308800  0.68960600  1
  K  K25  1  0.77308800  0.68960600  0.95653400  1
  K  K26  1  0.68960600  0.95653400  0.77308800  1
  K  K27  1  0.72691200  0.18960600  0.95653400  1
  Li  Li28  1  0.50000000  0.50000000  0.50000000  1
  Li  Li29  1  0.00000000  0.00000000  0.50000000  1
  Li  Li30  1  0.50000000  0.00000000  0.00000000  1
  Li  Li31  1  0.00000000  0.50000000  0.00000000  1
  Si  Si32  1  0.19794400  0.56767400  0.94754600  1
  Si  Si33  1  0.94754600  0.19794400  0.56767400  1
  Si  Si34  1  0.80205600  0.06767400  0.55245400  1
  Si  Si35  1  0.30205600  0.43232600  0.44754600  1
  Si  Si36  1  0.55245400  0.80205600  0.06767400  1
  Si  Si37  1  0.43232600  0.44754600  0.30205600  1
  Si  Si38  1  0.06767400  0.55245400  0.80205600  1
  Si  Si39  1  0.56767400  0.94754600  0.19794400  1
  Si  Si40  1  0.06767400  0.94754600  0.30205600  1
  Si  Si41  1  0.30205600  0.06767400  0.94754600  1
  Si  Si42  1  0.94754600  0.30205600  0.06767400  1
  Si  Si43  1  0.55245400  0.69794400  0.56767400  1
  Si  Si44  1  0.80205600  0.43232600  0.05245400  1
  Si  Si45  1  0.44754600  0.30205600  0.43232600  1
  Si  Si46  1  0.19794400  0.93232600  0.44754600  1
  Si  Si47  1  0.69794400  0.56767400  0.55245400  1
  Si  Si48  1  0.44754600  0.19794400  0.93232600  1
  Si  Si49  1  0.56767400  0.55245400  0.69794400  1
  Si  Si50  1  0.93232600  0.44754600  0.19794400  1
  Si  Si51  1  0.43232600  0.05245400  0.80205600  1
  Si  Si52  1  0.30461200  0.30461200  0.30461200  1
  Si  Si53  1  0.19538800  0.69538800  0.80461200  1
  Si  Si54  1  0.80461200  0.19538800  0.69538800  1
  Si  Si55  1  0.69538800  0.80461200  0.19538800  1
  Si  Si56  1  0.69538800  0.69538800  0.69538800  1
  Si  Si57  1  0.80461200  0.30461200  0.19538800  1
  Si  Si58  1  0.19538800  0.80461200  0.30461200  1
  Si  Si59  1  0.30461200  0.19538800  0.80461200  1
  Si  Si60  1  0.05245400  0.69794400  0.93232600  1
  Si  Si61  1  0.69794400  0.93232600  0.05245400  1
  Si  Si62  1  0.05245400  0.80205600  0.43232600  1
  Si  Si63  1  0.93232600  0.05245400  0.69794400  1
