# generated using pymatgen
data_Pu2S3
_symmetry_space_group_name_H-M   'P 1'
_cell_length_a   13.86177961
_cell_length_b   13.86177961
_cell_length_c   13.86177961
_cell_angle_alpha   145.15977959
_cell_angle_beta   145.15977959
_cell_angle_gamma   50.09648039
_symmetry_Int_Tables_number   1
_chemical_formula_structural   Pu2S3
_chemical_formula_sum   'Pu16 S24'
_cell_volume   865.07761602
_cell_formula_units_Z   8
loop_
 _symmetry_equiv_pos_site_id
 _symmetry_equiv_pos_as_xyz
  1  'x, y, z'
loop_
 _atom_site_type_symbol
 _atom_site_label
 _atom_site_symmetry_multiplicity
 _atom_site_fract_x
 _atom_site_fract_y
 _atom_site_fract_z
 _atom_site_occupancy
  Pu  Pu0  1  0.08475100  0.58475100  0.50000000  1
  Pu  Pu1  1  0.87500000  0.24518000  0.87018000  1
  Pu  Pu2  1  0.34568400  0.45586200  0.37969200  1
  Pu  Pu3  1  0.66524900  0.66524900  0.00000000  1
  Pu  Pu4  1  0.37500000  0.00482000  0.12982000  1
  Pu  Pu5  1  0.07617100  0.96599200  0.62030800  1
  Pu  Pu6  1  0.54413800  0.92382900  0.88982100  1
  Pu  Pu7  1  0.99518000  0.12500000  0.37018000  1
  Pu  Pu8  1  0.33475100  0.33475100  0.00000000  1
  Pu  Pu9  1  0.75482000  0.62500000  0.62982000  1
  Pu  Pu10  1  0.03400800  0.65431600  0.11017900  1
  Pu  Pu11  1  0.41524900  0.91524900  0.50000000  1
  Pu  Pu12  1  0.20586200  0.59568400  0.87969200  1
  Pu  Pu13  1  0.67382900  0.79413800  0.38982100  1
  Pu  Pu14  1  0.40431600  0.28400800  0.61017900  1
  Pu  Pu15  1  0.71599200  0.32617100  0.12030800  1
  S  S16  1  0.02810100  0.92411400  0.74482900  1
  S  S17  1  0.74039600  0.49146600  0.09795300  1
  S  S18  1  0.00960400  0.60755700  0.25106900  1
  S  S19  1  0.39351300  0.64244300  0.90204700  1
  S  S20  1  0.35648700  0.75853400  0.74893100  1
  S  S21  1  0.17928400  0.28327200  0.25517100  1
  S  S22  1  0.72189900  0.96672800  0.39601300  1
  S  S23  1  0.57071600  0.32588600  0.60398700  1
  S  S24  1  0.68788800  0.59655800  0.75259400  1
  S  S25  1  0.40344200  0.15603600  0.09133100  1
  S  S26  1  0.67411400  0.27810100  0.24482900  1
  S  S27  1  0.06470500  0.31211200  0.90866900  1
  S  S28  1  0.03327200  0.42928400  0.75517100  1
  S  S29  1  0.39244300  0.64351300  0.40204700  1
  S  S30  1  0.84396400  0.93529500  0.24740600  1
  S  S31  1  0.24146600  0.99039600  0.59795300  1
  S  S32  1  0.35755700  0.25960400  0.75106900  1
  S  S33  1  0.07588600  0.82071600  0.10398700  1
  S  S34  1  0.71672800  0.97189900  0.89601300  1
  S  S35  1  0.34655800  0.93788800  0.25259400  1
  S  S36  1  0.68529500  0.09396400  0.74740600  1
  S  S37  1  0.06211200  0.31470500  0.40866900  1
  S  S38  1  0.50853400  0.60648700  0.24893100  1
  S  S39  1  0.90603600  0.65344200  0.59133100  1
