# generated using pymatgen
data_Y2CdS4
_symmetry_space_group_name_H-M   'P 1'
_cell_length_a   8.00019339
_cell_length_b   8.00019339
_cell_length_c   8.00019339
_cell_angle_alpha   60.00000000
_cell_angle_beta   60.00000000
_cell_angle_gamma   60.00000000
_symmetry_Int_Tables_number   1
_chemical_formula_structural   Y2CdS4
_chemical_formula_sum   'Y4 Cd2 S8'
_cell_volume   362.06492870
_cell_formula_units_Z   2
loop_
 _symmetry_equiv_pos_site_id
 _symmetry_equiv_pos_as_xyz
  1  'x, y, z'
loop_
 _atom_site_type_symbol
 _atom_site_label
 _atom_site_symmetry_multiplicity
 _atom_site_fract_x
 _atom_site_fract_y
 _atom_site_fract_z
 _atom_site_occupancy
  Y  Y0  1  0.12500000  0.62500000  0.12500000  1
  Y  Y1  1  0.62500000  0.12500000  0.12500000  1
  Y  Y2  1  0.12500000  0.12500000  0.62500000  1
  Y  Y3  1  0.12500000  0.12500000  0.12500000  1
  Cd  Cd4  1  0.75000000  0.75000000  0.75000000  1
  Cd  Cd5  1  0.50000000  0.50000000  0.50000000  1
  S  S6  1  0.36768800  0.36768800  0.36768800  1
  S  S7  1  0.88231200  0.35306300  0.88231200  1
  S  S8  1  0.35306300  0.88231200  0.88231200  1
  S  S9  1  0.36768800  0.36768800  0.89693700  1
  S  S10  1  0.88231200  0.88231200  0.35306300  1
  S  S11  1  0.89693700  0.36768800  0.36768800  1
  S  S12  1  0.88231200  0.88231200  0.88231200  1
  S  S13  1  0.36768800  0.89693700  0.36768800  1
