# generated using pymatgen
data_B6H10N
_symmetry_space_group_name_H-M   'P 1'
_cell_length_a   7.77524717
_cell_length_b   7.77524717
_cell_length_c   7.77524717
_cell_angle_alpha   60.00000000
_cell_angle_beta   60.00000000
_cell_angle_gamma   60.00000000
_symmetry_Int_Tables_number   1
_chemical_formula_structural   B6H10N
_chemical_formula_sum   'B12 H20 N2'
_cell_volume   332.37443638
_cell_formula_units_Z   2
loop_
 _symmetry_equiv_pos_site_id
 _symmetry_equiv_pos_as_xyz
  1  'x, y, z'
loop_
 _atom_site_type_symbol
 _atom_site_label
 _atom_site_symmetry_multiplicity
 _atom_site_fract_x
 _atom_site_fract_y
 _atom_site_fract_z
 _atom_site_occupancy
  B  B0  1  0.05049000  0.94951000  0.21173800  1
  B  B1  1  0.21173800  0.78826200  0.05049000  1
  B  B2  1  0.94951000  0.05049000  0.78826200  1
  B  B3  1  0.78826200  0.94951000  0.05049000  1
  B  B4  1  0.78826200  0.05049000  0.21173800  1
  B  B5  1  0.94951000  0.78826200  0.21173800  1
  B  B6  1  0.21173800  0.94951000  0.78826200  1
  B  B7  1  0.05049000  0.78826200  0.94951000  1
  B  B8  1  0.21173800  0.05049000  0.94951000  1
  B  B9  1  0.05049000  0.21173800  0.78826200  1
  B  B10  1  0.94951000  0.21173800  0.05049000  1
  B  B11  1  0.78826200  0.21173800  0.94951000  1
  H  H12  1  0.19571300  0.19571300  0.41286000  1
  H  H13  1  0.19571300  0.19571300  0.19571300  1
  H  H14  1  0.41286000  0.19571300  0.19571300  1
  H  H15  1  0.19571300  0.41286000  0.19571300  1
  H  H16  1  0.80428700  0.80428700  0.58714000  1
  H  H17  1  0.80428700  0.80428700  0.80428700  1
  H  H18  1  0.58714000  0.80428700  0.80428700  1
  H  H19  1  0.80428700  0.58714000  0.80428700  1
  H  H20  1  0.08736300  0.91263700  0.36209300  1
  H  H21  1  0.36209300  0.63790700  0.08736300  1
  H  H22  1  0.91263700  0.08736300  0.63790700  1
  H  H23  1  0.63790700  0.91263700  0.08736300  1
  H  H24  1  0.63790700  0.08736300  0.36209300  1
  H  H25  1  0.91263700  0.63790700  0.36209300  1
  H  H26  1  0.63790700  0.36209300  0.91263700  1
  H  H27  1  0.91263700  0.36209300  0.08736300  1
  H  H28  1  0.08736300  0.36209300  0.63790700  1
  H  H29  1  0.36209300  0.08736300  0.91263700  1
  H  H30  1  0.08736300  0.63790700  0.91263700  1
  H  H31  1  0.36209300  0.91263700  0.63790700  1
  N  N32  1  0.25000000  0.25000000  0.25000000  1
  N  N33  1  0.75000000  0.75000000  0.75000000  1
