# generated using pymatgen
data_TiPt8
_symmetry_space_group_name_H-M   'P 1'
_cell_length_a   6.27729166
_cell_length_b   6.27729166
_cell_length_c   6.27729166
_cell_angle_alpha   95.65311838
_cell_angle_beta   95.65311838
_cell_angle_gamma   143.41648177
_symmetry_Int_Tables_number   1
_chemical_formula_structural   TiPt8
_chemical_formula_sum   'Ti1 Pt8'
_cell_volume   139.97171391
_cell_formula_units_Z   1
loop_
 _symmetry_equiv_pos_site_id
 _symmetry_equiv_pos_as_xyz
  1  'x, y, z'
loop_
 _atom_site_type_symbol
 _atom_site_label
 _atom_site_symmetry_multiplicity
 _atom_site_fract_x
 _atom_site_fract_y
 _atom_site_fract_z
 _atom_site_occupancy
  Ti  Ti0  1  0.00000000  0.00000000  0.00000000  1
  Pt  Pt1  1  0.33811600  0.66188400  0.00000000  1
  Pt  Pt2  1  0.66188400  0.33811600  0.00000000  1
  Pt  Pt3  1  0.33811600  0.33811600  0.67623200  1
  Pt  Pt4  1  0.67102800  0.00000000  0.67102800  1
  Pt  Pt5  1  0.00000000  0.67102800  0.67102800  1
  Pt  Pt6  1  0.00000000  0.32897200  0.32897200  1
  Pt  Pt7  1  0.32897200  0.00000000  0.32897200  1
  Pt  Pt8  1  0.66188400  0.66188400  0.32376800  1
