# generated using pymatgen
data_NdZn2
_symmetry_space_group_name_H-M   'P 1'
_cell_length_a   5.78929311
_cell_length_b   5.78929311
_cell_length_c   5.78929311
_cell_angle_alpha   133.09713620
_cell_angle_beta   99.77597102
_cell_angle_gamma   98.45117168
_symmetry_Int_Tables_number   1
_chemical_formula_structural   NdZn2
_chemical_formula_sum   'Nd2 Zn4'
_cell_volume   129.96728351
_cell_formula_units_Z   2
loop_
 _symmetry_equiv_pos_site_id
 _symmetry_equiv_pos_as_xyz
  1  'x, y, z'
loop_
 _atom_site_type_symbol
 _atom_site_label
 _atom_site_symmetry_multiplicity
 _atom_site_fract_x
 _atom_site_fract_y
 _atom_site_fract_z
 _atom_site_occupancy
  Nd  Nd0  1  0.21107600  0.46107600  0.75000000  1
  Nd  Nd1  1  0.78892400  0.53892400  0.25000000  1
  Zn  Zn2  1  0.22037900  0.16538800  0.05499100  1
  Zn  Zn3  1  0.77962100  0.83461200  0.94500900  1
  Zn  Zn4  1  0.61039700  0.16538800  0.44500900  1
  Zn  Zn5  1  0.38960300  0.83461200  0.55499100  1
