# generated using pymatgen
data_DySnAu
_symmetry_space_group_name_H-M   'P 1'
_cell_length_a   4.71144743
_cell_length_b   4.71144743
_cell_length_c   7.45786200
_cell_angle_alpha   90.00000000
_cell_angle_beta   90.00000000
_cell_angle_gamma   119.99999201
_symmetry_Int_Tables_number   1
_chemical_formula_structural   DySnAu
_chemical_formula_sum   'Dy2 Sn2 Au2'
_cell_volume   143.36848933
_cell_formula_units_Z   2
loop_
 _symmetry_equiv_pos_site_id
 _symmetry_equiv_pos_as_xyz
  1  'x, y, z'
loop_
 _atom_site_type_symbol
 _atom_site_label
 _atom_site_symmetry_multiplicity
 _atom_site_fract_x
 _atom_site_fract_y
 _atom_site_fract_z
 _atom_site_occupancy
  Dy  Dy0  1  0.00000000  0.00000000  0.24783000  1
  Dy  Dy1  1  0.00000000  0.00000000  0.74783000  1
  Sn  Sn2  1  0.66666700  0.33333300  0.97454800  1
  Sn  Sn3  1  0.33333300  0.66666700  0.47454800  1
  Au  Au4  1  0.33333300  0.66666700  0.07612200  1
  Au  Au5  1  0.66666700  0.33333300  0.57612200  1
