# generated using pymatgen
data_Zr3Co
_symmetry_space_group_name_H-M   'P 1'
_cell_length_a   5.64053185
_cell_length_b   5.64053185
_cell_length_c   9.05434500
_cell_angle_alpha   90.00000000
_cell_angle_beta   90.00000000
_cell_angle_gamma   146.32261980
_symmetry_Int_Tables_number   1
_chemical_formula_structural   Zr3Co
_chemical_formula_sum   'Zr6 Co2'
_cell_volume   159.73908156
_cell_formula_units_Z   2
loop_
 _symmetry_equiv_pos_site_id
 _symmetry_equiv_pos_as_xyz
  1  'x, y, z'
loop_
 _atom_site_type_symbol
 _atom_site_label
 _atom_site_symmetry_multiplicity
 _atom_site_fract_x
 _atom_site_fract_y
 _atom_site_fract_z
 _atom_site_occupancy
  Zr  Zr0  1  0.58339800  0.41660200  0.75000000  1
  Zr  Zr1  1  0.41660200  0.58339800  0.25000000  1
  Zr  Zr2  1  0.86526000  0.13474000  0.94448100  1
  Zr  Zr3  1  0.13474000  0.86526000  0.05551900  1
  Zr  Zr4  1  0.13474000  0.86526000  0.44448100  1
  Zr  Zr5  1  0.86526000  0.13474000  0.55551900  1
  Co  Co6  1  0.27571200  0.72428800  0.75000000  1
  Co  Co7  1  0.72428800  0.27571200  0.25000000  1
