# generated using pymatgen
data_CeSbTe
_symmetry_space_group_name_H-M   'P 1'
_cell_length_a   4.37962400
_cell_length_b   4.37962400
_cell_length_c   9.29316100
_cell_angle_alpha   90.00000000
_cell_angle_beta   90.00000000
_cell_angle_gamma   90.00000000
_symmetry_Int_Tables_number   1
_chemical_formula_structural   CeSbTe
_chemical_formula_sum   'Ce2 Sb2 Te2'
_cell_volume   178.25310976
_cell_formula_units_Z   2
loop_
 _symmetry_equiv_pos_site_id
 _symmetry_equiv_pos_as_xyz
  1  'x, y, z'
loop_
 _atom_site_type_symbol
 _atom_site_label
 _atom_site_symmetry_multiplicity
 _atom_site_fract_x
 _atom_site_fract_y
 _atom_site_fract_z
 _atom_site_occupancy
  Ce  Ce0  1  0.50000000  0.00000000  0.72726100  1
  Ce  Ce1  1  0.00000000  0.50000000  0.27273900  1
  Sb  Sb2  1  0.00000000  0.00000000  0.00000000  1
  Sb  Sb3  1  0.50000000  0.50000000  0.00000000  1
  Te  Te4  1  0.50000000  0.00000000  0.36828000  1
  Te  Te5  1  0.00000000  0.50000000  0.63172000  1
