# generated using pymatgen
data_TmCd3
_symmetry_space_group_name_H-M   'P 1'
_cell_length_a   6.47373800
_cell_length_b   6.47373800
_cell_length_c   4.85820800
_cell_angle_alpha   90.00000000
_cell_angle_beta   90.00000000
_cell_angle_gamma   112.42632764
_symmetry_Int_Tables_number   1
_chemical_formula_structural   TmCd3
_chemical_formula_sum   'Tm2 Cd6'
_cell_volume   188.20561481
_cell_formula_units_Z   2
loop_
 _symmetry_equiv_pos_site_id
 _symmetry_equiv_pos_as_xyz
  1  'x, y, z'
loop_
 _atom_site_type_symbol
 _atom_site_label
 _atom_site_symmetry_multiplicity
 _atom_site_fract_x
 _atom_site_fract_y
 _atom_site_fract_z
 _atom_site_occupancy
  Tm  Tm0  1  0.63141300  0.36858700  0.25000000  1
  Tm  Tm1  1  0.36858700  0.63141300  0.75000000  1
  Cd  Cd2  1  0.17750400  0.82249600  0.25000000  1
  Cd  Cd3  1  0.82249600  0.17750400  0.75000000  1
  Cd  Cd4  1  0.11923600  0.31178500  0.25000000  1
  Cd  Cd5  1  0.88076400  0.68821500  0.75000000  1
  Cd  Cd6  1  0.31178500  0.11923600  0.75000000  1
  Cd  Cd7  1  0.68821500  0.88076400  0.25000000  1
