# generated using pymatgen
data_Bi2Pd5
_symmetry_space_group_name_H-M   'P 1'
_cell_length_a   7.78610117
_cell_length_b   7.78610117
_cell_length_c   6.87809816
_cell_angle_alpha   65.05004514
_cell_angle_beta   65.05004514
_cell_angle_gamma   44.63956310
_symmetry_Int_Tables_number   1
_chemical_formula_structural   Bi2Pd5
_chemical_formula_sum   'Bi4 Pd10'
_cell_volume   260.75149483
_cell_formula_units_Z   2
loop_
 _symmetry_equiv_pos_site_id
 _symmetry_equiv_pos_as_xyz
  1  'x, y, z'
loop_
 _atom_site_type_symbol
 _atom_site_label
 _atom_site_symmetry_multiplicity
 _atom_site_fract_x
 _atom_site_fract_y
 _atom_site_fract_z
 _atom_site_occupancy
  Bi  Bi0  1  0.40090500  0.40090500  0.90598800  1
  Bi  Bi1  1  0.59909500  0.59909500  0.09401200  1
  Bi  Bi2  1  0.13086700  0.13086700  0.64338000  1
  Bi  Bi3  1  0.86913300  0.86913300  0.35662000  1
  Pd  Pd4  1  0.47423100  0.97801900  0.23401900  1
  Pd  Pd5  1  0.02198100  0.52576900  0.76598100  1
  Pd  Pd6  1  0.52576900  0.02198100  0.76598100  1
  Pd  Pd7  1  0.97801900  0.47423100  0.23401900  1
  Pd  Pd8  1  0.25104500  0.74895500  0.50000000  1
  Pd  Pd9  1  0.74895500  0.25104500  0.50000000  1
  Pd  Pd10  1  0.90458400  0.90458400  0.91245800  1
  Pd  Pd11  1  0.09541600  0.09541600  0.08754200  1
  Pd  Pd12  1  0.63327600  0.63327600  0.63939200  1
  Pd  Pd13  1  0.36672400  0.36672400  0.36060800  1
