# generated using pymatgen
data_CaSnPd
_symmetry_space_group_name_H-M   'P 1'
_cell_length_a   4.63028000
_cell_length_b   7.38116100
_cell_length_c   8.13435700
_cell_angle_alpha   90.00000000
_cell_angle_beta   90.00000000
_cell_angle_gamma   90.00000000
_symmetry_Int_Tables_number   1
_chemical_formula_structural   CaSnPd
_chemical_formula_sum   'Ca4 Sn4 Pd4'
_cell_volume   278.00663522
_cell_formula_units_Z   4
loop_
 _symmetry_equiv_pos_site_id
 _symmetry_equiv_pos_as_xyz
  1  'x, y, z'
loop_
 _atom_site_type_symbol
 _atom_site_label
 _atom_site_symmetry_multiplicity
 _atom_site_fract_x
 _atom_site_fract_y
 _atom_site_fract_z
 _atom_site_occupancy
  Ca  Ca0  1  0.75000000  0.47981300  0.81397200  1
  Ca  Ca1  1  0.25000000  0.52018700  0.18602800  1
  Ca  Ca2  1  0.25000000  0.02018700  0.31397200  1
  Ca  Ca3  1  0.75000000  0.97981300  0.68602800  1
  Sn  Sn4  1  0.75000000  0.33459700  0.42919900  1
  Sn  Sn5  1  0.25000000  0.66540300  0.57080100  1
  Sn  Sn6  1  0.75000000  0.83459700  0.07080100  1
  Sn  Sn7  1  0.25000000  0.16540300  0.92919900  1
  Pd  Pd8  1  0.75000000  0.21248000  0.11067400  1
  Pd  Pd9  1  0.75000000  0.71248000  0.38932600  1
  Pd  Pd10  1  0.25000000  0.78752000  0.88932600  1
  Pd  Pd11  1  0.25000000  0.28752000  0.61067400  1
