# generated using pymatgen
data_Be2Cr
_symmetry_space_group_name_H-M   'P 1'
_cell_length_a   4.19881436
_cell_length_b   4.19881436
_cell_length_c   6.91091700
_cell_angle_alpha   90.00000000
_cell_angle_beta   90.00000000
_cell_angle_gamma   120.00000560
_symmetry_Int_Tables_number   1
_chemical_formula_structural   Be2Cr
_chemical_formula_sum   'Be8 Cr4'
_cell_volume   105.51631871
_cell_formula_units_Z   4
loop_
 _symmetry_equiv_pos_site_id
 _symmetry_equiv_pos_as_xyz
  1  'x, y, z'
loop_
 _atom_site_type_symbol
 _atom_site_label
 _atom_site_symmetry_multiplicity
 _atom_site_fract_x
 _atom_site_fract_y
 _atom_site_fract_z
 _atom_site_occupancy
  Be  Be0  1  0.17016200  0.34032300  0.75000000  1
  Be  Be1  1  0.17016200  0.82983800  0.75000000  1
  Be  Be2  1  0.34032300  0.17016200  0.25000000  1
  Be  Be3  1  0.82983800  0.65967700  0.25000000  1
  Be  Be4  1  0.00000000  0.00000000  0.00000000  1
  Be  Be5  1  0.65967700  0.82983800  0.75000000  1
  Be  Be6  1  0.82983800  0.17016200  0.25000000  1
  Be  Be7  1  0.00000000  0.00000000  0.50000000  1
  Cr  Cr8  1  0.33333300  0.66666700  0.43944400  1
  Cr  Cr9  1  0.66666700  0.33333300  0.93944400  1
  Cr  Cr10  1  0.33333300  0.66666700  0.06055600  1
  Cr  Cr11  1  0.66666700  0.33333300  0.56055600  1
