# generated using pymatgen
data_Cs2Mn3Se4
_symmetry_space_group_name_H-M   'P 1'
_cell_length_a   10.08965723
_cell_length_b   10.08965723
_cell_length_c   10.08965723
_cell_angle_alpha   143.42243166
_cell_angle_beta   105.34092610
_cell_angle_gamma   86.12311419
_symmetry_Int_Tables_number   1
_chemical_formula_structural   Cs2Mn3Se4
_chemical_formula_sum   'Cs4 Mn6 Se8'
_cell_volume   571.21714337
_cell_formula_units_Z   2
loop_
 _symmetry_equiv_pos_site_id
 _symmetry_equiv_pos_as_xyz
  1  'x, y, z'
loop_
 _atom_site_type_symbol
 _atom_site_label
 _atom_site_symmetry_multiplicity
 _atom_site_fract_x
 _atom_site_fract_y
 _atom_site_fract_z
 _atom_site_occupancy
  Cs  Cs0  1  0.12101200  0.23464600  0.35565800  1
  Cs  Cs1  1  0.37898800  0.73464600  0.11363400  1
  Cs  Cs2  1  0.62101200  0.26535400  0.88636600  1
  Cs  Cs3  1  0.87898800  0.76535400  0.64434200  1
  Mn  Mn4  1  0.52032000  0.75000000  0.77032000  1
  Mn  Mn5  1  0.97968000  0.75000000  0.22968000  1
  Mn  Mn6  1  0.47968000  0.25000000  0.22968000  1
  Mn  Mn7  1  0.75000000  0.25000000  0.50000000  1
  Mn  Mn8  1  0.25000000  0.75000000  0.50000000  1
  Mn  Mn9  1  0.02032000  0.25000000  0.77032000  1
  Se  Se10  1  0.21389900  0.06777000  0.58691800  1
  Se  Se11  1  0.28610100  0.87302000  0.85387100  1
  Se  Se12  1  0.01914900  0.43223000  0.14612900  1
  Se  Se13  1  0.48085100  0.62698000  0.41308200  1
  Se  Se14  1  0.78610100  0.93223000  0.41308200  1
  Se  Se15  1  0.71389900  0.12698000  0.14612900  1
  Se  Se16  1  0.98085100  0.56777000  0.85387100  1
  Se  Se17  1  0.51914900  0.37302000  0.58691800  1
