# generated using pymatgen
data_ScCd3
_symmetry_space_group_name_H-M   'P 1'
_cell_length_a   6.39917738
_cell_length_b   6.39917738
_cell_length_c   4.91142200
_cell_angle_alpha   90.00000000
_cell_angle_beta   90.00000000
_cell_angle_gamma   119.99999363
_symmetry_Int_Tables_number   1
_chemical_formula_structural   ScCd3
_chemical_formula_sum   'Sc2 Cd6'
_cell_volume   174.17515617
_cell_formula_units_Z   2
loop_
 _symmetry_equiv_pos_site_id
 _symmetry_equiv_pos_as_xyz
  1  'x, y, z'
loop_
 _atom_site_type_symbol
 _atom_site_label
 _atom_site_symmetry_multiplicity
 _atom_site_fract_x
 _atom_site_fract_y
 _atom_site_fract_z
 _atom_site_occupancy
  Sc  Sc0  1  0.33333300  0.66666700  0.25000000  1
  Sc  Sc1  1  0.66666700  0.33333300  0.75000000  1
  Cd  Cd2  1  0.83303400  0.66606800  0.25000000  1
  Cd  Cd3  1  0.16696600  0.83303400  0.75000000  1
  Cd  Cd4  1  0.66606800  0.83303400  0.75000000  1
  Cd  Cd5  1  0.33393200  0.16696600  0.25000000  1
  Cd  Cd6  1  0.83303400  0.16696600  0.25000000  1
  Cd  Cd7  1  0.16696600  0.33393200  0.75000000  1
