# generated using pymatgen
data_Ti2Pd3
_symmetry_space_group_name_H-M   'P 1'
_cell_length_a   7.55898851
_cell_length_b   7.55898851
_cell_length_c   4.62988000
_cell_angle_alpha   90.00000000
_cell_angle_beta   90.00000000
_cell_angle_gamma   143.40240091
_symmetry_Int_Tables_number   1
_chemical_formula_structural   Ti2Pd3
_chemical_formula_sum   'Ti4 Pd6'
_cell_volume   157.71851908
_cell_formula_units_Z   2
loop_
 _symmetry_equiv_pos_site_id
 _symmetry_equiv_pos_as_xyz
  1  'x, y, z'
loop_
 _atom_site_type_symbol
 _atom_site_label
 _atom_site_symmetry_multiplicity
 _atom_site_fract_x
 _atom_site_fract_y
 _atom_site_fract_z
 _atom_site_occupancy
  Ti  Ti0  1  0.11922600  0.33488700  0.25000000  1
  Ti  Ti1  1  0.88077400  0.66511300  0.75000000  1
  Ti  Ti2  1  0.33488700  0.11922600  0.25000000  1
  Ti  Ti3  1  0.66511300  0.88077400  0.75000000  1
  Pd  Pd4  1  0.48092200  0.09129800  0.75000000  1
  Pd  Pd5  1  0.51907800  0.90870200  0.25000000  1
  Pd  Pd6  1  0.90870200  0.51907800  0.25000000  1
  Pd  Pd7  1  0.09129800  0.48092200  0.75000000  1
  Pd  Pd8  1  0.70293900  0.70293900  0.25000000  1
  Pd  Pd9  1  0.29706100  0.29706100  0.75000000  1
