# generated using pymatgen
data_HoGaPd
_symmetry_space_group_name_H-M   'P 1'
_cell_length_a   4.48589400
_cell_length_b   6.90239500
_cell_length_c   7.63961800
_cell_angle_alpha   90.00000000
_cell_angle_beta   90.00000000
_cell_angle_gamma   90.00000000
_symmetry_Int_Tables_number   1
_chemical_formula_structural   HoGaPd
_chemical_formula_sum   'Ho4 Ga4 Pd4'
_cell_volume   236.54864207
_cell_formula_units_Z   4
loop_
 _symmetry_equiv_pos_site_id
 _symmetry_equiv_pos_as_xyz
  1  'x, y, z'
loop_
 _atom_site_type_symbol
 _atom_site_label
 _atom_site_symmetry_multiplicity
 _atom_site_fract_x
 _atom_site_fract_y
 _atom_site_fract_z
 _atom_site_occupancy
  Ho  Ho0  1  0.25000000  0.01550500  0.79924100  1
  Ho  Ho1  1  0.25000000  0.51550500  0.70075900  1
  Ho  Ho2  1  0.75000000  0.98449500  0.20075900  1
  Ho  Ho3  1  0.75000000  0.48449500  0.29924100  1
  Ga  Ga4  1  0.25000000  0.18282300  0.42154100  1
  Ga  Ga5  1  0.25000000  0.68282300  0.07845900  1
  Ga  Ga6  1  0.75000000  0.81717700  0.57845900  1
  Ga  Ga7  1  0.75000000  0.31717700  0.92154100  1
  Pd  Pd8  1  0.25000000  0.78495400  0.40754300  1
  Pd  Pd9  1  0.25000000  0.28495400  0.09245700  1
  Pd  Pd10  1  0.75000000  0.21504600  0.59245700  1
  Pd  Pd11  1  0.75000000  0.71504600  0.90754300  1
