# generated using pymatgen
data_Ca7Ni4Sn13
_symmetry_space_group_name_H-M   'P 1'
_cell_length_a   11.31080800
_cell_length_b   11.31080800
_cell_length_c   4.64714200
_cell_angle_alpha   90.00000000
_cell_angle_beta   90.00000000
_cell_angle_gamma   90.00000000
_symmetry_Int_Tables_number   1
_chemical_formula_structural   Ca7Ni4Sn13
_chemical_formula_sum   'Ca7 Ni4 Sn13'
_cell_volume   594.52921945
_cell_formula_units_Z   1
loop_
 _symmetry_equiv_pos_site_id
 _symmetry_equiv_pos_as_xyz
  1  'x, y, z'
loop_
 _atom_site_type_symbol
 _atom_site_label
 _atom_site_symmetry_multiplicity
 _atom_site_fract_x
 _atom_site_fract_y
 _atom_site_fract_z
 _atom_site_occupancy
  Ca  Ca0  1  0.83701400  0.17052500  0.00000000  1
  Ca  Ca1  1  0.82947500  0.83701400  0.00000000  1
  Ca  Ca2  1  0.16298600  0.82947500  0.00000000  1
  Ca  Ca3  1  0.17052500  0.16298600  0.00000000  1
  Ca  Ca4  1  0.50000000  0.50000000  0.50000000  1
  Ca  Ca5  1  0.00000000  0.50000000  0.00000000  1
  Ca  Ca6  1  0.50000000  0.00000000  0.00000000  1
  Ni  Ni7  1  0.77573400  0.61905300  0.50000000  1
  Ni  Ni8  1  0.38094700  0.77573400  0.50000000  1
  Ni  Ni9  1  0.61905300  0.22426600  0.50000000  1
  Ni  Ni10  1  0.22426600  0.38094700  0.50000000  1
  Sn  Sn11  1  0.01816300  0.28546600  0.50000000  1
  Sn  Sn12  1  0.98183700  0.71453400  0.50000000  1
  Sn  Sn13  1  0.21695000  0.61062300  0.50000000  1
  Sn  Sn14  1  0.57570900  0.30909300  0.00000000  1
  Sn  Sn15  1  0.69090700  0.57570900  0.00000000  1
  Sn  Sn16  1  0.78305000  0.38937700  0.50000000  1
  Sn  Sn17  1  0.71453400  0.01816300  0.50000000  1
  Sn  Sn18  1  0.00000000  0.00000000  0.50000000  1
  Sn  Sn19  1  0.28546600  0.98183700  0.50000000  1
  Sn  Sn20  1  0.42429100  0.69090700  0.00000000  1
  Sn  Sn21  1  0.61062300  0.78305000  0.50000000  1
  Sn  Sn22  1  0.30909300  0.42429100  0.00000000  1
  Sn  Sn23  1  0.38937700  0.21695000  0.50000000  1
