# generated using pymatgen
data_Dy6Se11
_symmetry_space_group_name_H-M   'P 1'
_cell_length_a   11.58043500
_cell_length_b   11.62528594
_cell_length_c   12.07541640
_cell_angle_alpha   89.90231927
_cell_angle_beta   89.81079962
_cell_angle_gamma   88.26592138
_symmetry_Int_Tables_number   1
_chemical_formula_structural   Dy6Se11
_chemical_formula_sum   'Dy24 Se44'
_cell_volume   1624.90797083
_cell_formula_units_Z   4
loop_
 _symmetry_equiv_pos_site_id
 _symmetry_equiv_pos_as_xyz
  1  'x, y, z'
loop_
 _atom_site_type_symbol
 _atom_site_label
 _atom_site_symmetry_multiplicity
 _atom_site_fract_x
 _atom_site_fract_y
 _atom_site_fract_z
 _atom_site_occupancy
  Dy  Dy0  1  0.00640600  0.75034200  0.49925500  1
  Dy  Dy1  1  0.13867700  0.13899100  0.33346300  1
  Dy  Dy2  1  0.13988200  0.13791800  0.66368000  1
  Dy  Dy3  1  0.15493500  0.15592100  0.00069200  1
  Dy  Dy4  1  0.23923000  0.48661500  0.50015300  1
  Dy  Dy5  1  0.24589900  0.50238500  0.16999000  1
  Dy  Dy6  1  0.25406800  0.50099300  0.82953500  1
  Dy  Dy7  1  0.38717300  0.88073800  0.66742200  1
  Dy  Dy8  1  0.38560300  0.88015500  0.33145100  1
  Dy  Dy9  1  0.38680300  0.89348700  0.00076300  1
  Dy  Dy10  1  0.48332900  0.22463500  0.49587500  1
  Dy  Dy11  1  0.49566700  0.24178000  0.83506000  1
  Dy  Dy12  1  0.50216100  0.24725500  0.17195800  1
  Dy  Dy13  1  0.62543000  0.62756300  0.99903000  1
  Dy  Dy14  1  0.65121100  0.65775100  0.67119900  1
  Dy  Dy15  1  0.64745200  0.64556400  0.33490900  1
  Dy  Dy16  1  0.74934500  0.00801100  0.49903800  1
  Dy  Dy17  1  0.74005300  0.98692700  0.16279200  1
  Dy  Dy18  1  0.73987900  0.99141700  0.83671800  1
  Dy  Dy19  1  0.89358400  0.39016000  0.66781800  1
  Dy  Dy20  1  0.87981800  0.38421500  0.33649500  1
  Dy  Dy21  1  0.89191900  0.38715900  0.99999200  1
  Dy  Dy22  1  0.98976700  0.73863600  0.83710200  1
  Dy  Dy23  1  0.98675600  0.73762600  0.16259300  1
  Se  Se24  1  0.00406500  0.00630200  0.49697400  1
  Se  Se25  1  0.05925800  0.31096000  0.49964800  1
  Se  Se26  1  0.06680400  0.31450700  0.16705400  1
  Se  Se27  1  0.07048300  0.31402100  0.83278100  1
  Se  Se28  1  0.06935500  0.56823100  0.99934000  1
  Se  Se29  1  0.07287000  0.56940800  0.66751300  1
  Se  Se30  1  0.06632500  0.56737700  0.33427700  1
  Se  Se31  1  0.06650900  0.91798100  0.99818400  1
  Se  Se32  1  0.12274700  0.88508000  0.30498700  1
  Se  Se33  1  0.12559900  0.88392100  0.69117200  1
  Se  Se34  1  0.24418000  0.76731400  0.83818500  1
  Se  Se35  1  0.23828500  0.77148000  0.16006100  1
  Se  Se36  1  0.27004200  0.73675900  0.50137400  1
  Se  Se37  1  0.30886200  0.05244800  0.49880200  1
  Se  Se38  1  0.31462700  0.06820800  0.16641100  1
  Se  Se39  1  0.31230400  0.06631000  0.83394000  1
  Se  Se40  1  0.31834000  0.31681400  0.33534400  1
  Se  Se41  1  0.32452400  0.31560800  0.66237400  1
  Se  Se42  1  0.32938900  0.32968500  0.00113900  1
  Se  Se43  1  0.36860200  0.63996100  0.99726500  1
  Se  Se44  1  0.40587700  0.60150900  0.65133600  1
  Se  Se45  1  0.39137100  0.61602700  0.34866800  1
  Se  Se46  1  0.52220200  0.48918500  0.79524200  1
  Se  Se47  1  0.50536300  0.50250400  0.18987600  1
  Se  Se48  1  0.56674700  0.06759400  0.66872800  1
  Se  Se49  1  0.56862500  0.06514300  0.33152400  1
  Se  Se50  1  0.56941800  0.06907700  0.00130100  1
  Se  Se51  1  0.55978700  0.81378200  0.83501800  1
  Se  Se52  1  0.55968700  0.81050300  0.16646300  1
  Se  Se53  1  0.57022300  0.81764800  0.50028100  1
  Se  Se54  1  0.61906900  0.39000900  0.37095000  1
  Se  Se55  1  0.63550800  0.37204200  0.99706600  1
  Se  Se56  1  0.72555500  0.27979200  0.52157700  1
  Se  Se57  1  0.76115000  0.25033800  0.82921800  1
  Se  Se58  1  0.76702400  0.24162200  0.16271100  1
  Se  Se59  1  0.81333000  0.55950400  0.83200300  1
  Se  Se60  1  0.81089200  0.55749800  0.16791300  1
  Se  Se61  1  0.80403400  0.80377700  0.99957600  1
  Se  Se62  1  0.81425800  0.56846800  0.50541300  1
  Se  Se63  1  0.82716200  0.82937900  0.66980300  1
  Se  Se64  1  0.82395900  0.82376900  0.33177100  1
  Se  Se65  1  0.87972600  0.13056700  0.68600800  1
  Se  Se66  1  0.88143400  0.12650300  0.31026000  1
  Se  Se67  1  0.91408400  0.07064700  0.99928200  1
