# generated using pymatgen
data_Er2MoO6
_symmetry_space_group_name_H-M   'P 1'
_cell_length_a   9.88628968
_cell_length_b   9.88628968
_cell_length_c   5.35699371
_cell_angle_alpha   74.92655899
_cell_angle_beta   74.92655899
_cell_angle_gamma   67.92527243
_symmetry_Int_Tables_number   1
_chemical_formula_structural   Er2MoO6
_chemical_formula_sum   'Er8 Mo4 O24'
_cell_volume   460.73639075
_cell_formula_units_Z   4
loop_
 _symmetry_equiv_pos_site_id
 _symmetry_equiv_pos_as_xyz
  1  'x, y, z'
loop_
 _atom_site_type_symbol
 _atom_site_label
 _atom_site_symmetry_multiplicity
 _atom_site_fract_x
 _atom_site_fract_y
 _atom_site_fract_z
 _atom_site_occupancy
  Er  Er0  1  0.21715700  0.44845400  0.87731500  1
  Er  Er1  1  0.44845400  0.21715700  0.37731500  1
  Er  Er2  1  0.78284300  0.55154600  0.12268500  1
  Er  Er3  1  0.55154600  0.78284300  0.62268500  1
  Er  Er4  1  0.86292000  0.13708000  0.25000000  1
  Er  Er5  1  0.13708000  0.86292000  0.75000000  1
  Er  Er6  1  0.39417600  0.60582400  0.25000000  1
  Er  Er7  1  0.60582400  0.39417600  0.75000000  1
  Mo  Mo8  1  0.98726700  0.70431900  0.43906000  1
  Mo  Mo9  1  0.29568100  0.01273300  0.06094000  1
  Mo  Mo10  1  0.01273300  0.29568100  0.56094000  1
  Mo  Mo11  1  0.70431900  0.98726700  0.93906000  1
  O  O12  1  0.42758200  0.39025800  0.57807400  1
  O  O13  1  0.60974200  0.57241800  0.92192600  1
  O  O14  1  0.57241800  0.60974200  0.42192600  1
  O  O15  1  0.39025800  0.42758200  0.07807400  1
  O  O16  1  0.19397600  0.66253200  0.58175000  1
  O  O17  1  0.33746800  0.80602400  0.91825000  1
  O  O18  1  0.80602400  0.33746800  0.41825000  1
  O  O19  1  0.66253200  0.19397600  0.08175000  1
  O  O20  1  0.11579500  0.67385200  0.12544900  1
  O  O21  1  0.32614800  0.88420500  0.37455100  1
  O  O22  1  0.88420500  0.32614800  0.87455100  1
  O  O23  1  0.67385200  0.11579500  0.62544900  1
  O  O24  1  0.71066100  0.81439200  0.86339900  1
  O  O25  1  0.18560800  0.28933900  0.63660100  1
  O  O26  1  0.28933900  0.18560800  0.13660100  1
  O  O27  1  0.81439200  0.71066100  0.36339900  1
  O  O28  1  0.89098000  0.95110200  0.98633400  1
  O  O29  1  0.04889800  0.10902000  0.51366600  1
  O  O30  1  0.97556600  0.56731400  0.74725700  1
  O  O31  1  0.95110200  0.89098000  0.48633400  1
  O  O32  1  0.56731400  0.97556600  0.24725700  1
  O  O33  1  0.02443400  0.43268600  0.25274300  1
  O  O34  1  0.43268600  0.02443400  0.75274300  1
  O  O35  1  0.10902000  0.04889800  0.01366600  1
