# generated using pymatgen
data_EuTl2Pd
_symmetry_space_group_name_H-M   'P 1'
_cell_length_a   5.96874418
_cell_length_b   5.96874418
_cell_length_c   8.56056200
_cell_angle_alpha   90.00000000
_cell_angle_beta   90.00000000
_cell_angle_gamma   137.24179803
_symmetry_Int_Tables_number   1
_chemical_formula_structural   EuTl2Pd
_chemical_formula_sum   'Eu2 Tl4 Pd2'
_cell_volume   207.05120570
_cell_formula_units_Z   2
loop_
 _symmetry_equiv_pos_site_id
 _symmetry_equiv_pos_as_xyz
  1  'x, y, z'
loop_
 _atom_site_type_symbol
 _atom_site_label
 _atom_site_symmetry_multiplicity
 _atom_site_fract_x
 _atom_site_fract_y
 _atom_site_fract_z
 _atom_site_occupancy
  Eu  Eu0  1  0.56569300  0.43430700  0.25000000  1
  Eu  Eu1  1  0.43430700  0.56569300  0.75000000  1
  Tl  Tl2  1  0.14321500  0.85678500  0.54892000  1
  Tl  Tl3  1  0.85678500  0.14321500  0.04892000  1
  Tl  Tl4  1  0.85678500  0.14321500  0.45108000  1
  Tl  Tl5  1  0.14321500  0.85678500  0.95108000  1
  Pd  Pd6  1  0.27783400  0.72216600  0.25000000  1
  Pd  Pd7  1  0.72216600  0.27783400  0.75000000  1
