# generated using pymatgen
data_HoAu3
_symmetry_space_group_name_H-M   'P 1'
_cell_length_a   5.04395900
_cell_length_b   5.16822500
_cell_length_c   6.17586100
_cell_angle_alpha   90.00000000
_cell_angle_beta   90.00000000
_cell_angle_gamma   90.00000000
_symmetry_Int_Tables_number   1
_chemical_formula_structural   HoAu3
_chemical_formula_sum   'Ho2 Au6'
_cell_volume   160.99428996
_cell_formula_units_Z   2
loop_
 _symmetry_equiv_pos_site_id
 _symmetry_equiv_pos_as_xyz
  1  'x, y, z'
loop_
 _atom_site_type_symbol
 _atom_site_label
 _atom_site_symmetry_multiplicity
 _atom_site_fract_x
 _atom_site_fract_y
 _atom_site_fract_z
 _atom_site_occupancy
  Ho  Ho0  1  0.50000000  0.65561900  0.50000000  1
  Ho  Ho1  1  0.00000000  0.34438100  0.00000000  1
  Au  Au2  1  0.00000000  0.83895200  0.25577700  1
  Au  Au3  1  0.50000000  0.16104800  0.24422300  1
  Au  Au4  1  0.00000000  0.83895200  0.74422300  1
  Au  Au5  1  0.50000000  0.16104800  0.75577700  1
  Au  Au6  1  0.00000000  0.33509500  0.50000000  1
  Au  Au7  1  0.50000000  0.66490500  0.00000000  1
