# generated using pymatgen
data_KNO2
_symmetry_space_group_name_H-M   'P 1'
_cell_length_a   4.67279140
_cell_length_b   4.67279140
_cell_length_c   4.27491309
_cell_angle_alpha   66.33486346
_cell_angle_beta   66.33486346
_cell_angle_gamma   75.69475784
_symmetry_Int_Tables_number   1
_chemical_formula_structural   KNO2
_chemical_formula_sum   'K1 N1 O2'
_cell_volume   77.89149364
_cell_formula_units_Z   1
loop_
 _symmetry_equiv_pos_site_id
 _symmetry_equiv_pos_as_xyz
  1  'x, y, z'
loop_
 _atom_site_type_symbol
 _atom_site_label
 _atom_site_symmetry_multiplicity
 _atom_site_fract_x
 _atom_site_fract_y
 _atom_site_fract_z
 _atom_site_occupancy
  K  K0  1  0.98343700  0.98343700  0.02231600  1
  N  N1  1  0.50997700  0.50997700  0.46084700  1
  O  O2  1  0.21855600  0.59403000  0.59241800  1
  O  O3  1  0.59403000  0.21855600  0.59241800  1
