# generated using pymatgen
data_Sr5Mo2N7
_symmetry_space_group_name_H-M   'P 1'
_cell_length_a   6.49647300
_cell_length_b   9.33208072
_cell_length_c   9.37964478
_cell_angle_alpha   115.21304300
_cell_angle_beta   96.68453739
_cell_angle_gamma   89.30846131
_symmetry_Int_Tables_number   1
_chemical_formula_structural   Sr5Mo2N7
_chemical_formula_sum   'Sr10 Mo4 N14'
_cell_volume   510.52890776
_cell_formula_units_Z   2
loop_
 _symmetry_equiv_pos_site_id
 _symmetry_equiv_pos_as_xyz
  1  'x, y, z'
loop_
 _atom_site_type_symbol
 _atom_site_label
 _atom_site_symmetry_multiplicity
 _atom_site_fract_x
 _atom_site_fract_y
 _atom_site_fract_z
 _atom_site_occupancy
  Sr  Sr0  1  0.84722100  0.59056500  0.32532500  1
  Sr  Sr1  1  0.26216800  0.98710400  0.55816300  1
  Sr  Sr2  1  0.70521400  0.41667600  0.85293400  1
  Sr  Sr3  1  0.29478600  0.58332400  0.14706600  1
  Sr  Sr4  1  0.40519300  0.79139500  0.92289700  1
  Sr  Sr5  1  0.59480700  0.20860500  0.07710300  1
  Sr  Sr6  1  0.15277900  0.40943500  0.67467500  1
  Sr  Sr7  1  0.89682700  0.84580400  0.76210900  1
  Sr  Sr8  1  0.10317300  0.15419600  0.23789100  1
  Sr  Sr9  1  0.73783200  0.01289600  0.44183700  1
  Mo  Mo10  1  0.57852000  0.35613400  0.47475300  1
  Mo  Mo11  1  0.42148000  0.64386600  0.52524700  1
  Mo  Mo12  1  0.11992400  0.21508600  0.91344800  1
  Mo  Mo13  1  0.88007600  0.78491400  0.08655200  1
  N  N14  1  0.53256600  0.55154200  0.67657700  1
  N  N15  1  0.46743400  0.44845800  0.32342300  1
  N  N16  1  0.15135300  0.70190600  0.55224100  1
  N  N17  1  0.84864700  0.29809400  0.44775900  1
  N  N18  1  0.41143400  0.19073400  0.46444800  1
  N  N19  1  0.58856600  0.80926600  0.53555200  1
  N  N20  1  0.95212000  0.13549700  0.71568200  1
  N  N21  1  0.04788000  0.86450300  0.28431800  1
  N  N22  1  0.23155200  0.05083500  0.95958300  1
  N  N23  1  0.76844800  0.94916500  0.04041700  1
  N  N24  1  0.35119000  0.32784900  0.90000200  1
  N  N25  1  0.96528600  0.34632200  0.07785900  1
  N  N26  1  0.03471400  0.65367800  0.92214100  1
  N  N27  1  0.64881000  0.67215100  0.09999800  1
