# generated using pymatgen
data_Mg2PtO4
_symmetry_space_group_name_H-M   'P 1'
_cell_length_a   6.10682575
_cell_length_b   6.10682575
_cell_length_c   6.10682575
_cell_angle_alpha   121.13834107
_cell_angle_beta   118.92629697
_cell_angle_gamma   89.95471620
_symmetry_Int_Tables_number   1
_chemical_formula_structural   Mg2PtO4
_chemical_formula_sum   'Mg4 Pt2 O8'
_cell_volume   160.88541659
_cell_formula_units_Z   2
loop_
 _symmetry_equiv_pos_site_id
 _symmetry_equiv_pos_as_xyz
  1  'x, y, z'
loop_
 _atom_site_type_symbol
 _atom_site_label
 _atom_site_symmetry_multiplicity
 _atom_site_fract_x
 _atom_site_fract_y
 _atom_site_fract_z
 _atom_site_occupancy
  Mg  Mg0  1  0.60645000  0.85645000  0.75000000  1
  Mg  Mg1  1  0.39355000  0.14355000  0.25000000  1
  Mg  Mg2  1  0.00000000  0.00000000  0.50000000  1
  Mg  Mg3  1  0.00000000  0.50000000  0.00000000  1
  Pt  Pt4  1  0.50000000  0.50000000  0.00000000  1
  Pt  Pt5  1  0.00000000  0.50000000  0.50000000  1
  O  O6  1  0.24730400  0.27114000  0.52383600  1
  O  O7  1  0.24730400  0.72346900  0.97616400  1
  O  O8  1  0.24180100  0.26210100  0.97970000  1
  O  O9  1  0.78240000  0.26210100  0.52030000  1
  O  O10  1  0.21760000  0.73789900  0.47970000  1
  O  O11  1  0.75269600  0.27653100  0.02383600  1
  O  O12  1  0.75819900  0.73789900  0.02030000  1
  O  O13  1  0.75269600  0.72886000  0.47616400  1
