# generated using pymatgen
data_Tb4Se3N2
_symmetry_space_group_name_H-M   'P 1'
_cell_length_a   6.98603968
_cell_length_b   6.98603968
_cell_length_c   10.37061908
_cell_angle_alpha   52.16850353
_cell_angle_beta   52.16850353
_cell_angle_gamma   32.86833852
_symmetry_Int_Tables_number   1
_chemical_formula_structural   Tb4Se3N2
_chemical_formula_sum   'Tb4 Se3 N2'
_cell_volume   211.18303530
_cell_formula_units_Z   1
loop_
 _symmetry_equiv_pos_site_id
 _symmetry_equiv_pos_as_xyz
  1  'x, y, z'
loop_
 _atom_site_type_symbol
 _atom_site_label
 _atom_site_symmetry_multiplicity
 _atom_site_fract_x
 _atom_site_fract_y
 _atom_site_fract_z
 _atom_site_occupancy
  Tb  Tb0  1  0.44225300  0.44225300  0.84898300  1
  Tb  Tb1  1  0.55774700  0.55774700  0.15101700  1
  Tb  Tb2  1  0.75594900  0.75594900  0.36063000  1
  Tb  Tb3  1  0.24405100  0.24405100  0.63937000  1
  Se  Se4  1  0.83477300  0.83477300  0.77186200  1
  Se  Se5  1  0.00000000  0.00000000  0.00000000  1
  Se  Se6  1  0.16522700  0.16522700  0.22813800  1
  N  N7  1  0.35115300  0.35115300  0.36223300  1
  N  N8  1  0.64884700  0.64884700  0.63776800  1
