# generated using pymatgen
data_NpIO5
_symmetry_space_group_name_H-M   'P 1'
_cell_length_a   5.65009400
_cell_length_b   6.04436300
_cell_length_c   14.00002500
_cell_angle_alpha   90.00000000
_cell_angle_beta   90.00000000
_cell_angle_gamma   90.00000000
_symmetry_Int_Tables_number   1
_chemical_formula_structural   NpIO5
_chemical_formula_sum   'Np4 I4 O20'
_cell_volume   478.11792146
_cell_formula_units_Z   4
loop_
 _symmetry_equiv_pos_site_id
 _symmetry_equiv_pos_as_xyz
  1  'x, y, z'
loop_
 _atom_site_type_symbol
 _atom_site_label
 _atom_site_symmetry_multiplicity
 _atom_site_fract_x
 _atom_site_fract_y
 _atom_site_fract_z
 _atom_site_occupancy
  Np  Np0  1  0.40307000  0.75218300  0.97107500  1
  Np  Np1  1  0.90307000  0.24781700  0.02892500  1
  Np  Np2  1  0.40307000  0.74781700  0.47107500  1
  Np  Np3  1  0.90307000  0.25218300  0.52892500  1
  I  I4  1  0.39914800  0.50873100  0.21716500  1
  I  I5  1  0.89914800  0.49126900  0.78283500  1
  I  I6  1  0.39914800  0.99126900  0.71716500  1
  I  I7  1  0.89914800  0.00873100  0.28283500  1
  O  O8  1  0.60007900  0.99654500  0.98927800  1
  O  O9  1  0.10007900  0.00345500  0.01072200  1
  O  O10  1  0.60007900  0.50345500  0.48927800  1
  O  O11  1  0.10007900  0.49654500  0.51072200  1
  O  O12  1  0.18988500  0.50977200  0.95509200  1
  O  O13  1  0.68988500  0.49022800  0.04490800  1
  O  O14  1  0.18988500  0.99022800  0.45509200  1
  O  O15  1  0.68988500  0.00977200  0.54490800  1
  O  O16  1  0.82603000  0.24215300  0.36024300  1
  O  O17  1  0.32603000  0.75784700  0.63975700  1
  O  O18  1  0.82603000  0.25784700  0.86024300  1
  O  O19  1  0.32603000  0.74215300  0.13975700  1
  O  O20  1  0.74138800  0.10459100  0.17604500  1
  O  O21  1  0.24138800  0.89540900  0.82395500  1
  O  O22  1  0.74138800  0.39540900  0.67604500  1
  O  O23  1  0.24138800  0.60459100  0.32395500  1
  O  O24  1  0.67750900  0.81066700  0.32587400  1
  O  O25  1  0.17750900  0.18933300  0.67412600  1
  O  O26  1  0.67750900  0.68933300  0.82587400  1
  O  O27  1  0.17750900  0.31066700  0.17412600  1
