# generated using pymatgen
data_Mg2Zn11
_symmetry_space_group_name_H-M   'P 1'
_cell_length_a   8.55051800
_cell_length_b   8.55051800
_cell_length_c   8.55051800
_cell_angle_alpha   90.00000000
_cell_angle_beta   90.00000000
_cell_angle_gamma   90.00000000
_symmetry_Int_Tables_number   1
_chemical_formula_structural   Mg2Zn11
_chemical_formula_sum   'Mg6 Zn33'
_cell_volume   625.13998317
_cell_formula_units_Z   3
loop_
 _symmetry_equiv_pos_site_id
 _symmetry_equiv_pos_as_xyz
  1  'x, y, z'
loop_
 _atom_site_type_symbol
 _atom_site_label
 _atom_site_symmetry_multiplicity
 _atom_site_fract_x
 _atom_site_fract_y
 _atom_site_fract_z
 _atom_site_occupancy
  Mg  Mg0  1  0.30247000  0.00000000  0.50000000  1
  Mg  Mg1  1  0.50000000  0.30247000  0.00000000  1
  Mg  Mg2  1  0.00000000  0.50000000  0.30247000  1
  Mg  Mg3  1  0.50000000  0.69753000  0.00000000  1
  Mg  Mg4  1  0.00000000  0.50000000  0.69753000  1
  Mg  Mg5  1  0.69753000  0.00000000  0.50000000  1
  Zn  Zn6  1  0.50000000  0.50000000  0.50000000  1
  Zn  Zn7  1  0.22996300  0.00000000  0.00000000  1
  Zn  Zn8  1  0.00000000  0.22996300  0.00000000  1
  Zn  Zn9  1  0.00000000  0.00000000  0.22996300  1
  Zn  Zn10  1  0.00000000  0.77003700  0.00000000  1
  Zn  Zn11  1  0.00000000  0.00000000  0.77003700  1
  Zn  Zn12  1  0.77003700  0.00000000  0.00000000  1
  Zn  Zn13  1  0.15983700  0.50000000  0.00000000  1
  Zn  Zn14  1  0.00000000  0.15983700  0.50000000  1
  Zn  Zn15  1  0.50000000  0.00000000  0.15983700  1
  Zn  Zn16  1  0.00000000  0.84016300  0.50000000  1
  Zn  Zn17  1  0.50000000  0.00000000  0.84016300  1
  Zn  Zn18  1  0.84016300  0.50000000  0.00000000  1
  Zn  Zn19  1  0.21820500  0.21820500  0.21820500  1
  Zn  Zn20  1  0.78179500  0.78179500  0.21820500  1
  Zn  Zn21  1  0.21820500  0.78179500  0.78179500  1
  Zn  Zn22  1  0.78179500  0.21820500  0.78179500  1
  Zn  Zn23  1  0.78179500  0.78179500  0.78179500  1
  Zn  Zn24  1  0.21820500  0.21820500  0.78179500  1
  Zn  Zn25  1  0.78179500  0.21820500  0.21820500  1
  Zn  Zn26  1  0.21820500  0.78179500  0.21820500  1
  Zn  Zn27  1  0.50000000  0.23525200  0.34176500  1
  Zn  Zn28  1  0.34176500  0.50000000  0.23525200  1
  Zn  Zn29  1  0.23525200  0.34176500  0.50000000  1
  Zn  Zn30  1  0.76474800  0.65823500  0.50000000  1
  Zn  Zn31  1  0.34176500  0.50000000  0.76474800  1
  Zn  Zn32  1  0.76474800  0.34176500  0.50000000  1
  Zn  Zn33  1  0.65823500  0.50000000  0.23525200  1
  Zn  Zn34  1  0.65823500  0.50000000  0.76474800  1
  Zn  Zn35  1  0.23525200  0.65823500  0.50000000  1
  Zn  Zn36  1  0.50000000  0.76474800  0.65823500  1
  Zn  Zn37  1  0.50000000  0.23525200  0.65823500  1
  Zn  Zn38  1  0.50000000  0.76474800  0.34176500  1
