# generated using pymatgen
data_KTaS5
_symmetry_space_group_name_H-M   'P 1'
_cell_length_a   6.49719000
_cell_length_b   15.59276400
_cell_length_c   15.93272556
_cell_angle_alpha   59.65892447
_cell_angle_beta   90.00000000
_cell_angle_gamma   90.00000000
_symmetry_Int_Tables_number   1
_chemical_formula_structural   KTaS5
_chemical_formula_sum   'K8 Ta8 S40'
_cell_volume   1393.04924285
_cell_formula_units_Z   8
loop_
 _symmetry_equiv_pos_site_id
 _symmetry_equiv_pos_as_xyz
  1  'x, y, z'
loop_
 _atom_site_type_symbol
 _atom_site_label
 _atom_site_symmetry_multiplicity
 _atom_site_fract_x
 _atom_site_fract_y
 _atom_site_fract_z
 _atom_site_occupancy
  K  K0  1  0.64201300  0.15188200  0.43257300  1
  K  K1  1  0.14201300  0.84811800  0.06742700  1
  K  K2  1  0.35798700  0.84811800  0.56742700  1
  K  K3  1  0.85798700  0.15188200  0.93257300  1
  K  K4  1  0.14591700  0.35011400  0.58551900  1
  K  K5  1  0.64591700  0.64988600  0.91448100  1
  K  K6  1  0.85408300  0.64988600  0.41448100  1
  K  K7  1  0.35408300  0.35011400  0.08551900  1
  Ta  Ta8  1  0.05387500  0.46466400  0.24407200  1
  Ta  Ta9  1  0.55387500  0.53533600  0.25592800  1
  Ta  Ta10  1  0.94612500  0.53533600  0.75592800  1
  Ta  Ta11  1  0.44612500  0.46466400  0.74407200  1
  Ta  Ta12  1  0.91816200  0.03437900  0.70938300  1
  Ta  Ta13  1  0.41816200  0.96562100  0.79061700  1
  Ta  Ta14  1  0.08183800  0.96562100  0.29061700  1
  Ta  Ta15  1  0.58183800  0.03437900  0.20938300  1
  S  S16  1  0.20299000  0.29760600  0.30928700  1
  S  S17  1  0.70299000  0.70239400  0.19071300  1
  S  S18  1  0.79701000  0.70239400  0.69071300  1
  S  S19  1  0.29701000  0.29760600  0.80928700  1
  S  S20  1  0.08254800  0.05097900  0.55861600  1
  S  S21  1  0.58254800  0.94902100  0.94138400  1
  S  S22  1  0.91745200  0.94902100  0.44138400  1
  S  S23  1  0.41745200  0.05097900  0.05861600  1
  S  S24  1  0.89286200  0.44833300  0.10896000  1
  S  S25  1  0.39286200  0.55166700  0.39104000  1
  S  S26  1  0.10713800  0.55166700  0.89104000  1
  S  S27  1  0.60713800  0.44833300  0.60896000  1
  S  S28  1  0.76295500  0.20100000  0.60780200  1
  S  S29  1  0.26295500  0.79900000  0.89219800  1
  S  S30  1  0.23704500  0.79900000  0.39219800  1
  S  S31  1  0.73704500  0.20100000  0.10780200  1
  S  S32  1  0.24655600  0.10871900  0.12851800  1
  S  S33  1  0.74655600  0.89128100  0.37148200  1
  S  S34  1  0.75344400  0.89128100  0.87148200  1
  S  S35  1  0.25344400  0.10871900  0.62851800  1
  S  S36  1  0.86572700  0.95905400  0.16452700  1
  S  S37  1  0.36572700  0.04094600  0.33547300  1
  S  S38  1  0.13427300  0.04094600  0.83547300  1
  S  S39  1  0.63427300  0.95905400  0.66452700  1
  S  S40  1  0.66355300  0.45843000  0.87581800  1
  S  S41  1  0.16355300  0.54157000  0.62418200  1
  S  S42  1  0.33644700  0.54157000  0.12418200  1
  S  S43  1  0.83644700  0.45843000  0.37581800  1
  S  S44  1  0.28225800  0.60768500  0.76526900  1
  S  S45  1  0.78225800  0.39231500  0.73473100  1
  S  S46  1  0.71774200  0.39231500  0.23473100  1
  S  S47  1  0.21774200  0.60768500  0.26526900  1
  S  S48  1  0.35327900  0.87647700  0.25070400  1
  S  S49  1  0.85327900  0.12352300  0.24929600  1
  S  S50  1  0.64672100  0.12352300  0.74929600  1
  S  S51  1  0.14672100  0.87647700  0.75070400  1
  S  S52  1  0.17445900  0.37665200  0.87179500  1
  S  S53  1  0.67445900  0.62334800  0.62820500  1
  S  S54  1  0.82554100  0.62334800  0.12820500  1
  S  S55  1  0.32554100  0.37665200  0.37179500  1
