# generated using pymatgen
data_BaSO4
_symmetry_space_group_name_H-M   'P 1'
_cell_length_a   5.55696100
_cell_length_b   7.27706900
_cell_length_c   9.01825900
_cell_angle_alpha   90.00000000
_cell_angle_beta   90.00000000
_cell_angle_gamma   90.00000000
_symmetry_Int_Tables_number   1
_chemical_formula_structural   BaSO4
_chemical_formula_sum   'Ba4 S4 O16'
_cell_volume   364.68386218
_cell_formula_units_Z   4
loop_
 _symmetry_equiv_pos_site_id
 _symmetry_equiv_pos_as_xyz
  1  'x, y, z'
loop_
 _atom_site_type_symbol
 _atom_site_label
 _atom_site_symmetry_multiplicity
 _atom_site_fract_x
 _atom_site_fract_y
 _atom_site_fract_z
 _atom_site_occupancy
  Ba  Ba0  1  0.25000000  0.84339000  0.68573800  1
  Ba  Ba1  1  0.75000000  0.15661000  0.31426200  1
  Ba  Ba2  1  0.75000000  0.34339000  0.81426200  1
  Ba  Ba3  1  0.25000000  0.65661000  0.18573800  1
  S  S4  1  0.25000000  0.30964200  0.56171400  1
  S  S5  1  0.75000000  0.69035800  0.43828600  1
  S  S6  1  0.75000000  0.80964200  0.93828600  1
  S  S7  1  0.25000000  0.19035800  0.06171400  1
  O  O8  1  0.53125600  0.81033300  0.41996000  1
  O  O9  1  0.03125600  0.18966700  0.58004000  1
  O  O10  1  0.46874400  0.31033300  0.08004000  1
  O  O11  1  0.96874400  0.68966700  0.91996000  1
  O  O12  1  0.46874400  0.18966700  0.58004000  1
  O  O13  1  0.96874400  0.81033300  0.41996000  1
  O  O14  1  0.53125600  0.68966700  0.91996000  1
  O  O15  1  0.03125600  0.31033300  0.08004000  1
  O  O16  1  0.25000000  0.39101800  0.41171900  1
  O  O17  1  0.75000000  0.60898200  0.58828100  1
  O  O18  1  0.75000000  0.89101800  0.08828100  1
  O  O19  1  0.25000000  0.10898200  0.91171900  1
  O  O20  1  0.25000000  0.04895300  0.18114900  1
  O  O21  1  0.75000000  0.95104700  0.81885100  1
  O  O22  1  0.75000000  0.54895300  0.31885100  1
  O  O23  1  0.25000000  0.45104700  0.68114900  1
