# generated using pymatgen
data_SnRh
_symmetry_space_group_name_H-M   'P 1'
_cell_length_a   5.21301200
_cell_length_b   5.21301200
_cell_length_c   5.21301200
_cell_angle_alpha   90.00000000
_cell_angle_beta   90.00000000
_cell_angle_gamma   90.00000000
_symmetry_Int_Tables_number   1
_chemical_formula_structural   SnRh
_chemical_formula_sum   'Sn4 Rh4'
_cell_volume   141.66617691
_cell_formula_units_Z   4
loop_
 _symmetry_equiv_pos_site_id
 _symmetry_equiv_pos_as_xyz
  1  'x, y, z'
loop_
 _atom_site_type_symbol
 _atom_site_label
 _atom_site_symmetry_multiplicity
 _atom_site_fract_x
 _atom_site_fract_y
 _atom_site_fract_z
 _atom_site_occupancy
  Sn  Sn0  1  0.83979100  0.83979100  0.83979100  1
  Sn  Sn1  1  0.66020900  0.16020900  0.33979100  1
  Sn  Sn2  1  0.33979100  0.66020900  0.16020900  1
  Sn  Sn3  1  0.16020900  0.33979100  0.66020900  1
  Rh  Rh4  1  0.14352300  0.14352300  0.14352300  1
  Rh  Rh5  1  0.35647700  0.85647700  0.64352300  1
  Rh  Rh6  1  0.64352300  0.35647700  0.85647700  1
  Rh  Rh7  1  0.85647700  0.64352300  0.35647700  1
