# generated using pymatgen
data_Ba5Nb4O15
_symmetry_space_group_name_H-M   'P 1'
_cell_length_a   5.88871990
_cell_length_b   5.88871990
_cell_length_c   12.00272300
_cell_angle_alpha   90.00000000
_cell_angle_beta   90.00000000
_cell_angle_gamma   119.99999887
_symmetry_Int_Tables_number   1
_chemical_formula_structural   Ba5Nb4O15
_chemical_formula_sum   'Ba5 Nb4 O15'
_cell_volume   360.45596335
_cell_formula_units_Z   1
loop_
 _symmetry_equiv_pos_site_id
 _symmetry_equiv_pos_as_xyz
  1  'x, y, z'
loop_
 _atom_site_type_symbol
 _atom_site_label
 _atom_site_symmetry_multiplicity
 _atom_site_fract_x
 _atom_site_fract_y
 _atom_site_fract_z
 _atom_site_occupancy
  Ba  Ba0  1  0.66666700  0.33333300  0.57092700  1
  Ba  Ba1  1  0.33333300  0.66666700  0.42907300  1
  Ba  Ba2  1  0.66666700  0.33333300  0.20825100  1
  Ba  Ba3  1  0.33333300  0.66666700  0.79174900  1
  Ba  Ba4  1  0.00000000  0.00000000  0.00000000  1
  Nb  Nb5  1  0.66666700  0.33333300  0.89509400  1
  Nb  Nb6  1  0.33333300  0.66666700  0.10490600  1
  Nb  Nb7  1  0.00000000  0.00000000  0.31661100  1
  Nb  Nb8  1  0.00000000  0.00000000  0.68338900  1
  O  O9  1  0.83623100  0.16376900  0.38727500  1
  O  O10  1  0.83623100  0.67246200  0.38727500  1
  O  O11  1  0.32753800  0.16376900  0.38727500  1
  O  O12  1  0.67246200  0.83623100  0.61272500  1
  O  O13  1  0.16376900  0.32753800  0.61272500  1
  O  O14  1  0.16376900  0.83623100  0.61272500  1
  O  O15  1  0.83068000  0.16932000  0.80823300  1
  O  O16  1  0.83068000  0.66136000  0.80823300  1
  O  O17  1  0.33864000  0.16932000  0.80823300  1
  O  O18  1  0.50000000  0.00000000  0.00000000  1
  O  O19  1  0.00000000  0.50000000  0.00000000  1
  O  O20  1  0.50000000  0.50000000  0.00000000  1
  O  O21  1  0.16932000  0.83068000  0.19176700  1
  O  O22  1  0.16932000  0.33864000  0.19176700  1
  O  O23  1  0.66136000  0.83068000  0.19176700  1
