# generated using pymatgen
data_LaGa6Pd
_symmetry_space_group_name_H-M   'P 1'
_cell_length_a   4.43722600
_cell_length_b   4.43722600
_cell_length_c   7.96283500
_cell_angle_alpha   90.00000000
_cell_angle_beta   90.00000000
_cell_angle_gamma   90.00000000
_symmetry_Int_Tables_number   1
_chemical_formula_structural   LaGa6Pd
_chemical_formula_sum   'La1 Ga6 Pd1'
_cell_volume   156.78005586
_cell_formula_units_Z   1
loop_
 _symmetry_equiv_pos_site_id
 _symmetry_equiv_pos_as_xyz
  1  'x, y, z'
loop_
 _atom_site_type_symbol
 _atom_site_label
 _atom_site_symmetry_multiplicity
 _atom_site_fract_x
 _atom_site_fract_y
 _atom_site_fract_z
 _atom_site_occupancy
  La  La0  1  0.00000000  0.00000000  0.00000000  1
  Ga  Ga1  1  0.50000000  0.00000000  0.67095100  1
  Ga  Ga2  1  0.00000000  0.50000000  0.67095100  1
  Ga  Ga3  1  0.50000000  0.50000000  0.15296300  1
  Ga  Ga4  1  0.50000000  0.50000000  0.84703700  1
  Ga  Ga5  1  0.00000000  0.50000000  0.32904900  1
  Ga  Ga6  1  0.50000000  0.00000000  0.32904900  1
  Pd  Pd7  1  0.00000000  0.00000000  0.50000000  1
