# generated using pymatgen
data_Na3CeF7
_symmetry_space_group_name_H-M   'P 1'
_cell_length_a   5.60284389
_cell_length_b   5.60284389
_cell_length_c   6.59856641
_cell_angle_alpha   65.61367060
_cell_angle_beta   65.61367060
_cell_angle_gamma   88.79949981
_symmetry_Int_Tables_number   1
_chemical_formula_structural   Na3CeF7
_chemical_formula_sum   'Na3 Ce1 F7'
_cell_volume   169.01417910
_cell_formula_units_Z   1
loop_
 _symmetry_equiv_pos_site_id
 _symmetry_equiv_pos_as_xyz
  1  'x, y, z'
loop_
 _atom_site_type_symbol
 _atom_site_label
 _atom_site_symmetry_multiplicity
 _atom_site_fract_x
 _atom_site_fract_y
 _atom_site_fract_z
 _atom_site_occupancy
  Na  Na0  1  0.22295300  0.76217000  0.51374200  1
  Na  Na1  1  0.50152300  0.50152300  0.96651700  1
  Na  Na2  1  0.76217000  0.22295300  0.51374200  1
  Ce  Ce3  1  0.04161100  0.04161100  0.97632600  1
  F  F4  1  0.83393100  0.83393100  0.85389300  1
  F  F5  1  0.36743200  0.89355700  0.74894700  1
  F  F6  1  0.06527600  0.65378200  0.24384600  1
  F  F7  1  0.89355700  0.36743200  0.74894700  1
  F  F8  1  0.38798500  0.38798500  0.70905400  1
  F  F9  1  0.65378200  0.06527600  0.24384600  1
  F  F10  1  0.14478100  0.14478100  0.23114100  1
