# generated using pymatgen
data_UCuP2
_symmetry_space_group_name_H-M   'P 1'
_cell_length_a   9.66307346
_cell_length_b   9.66307346
_cell_length_c   9.66307346
_cell_angle_alpha   157.49550347
_cell_angle_beta   157.49550347
_cell_angle_gamma   32.03772565
_symmetry_Int_Tables_number   1
_chemical_formula_structural   UCuP2
_chemical_formula_sum   'U2 Cu2 P4'
_cell_volume   132.08370064
_cell_formula_units_Z   2
loop_
 _symmetry_equiv_pos_site_id
 _symmetry_equiv_pos_as_xyz
  1  'x, y, z'
loop_
 _atom_site_type_symbol
 _atom_site_label
 _atom_site_symmetry_multiplicity
 _atom_site_fract_x
 _atom_site_fract_y
 _atom_site_fract_z
 _atom_site_occupancy
  U  U0  1  0.89068800  0.89068800  0.00000000  1
  U  U1  1  0.10931200  0.10931200  0.00000000  1
  Cu  Cu2  1  0.75000000  0.25000000  0.50000000  1
  Cu  Cu3  1  0.25000000  0.75000000  0.50000000  1
  P  P4  1  0.00000000  0.50000000  0.50000000  1
  P  P5  1  0.50000000  0.00000000  0.50000000  1
  P  P6  1  0.66810700  0.66810700  0.00000000  1
  P  P7  1  0.33189300  0.33189300  0.00000000  1
