# generated using pymatgen
data_Rb2BeF4
_symmetry_space_group_name_H-M   'P 1'
_cell_length_a   5.98264700
_cell_length_b   7.80509900
_cell_length_c   10.43513900
_cell_angle_alpha   90.00000000
_cell_angle_beta   90.00000000
_cell_angle_gamma   90.00000000
_symmetry_Int_Tables_number   1
_chemical_formula_structural   Rb2BeF4
_chemical_formula_sum   'Rb8 Be4 F16'
_cell_volume   487.27040297
_cell_formula_units_Z   4
loop_
 _symmetry_equiv_pos_site_id
 _symmetry_equiv_pos_as_xyz
  1  'x, y, z'
loop_
 _atom_site_type_symbol
 _atom_site_label
 _atom_site_symmetry_multiplicity
 _atom_site_fract_x
 _atom_site_fract_y
 _atom_site_fract_z
 _atom_site_occupancy
  Rb  Rb0  1  0.75000000  0.98783300  0.30844200  1
  Rb  Rb1  1  0.25000000  0.01216700  0.69155800  1
  Rb  Rb2  1  0.25000000  0.51216700  0.80844200  1
  Rb  Rb3  1  0.75000000  0.48783300  0.19155800  1
  Rb  Rb4  1  0.75000000  0.66315600  0.59208400  1
  Rb  Rb5  1  0.25000000  0.33684400  0.40791600  1
  Rb  Rb6  1  0.25000000  0.83684400  0.09208400  1
  Rb  Rb7  1  0.75000000  0.16315600  0.90791600  1
  Be  Be8  1  0.25000000  0.26301900  0.08131600  1
  Be  Be9  1  0.75000000  0.23698100  0.58131600  1
  Be  Be10  1  0.25000000  0.76301900  0.41868400  1
  Be  Be11  1  0.75000000  0.73698100  0.91868400  1
  F  F12  1  0.96517000  0.30902800  0.64904900  1
  F  F13  1  0.46517000  0.69097200  0.35095100  1
  F  F14  1  0.46517000  0.19097200  0.14904900  1
  F  F15  1  0.96517000  0.80902800  0.85095100  1
  F  F16  1  0.53483000  0.80902800  0.85095100  1
  F  F17  1  0.53483000  0.30902800  0.64904900  1
  F  F18  1  0.03483000  0.19097200  0.14904900  1
  F  F19  1  0.03483000  0.69097200  0.35095100  1
  F  F20  1  0.75000000  0.53693900  0.91407200  1
  F  F21  1  0.25000000  0.46306100  0.08592800  1
  F  F22  1  0.25000000  0.96306100  0.41407200  1
  F  F23  1  0.75000000  0.03693900  0.58592800  1
  F  F24  1  0.75000000  0.80580200  0.06118300  1
  F  F25  1  0.25000000  0.19419800  0.93881700  1
  F  F26  1  0.25000000  0.69419800  0.56118300  1
  F  F27  1  0.75000000  0.30580200  0.43881700  1
