# generated using pymatgen
data_Ba2TiO4
_symmetry_space_group_name_H-M   'P 1'
_cell_length_a   7.77455300
_cell_length_b   6.23985800
_cell_length_c   12.00413283
_cell_angle_alpha   62.61747287
_cell_angle_beta   90.00000000
_cell_angle_gamma   90.00000000
_symmetry_Int_Tables_number   1
_chemical_formula_structural   Ba2TiO4
_chemical_formula_sum   'Ba8 Ti4 O16'
_cell_volume   517.09724034
_cell_formula_units_Z   4
loop_
 _symmetry_equiv_pos_site_id
 _symmetry_equiv_pos_as_xyz
  1  'x, y, z'
loop_
 _atom_site_type_symbol
 _atom_site_label
 _atom_site_symmetry_multiplicity
 _atom_site_fract_x
 _atom_site_fract_y
 _atom_site_fract_z
 _atom_site_occupancy
  Ba  Ba0  1  0.99695100  0.97556900  0.30097700  1
  Ba  Ba1  1  0.49695100  0.02443100  0.19902300  1
  Ba  Ba2  1  0.00304900  0.02443100  0.69902300  1
  Ba  Ba3  1  0.50304900  0.97556900  0.80097700  1
  Ba  Ba4  1  0.66038300  0.30517400  0.42679200  1
  Ba  Ba5  1  0.16038300  0.69482600  0.07320800  1
  Ba  Ba6  1  0.33961700  0.69482600  0.57320800  1
  Ba  Ba7  1  0.83961700  0.30517400  0.92679200  1
  Ti  Ti8  1  0.22013300  0.34435600  0.41658200  1
  Ti  Ti9  1  0.72013300  0.65564400  0.08341800  1
  Ti  Ti10  1  0.77986700  0.65564400  0.58341800  1
  Ti  Ti11  1  0.27986700  0.34435600  0.91658200  1
  O  O12  1  0.31940400  0.26534500  0.57042800  1
  O  O13  1  0.81940400  0.73465500  0.92957200  1
  O  O14  1  0.68059600  0.73465500  0.42957200  1
  O  O15  1  0.18059600  0.26534500  0.07042800  1
  O  O16  1  0.32516900  0.14304200  0.36300200  1
  O  O17  1  0.82516900  0.85695800  0.13699800  1
  O  O18  1  0.67483100  0.85695800  0.63699800  1
  O  O19  1  0.17483100  0.14304200  0.86300200  1
  O  O20  1  0.25559100  0.66626100  0.30883400  1
  O  O21  1  0.75559100  0.33373900  0.19116600  1
  O  O22  1  0.74440900  0.33373900  0.69116600  1
  O  O23  1  0.24440900  0.66626100  0.80883400  1
  O  O24  1  0.00720600  0.72460800  0.56351200  1
  O  O25  1  0.50720600  0.27539200  0.93648800  1
  O  O26  1  0.99279400  0.27539200  0.43648800  1
  O  O27  1  0.49279400  0.72460800  0.06351200  1
