# generated using pymatgen
data_Ba6Mn5O16
_symmetry_space_group_name_H-M   'P 1'
_cell_length_a   7.25447194
_cell_length_b   7.25447194
_cell_length_c   20.62065800
_cell_angle_alpha   90.00000000
_cell_angle_beta   90.00000000
_cell_angle_gamma   132.86144215
_symmetry_Int_Tables_number   1
_chemical_formula_structural   Ba6Mn5O16
_chemical_formula_sum   'Ba12 Mn10 O32'
_cell_volume   795.46045986
_cell_formula_units_Z   2
loop_
 _symmetry_equiv_pos_site_id
 _symmetry_equiv_pos_as_xyz
  1  'x, y, z'
loop_
 _atom_site_type_symbol
 _atom_site_label
 _atom_site_symmetry_multiplicity
 _atom_site_fract_x
 _atom_site_fract_y
 _atom_site_fract_z
 _atom_site_occupancy
  Ba  Ba0  1  0.35573800  0.64426200  0.97754400  1
  Ba  Ba1  1  0.64426200  0.35573800  0.02245600  1
  Ba  Ba2  1  0.14426200  0.85573800  0.47754400  1
  Ba  Ba3  1  0.85573800  0.14426200  0.52245600  1
  Ba  Ba4  1  0.08720900  0.91279100  0.67862400  1
  Ba  Ba5  1  0.91279100  0.08720900  0.32137600  1
  Ba  Ba6  1  0.41279100  0.58720900  0.17862400  1
  Ba  Ba7  1  0.58720900  0.41279100  0.82137600  1
  Ba  Ba8  1  0.37927300  0.62072700  0.66418000  1
  Ba  Ba9  1  0.62072700  0.37927300  0.33582000  1
  Ba  Ba10  1  0.12072700  0.87927300  0.16418000  1
  Ba  Ba11  1  0.87927300  0.12072700  0.83582000  1
  Mn  Mn12  1  0.12287900  0.87712100  0.90642900  1
  Mn  Mn13  1  0.87712100  0.12287900  0.09357100  1
  Mn  Mn14  1  0.37712100  0.62287900  0.40642900  1
  Mn  Mn15  1  0.62287900  0.37712100  0.59357100  1
  Mn  Mn16  1  0.00000000  0.00000000  0.00000000  1
  Mn  Mn17  1  0.50000000  0.50000000  0.50000000  1
  Mn  Mn18  1  0.24955200  0.75044800  0.81092300  1
  Mn  Mn19  1  0.75044800  0.24955200  0.18907700  1
  Mn  Mn20  1  0.25044800  0.74955200  0.31092300  1
  Mn  Mn21  1  0.74955200  0.25044800  0.68907700  1
  O  O22  1  0.48946400  0.94358700  0.38392600  1
  O  O23  1  0.94358700  0.48946400  0.61607400  1
  O  O24  1  0.01053600  0.55641300  0.88392600  1
  O  O25  1  0.55641300  0.01053600  0.11607400  1
  O  O26  1  0.51053600  0.05641300  0.61607400  1
  O  O27  1  0.05641300  0.51053600  0.38392600  1
  O  O28  1  0.98946400  0.44358700  0.11607400  1
  O  O29  1  0.44358700  0.98946400  0.88392600  1
  O  O30  1  0.75820700  0.79558500  0.06883200  1
  O  O31  1  0.79558500  0.75820700  0.93116800  1
  O  O32  1  0.74179300  0.70441500  0.56883200  1
  O  O33  1  0.70441500  0.74179300  0.43116800  1
  O  O34  1  0.24179300  0.20441500  0.93116800  1
  O  O35  1  0.20441500  0.24179300  0.06883200  1
  O  O36  1  0.25820700  0.29558500  0.43116800  1
  O  O37  1  0.29558500  0.25820700  0.56883200  1
  O  O38  1  0.14671600  0.85328400  0.00028900  1
  O  O39  1  0.85328400  0.14671600  0.99971100  1
  O  O40  1  0.35328400  0.64671600  0.50028900  1
  O  O41  1  0.64671600  0.35328400  0.49971100  1
  O  O42  1  0.08957600  0.91042400  0.81633200  1
  O  O43  1  0.91042400  0.08957600  0.18366800  1
  O  O44  1  0.48827200  0.01172800  0.75000000  1
  O  O45  1  0.01172800  0.48827200  0.25000000  1
  O  O46  1  0.51172800  0.98827200  0.25000000  1
  O  O47  1  0.98827200  0.51172800  0.75000000  1
  O  O48  1  0.88765000  0.11235000  0.68647100  1
  O  O49  1  0.11235000  0.88765000  0.31352900  1
  O  O50  1  0.61235000  0.38765000  0.18647100  1
  O  O51  1  0.38765000  0.61235000  0.81352900  1
  O  O52  1  0.58957600  0.41042400  0.68366800  1
  O  O53  1  0.41042400  0.58957600  0.31633200  1
