# generated using pymatgen
data_SrSeO3
_symmetry_space_group_name_H-M   'P 1'
_cell_length_a   5.59508600
_cell_length_b   4.49308000
_cell_length_c   6.74076438
_cell_angle_alpha   71.85323047
_cell_angle_beta   90.00000000
_cell_angle_gamma   90.00000000
_symmetry_Int_Tables_number   1
_chemical_formula_structural   SrSeO3
_chemical_formula_sum   'Sr2 Se2 O6'
_cell_volume   161.02872081
_cell_formula_units_Z   2
loop_
 _symmetry_equiv_pos_site_id
 _symmetry_equiv_pos_as_xyz
  1  'x, y, z'
loop_
 _atom_site_type_symbol
 _atom_site_label
 _atom_site_symmetry_multiplicity
 _atom_site_fract_x
 _atom_site_fract_y
 _atom_site_fract_z
 _atom_site_occupancy
  Sr  Sr0  1  0.75000000  0.65403700  0.69556700  1
  Sr  Sr1  1  0.25000000  0.34596300  0.30443300  1
  Se  Se2  1  0.75000000  0.93545000  0.15788600  1
  Se  Se3  1  0.25000000  0.06455000  0.84211400  1
  O  O4  1  0.01118400  0.17324400  0.67035100  1
  O  O5  1  0.51118400  0.82675600  0.32964900  1
  O  O6  1  0.98881600  0.82675600  0.32964900  1
  O  O7  1  0.48881600  0.17324400  0.67035100  1
  O  O8  1  0.25000000  0.66321500  0.89894900  1
  O  O9  1  0.75000000  0.33678500  0.10105100  1
