# generated using pymatgen
data_Nd3TaO7
_symmetry_space_group_name_H-M   'P 1'
_cell_length_a   6.68158457
_cell_length_b   6.68158457
_cell_length_c   7.74357100
_cell_angle_alpha   90.00000000
_cell_angle_beta   90.00000000
_cell_angle_gamma   109.65322284
_symmetry_Int_Tables_number   1
_chemical_formula_structural   Nd3TaO7
_chemical_formula_sum   'Nd6 Ta2 O14'
_cell_volume   325.56203175
_cell_formula_units_Z   2
loop_
 _symmetry_equiv_pos_site_id
 _symmetry_equiv_pos_as_xyz
  1  'x, y, z'
loop_
 _atom_site_type_symbol
 _atom_site_label
 _atom_site_symmetry_multiplicity
 _atom_site_fract_x
 _atom_site_fract_y
 _atom_site_fract_z
 _atom_site_occupancy
  Nd  Nd0  1  0.50000000  0.50000000  0.50000000  1
  Nd  Nd1  1  0.50000000  0.50000000  0.00000000  1
  Nd  Nd2  1  0.99925900  0.53528300  0.25000000  1
  Nd  Nd3  1  0.00074100  0.46471700  0.75000000  1
  Nd  Nd4  1  0.53528300  0.99925900  0.75000000  1
  Nd  Nd5  1  0.46471700  0.00074100  0.25000000  1
  Ta  Ta6  1  0.00000000  0.00000000  0.50000000  1
  Ta  Ta7  1  0.00000000  0.00000000  0.00000000  1
  O  O8  1  0.94288000  0.05712000  0.75000000  1
  O  O9  1  0.05712000  0.94288000  0.25000000  1
  O  O10  1  0.36489300  0.63510700  0.25000000  1
  O  O11  1  0.63510700  0.36489300  0.75000000  1
  O  O12  1  0.37057300  0.62942700  0.75000000  1
  O  O13  1  0.62942700  0.37057300  0.25000000  1
  O  O14  1  0.31361900  0.06897900  0.97054500  1
  O  O15  1  0.68638100  0.93102100  0.47054500  1
  O  O16  1  0.31361900  0.06897900  0.52945500  1
  O  O17  1  0.68638100  0.93102100  0.02945500  1
  O  O18  1  0.06897900  0.31361900  0.47054500  1
  O  O19  1  0.93102100  0.68638100  0.97054500  1
  O  O20  1  0.93102100  0.68638100  0.52945500  1
  O  O21  1  0.06897900  0.31361900  0.02945500  1
