# generated using pymatgen
data_Ho2Pd2Pb
_symmetry_space_group_name_H-M   'P 1'
_cell_length_a   7.94794600
_cell_length_b   7.94794600
_cell_length_c   3.57163400
_cell_angle_alpha   90.00000000
_cell_angle_beta   90.00000000
_cell_angle_gamma   90.00000000
_symmetry_Int_Tables_number   1
_chemical_formula_structural   Ho2Pd2Pb
_chemical_formula_sum   'Ho4 Pd4 Pb2'
_cell_volume   225.61956839
_cell_formula_units_Z   2
loop_
 _symmetry_equiv_pos_site_id
 _symmetry_equiv_pos_as_xyz
  1  'x, y, z'
loop_
 _atom_site_type_symbol
 _atom_site_label
 _atom_site_symmetry_multiplicity
 _atom_site_fract_x
 _atom_site_fract_y
 _atom_site_fract_z
 _atom_site_occupancy
  Ho  Ho0  1  0.67029700  0.17029700  0.50000000  1
  Ho  Ho1  1  0.17029700  0.32970300  0.50000000  1
  Ho  Ho2  1  0.82970300  0.67029700  0.50000000  1
  Ho  Ho3  1  0.32970300  0.82970300  0.50000000  1
  Pd  Pd4  1  0.37440900  0.12559100  0.00000000  1
  Pd  Pd5  1  0.12559100  0.62559100  0.00000000  1
  Pd  Pd6  1  0.62559100  0.87440900  0.00000000  1
  Pd  Pd7  1  0.87440900  0.37440900  0.00000000  1
  Pb  Pb8  1  0.00000000  0.00000000  0.00000000  1
  Pb  Pb9  1  0.50000000  0.50000000  0.00000000  1
