# generated using pymatgen
data_NdPO4
_symmetry_space_group_name_H-M   'P 1'
_cell_length_a   7.04245200
_cell_length_b   6.45372000
_cell_length_c   8.20121613
_cell_angle_alpha   54.16722090
_cell_angle_beta   90.00000000
_cell_angle_gamma   90.00000000
_symmetry_Int_Tables_number   1
_chemical_formula_structural   NdPO4
_chemical_formula_sum   'Nd4 P4 O16'
_cell_volume   302.19550237
_cell_formula_units_Z   4
loop_
 _symmetry_equiv_pos_site_id
 _symmetry_equiv_pos_as_xyz
  1  'x, y, z'
loop_
 _atom_site_type_symbol
 _atom_site_label
 _atom_site_symmetry_multiplicity
 _atom_site_fract_x
 _atom_site_fract_y
 _atom_site_fract_z
 _atom_site_occupancy
  Nd  Nd0  1  0.65663000  0.18727400  0.21556100  1
  Nd  Nd1  1  0.15663000  0.81272600  0.28443900  1
  Nd  Nd2  1  0.34337000  0.81272600  0.78443900  1
  Nd  Nd3  1  0.84337000  0.18727400  0.71556100  1
  P  P4  1  0.66070200  0.69163000  0.19737700  1
  P  P5  1  0.16070200  0.30837000  0.30262300  1
  P  P6  1  0.33929800  0.30837000  0.80262300  1
  P  P7  1  0.83929800  0.69163000  0.69737700  1
  O  O8  1  0.71051900  0.41519100  0.37529300  1
  O  O9  1  0.21051900  0.58480900  0.12470700  1
  O  O10  1  0.28948100  0.58480900  0.62470700  1
  O  O11  1  0.78948100  0.41519100  0.87529300  1
  O  O12  1  0.60127900  0.66134000  0.02996100  1
  O  O13  1  0.10127900  0.33866000  0.47003900  1
  O  O14  1  0.39872100  0.33866000  0.97003900  1
  O  O15  1  0.89872100  0.66134000  0.52996100  1
  O  O16  1  0.99583300  0.81216100  0.75035600  1
  O  O17  1  0.49583300  0.18783900  0.74964400  1
  O  O18  1  0.00416700  0.18783900  0.24964400  1
  O  O19  1  0.50416700  0.81216100  0.25035600  1
  O  O20  1  0.66871100  0.88269600  0.61836100  1
  O  O21  1  0.16871100  0.11730400  0.88163900  1
  O  O22  1  0.33128900  0.11730400  0.38163900  1
  O  O23  1  0.83128900  0.88269600  0.11836100  1
