# generated using pymatgen
data_Ga2PdBr8
_symmetry_space_group_name_H-M   'P 1'
_cell_length_a   7.99158066
_cell_length_b   7.99158066
_cell_length_c   7.76254027
_cell_angle_alpha   82.67026659
_cell_angle_beta   82.67026659
_cell_angle_gamma   67.07249506
_symmetry_Int_Tables_number   1
_chemical_formula_structural   Ga2PdBr8
_chemical_formula_sum   'Ga2 Pd1 Br8'
_cell_volume   451.21193904
_cell_formula_units_Z   1
loop_
 _symmetry_equiv_pos_site_id
 _symmetry_equiv_pos_as_xyz
  1  'x, y, z'
loop_
 _atom_site_type_symbol
 _atom_site_label
 _atom_site_symmetry_multiplicity
 _atom_site_fract_x
 _atom_site_fract_y
 _atom_site_fract_z
 _atom_site_occupancy
  Ga  Ga0  1  0.21199800  0.21199800  0.66992800  1
  Ga  Ga1  1  0.78800200  0.78800200  0.33007200  1
  Pd  Pd2  1  0.00000000  0.00000000  0.00000000  1
  Br  Br3  1  0.69264500  0.08470500  0.15547700  1
  Br  Br4  1  0.08470500  0.69264500  0.15547700  1
  Br  Br5  1  0.30735500  0.91529500  0.84452300  1
  Br  Br6  1  0.62113400  0.62113400  0.28848100  1
  Br  Br7  1  0.91529500  0.30735500  0.84452300  1
  Br  Br8  1  0.18012500  0.18012500  0.38587400  1
  Br  Br9  1  0.81987500  0.81987500  0.61412600  1
  Br  Br10  1  0.37886600  0.37886600  0.71151900  1
