# generated using pymatgen
data_NdZn11
_symmetry_space_group_name_H-M   'P 1'
_cell_length_a   8.28118073
_cell_length_b   8.28118073
_cell_length_c   8.28118073
_cell_angle_alpha   99.84115248
_cell_angle_beta   99.84115248
_cell_angle_gamma   131.16011746
_symmetry_Int_Tables_number   1
_chemical_formula_structural   NdZn11
_chemical_formula_sum   'Nd2 Zn22'
_cell_volume   389.31182074
_cell_formula_units_Z   2
loop_
 _symmetry_equiv_pos_site_id
 _symmetry_equiv_pos_as_xyz
  1  'x, y, z'
loop_
 _atom_site_type_symbol
 _atom_site_label
 _atom_site_symmetry_multiplicity
 _atom_site_fract_x
 _atom_site_fract_y
 _atom_site_fract_z
 _atom_site_occupancy
  Nd  Nd0  1  0.25000000  0.75000000  0.50000000  1
  Nd  Nd1  1  0.00000000  0.00000000  0.00000000  1
  Zn  Zn2  1  0.42372700  0.09672800  0.91623300  1
  Zn  Zn3  1  0.18049500  0.50749400  0.08376700  1
  Zn  Zn4  1  0.50000000  0.50000000  0.00000000  1
  Zn  Zn5  1  0.75000000  0.25000000  0.50000000  1
  Zn  Zn6  1  0.62500000  0.37500000  0.75000000  1
  Zn  Zn7  1  0.12500000  0.37500000  0.75000000  1
  Zn  Zn8  1  0.62500000  0.37500000  0.25000000  1
  Zn  Zn9  1  0.62500000  0.87500000  0.25000000  1
  Zn  Zn10  1  0.18049500  0.09672800  0.67300200  1
  Zn  Zn11  1  0.75749400  0.93049500  0.58376700  1
  Zn  Zn12  1  0.34672800  0.17372700  0.41623300  1
  Zn  Zn13  1  0.42372700  0.50749400  0.32699800  1
  Zn  Zn14  1  0.90327200  0.81950500  0.32699800  1
  Zn  Zn15  1  0.49250600  0.57627300  0.67300200  1
  Zn  Zn16  1  0.06950500  0.24250600  0.41623300  1
  Zn  Zn17  1  0.82627300  0.65327200  0.58376700  1
  Zn  Zn18  1  0.06950500  0.65327200  0.82699800  1
  Zn  Zn19  1  0.49250600  0.81950500  0.91623300  1
  Zn  Zn20  1  0.90327200  0.57627300  0.08376700  1
  Zn  Zn21  1  0.82627300  0.24250600  0.17300200  1
  Zn  Zn22  1  0.34672800  0.93049500  0.17300200  1
  Zn  Zn23  1  0.75749400  0.17372700  0.82699800  1
