# generated using pymatgen
data_Li5ReN4
_symmetry_space_group_name_H-M   'P 1'
_cell_length_a   4.92413100
_cell_length_b   6.67056300
_cell_length_c   6.75608200
_cell_angle_alpha   90.00000000
_cell_angle_beta   90.00000000
_cell_angle_gamma   90.00000000
_symmetry_Int_Tables_number   1
_chemical_formula_structural   Li5ReN4
_chemical_formula_sum   'Li10 Re2 N8'
_cell_volume   221.91517466
_cell_formula_units_Z   2
loop_
 _symmetry_equiv_pos_site_id
 _symmetry_equiv_pos_as_xyz
  1  'x, y, z'
loop_
 _atom_site_type_symbol
 _atom_site_label
 _atom_site_symmetry_multiplicity
 _atom_site_fract_x
 _atom_site_fract_y
 _atom_site_fract_z
 _atom_site_occupancy
  Li  Li0  1  0.30350100  0.00000000  0.00000000  1
  Li  Li1  1  0.69649900  0.50000000  0.50000000  1
  Li  Li2  1  0.24467500  0.76234000  0.30130400  1
  Li  Li3  1  0.24467500  0.23766000  0.69869600  1
  Li  Li4  1  0.75532500  0.26234000  0.19869600  1
  Li  Li5  1  0.75532500  0.73766000  0.80130400  1
  Li  Li6  1  0.75532500  0.73766000  0.19869600  1
  Li  Li7  1  0.75532500  0.26234000  0.80130400  1
  Li  Li8  1  0.24467500  0.76234000  0.69869600  1
  Li  Li9  1  0.24467500  0.23766000  0.30130400  1
  Re  Re10  1  0.27823500  0.50000000  0.00000000  1
  Re  Re11  1  0.72176500  0.00000000  0.50000000  1
  N  N12  1  0.07318000  0.72980700  0.00000000  1
  N  N13  1  0.51825700  0.00000000  0.72873100  1
  N  N14  1  0.48174300  0.50000000  0.22873100  1
  N  N15  1  0.48174300  0.50000000  0.77126900  1
  N  N16  1  0.07318000  0.27019300  0.00000000  1
  N  N17  1  0.92682000  0.22980700  0.50000000  1
  N  N18  1  0.92682000  0.77019300  0.50000000  1
  N  N19  1  0.51825700  0.00000000  0.27126900  1
