# generated using pymatgen
data_Na3AgO2
_symmetry_space_group_name_H-M   'P 1'
_cell_length_a   6.85838022
_cell_length_b   6.85838022
_cell_length_c   6.85838022
_cell_angle_alpha   132.47487977
_cell_angle_beta   128.12892098
_cell_angle_gamma   72.98033482
_symmetry_Int_Tables_number   1
_chemical_formula_structural   Na3AgO2
_chemical_formula_sum   'Na6 Ag2 O4'
_cell_volume   182.82919901
_cell_formula_units_Z   2
loop_
 _symmetry_equiv_pos_site_id
 _symmetry_equiv_pos_as_xyz
  1  'x, y, z'
loop_
 _atom_site_type_symbol
 _atom_site_label
 _atom_site_symmetry_multiplicity
 _atom_site_fract_x
 _atom_site_fract_y
 _atom_site_fract_z
 _atom_site_occupancy
  Na  Na0  1  0.01067300  0.76067300  0.25000000  1
  Na  Na1  1  0.25000000  0.50000000  0.75000000  1
  Na  Na2  1  0.51067300  0.76067300  0.75000000  1
  Na  Na3  1  0.98932700  0.23932700  0.75000000  1
  Na  Na4  1  0.75000000  0.50000000  0.25000000  1
  Na  Na5  1  0.48932700  0.23932700  0.25000000  1
  Ag  Ag6  1  0.00000000  0.00000000  0.00000000  1
  Ag  Ag7  1  0.50000000  0.00000000  0.50000000  1
  O  O8  1  0.86453900  0.13811500  0.27357600  1
  O  O9  1  0.63546100  0.40903800  0.77357600  1
  O  O10  1  0.13546100  0.86188500  0.72642400  1
  O  O11  1  0.36453900  0.59096200  0.22642400  1
