# generated using pymatgen
data_LiPN2
_symmetry_space_group_name_H-M   'P 1'
_cell_length_a   4.87181069
_cell_length_b   4.87181069
_cell_length_c   4.87181069
_cell_angle_alpha   124.03869256
_cell_angle_beta   124.03869256
_cell_angle_gamma   83.13644877
_symmetry_Int_Tables_number   1
_chemical_formula_structural   LiPN2
_chemical_formula_sum   'Li2 P2 N4'
_cell_volume   76.17212044
_cell_formula_units_Z   2
loop_
 _symmetry_equiv_pos_site_id
 _symmetry_equiv_pos_as_xyz
  1  'x, y, z'
loop_
 _atom_site_type_symbol
 _atom_site_label
 _atom_site_symmetry_multiplicity
 _atom_site_fract_x
 _atom_site_fract_y
 _atom_site_fract_z
 _atom_site_occupancy
  Li  Li0  1  0.50000000  0.50000000  0.00000000  1
  Li  Li1  1  0.25000000  0.75000000  0.50000000  1
  P  P2  1  0.00000000  0.00000000  0.00000000  1
  P  P3  1  0.75000000  0.25000000  0.50000000  1
  N  N4  1  0.37500000  0.29200300  0.41700300  1
  N  N5  1  0.87500000  0.95799700  0.58299700  1
  N  N6  1  0.70799700  0.12500000  0.08299700  1
  N  N7  1  0.04200300  0.62500000  0.91700300  1
