# generated using pymatgen
data_Hf3Nb2Ga3
_symmetry_space_group_name_H-M   'P 1'
_cell_length_a   7.94267447
_cell_length_b   7.94267447
_cell_length_c   5.46892200
_cell_angle_alpha   90.00000000
_cell_angle_beta   90.00000000
_cell_angle_gamma   120.00000391
_symmetry_Int_Tables_number   1
_chemical_formula_structural   Hf3Nb2Ga3
_chemical_formula_sum   'Hf6 Nb4 Ga6'
_cell_volume   298.78987089
_cell_formula_units_Z   2
loop_
 _symmetry_equiv_pos_site_id
 _symmetry_equiv_pos_as_xyz
  1  'x, y, z'
loop_
 _atom_site_type_symbol
 _atom_site_label
 _atom_site_symmetry_multiplicity
 _atom_site_fract_x
 _atom_site_fract_y
 _atom_site_fract_z
 _atom_site_occupancy
  Hf  Hf0  1  0.75397600  0.75397600  0.25000000  1
  Hf  Hf1  1  0.75397600  0.00000000  0.75000000  1
  Hf  Hf2  1  0.00000000  0.24602400  0.25000000  1
  Hf  Hf3  1  0.24602400  0.24602400  0.75000000  1
  Hf  Hf4  1  0.24602400  0.00000000  0.25000000  1
  Hf  Hf5  1  0.00000000  0.75397600  0.75000000  1
  Nb  Nb6  1  0.66666700  0.33333300  0.00000000  1
  Nb  Nb7  1  0.66666700  0.33333300  0.50000000  1
  Nb  Nb8  1  0.33333300  0.66666700  0.50000000  1
  Nb  Nb9  1  0.33333300  0.66666700  0.00000000  1
  Ga  Ga10  1  0.60365600  0.00000000  0.25000000  1
  Ga  Ga11  1  0.60365600  0.60365600  0.75000000  1
  Ga  Ga12  1  0.00000000  0.39634400  0.75000000  1
  Ga  Ga13  1  0.00000000  0.60365600  0.25000000  1
  Ga  Ga14  1  0.39634400  0.39634400  0.25000000  1
  Ga  Ga15  1  0.39634400  0.00000000  0.75000000  1
