# generated using pymatgen
data_Ag3(PO4)2
_symmetry_space_group_name_H-M   'P 1'
_cell_length_a   5.87781013
_cell_length_b   5.87781013
_cell_length_c   5.87781075
_cell_angle_alpha   86.52274179
_cell_angle_beta   86.52274179
_cell_angle_gamma   86.52273927
_symmetry_Int_Tables_number   1
_chemical_formula_structural   Ag3(PO4)2
_chemical_formula_sum   'Ag3 P2 O8'
_cell_volume   201.99232971
_cell_formula_units_Z   1
loop_
 _symmetry_equiv_pos_site_id
 _symmetry_equiv_pos_as_xyz
  1  'x, y, z'
loop_
 _atom_site_type_symbol
 _atom_site_label
 _atom_site_symmetry_multiplicity
 _atom_site_fract_x
 _atom_site_fract_y
 _atom_site_fract_z
 _atom_site_occupancy
  Ag  Ag0  1  0.99061200  0.51632600  0.25807500  1
  Ag  Ag1  1  0.51632600  0.25807500  0.99061200  1
  Ag  Ag2  1  0.25807500  0.99061200  0.51632600  1
  P  P3  1  0.01378900  0.01378900  0.01378900  1
  P  P4  1  0.48620500  0.48620500  0.48620500  1
  O  O5  1  0.87439400  0.87439400  0.87439400  1
  O  O6  1  0.86111800  0.21110500  0.12761700  1
  O  O7  1  0.63216800  0.63147100  0.31404800  1
  O  O8  1  0.63147100  0.31404800  0.63216800  1
  O  O9  1  0.31404800  0.63216800  0.63147100  1
  O  O10  1  0.33307200  0.33307200  0.33307200  1
  O  O11  1  0.12761700  0.86111800  0.21110500  1
  O  O12  1  0.21110500  0.12761700  0.86111800  1
