# generated using pymatgen
data_Rb4Sn2Au7
_symmetry_space_group_name_H-M   'P 1'
_cell_length_a   10.71506847
_cell_length_b   10.71506847
_cell_length_c   10.71506856
_cell_angle_alpha   37.79393995
_cell_angle_beta   37.79393995
_cell_angle_gamma   37.79393764
_symmetry_Int_Tables_number   1
_chemical_formula_structural   Rb4Sn2Au7
_chemical_formula_sum   'Rb4 Sn2 Au7'
_cell_volume   414.56832709
_cell_formula_units_Z   1
loop_
 _symmetry_equiv_pos_site_id
 _symmetry_equiv_pos_as_xyz
  1  'x, y, z'
loop_
 _atom_site_type_symbol
 _atom_site_label
 _atom_site_symmetry_multiplicity
 _atom_site_fract_x
 _atom_site_fract_y
 _atom_site_fract_z
 _atom_site_occupancy
  Rb  Rb0  1  0.68452200  0.68452200  0.68452200  1
  Rb  Rb1  1  0.31547800  0.31547800  0.31547800  1
  Rb  Rb2  1  0.81236100  0.81236100  0.81236100  1
  Rb  Rb3  1  0.18763900  0.18763900  0.18763900  1
  Sn  Sn4  1  0.45042300  0.45042300  0.45042300  1
  Sn  Sn5  1  0.54957700  0.54957700  0.54957700  1
  Au  Au6  1  0.00000000  0.00000000  0.00000000  1
  Au  Au7  1  0.19466300  0.78710100  0.78710100  1
  Au  Au8  1  0.78710100  0.78710100  0.19466300  1
  Au  Au9  1  0.78710100  0.19466300  0.78710100  1
  Au  Au10  1  0.21289900  0.80533700  0.21289900  1
  Au  Au11  1  0.80533700  0.21289900  0.21289900  1
  Au  Au12  1  0.21289900  0.21289900  0.80533700  1
