# generated using pymatgen
data_Er5Bi3
_symmetry_space_group_name_H-M   'P 1'
_cell_length_a   8.19990900
_cell_length_b   9.48185000
_cell_length_c   11.92862300
_cell_angle_alpha   90.00000000
_cell_angle_beta   90.00000000
_cell_angle_gamma   90.00000000
_symmetry_Int_Tables_number   1
_chemical_formula_structural   Er5Bi3
_chemical_formula_sum   'Er20 Bi12'
_cell_volume   927.45410215
_cell_formula_units_Z   4
loop_
 _symmetry_equiv_pos_site_id
 _symmetry_equiv_pos_as_xyz
  1  'x, y, z'
loop_
 _atom_site_type_symbol
 _atom_site_label
 _atom_site_symmetry_multiplicity
 _atom_site_fract_x
 _atom_site_fract_y
 _atom_site_fract_z
 _atom_site_occupancy
  Er  Er0  1  0.35294500  0.75000000  0.21630000  1
  Er  Er1  1  0.85294500  0.75000000  0.28370000  1
  Er  Er2  1  0.64705500  0.25000000  0.78370000  1
  Er  Er3  1  0.14705500  0.25000000  0.71630000  1
  Er  Er4  1  0.69167800  0.56509800  0.05841200  1
  Er  Er5  1  0.19167800  0.93490200  0.44158800  1
  Er  Er6  1  0.30832200  0.06509800  0.94158800  1
  Er  Er7  1  0.80832200  0.43490200  0.55841200  1
  Er  Er8  1  0.30832200  0.43490200  0.94158800  1
  Er  Er9  1  0.80832200  0.06509800  0.55841200  1
  Er  Er10  1  0.69167800  0.93490200  0.05841200  1
  Er  Er11  1  0.19167800  0.56509800  0.44158800  1
  Er  Er12  1  0.47797000  0.25000000  0.48884000  1
  Er  Er13  1  0.97797000  0.25000000  0.01116000  1
  Er  Er14  1  0.52203000  0.75000000  0.51116000  1
  Er  Er15  1  0.02203000  0.75000000  0.98884000  1
  Er  Er16  1  0.31380200  0.25000000  0.21761200  1
  Er  Er17  1  0.81380200  0.25000000  0.28238800  1
  Er  Er18  1  0.68619800  0.75000000  0.78238800  1
  Er  Er19  1  0.18619800  0.75000000  0.71761200  1
  Bi  Bi20  1  0.40394100  0.75000000  0.95690100  1
  Bi  Bi21  1  0.90394100  0.75000000  0.54309900  1
  Bi  Bi22  1  0.59605900  0.25000000  0.04309900  1
  Bi  Bi23  1  0.09605900  0.25000000  0.45690100  1
  Bi  Bi24  1  0.56499800  0.99598100  0.32523100  1
  Bi  Bi25  1  0.06499800  0.50401900  0.17476900  1
  Bi  Bi26  1  0.43500200  0.49598100  0.67476900  1
  Bi  Bi27  1  0.93500200  0.00401900  0.82523100  1
  Bi  Bi28  1  0.43500200  0.00401900  0.67476900  1
  Bi  Bi29  1  0.93500200  0.49598100  0.82523100  1
  Bi  Bi30  1  0.56499800  0.50401900  0.32523100  1
  Bi  Bi31  1  0.06499800  0.99598100  0.17476900  1
