# generated using pymatgen
data_Tm2MoO6
_symmetry_space_group_name_H-M   'P 1'
_cell_length_a   9.84402198
_cell_length_b   9.84402198
_cell_length_c   5.32900896
_cell_angle_alpha   74.89254673
_cell_angle_beta   74.89254673
_cell_angle_gamma   67.85520880
_symmetry_Int_Tables_number   1
_chemical_formula_structural   Tm2MoO6
_chemical_formula_sum   'Tm8 Mo4 O24'
_cell_volume   454.10432464
_cell_formula_units_Z   4
loop_
 _symmetry_equiv_pos_site_id
 _symmetry_equiv_pos_as_xyz
  1  'x, y, z'
loop_
 _atom_site_type_symbol
 _atom_site_label
 _atom_site_symmetry_multiplicity
 _atom_site_fract_x
 _atom_site_fract_y
 _atom_site_fract_z
 _atom_site_occupancy
  Tm  Tm0  1  0.55128600  0.78237200  0.62344800  1
  Tm  Tm1  1  0.78237200  0.55128600  0.12344800  1
  Tm  Tm2  1  0.44871400  0.21762800  0.37655200  1
  Tm  Tm3  1  0.21762800  0.44871400  0.87655200  1
  Tm  Tm4  1  0.86264800  0.13735200  0.25000000  1
  Tm  Tm5  1  0.13735200  0.86264800  0.75000000  1
  Tm  Tm6  1  0.39475300  0.60524700  0.25000000  1
  Tm  Tm7  1  0.60524700  0.39475300  0.75000000  1
  Mo  Mo8  1  0.29560100  0.01308400  0.06127000  1
  Mo  Mo9  1  0.98691600  0.70439900  0.43873000  1
  Mo  Mo10  1  0.70439900  0.98691600  0.93873000  1
  Mo  Mo11  1  0.01308400  0.29560100  0.56127000  1
  O  O12  1  0.60981800  0.57196300  0.92231400  1
  O  O13  1  0.42803700  0.39018200  0.57768600  1
  O  O14  1  0.39018200  0.42803700  0.07768600  1
  O  O15  1  0.57196300  0.60981800  0.42231400  1
  O  O16  1  0.33759400  0.80530100  0.91933100  1
  O  O17  1  0.19469900  0.66240600  0.58066900  1
  O  O18  1  0.66240600  0.19469900  0.08066900  1
  O  O19  1  0.80530100  0.33759400  0.41933100  1
  O  O20  1  0.32582100  0.88441900  0.37702100  1
  O  O21  1  0.11558100  0.67417900  0.12297900  1
  O  O22  1  0.67417900  0.11558100  0.62297900  1
  O  O23  1  0.88441900  0.32582100  0.87702100  1
  O  O24  1  0.18702700  0.28962200  0.63561800  1
  O  O25  1  0.71037800  0.81297300  0.86438200  1
  O  O26  1  0.81297300  0.71037800  0.36438200  1
  O  O27  1  0.28962200  0.18702700  0.13561800  1
  O  O28  1  0.04922200  0.10829700  0.51256600  1
  O  O29  1  0.89170300  0.95077800  0.98743400  1
  O  O30  1  0.43336900  0.02413800  0.75145300  1
  O  O31  1  0.10829700  0.04922200  0.01256600  1
  O  O32  1  0.02413800  0.43336900  0.25145300  1
  O  O33  1  0.56663100  0.97586200  0.24854700  1
  O  O34  1  0.97586200  0.56663100  0.74854700  1
  O  O35  1  0.95077800  0.89170300  0.48743400  1
