# generated using pymatgen
data_Ba3P2
_symmetry_space_group_name_H-M   'P 1'
_cell_length_a   16.40778736
_cell_length_b   16.40778736
_cell_length_c   16.40778736
_cell_angle_alpha   144.86621390
_cell_angle_beta   144.86621390
_cell_angle_gamma   50.53394088
_symmetry_Int_Tables_number   1
_chemical_formula_structural   Ba3P2
_chemical_formula_sum   'Ba24 P16'
_cell_volume   1455.55869574
_cell_formula_units_Z   8
loop_
 _symmetry_equiv_pos_site_id
 _symmetry_equiv_pos_as_xyz
  1  'x, y, z'
loop_
 _atom_site_type_symbol
 _atom_site_label
 _atom_site_symmetry_multiplicity
 _atom_site_fract_x
 _atom_site_fract_y
 _atom_site_fract_z
 _atom_site_occupancy
  Ba  Ba0  1  0.49383000  0.24580700  0.86792900  1
  Ba  Ba1  1  0.69904600  0.82386700  0.74327600  1
  Ba  Ba2  1  0.37787800  0.62590100  0.13207100  1
  Ba  Ba3  1  0.25617000  0.62409900  0.25197600  1
  Ba  Ba4  1  0.37212200  0.00419300  0.74802400  1
  Ba  Ba5  1  0.08059100  0.95577000  0.25672400  1
  Ba  Ba6  1  0.66940900  0.42613300  0.37517900  1
  Ba  Ba7  1  0.85260800  0.60316600  0.91737600  1
  Ba  Ba8  1  0.05095400  0.29423000  0.62482100  1
  Ba  Ba9  1  0.06476700  0.14739200  0.75055700  1
  Ba  Ba10  1  0.68579000  0.93523300  0.08262400  1
  Ba  Ba11  1  0.57386700  0.94904600  0.24327600  1
  Ba  Ba12  1  0.70577000  0.33059100  0.75672400  1
  Ba  Ba13  1  0.39683400  0.31421000  0.24944300  1
  Ba  Ba14  1  0.99580700  0.74383000  0.36792900  1
  Ba  Ba15  1  0.17613300  0.91940900  0.87517900  1
  Ba  Ba16  1  0.37590100  0.62787800  0.63207100  1
  Ba  Ba17  1  0.37409900  0.50617000  0.75197600  1
  Ba  Ba18  1  0.04423000  0.30095400  0.12482100  1
  Ba  Ba19  1  0.89739200  0.31476700  0.25055700  1
  Ba  Ba20  1  0.06421000  0.64683400  0.74944300  1
  Ba  Ba21  1  0.75419300  0.62212200  0.24802400  1
  Ba  Ba22  1  0.35316600  0.10260800  0.41737600  1
  Ba  Ba23  1  0.68523300  0.93579000  0.58262400  1
  P  P24  1  0.41534600  0.91534600  0.50000000  1
  P  P25  1  0.99608500  0.62500000  0.87108500  1
  P  P26  1  0.33465400  0.33465400  0.00000000  1
  P  P27  1  0.02703600  0.92643800  0.37708200  1
  P  P28  1  0.75391500  0.12500000  0.12891500  1
  P  P29  1  0.54935700  0.64995400  0.62291800  1
  P  P30  1  0.35004600  0.97296400  0.89940300  1
  P  P31  1  0.37500000  0.24608500  0.37108500  1
  P  P32  1  0.66534600  0.66534600  0.00000000  1
  P  P33  1  0.07356200  0.45064300  0.10059700  1
  P  P34  1  0.87500000  0.00391500  0.62891500  1
  P  P35  1  0.08465400  0.58465400  0.50000000  1
  P  P36  1  0.67643800  0.27703600  0.87708200  1
  P  P37  1  0.72296400  0.60004600  0.39940300  1
  P  P38  1  0.39995400  0.79935700  0.12291800  1
  P  P39  1  0.20064300  0.32356200  0.60059700  1
