# generated using pymatgen
data_Cd3Au
_symmetry_space_group_name_H-M   'P 1'
_cell_length_a   8.31576634
_cell_length_b   8.31576634
_cell_length_c   8.76155900
_cell_angle_alpha   90.00000000
_cell_angle_beta   90.00000000
_cell_angle_gamma   120.00000270
_symmetry_Int_Tables_number   1
_chemical_formula_structural   Cd3Au
_chemical_formula_sum   'Cd18 Au6'
_cell_volume   524.70664632
_cell_formula_units_Z   6
loop_
 _symmetry_equiv_pos_site_id
 _symmetry_equiv_pos_as_xyz
  1  'x, y, z'
loop_
 _atom_site_type_symbol
 _atom_site_label
 _atom_site_symmetry_multiplicity
 _atom_site_fract_x
 _atom_site_fract_y
 _atom_site_fract_z
 _atom_site_occupancy
  Cd  Cd0  1  0.63238500  0.00000000  0.92158600  1
  Cd  Cd1  1  0.63238500  0.63238500  0.42158600  1
  Cd  Cd2  1  0.00000000  0.36761500  0.42158600  1
  Cd  Cd3  1  0.00000000  0.63238500  0.92158600  1
  Cd  Cd4  1  0.36761500  0.36761500  0.92158600  1
  Cd  Cd5  1  0.36761500  0.00000000  0.42158600  1
  Cd  Cd6  1  0.00000000  0.00000000  0.32754200  1
  Cd  Cd7  1  0.00000000  0.00000000  0.82754200  1
  Cd  Cd8  1  0.33333300  0.66666700  0.20500800  1
  Cd  Cd9  1  0.66666700  0.33333300  0.70500800  1
  Cd  Cd10  1  0.33333300  0.66666700  0.70500800  1
  Cd  Cd11  1  0.66666700  0.33333300  0.20500800  1
  Cd  Cd12  1  0.29242100  0.00000000  0.07807500  1
  Cd  Cd13  1  0.29242100  0.29242100  0.57807500  1
  Cd  Cd14  1  0.00000000  0.70757900  0.57807500  1
  Cd  Cd15  1  0.00000000  0.29242100  0.07807500  1
  Cd  Cd16  1  0.70757900  0.70757900  0.07807500  1
  Cd  Cd17  1  0.70757900  0.00000000  0.57807500  1
  Au  Au18  1  0.67074600  0.00000000  0.25015300  1
  Au  Au19  1  0.67074600  0.67074600  0.75015300  1
  Au  Au20  1  0.00000000  0.32925400  0.75015300  1
  Au  Au21  1  0.00000000  0.67074600  0.25015300  1
  Au  Au22  1  0.32925400  0.32925400  0.25015300  1
  Au  Au23  1  0.32925400  0.00000000  0.75015300  1
