# generated using pymatgen
data_CuSe2Cl
_symmetry_space_group_name_H-M   'P 1'
_cell_length_a   4.96140500
_cell_length_b   7.75839900
_cell_length_c   12.05966452
_cell_angle_alpha   65.49874372
_cell_angle_beta   90.00000000
_cell_angle_gamma   90.00000000
_symmetry_Int_Tables_number   1
_chemical_formula_structural   CuSe2Cl
_chemical_formula_sum   'Cu4 Se8 Cl4'
_cell_volume   422.40649405
_cell_formula_units_Z   4
loop_
 _symmetry_equiv_pos_site_id
 _symmetry_equiv_pos_as_xyz
  1  'x, y, z'
loop_
 _atom_site_type_symbol
 _atom_site_label
 _atom_site_symmetry_multiplicity
 _atom_site_fract_x
 _atom_site_fract_y
 _atom_site_fract_z
 _atom_site_occupancy
  Cu  Cu0  1  0.35959200  0.17557300  0.75195000  1
  Cu  Cu1  1  0.85959200  0.82442700  0.74805000  1
  Cu  Cu2  1  0.64040800  0.82442700  0.24805000  1
  Cu  Cu3  1  0.14040800  0.17557300  0.25195000  1
  Se  Se4  1  0.46899500  0.30297800  0.34161400  1
  Se  Se5  1  0.96899500  0.69702200  0.15838600  1
  Se  Se6  1  0.53100500  0.69702200  0.65838600  1
  Se  Se7  1  0.03100500  0.30297800  0.84161400  1
  Se  Se8  1  0.31004100  0.58324700  0.33824700  1
  Se  Se9  1  0.81004100  0.41675300  0.16175300  1
  Se  Se10  1  0.68995900  0.41675300  0.66175300  1
  Se  Se11  1  0.18995900  0.58324700  0.83824700  1
  Cl  Cl12  1  0.61002400  0.91599500  0.87666100  1
  Cl  Cl13  1  0.11002400  0.08400500  0.62333900  1
  Cl  Cl14  1  0.38997600  0.08400500  0.12333900  1
  Cl  Cl15  1  0.88997600  0.91599500  0.37666100  1
