# generated using pymatgen
data_Li3GaN2
_symmetry_space_group_name_H-M   'P 1'
_cell_length_a   8.37915778
_cell_length_b   8.37915778
_cell_length_c   8.37915778
_cell_angle_alpha   109.47122063
_cell_angle_beta   109.47122063
_cell_angle_gamma   109.47122063
_symmetry_Int_Tables_number   1
_chemical_formula_structural   Li3GaN2
_chemical_formula_sum   'Li24 Ga8 N16'
_cell_volume   452.87590420
_cell_formula_units_Z   8
loop_
 _symmetry_equiv_pos_site_id
 _symmetry_equiv_pos_as_xyz
  1  'x, y, z'
loop_
 _atom_site_type_symbol
 _atom_site_label
 _atom_site_symmetry_multiplicity
 _atom_site_fract_x
 _atom_site_fract_y
 _atom_site_fract_z
 _atom_site_occupancy
  Li  Li0  1  0.73895200  0.76311900  0.23108900  1
  Li  Li1  1  0.03203100  0.50786400  0.26891100  1
  Li  Li2  1  0.76104800  0.99213600  0.02416700  1
  Li  Li3  1  0.26891100  0.03203100  0.50786400  1
  Li  Li4  1  0.76311900  0.23108900  0.73895200  1
  Li  Li5  1  0.73688100  0.47583300  0.46796900  1
  Li  Li6  1  0.47583300  0.46796900  0.73688100  1
  Li  Li7  1  0.50786400  0.26891100  0.03203100  1
  Li  Li8  1  0.02416700  0.76104800  0.99213600  1
  Li  Li9  1  0.99213600  0.02416700  0.76104800  1
  Li  Li10  1  0.23108900  0.73895200  0.76311900  1
  Li  Li11  1  0.46796900  0.73688100  0.47583300  1
  Li  Li12  1  0.26104800  0.23688100  0.76891100  1
  Li  Li13  1  0.96796900  0.49213600  0.73108900  1
  Li  Li14  1  0.23895200  0.00786400  0.97583300  1
  Li  Li15  1  0.73108900  0.96796900  0.49213600  1
  Li  Li16  1  0.23688100  0.76891100  0.26104800  1
  Li  Li17  1  0.26311900  0.52416700  0.53203100  1
  Li  Li18  1  0.52416700  0.53203100  0.26311900  1
  Li  Li19  1  0.53203100  0.26311900  0.52416700  1
  Li  Li20  1  0.97583300  0.23895200  0.00786400  1
  Li  Li21  1  0.00786400  0.97583300  0.23895200  1
  Li  Li22  1  0.76891100  0.26104800  0.23688100  1
  Li  Li23  1  0.49213600  0.73108900  0.96796900  1
  Ga  Ga24  1  0.50000000  0.00000000  0.23585000  1
  Ga  Ga25  1  0.00000000  0.23585000  0.50000000  1
  Ga  Ga26  1  0.26415000  0.26415000  0.26415000  1
  Ga  Ga27  1  0.23585000  0.50000000  0.00000000  1
  Ga  Ga28  1  0.50000000  0.00000000  0.76415000  1
  Ga  Ga29  1  0.00000000  0.76415000  0.50000000  1
  Ga  Ga30  1  0.73585000  0.73585000  0.73585000  1
  Ga  Ga31  1  0.76415000  0.50000000  0.00000000  1
  N  N32  1  0.77280000  0.52280000  0.25000000  1
  N  N33  1  0.00000000  0.00000000  0.50000000  1
  N  N34  1  0.50000000  0.50000000  0.50000000  1
  N  N35  1  0.00000000  0.50000000  0.00000000  1
  N  N36  1  0.47720000  0.75000000  0.22720000  1
  N  N37  1  0.22720000  0.47720000  0.75000000  1
  N  N38  1  0.25000000  0.27280000  0.02280000  1
  N  N39  1  0.27280000  0.02280000  0.25000000  1
  N  N40  1  0.97720000  0.75000000  0.72720000  1
  N  N41  1  0.25000000  0.77280000  0.52280000  1
  N  N42  1  0.72720000  0.97720000  0.75000000  1
  N  N43  1  0.75000000  0.72720000  0.97720000  1
  N  N44  1  0.75000000  0.22720000  0.47720000  1
  N  N45  1  0.52280000  0.25000000  0.77280000  1
  N  N46  1  0.02280000  0.25000000  0.27280000  1
  N  N47  1  0.50000000  0.00000000  0.00000000  1
