# generated using pymatgen
data_MgPSe3
_symmetry_space_group_name_H-M   'P 1'
_cell_length_a   8.35469115
_cell_length_b   8.35469115
_cell_length_c   8.35469126
_cell_angle_alpha   45.47503501
_cell_angle_beta   45.47503501
_cell_angle_gamma   45.47503469
_symmetry_Int_Tables_number   1
_chemical_formula_structural   MgPSe3
_chemical_formula_sum   'Mg2 P2 Se6'
_cell_volume   270.06545297
_cell_formula_units_Z   2
loop_
 _symmetry_equiv_pos_site_id
 _symmetry_equiv_pos_as_xyz
  1  'x, y, z'
loop_
 _atom_site_type_symbol
 _atom_site_label
 _atom_site_symmetry_multiplicity
 _atom_site_fract_x
 _atom_site_fract_y
 _atom_site_fract_z
 _atom_site_occupancy
  Mg  Mg0  1  0.16731300  0.16731300  0.16731300  1
  Mg  Mg1  1  0.83268700  0.83268700  0.83268700  1
  P  P2  1  0.45009500  0.45009500  0.45009500  1
  P  P3  1  0.54990500  0.54990500  0.54990500  1
  Se  Se4  1  0.75355700  0.42023600  0.09412500  1
  Se  Se5  1  0.42023600  0.09412500  0.75355700  1
  Se  Se6  1  0.09412500  0.75355700  0.42023600  1
  Se  Se7  1  0.24644300  0.57976400  0.90587500  1
  Se  Se8  1  0.57976400  0.90587500  0.24644300  1
  Se  Se9  1  0.90587500  0.24644300  0.57976400  1
