# generated using pymatgen
data_Na4(BSe)9
_symmetry_space_group_name_H-M   'P 1'
_cell_length_a   16.49581400
_cell_length_b   11.14408500
_cell_length_c   11.70885209
_cell_angle_alpha   61.94860753
_cell_angle_beta   90.00000000
_cell_angle_gamma   90.00000000
_symmetry_Int_Tables_number   1
_chemical_formula_structural   Na4(BSe)9
_chemical_formula_sum   'Na16 B36 Se36'
_cell_volume   1899.59082419
_cell_formula_units_Z   4
loop_
 _symmetry_equiv_pos_site_id
 _symmetry_equiv_pos_as_xyz
  1  'x, y, z'
loop_
 _atom_site_type_symbol
 _atom_site_label
 _atom_site_symmetry_multiplicity
 _atom_site_fract_x
 _atom_site_fract_y
 _atom_site_fract_z
 _atom_site_occupancy
  Na  Na0  1  0.57782100  0.81341000  0.20454900  1
  Na  Na1  1  0.07782100  0.18659000  0.29545100  1
  Na  Na2  1  0.42217900  0.18659000  0.79545100  1
  Na  Na3  1  0.92217900  0.81341000  0.70454900  1
  Na  Na4  1  0.34001400  0.53260100  0.43345300  1
  Na  Na5  1  0.84001400  0.46739900  0.06654700  1
  Na  Na6  1  0.65998600  0.46739900  0.56654700  1
  Na  Na7  1  0.15998600  0.53260100  0.93345300  1
  Na  Na8  1  0.75793400  0.06327000  0.23610500  1
  Na  Na9  1  0.25793400  0.93673000  0.26389500  1
  Na  Na10  1  0.24206600  0.93673000  0.76389500  1
  Na  Na11  1  0.74206600  0.06327000  0.73610500  1
  Na  Na12  1  0.37670600  0.03071100  0.45964200  1
  Na  Na13  1  0.87670600  0.96928900  0.04035800  1
  Na  Na14  1  0.62329400  0.96928900  0.54035800  1
  Na  Na15  1  0.12329400  0.03071100  0.95964200  1
  B  B16  1  0.51068300  0.49946200  0.85566900  1
  B  B17  1  0.01068300  0.50053800  0.64433100  1
  B  B18  1  0.48931700  0.50053800  0.14433100  1
  B  B19  1  0.98931700  0.49946200  0.35566900  1
  B  B20  1  0.86426100  0.17689200  0.48895300  1
  B  B21  1  0.36426100  0.82310800  0.01104700  1
  B  B22  1  0.13573900  0.82310800  0.51104700  1
  B  B23  1  0.63573900  0.17689200  0.98895300  1
  B  B24  1  0.56528700  0.61586000  0.89295700  1
  B  B25  1  0.06528700  0.38414000  0.60704300  1
  B  B26  1  0.43471300  0.38414000  0.10704300  1
  B  B27  1  0.93471300  0.61586000  0.39295700  1
  B  B28  1  0.72404300  0.71816600  0.94011500  1
  B  B29  1  0.22404300  0.28183400  0.55988500  1
  B  B30  1  0.27595700  0.28183400  0.05988500  1
  B  B31  1  0.77595700  0.71816600  0.44011500  1
  B  B32  1  0.58342900  0.53675000  0.06112800  1
  B  B33  1  0.08342900  0.46325000  0.43887200  1
  B  B34  1  0.41657100  0.46325000  0.93887200  1
  B  B35  1  0.91657100  0.53675000  0.56112800  1
  B  B36  1  0.50166400  0.65435300  0.99515000  1
  B  B37  1  0.00166400  0.34564700  0.50485000  1
  B  B38  1  0.49833600  0.34564700  0.00485000  1
  B  B39  1  0.99833600  0.65435300  0.49515000  1
  B  B40  1  0.54150100  0.36980200  0.13086100  1
  B  B41  1  0.04150100  0.63019800  0.36913900  1
  B  B42  1  0.45849900  0.63019800  0.86913900  1
  B  B43  1  0.95849900  0.36980200  0.63086100  1
  B  B44  1  0.58889500  0.44007100  0.97539800  1
  B  B45  1  0.08889500  0.55992900  0.52460200  1
  B  B46  1  0.41110500  0.55992900  0.02460200  1
  B  B47  1  0.91110500  0.44007100  0.47539800  1
  B  B48  1  0.55390900  0.30373700  0.41122700  1
  B  B49  1  0.05390900  0.69626300  0.08877300  1
  B  B50  1  0.44609100  0.69626300  0.58877300  1
  B  B51  1  0.94609100  0.30373700  0.91122700  1
  Se  Se52  1  0.57702400  0.20875800  0.59499500  1
  Se  Se53  1  0.07702400  0.79124200  0.90500500  1
  Se  Se54  1  0.42297600  0.79124200  0.40500500  1
  Se  Se55  1  0.92297600  0.20875800  0.09499500  1
  Se  Se56  1  0.69577100  0.02100100  0.00556000  1
  Se  Se57  1  0.19577100  0.97899900  0.49444000  1
  Se  Se58  1  0.30422900  0.97899900  0.99444000  1
  Se  Se59  1  0.80422900  0.02100100  0.50556000  1
  Se  Se60  1  0.50613700  0.51995000  0.67408900  1
  Se  Se61  1  0.00613700  0.48005000  0.82591100  1
  Se  Se62  1  0.49386300  0.48005000  0.32591100  1
  Se  Se63  1  0.99386300  0.51995000  0.17408900  1
  Se  Se64  1  0.66909400  0.79728600  0.41654100  1
  Se  Se65  1  0.16909400  0.20271400  0.08345900  1
  Se  Se66  1  0.33090600  0.20271400  0.58345900  1
  Se  Se67  1  0.83090600  0.79728600  0.91654100  1
  Se  Se68  1  0.68882000  0.35100100  0.95129000  1
  Se  Se69  1  0.18882000  0.64899900  0.54871000  1
  Se  Se70  1  0.31118000  0.64899900  0.04871000  1
  Se  Se71  1  0.81118000  0.35100100  0.45129000  1
  Se  Se72  1  0.68514600  0.59398700  0.11742200  1
  Se  Se73  1  0.18514600  0.40601300  0.38257800  1
  Se  Se74  1  0.31485400  0.40601300  0.88257800  1
  Se  Se75  1  0.81485400  0.59398700  0.61742200  1
  Se  Se76  1  0.58813000  0.22581200  0.29792900  1
  Se  Se77  1  0.08813000  0.77418800  0.20207100  1
  Se  Se78  1  0.41187000  0.77418800  0.70207100  1
  Se  Se79  1  0.91187000  0.22581200  0.79792900  1
  Se  Se80  1  0.65704000  0.73956600  0.79174600  1
  Se  Se81  1  0.15704000  0.26043400  0.70825400  1
  Se  Se82  1  0.34296000  0.26043400  0.20825400  1
  Se  Se83  1  0.84296000  0.73956600  0.29174600  1
  Se  Se84  1  0.51638600  0.16061400  0.01769600  1
  Se  Se85  1  0.01638600  0.83938600  0.48230400  1
  Se  Se86  1  0.48361400  0.83938600  0.98230400  1
  Se  Se87  1  0.98361400  0.16061400  0.51769600  1
