# generated using pymatgen
data_Na3As7
_symmetry_space_group_name_H-M   'P 1'
_cell_length_a   11.08950700
_cell_length_b   14.47755300
_cell_length_c   15.79946192
_cell_angle_alpha   64.16564137
_cell_angle_beta   90.00000000
_cell_angle_gamma   90.00000000
_symmetry_Int_Tables_number   1
_chemical_formula_structural   Na3As7
_chemical_formula_sum   'Na24 As56'
_cell_volume   2283.07411213
_cell_formula_units_Z   8
loop_
 _symmetry_equiv_pos_site_id
 _symmetry_equiv_pos_as_xyz
  1  'x, y, z'
loop_
 _atom_site_type_symbol
 _atom_site_label
 _atom_site_symmetry_multiplicity
 _atom_site_fract_x
 _atom_site_fract_y
 _atom_site_fract_z
 _atom_site_occupancy
  Na  Na0  1  0.29328000  0.43102600  0.71498900  1
  Na  Na1  1  0.79328000  0.06897400  0.28501100  1
  Na  Na2  1  0.70672000  0.56897400  0.28501100  1
  Na  Na3  1  0.20672000  0.93102600  0.71498900  1
  Na  Na4  1  0.80062700  0.65167100  0.79013800  1
  Na  Na5  1  0.30062700  0.84832900  0.20986200  1
  Na  Na6  1  0.19937300  0.34832900  0.20986200  1
  Na  Na7  1  0.69937300  0.15167100  0.79013800  1
  Na  Na8  1  0.44128700  0.63225100  0.06840000  1
  Na  Na9  1  0.94128700  0.86774900  0.93160000  1
  Na  Na10  1  0.55871300  0.36774900  0.93160000  1
  Na  Na11  1  0.05871300  0.13225100  0.06840000  1
  Na  Na12  1  0.43452200  0.30331800  0.56151500  1
  Na  Na13  1  0.93452200  0.19668200  0.43848500  1
  Na  Na14  1  0.56547800  0.69668200  0.43848500  1
  Na  Na15  1  0.06547800  0.80331800  0.56151500  1
  Na  Na16  1  0.45735700  0.98128200  0.89740800  1
  Na  Na17  1  0.95735700  0.51871800  0.10259200  1
  Na  Na18  1  0.54264300  0.01871800  0.10259200  1
  Na  Na19  1  0.04264300  0.48128200  0.89740800  1
  Na  Na20  1  0.53806700  0.87379600  0.60158500  1
  Na  Na21  1  0.03806700  0.62620400  0.39841500  1
  Na  Na22  1  0.46193300  0.12620400  0.39841500  1
  Na  Na23  1  0.96193300  0.37379600  0.60158500  1
  As  As24  1  0.66063900  0.68017600  0.62116600  1
  As  As25  1  0.22038300  0.45931000  0.51589900  1
  As  As26  1  0.27961700  0.95931000  0.51589900  1
  As  As27  1  0.77961700  0.54069000  0.48410100  1
  As  As28  1  0.34560300  0.20804500  0.94176100  1
  As  As29  1  0.84560300  0.29195500  0.05823900  1
  As  As30  1  0.65439700  0.79195500  0.05823900  1
  As  As31  1  0.15439700  0.70804500  0.94176100  1
  As  As32  1  0.07099900  0.20595500  0.80633400  1
  As  As33  1  0.57099900  0.29404500  0.19366600  1
  As  As34  1  0.92900100  0.79404500  0.19366600  1
  As  As35  1  0.42900100  0.70595500  0.80633400  1
  As  As36  1  0.25279700  0.15055400  0.74183300  1
  As  As37  1  0.75279700  0.34944600  0.25816700  1
  As  As38  1  0.74720300  0.84944600  0.25816700  1
  As  As39  1  0.24720300  0.65055400  0.74183300  1
  As  As40  1  0.72038300  0.04069000  0.48410100  1
  As  As41  1  0.65259600  0.47464700  0.10698900  1
  As  As42  1  0.84740400  0.97464700  0.10698900  1
  As  As43  1  0.34740400  0.52535300  0.89301100  1
  As  As44  1  0.15516800  0.29803100  0.88719900  1
  As  As45  1  0.65516800  0.20196900  0.11280100  1
  As  As46  1  0.84483200  0.70196900  0.11280100  1
  As  As47  1  0.34483200  0.79803100  0.88719900  1
  As  As48  1  0.42442800  0.21476000  0.79355300  1
  As  As49  1  0.92442800  0.28524000  0.20644700  1
  As  As50  1  0.57557200  0.78524000  0.20644700  1
  As  As51  1  0.07557200  0.71476000  0.79355300  1
  As  As52  1  0.27217700  0.03001600  0.01822700  1
  As  As53  1  0.77217700  0.46998400  0.98177300  1
  As  As54  1  0.72782300  0.96998400  0.98177300  1
  As  As55  1  0.22782300  0.53001600  0.01822700  1
  As  As56  1  0.91571600  0.48813100  0.71820900  1
  As  As57  1  0.41571600  0.01186900  0.28179100  1
  As  As58  1  0.08428400  0.51186900  0.28179100  1
  As  As59  1  0.58428400  0.98813100  0.71820900  1
  As  As60  1  0.15259600  0.02535300  0.89301100  1
  As  As61  1  0.16063900  0.81982400  0.37883400  1
  As  As62  1  0.33936100  0.31982400  0.37883400  1
  As  As63  1  0.83936100  0.18017600  0.62116600  1
  As  As64  1  0.64429800  0.42193000  0.59821900  1
  As  As65  1  0.14429800  0.07807000  0.40178100  1
  As  As66  1  0.35570200  0.57807000  0.40178100  1
  As  As67  1  0.85570200  0.92193000  0.59821900  1
  As  As68  1  0.73482500  0.38688500  0.75661700  1
  As  As69  1  0.23482500  0.11311500  0.24338300  1
  As  As70  1  0.26517500  0.61311500  0.24338300  1
  As  As71  1  0.76517500  0.88688500  0.75661700  1
  As  As72  1  0.56346700  0.51578200  0.68887100  1
  As  As73  1  0.06346700  0.98421800  0.31112900  1
  As  As74  1  0.43653300  0.48421800  0.31112900  1
  As  As75  1  0.93653300  0.01578200  0.68887100  1
  As  As76  1  0.85173000  0.63405800  0.57262600  1
  As  As77  1  0.35173000  0.86594200  0.42737400  1
  As  As78  1  0.14827000  0.36594200  0.42737400  1
  As  As79  1  0.64827000  0.13405800  0.57262600  1
