# generated using pymatgen
data_TlAuF6
_symmetry_space_group_name_H-M   'P 1'
_cell_length_a   5.92577500
_cell_length_b   5.92577500
_cell_length_c   28.51239100
_cell_angle_alpha   90.00000000
_cell_angle_beta   90.00000000
_cell_angle_gamma   90.00000000
_symmetry_Int_Tables_number   1
_chemical_formula_structural   TlAuF6
_chemical_formula_sum   'Tl8 Au8 F48'
_cell_volume   1001.20717410
_cell_formula_units_Z   8
loop_
 _symmetry_equiv_pos_site_id
 _symmetry_equiv_pos_as_xyz
  1  'x, y, z'
loop_
 _atom_site_type_symbol
 _atom_site_label
 _atom_site_symmetry_multiplicity
 _atom_site_fract_x
 _atom_site_fract_y
 _atom_site_fract_z
 _atom_site_occupancy
  Tl  Tl0  1  0.66072800  0.82973200  0.26625400  1
  Tl  Tl1  1  0.33927200  0.17026800  0.76625400  1
  Tl  Tl2  1  0.82973200  0.66072800  0.73374600  1
  Tl  Tl3  1  0.32973200  0.83927200  0.01625400  1
  Tl  Tl4  1  0.67026800  0.16072800  0.51625400  1
  Tl  Tl5  1  0.83927200  0.32973200  0.98374600  1
  Tl  Tl6  1  0.16072800  0.67026800  0.48374600  1
  Tl  Tl7  1  0.17026800  0.33927200  0.23374600  1
  Au  Au8  1  0.82118700  0.99124200  0.38247200  1
  Au  Au9  1  0.17881300  0.00875800  0.88247200  1
  Au  Au10  1  0.99124200  0.82118700  0.61752800  1
  Au  Au11  1  0.49124200  0.67881300  0.13247200  1
  Au  Au12  1  0.50875800  0.32118700  0.63247200  1
  Au  Au13  1  0.67881300  0.49124200  0.86752800  1
  Au  Au14  1  0.32118700  0.50875800  0.36752800  1
  Au  Au15  1  0.00875800  0.17881300  0.11752800  1
  F  F16  1  0.43342700  0.43342700  0.50000000  1
  F  F17  1  0.06657300  0.93342700  0.75000000  1
  F  F18  1  0.93342700  0.06657300  0.25000000  1
  F  F19  1  0.56657300  0.56657300  0.00000000  1
  F  F20  1  0.95976100  0.36499000  0.49942100  1
  F  F21  1  0.04023900  0.63501000  0.99942100  1
  F  F22  1  0.36499000  0.95976100  0.50057900  1
  F  F23  1  0.86499000  0.54023900  0.24942100  1
  F  F24  1  0.13501000  0.45976100  0.74942100  1
  F  F25  1  0.54023900  0.86499000  0.75057900  1
  F  F26  1  0.45976100  0.13501000  0.25057900  1
  F  F27  1  0.63501000  0.04023900  0.00057900  1
  F  F28  1  0.08742800  0.96281100  0.42312100  1
  F  F29  1  0.91257200  0.03718900  0.92312100  1
  F  F30  1  0.96281100  0.08742800  0.57687900  1
  F  F31  1  0.53718900  0.58742800  0.67312100  1
  F  F32  1  0.46281100  0.41257200  0.17312100  1
  F  F33  1  0.16777300  0.65982800  0.56941800  1
  F  F34  1  0.83222700  0.34017200  0.06941800  1
  F  F35  1  0.65982800  0.16777300  0.43058200  1
  F  F36  1  0.34017200  0.83222700  0.93058200  1
  F  F37  1  0.84017200  0.66777300  0.81941800  1
  F  F38  1  0.33222700  0.15982800  0.68058200  1
  F  F39  1  0.66777300  0.84017200  0.18058200  1
  F  F40  1  0.17666700  0.03448300  0.16850400  1
  F  F41  1  0.46551700  0.67666700  0.41850400  1
  F  F42  1  0.53448300  0.32333300  0.91850400  1
  F  F43  1  0.67666700  0.46551700  0.58149600  1
  F  F44  1  0.32333300  0.53448300  0.08149600  1
  F  F45  1  0.82333300  0.96551700  0.66850400  1
  F  F46  1  0.03448300  0.17666700  0.83149600  1
  F  F47  1  0.96551700  0.82333300  0.33149600  1
  F  F48  1  0.06461500  0.48431100  0.41141800  1
  F  F49  1  0.01568900  0.56461500  0.66141800  1
  F  F50  1  0.98431100  0.43538500  0.16141800  1
  F  F51  1  0.56461500  0.01568900  0.33858200  1
  F  F52  1  0.43538500  0.98431100  0.83858200  1
  F  F53  1  0.93538500  0.51568900  0.91141800  1
  F  F54  1  0.48431100  0.06461500  0.58858200  1
  F  F55  1  0.51568900  0.93538500  0.08858200  1
  F  F56  1  0.16735700  0.16735700  0.00000000  1
  F  F57  1  0.33264300  0.66735700  0.25000000  1
  F  F58  1  0.66735700  0.33264300  0.75000000  1
  F  F59  1  0.83264300  0.83264300  0.50000000  1
  F  F60  1  0.03718900  0.91257200  0.07687900  1
  F  F61  1  0.58742800  0.53718900  0.32687900  1
  F  F62  1  0.41257200  0.46281100  0.82687900  1
  F  F63  1  0.15982800  0.33222700  0.31941800  1
