# generated using pymatgen
data_Ta2FeO6
_symmetry_space_group_name_H-M   'P 1'
_cell_length_a   4.82484500
_cell_length_b   10.45758842
_cell_length_c   9.64969000
_cell_angle_alpha   62.52428411
_cell_angle_beta   90.00000000
_cell_angle_gamma   90.00000000
_symmetry_Int_Tables_number   1
_chemical_formula_structural   Ta2FeO6
_chemical_formula_sum   'Ta8 Fe4 O24'
_cell_volume   431.96938514
_cell_formula_units_Z   4
loop_
 _symmetry_equiv_pos_site_id
 _symmetry_equiv_pos_as_xyz
  1  'x, y, z'
loop_
 _atom_site_type_symbol
 _atom_site_label
 _atom_site_symmetry_multiplicity
 _atom_site_fract_x
 _atom_site_fract_y
 _atom_site_fract_z
 _atom_site_occupancy
  Ta  Ta0  1  0.00000000  0.66937500  0.16531200  1
  Ta  Ta1  1  0.00000000  0.66937500  0.66531200  1
  Ta  Ta2  1  0.50000000  0.16937500  0.16531200  1
  Ta  Ta3  1  0.50000000  0.16937500  0.66531200  1
  Ta  Ta4  1  0.50000000  0.83062500  0.83468800  1
  Ta  Ta5  1  0.50000000  0.83062500  0.33468800  1
  Ta  Ta6  1  0.00000000  0.33062500  0.33468800  1
  Ta  Ta7  1  0.00000000  0.33062500  0.83468800  1
  Fe  Fe8  1  0.50000000  0.50000000  0.00000000  1
  Fe  Fe9  1  0.00000000  0.00000000  0.50000000  1
  Fe  Fe10  1  0.50000000  0.50000000  0.50000000  1
  Fe  Fe11  1  0.00000000  0.00000000  0.00000000  1
  O  O12  1  0.68731900  0.00000000  0.15634100  1
  O  O13  1  0.68731900  0.00000000  0.65634100  1
  O  O14  1  0.81268100  0.50000000  0.15634100  1
  O  O15  1  0.81268100  0.50000000  0.65634100  1
  O  O16  1  0.18731900  0.50000000  0.84365900  1
  O  O17  1  0.18731900  0.50000000  0.34365900  1
  O  O18  1  0.31268100  0.00000000  0.34365900  1
  O  O19  1  0.31268100  0.00000000  0.84365900  1
  O  O20  1  0.70688700  0.68052000  0.80629700  1
  O  O21  1  0.70688700  0.68052000  0.30629700  1
  O  O22  1  0.29311300  0.68052000  0.01318400  1
  O  O23  1  0.29311300  0.68052000  0.51318400  1
  O  O24  1  0.29311300  0.31948000  0.19370300  1
  O  O25  1  0.29311300  0.31948000  0.69370300  1
  O  O26  1  0.20688700  0.81948000  0.69370300  1
  O  O27  1  0.20688700  0.81948000  0.19370300  1
  O  O28  1  0.79311300  0.81948000  0.98681600  1
  O  O29  1  0.79311300  0.81948000  0.48681600  1
  O  O30  1  0.79311300  0.18052000  0.30629700  1
  O  O31  1  0.79311300  0.18052000  0.80629700  1
  O  O32  1  0.20688700  0.18052000  0.01318400  1
  O  O33  1  0.20688700  0.18052000  0.51318400  1
  O  O34  1  0.70688700  0.31948000  0.98681600  1
  O  O35  1  0.70688700  0.31948000  0.48681600  1
