# generated using pymatgen
data_K2NaVOF5
_symmetry_space_group_name_H-M   'P 1'
_cell_length_a   6.01469432
_cell_length_b   11.96711976
_cell_length_c   8.37129409
_cell_angle_alpha   89.99362537
_cell_angle_beta   89.98820449
_cell_angle_gamma   89.99572896
_symmetry_Int_Tables_number   1
_chemical_formula_structural   K2NaVOF5
_chemical_formula_sum   'K8 Na4 V4 O4 F20'
_cell_volume   602.55373603
_cell_formula_units_Z   4
loop_
 _symmetry_equiv_pos_site_id
 _symmetry_equiv_pos_as_xyz
  1  'x, y, z'
loop_
 _atom_site_type_symbol
 _atom_site_label
 _atom_site_symmetry_multiplicity
 _atom_site_fract_x
 _atom_site_fract_y
 _atom_site_fract_z
 _atom_site_occupancy
  K  K0  1  0.49999700  0.49998100  0.25544400  1
  K  K1  1  0.00001000  0.74995900  0.75560100  1
  K  K2  1  0.50000100  0.00002600  0.25540400  1
  K  K3  1  0.00001500  0.24997500  0.75554000  1
  K  K4  1  0.50000100  0.49997100  0.75543400  1
  K  K5  1  0.00001300  0.74997700  0.25547400  1
  K  K6  1  0.50000400  0.00001900  0.75550300  1
  K  K7  1  0.00001800  0.24997900  0.25551000  1
  Na  Na8  1  0.99999900  0.49997600  0.50275600  1
  Na  Na9  1  0.50000300  0.74997800  0.00258900  1
  Na  Na10  1  0.00001000  0.00000400  0.50275900  1
  Na  Na11  1  0.50000400  0.24997800  0.00253900  1
  V  V12  1  0.99998200  0.49992700  0.01796000  1
  V  V13  1  0.49996500  0.75003700  0.51728800  1
  V  V14  1  0.00004700  0.00005700  0.01796200  1
  V  V15  1  0.50004100  0.24991400  0.51726800  1
  O  O16  1  0.99999000  0.49997900  0.21918800  1
  O  O17  1  0.49999800  0.75002100  0.71860600  1
  O  O18  1  0.99999100  0.00010300  0.21918200  1
  O  O19  1  0.49999800  0.24997400  0.71855200  1
  F  F20  1  0.99996400  0.49999400  0.77472700  1
  F  F21  1  0.49999500  0.75000600  0.27417300  1
  F  F22  1  0.00001000  0.00021000  0.77482300  1
  F  F23  1  0.50001000  0.24999300  0.27406200  1
  F  F24  1  0.73038900  0.63403500  0.49345400  1
  F  F25  1  0.23108500  0.88434300  0.99421500  1
  F  F26  1  0.73048000  0.13399700  0.49347700  1
  F  F27  1  0.23110300  0.38430500  0.99421400  1
  F  F28  1  0.73038200  0.36594200  0.49344300  1
  F  F29  1  0.23106000  0.61561000  0.99427100  1
  F  F30  1  0.73040100  0.86602100  0.49346400  1
  F  F31  1  0.23118900  0.11570800  0.99424500  1
  F  F32  1  0.26953200  0.63404100  0.49352100  1
  F  F33  1  0.76892900  0.88434600  0.99422300  1
  F  F34  1  0.26954000  0.13400400  0.49348400  1
  F  F35  1  0.76887700  0.38423300  0.99421900  1
  F  F36  1  0.26963100  0.36594300  0.49344700  1
  F  F37  1  0.76893000  0.61561100  0.99428600  1
  F  F38  1  0.26954000  0.86614600  0.49347600  1
  F  F39  1  0.76886900  0.11567900  0.99421800  1
