# generated using pymatgen
data_SmPd
_symmetry_space_group_name_H-M   'P 1'
_cell_length_a   5.72337266
_cell_length_b   5.72337266
_cell_length_c   4.64635800
_cell_angle_alpha   90.00000000
_cell_angle_beta   90.00000000
_cell_angle_gamma   141.16783844
_symmetry_Int_Tables_number   1
_chemical_formula_structural   SmPd
_chemical_formula_sum   'Sm2 Pd2'
_cell_volume   95.43612081
_cell_formula_units_Z   2
loop_
 _symmetry_equiv_pos_site_id
 _symmetry_equiv_pos_as_xyz
  1  'x, y, z'
loop_
 _atom_site_type_symbol
 _atom_site_label
 _atom_site_symmetry_multiplicity
 _atom_site_fract_x
 _atom_site_fract_y
 _atom_site_fract_z
 _atom_site_occupancy
  Sm  Sm0  1  0.13711500  0.86288500  0.75000000  1
  Sm  Sm1  1  0.86288500  0.13711500  0.25000000  1
  Pd  Pd2  1  0.41408300  0.58591700  0.75000000  1
  Pd  Pd3  1  0.58591700  0.41408300  0.25000000  1
