# generated using pymatgen
data_La2I5
_symmetry_space_group_name_H-M   'P 1'
_cell_length_a   4.43713700
_cell_length_b   9.23968000
_cell_length_c   14.99629847
_cell_angle_alpha   86.86648533
_cell_angle_beta   90.00000000
_cell_angle_gamma   90.00000000
_symmetry_Int_Tables_number   1
_chemical_formula_structural   La2I5
_chemical_formula_sum   'La4 I10'
_cell_volume   613.89490635
_cell_formula_units_Z   2
loop_
 _symmetry_equiv_pos_site_id
 _symmetry_equiv_pos_as_xyz
  1  'x, y, z'
loop_
 _atom_site_type_symbol
 _atom_site_label
 _atom_site_symmetry_multiplicity
 _atom_site_fract_x
 _atom_site_fract_y
 _atom_site_fract_z
 _atom_site_occupancy
  La  La0  1  0.25000000  0.90512200  0.15396800  1
  La  La1  1  0.75000000  0.09487800  0.84603200  1
  La  La2  1  0.25000000  0.41715800  0.65647900  1
  La  La3  1  0.75000000  0.58284200  0.34352100  1
  I  I4  1  0.25000000  0.35891000  0.28090900  1
  I  I5  1  0.75000000  0.64109000  0.71909100  1
  I  I6  1  0.25000000  0.86034400  0.92906400  1
  I  I7  1  0.75000000  0.13965600  0.07093600  1
  I  I8  1  0.75000000  0.31446200  0.51276000  1
  I  I9  1  0.25000000  0.68553800  0.48724000  1
  I  I10  1  0.75000000  0.94108400  0.31253200  1
  I  I11  1  0.25000000  0.05891600  0.68746800  1
  I  I12  1  0.75000000  0.65299500  0.12526700  1
  I  I13  1  0.25000000  0.34700500  0.87473300  1
