# generated using pymatgen
data_Nd(CuGe)2
_symmetry_space_group_name_H-M   'P 1'
_cell_length_a   5.93674108
_cell_length_b   5.93674108
_cell_length_c   5.93674108
_cell_angle_alpha   139.11456538
_cell_angle_beta   139.11456538
_cell_angle_gamma   59.20020592
_symmetry_Int_Tables_number   1
_chemical_formula_structural   Nd(CuGe)2
_chemical_formula_sum   'Nd1 Cu2 Ge2'
_cell_volume   88.77595577
_cell_formula_units_Z   1
loop_
 _symmetry_equiv_pos_site_id
 _symmetry_equiv_pos_as_xyz
  1  'x, y, z'
loop_
 _atom_site_type_symbol
 _atom_site_label
 _atom_site_symmetry_multiplicity
 _atom_site_fract_x
 _atom_site_fract_y
 _atom_site_fract_z
 _atom_site_occupancy
  Nd  Nd0  1  0.00000000  0.00000000  0.00000000  1
  Cu  Cu1  1  0.75000000  0.25000000  0.50000000  1
  Cu  Cu2  1  0.25000000  0.75000000  0.50000000  1
  Ge  Ge3  1  0.62221200  0.62221200  0.00000000  1
  Ge  Ge4  1  0.37778800  0.37778800  0.00000000  1
