# generated using pymatgen
data_Ta2CoO6
_symmetry_space_group_name_H-M   'P 1'
_cell_length_a   4.80487601
_cell_length_b   10.38346600
_cell_length_c   9.61059306
_cell_angle_alpha   62.44566446
_cell_angle_beta   89.99861051
_cell_angle_gamma   90.00505092
_symmetry_Int_Tables_number   1
_chemical_formula_structural   Ta2CoO6
_chemical_formula_sum   'Ta8 Co4 O24'
_cell_volume   425.09793214
_cell_formula_units_Z   4
loop_
 _symmetry_equiv_pos_site_id
 _symmetry_equiv_pos_as_xyz
  1  'x, y, z'
loop_
 _atom_site_type_symbol
 _atom_site_label
 _atom_site_symmetry_multiplicity
 _atom_site_fract_x
 _atom_site_fract_y
 _atom_site_fract_z
 _atom_site_occupancy
  Ta  Ta0  1  0.50008700  0.16931200  0.16532900  1
  Ta  Ta1  1  0.50002000  0.16929500  0.66540900  1
  Ta  Ta2  1  0.00004300  0.66927800  0.16540000  1
  Ta  Ta3  1  0.99995000  0.66927700  0.66534600  1
  Ta  Ta4  1  0.49991300  0.83068800  0.83467100  1
  Ta  Ta5  1  0.49998000  0.83070500  0.33459100  1
  Ta  Ta6  1  0.00005000  0.33072300  0.33465400  1
  Ta  Ta7  1  0.99995700  0.33072200  0.83460000  1
  Co  Co8  1  0.50000000  0.50000000  0.00000000  1
  Co  Co9  1  0.00000000  0.00000000  0.50000000  1
  Co  Co10  1  0.50000000  0.50000000  0.50000000  1
  Co  Co11  1  0.00000000  0.00000000  0.00000000  1
  O  O12  1  0.18844200  0.50002000  0.84422900  1
  O  O13  1  0.18845100  0.49997900  0.34421300  1
  O  O14  1  0.81155900  0.49998000  0.15577100  1
  O  O15  1  0.81154900  0.50002100  0.65578700  1
  O  O16  1  0.31154700  0.00002100  0.34422900  1
  O  O17  1  0.31155200  0.99997600  0.84421800  1
  O  O18  1  0.68844800  0.00002400  0.15578200  1
  O  O19  1  0.68845300  0.99997900  0.65577100  1
  O  O20  1  0.20447300  0.17651600  0.01401500  1
  O  O21  1  0.20466600  0.17660600  0.51400400  1
  O  O22  1  0.79545000  0.17655700  0.30944000  1
  O  O23  1  0.79520500  0.17665000  0.80926800  1
  O  O24  1  0.29531700  0.67661500  0.01401000  1
  O  O25  1  0.29548700  0.67653200  0.51403200  1
  O  O26  1  0.70453200  0.67655400  0.80946200  1
  O  O27  1  0.70473300  0.67662400  0.30930600  1
  O  O28  1  0.79552600  0.82348400  0.98598400  1
  O  O29  1  0.79533400  0.82339400  0.48599600  1
  O  O30  1  0.20455000  0.82344300  0.69056000  1
  O  O31  1  0.20479500  0.82335000  0.19073200  1
  O  O32  1  0.70468300  0.32338500  0.98599000  1
  O  O33  1  0.70451300  0.32346800  0.48596800  1
  O  O34  1  0.29546800  0.32344600  0.19053800  1
  O  O35  1  0.29526700  0.32337600  0.69069400  1
