# generated using pymatgen
data_La(SbO3)3
_symmetry_space_group_name_H-M   'P 1'
_cell_length_a   5.58800268
_cell_length_b   5.58800268
_cell_length_c   11.91255100
_cell_angle_alpha   90.00000000
_cell_angle_beta   90.00000000
_cell_angle_gamma   107.12595299
_symmetry_Int_Tables_number   1
_chemical_formula_structural   La(SbO3)3
_chemical_formula_sum   'La2 Sb6 O18'
_cell_volume   355.48499068
_cell_formula_units_Z   2
loop_
 _symmetry_equiv_pos_site_id
 _symmetry_equiv_pos_as_xyz
  1  'x, y, z'
loop_
 _atom_site_type_symbol
 _atom_site_label
 _atom_site_symmetry_multiplicity
 _atom_site_fract_x
 _atom_site_fract_y
 _atom_site_fract_z
 _atom_site_occupancy
  La  La0  1  0.75462600  0.24537400  0.75000000  1
  La  La1  1  0.24537400  0.75462600  0.25000000  1
  Sb  Sb2  1  0.12163700  0.87836300  0.90830000  1
  Sb  Sb3  1  0.87836300  0.12163700  0.40830000  1
  Sb  Sb4  1  0.87836300  0.12163700  0.09170000  1
  Sb  Sb5  1  0.12163700  0.87836300  0.59170000  1
  Sb  Sb6  1  0.50000000  0.50000000  0.00000000  1
  Sb  Sb7  1  0.50000000  0.50000000  0.50000000  1
  O  O8  1  0.94335700  0.05664300  0.25000000  1
  O  O9  1  0.05664300  0.94335700  0.75000000  1
  O  O10  1  0.10406300  0.89593700  0.07473500  1
  O  O11  1  0.89593700  0.10406300  0.57473500  1
  O  O12  1  0.89593700  0.10406300  0.92526500  1
  O  O13  1  0.10406300  0.89593700  0.42526500  1
  O  O14  1  0.33651600  0.66348400  0.88326100  1
  O  O15  1  0.66348400  0.33651600  0.38326100  1
  O  O16  1  0.41795700  0.19236300  0.59989700  1
  O  O17  1  0.58204300  0.80763700  0.09989700  1
  O  O18  1  0.19236300  0.41795700  0.40010300  1
  O  O19  1  0.80763700  0.58204300  0.90010300  1
  O  O20  1  0.58204300  0.80763700  0.40010300  1
  O  O21  1  0.41795700  0.19236300  0.90010300  1
  O  O22  1  0.80763700  0.58204300  0.59989700  1
  O  O23  1  0.19236300  0.41795700  0.09989700  1
  O  O24  1  0.33651600  0.66348400  0.61673900  1
  O  O25  1  0.66348400  0.33651600  0.11673900  1
