# generated using pymatgen
data_Mn7SiO12
_symmetry_space_group_name_H-M   'P 1'
_cell_length_a   11.69227149
_cell_length_b   11.69227149
_cell_length_c   11.69227149
_cell_angle_alpha   131.54301785
_cell_angle_beta   131.54301785
_cell_angle_gamma   70.95174520
_symmetry_Int_Tables_number   1
_chemical_formula_structural   Mn7SiO12
_chemical_formula_sum   'Mn28 Si4 O48'
_cell_volume   876.87594007
_cell_formula_units_Z   4
loop_
 _symmetry_equiv_pos_site_id
 _symmetry_equiv_pos_as_xyz
  1  'x, y, z'
loop_
 _atom_site_type_symbol
 _atom_site_label
 _atom_site_symmetry_multiplicity
 _atom_site_fract_x
 _atom_site_fract_y
 _atom_site_fract_z
 _atom_site_occupancy
  Mn  Mn0  1  0.12500000  0.34168000  0.71668000  1
  Mn  Mn1  1  0.62500000  0.90832000  0.78332000  1
  Mn  Mn2  1  0.12500000  0.84168000  0.21668000  1
  Mn  Mn3  1  0.09168000  0.87500000  0.71668000  1
  Mn  Mn4  1  0.87500000  0.62500000  0.75000000  1
  Mn  Mn5  1  0.87500000  0.12500000  0.25000000  1
  Mn  Mn6  1  0.37500000  0.62500000  0.25000000  1
  Mn  Mn7  1  0.37500000  0.12500000  0.25000000  1
  Mn  Mn8  1  0.87500000  0.12500000  0.75000000  1
  Mn  Mn9  1  0.37500000  0.62500000  0.75000000  1
  Mn  Mn10  1  0.87500000  0.62500000  0.25000000  1
  Mn  Mn11  1  0.37500000  0.12500000  0.75000000  1
  Mn  Mn12  1  0.23316800  0.73316800  0.96633500  1
  Mn  Mn13  1  0.26683200  0.23316800  0.50000000  1
  Mn  Mn14  1  0.73316800  0.76683200  0.50000000  1
  Mn  Mn15  1  0.76683200  0.26683200  0.03366500  1
  Mn  Mn16  1  0.51683200  0.51683200  0.53366500  1
  Mn  Mn17  1  0.48316800  0.01683200  0.00000000  1
  Mn  Mn18  1  0.01683200  0.48316800  0.00000000  1
  Mn  Mn19  1  0.98316800  0.98316800  0.46633500  1
  Mn  Mn20  1  0.65832000  0.37500000  0.78332000  1
  Mn  Mn21  1  0.62500000  0.40832000  0.28332000  1
  Mn  Mn22  1  0.15832000  0.37500000  0.28332000  1
  Mn  Mn23  1  0.59168000  0.87500000  0.21668000  1
  Mn  Mn24  1  0.25000000  0.25000000  0.00000000  1
  Mn  Mn25  1  0.75000000  0.75000000  0.00000000  1
  Mn  Mn26  1  0.00000000  0.50000000  0.50000000  1
  Mn  Mn27  1  0.50000000  0.00000000  0.50000000  1
  Si  Si28  1  0.50000000  0.50000000  0.00000000  1
  Si  Si29  1  0.25000000  0.75000000  0.50000000  1
  Si  Si30  1  0.75000000  0.25000000  0.50000000  1
  Si  Si31  1  0.00000000  0.00000000  0.00000000  1
  O  O32  1  0.07492800  0.53630100  0.75259200  1
  O  O33  1  0.78370900  0.32233600  0.24740800  1
  O  O34  1  0.57492800  0.82233600  0.53862800  1
  O  O35  1  0.46369900  0.21629100  0.53862800  1
  O  O36  1  0.67766400  0.92507200  0.46137200  1
  O  O37  1  0.17766400  0.71629100  0.75259200  1
  O  O38  1  0.96369900  0.42507200  0.24740800  1
  O  O39  1  0.28370900  0.03630100  0.46137200  1
  O  O40  1  0.17507200  0.42766400  0.96137200  1
  O  O41  1  0.46629100  0.21369900  0.03862800  1
  O  O42  1  0.67507200  0.71369900  0.74740800  1
  O  O43  1  0.57233600  0.53370900  0.74740800  1
  O  O44  1  0.78630100  0.82492800  0.25259200  1
  O  O45  1  0.28630100  0.03370900  0.96137200  1
  O  O46  1  0.07233600  0.32492800  0.03862800  1
  O  O47  1  0.96629100  0.92766400  0.25259200  1
  O  O48  1  0.53254200  0.56312000  0.19476800  1
  O  O49  1  0.36835200  0.33777400  0.80523200  1
  O  O50  1  0.03254200  0.83777400  0.96942300  1
  O  O51  1  0.46028100  0.49148300  0.31666900  1
  O  O52  1  0.43688000  0.63164800  0.96942300  1
  O  O53  1  0.16222600  0.13164800  0.19476800  1
  O  O54  1  0.93688000  0.96745800  0.80523200  1
  O  O55  1  0.86835200  0.06312000  0.03057700  1
  O  O56  1  0.78971900  0.60638800  0.53120200  1
  O  O57  1  0.07518600  0.25851700  0.46879800  1
  O  O58  1  0.28971900  0.75851700  0.18333100  1
  O  O59  1  0.39361200  0.92481400  0.18333100  1
  O  O60  1  0.74148300  0.21028100  0.81666900  1
  O  O61  1  0.24148300  0.42481400  0.53120200  1
  O  O62  1  0.89361200  0.71028100  0.46879800  1
  O  O63  1  0.57518600  0.10638800  0.81666900  1
  O  O64  1  0.38164800  0.91222600  0.69476800  1
  O  O65  1  0.08777400  0.78254200  0.46942300  1
  O  O66  1  0.31312000  0.61835200  0.53057700  1
  O  O67  1  0.81312000  0.28254200  0.69476800  1
  O  O68  1  0.58777400  0.11835200  0.30523200  1
  O  O69  1  0.21745800  0.68688000  0.30523200  1
  O  O70  1  0.88164800  0.18688000  0.46942300  1
  O  O71  1  0.71745800  0.41222600  0.53057700  1
  O  O72  1  0.67481400  0.99148300  0.03120200  1
  O  O73  1  0.00851700  0.03971900  0.68333100  1
  O  O74  1  0.35638800  0.32518600  0.31666900  1
  O  O75  1  0.85638800  0.53971900  0.03120200  1
  O  O76  1  0.50851700  0.82518600  0.96879800  1
  O  O77  1  0.96028100  0.64361200  0.96879800  1
  O  O78  1  0.17481400  0.14361200  0.68333100  1
  O  O79  1  0.66222600  0.46745800  0.03057700  1
