# generated using pymatgen
data_TaPd2
_symmetry_space_group_name_H-M   'P 1'
_cell_length_a   4.89590349
_cell_length_b   4.89590349
_cell_length_c   4.89590349
_cell_angle_alpha   145.41815714
_cell_angle_beta   133.45566648
_cell_angle_gamma   59.26224688
_symmetry_Int_Tables_number   1
_chemical_formula_structural   TaPd2
_chemical_formula_sum   'Ta1 Pd2'
_cell_volume   47.91605022
_cell_formula_units_Z   1
loop_
 _symmetry_equiv_pos_site_id
 _symmetry_equiv_pos_as_xyz
  1  'x, y, z'
loop_
 _atom_site_type_symbol
 _atom_site_label
 _atom_site_symmetry_multiplicity
 _atom_site_fract_x
 _atom_site_fract_y
 _atom_site_fract_z
 _atom_site_occupancy
  Ta  Ta0  1  0.00000000  0.00000000  0.00000000  1
  Pd  Pd1  1  0.33532000  0.33532000  0.00000000  1
  Pd  Pd2  1  0.66468000  0.66468000  0.00000000  1
