# generated using pymatgen
data_DySnPd
_symmetry_space_group_name_H-M   'P 1'
_cell_length_a   4.63434800
_cell_length_b   7.22946600
_cell_length_c   8.01071200
_cell_angle_alpha   90.00000000
_cell_angle_beta   90.00000000
_cell_angle_gamma   90.00000000
_symmetry_Int_Tables_number   1
_chemical_formula_structural   DySnPd
_chemical_formula_sum   'Dy4 Sn4 Pd4'
_cell_volume   268.38978375
_cell_formula_units_Z   4
loop_
 _symmetry_equiv_pos_site_id
 _symmetry_equiv_pos_as_xyz
  1  'x, y, z'
loop_
 _atom_site_type_symbol
 _atom_site_label
 _atom_site_symmetry_multiplicity
 _atom_site_fract_x
 _atom_site_fract_y
 _atom_site_fract_z
 _atom_site_occupancy
  Dy  Dy0  1  0.25000000  0.49118300  0.20625700  1
  Dy  Dy1  1  0.75000000  0.50881700  0.79374300  1
  Dy  Dy2  1  0.25000000  0.99118300  0.29374300  1
  Dy  Dy3  1  0.75000000  0.00881700  0.70625700  1
  Sn  Sn4  1  0.25000000  0.30518500  0.58694500  1
  Sn  Sn5  1  0.75000000  0.19481500  0.08694500  1
  Sn  Sn6  1  0.25000000  0.80518500  0.91305500  1
  Sn  Sn7  1  0.75000000  0.69481500  0.41305500  1
  Pd  Pd8  1  0.75000000  0.29527700  0.41447700  1
  Pd  Pd9  1  0.25000000  0.20472300  0.91447700  1
  Pd  Pd10  1  0.75000000  0.79527700  0.08552300  1
  Pd  Pd11  1  0.25000000  0.70472300  0.58552300  1
