# generated using pymatgen
data_Nd3Sb5O12
_symmetry_space_group_name_H-M   'P 1'
_cell_length_a   9.65626293
_cell_length_b   9.65626293
_cell_length_c   9.65626293
_cell_angle_alpha   109.47122063
_cell_angle_beta   109.47122063
_cell_angle_gamma   109.47122063
_symmetry_Int_Tables_number   1
_chemical_formula_structural   Nd3Sb5O12
_chemical_formula_sum   'Nd6 Sb10 O24'
_cell_volume   693.11509415
_cell_formula_units_Z   2
loop_
 _symmetry_equiv_pos_site_id
 _symmetry_equiv_pos_as_xyz
  1  'x, y, z'
loop_
 _atom_site_type_symbol
 _atom_site_label
 _atom_site_symmetry_multiplicity
 _atom_site_fract_x
 _atom_site_fract_y
 _atom_site_fract_z
 _atom_site_occupancy
  Nd  Nd0  1  0.75000000  0.25000000  0.50000000  1
  Nd  Nd1  1  0.75000000  0.50000000  0.25000000  1
  Nd  Nd2  1  0.25000000  0.50000000  0.75000000  1
  Nd  Nd3  1  0.50000000  0.75000000  0.25000000  1
  Nd  Nd4  1  0.50000000  0.25000000  0.75000000  1
  Nd  Nd5  1  0.25000000  0.75000000  0.50000000  1
  Sb  Sb6  1  0.00000000  0.50592800  0.00000000  1
  Sb  Sb7  1  0.50592800  0.00000000  0.00000000  1
  Sb  Sb8  1  0.00000000  0.00000000  0.50592800  1
  Sb  Sb9  1  0.49407200  0.49407200  0.49407200  1
  Sb  Sb10  1  0.00000000  0.71847300  0.71847300  1
  Sb  Sb11  1  0.00000000  0.28152700  0.28152700  1
  Sb  Sb12  1  0.28152700  0.28152700  0.00000000  1
  Sb  Sb13  1  0.71847300  0.71847300  0.00000000  1
  Sb  Sb14  1  0.71847300  0.00000000  0.71847300  1
  Sb  Sb15  1  0.28152700  0.00000000  0.28152700  1
  O  O16  1  0.80251000  0.80251000  0.27499500  1
  O  O17  1  0.52751600  0.72500500  0.52751600  1
  O  O18  1  0.72500500  0.52751600  0.52751600  1
  O  O19  1  0.00000000  0.47248400  0.19749000  1
  O  O20  1  0.47248400  0.00000000  0.19749000  1
  O  O21  1  0.19749000  0.47248400  0.00000000  1
  O  O22  1  0.47248400  0.19749000  0.00000000  1
  O  O23  1  0.19749000  0.00000000  0.47248400  1
  O  O24  1  0.80251000  0.27499500  0.80251000  1
  O  O25  1  0.27499500  0.80251000  0.80251000  1
  O  O26  1  0.00000000  0.19749000  0.47248400  1
  O  O27  1  0.52751600  0.52751600  0.72500500  1
  O  O28  1  0.29251900  0.29251900  0.80190800  1
  O  O29  1  0.49061000  0.19809200  0.49061000  1
  O  O30  1  0.19809200  0.49061000  0.49061000  1
  O  O31  1  0.00000000  0.50939000  0.70748100  1
  O  O32  1  0.49061000  0.49061000  0.19809200  1
  O  O33  1  0.00000000  0.70748100  0.50939000  1
  O  O34  1  0.80190800  0.29251900  0.29251900  1
  O  O35  1  0.29251900  0.80190800  0.29251900  1
  O  O36  1  0.70748100  0.00000000  0.50939000  1
  O  O37  1  0.50939000  0.70748100  0.00000000  1
  O  O38  1  0.70748100  0.50939000  0.00000000  1
  O  O39  1  0.50939000  0.00000000  0.70748100  1
