# generated using pymatgen
data_UMoC2
_symmetry_space_group_name_H-M   'P 1'
_cell_length_a   3.22289900
_cell_length_b   5.63487500
_cell_length_c   11.08585100
_cell_angle_alpha   90.00000000
_cell_angle_beta   90.00000000
_cell_angle_gamma   90.00000000
_symmetry_Int_Tables_number   1
_chemical_formula_structural   UMoC2
_chemical_formula_sum   'U4 Mo4 C8'
_cell_volume   201.32607153
_cell_formula_units_Z   4
loop_
 _symmetry_equiv_pos_site_id
 _symmetry_equiv_pos_as_xyz
  1  'x, y, z'
loop_
 _atom_site_type_symbol
 _atom_site_label
 _atom_site_symmetry_multiplicity
 _atom_site_fract_x
 _atom_site_fract_y
 _atom_site_fract_z
 _atom_site_occupancy
  U  U0  1  0.25000000  0.07980800  0.85795000  1
  U  U1  1  0.75000000  0.92019200  0.14205000  1
  U  U2  1  0.25000000  0.57980800  0.64205000  1
  U  U3  1  0.75000000  0.42019200  0.35795000  1
  Mo  Mo4  1  0.75000000  0.07899800  0.60120400  1
  Mo  Mo5  1  0.75000000  0.57899800  0.89879600  1
  Mo  Mo6  1  0.25000000  0.92100200  0.39879600  1
  Mo  Mo7  1  0.25000000  0.42100200  0.10120400  1
  C  C8  1  0.25000000  0.75063300  0.99303200  1
  C  C9  1  0.75000000  0.24936700  0.00696800  1
  C  C10  1  0.25000000  0.25063300  0.50696800  1
  C  C11  1  0.75000000  0.74936700  0.49303200  1
  C  C12  1  0.25000000  0.16183000  0.24414200  1
  C  C13  1  0.75000000  0.33817000  0.74414200  1
  C  C14  1  0.25000000  0.66183000  0.25585800  1
  C  C15  1  0.75000000  0.83817000  0.75585800  1
