# generated using pymatgen
data_Ag3AuS2
_symmetry_space_group_name_H-M   'P 1'
_cell_length_a   5.44072967
_cell_length_b   5.44072967
_cell_length_c   5.44072914
_cell_angle_alpha   93.87713376
_cell_angle_beta   93.87713376
_cell_angle_gamma   93.87713406
_symmetry_Int_Tables_number   1
_chemical_formula_structural   Ag3AuS2
_chemical_formula_sum   'Ag3 Au1 S2'
_cell_volume   159.89547530
_cell_formula_units_Z   1
loop_
 _symmetry_equiv_pos_site_id
 _symmetry_equiv_pos_as_xyz
  1  'x, y, z'
loop_
 _atom_site_type_symbol
 _atom_site_label
 _atom_site_symmetry_multiplicity
 _atom_site_fract_x
 _atom_site_fract_y
 _atom_site_fract_z
 _atom_site_occupancy
  Ag  Ag0  1  0.50000000  0.00000000  0.00000000  1
  Ag  Ag1  1  0.00000000  0.00000000  0.50000000  1
  Ag  Ag2  1  0.00000000  0.50000000  0.00000000  1
  Au  Au3  1  0.50000000  0.50000000  0.50000000  1
  S  S4  1  0.76319200  0.76319200  0.76319200  1
  S  S5  1  0.23680800  0.23680800  0.23680800  1
