# generated using pymatgen
data_RbAuBr4
_symmetry_space_group_name_H-M   'P 1'
_cell_length_a   6.37477500
_cell_length_b   7.68337200
_cell_length_c   10.93193847
_cell_angle_alpha   57.33960251
_cell_angle_beta   90.00000000
_cell_angle_gamma   90.00000000
_symmetry_Int_Tables_number   1
_chemical_formula_structural   RbAuBr4
_chemical_formula_sum   'Rb2 Au2 Br8'
_cell_volume   450.78156994
_cell_formula_units_Z   2
loop_
 _symmetry_equiv_pos_site_id
 _symmetry_equiv_pos_as_xyz
  1  'x, y, z'
loop_
 _atom_site_type_symbol
 _atom_site_label
 _atom_site_symmetry_multiplicity
 _atom_site_fract_x
 _atom_site_fract_y
 _atom_site_fract_z
 _atom_site_occupancy
  Rb  Rb0  1  0.00000000  0.50000000  0.50000000  1
  Rb  Rb1  1  0.50000000  0.50000000  0.00000000  1
  Au  Au2  1  0.50000000  0.00000000  0.50000000  1
  Au  Au3  1  0.00000000  0.00000000  0.00000000  1
  Br  Br4  1  0.21859700  0.96136200  0.67011800  1
  Br  Br5  1  0.71859700  0.03863800  0.82988200  1
  Br  Br6  1  0.78140300  0.03863800  0.32988200  1
  Br  Br7  1  0.28140300  0.96136200  0.17011800  1
  Br  Br8  1  0.98495700  0.61973700  0.12147500  1
  Br  Br9  1  0.48495700  0.38026300  0.37852500  1
  Br  Br10  1  0.01504300  0.38026300  0.87852500  1
  Br  Br11  1  0.51504300  0.61973700  0.62147500  1
