# generated using pymatgen
data_Ti3AlC2
_symmetry_space_group_name_H-M   'P 1'
_cell_length_a   3.08137473
_cell_length_b   3.08137473
_cell_length_c   18.67882300
_cell_angle_alpha   90.00000000
_cell_angle_beta   90.00000000
_cell_angle_gamma   120.00001557
_symmetry_Int_Tables_number   1
_chemical_formula_structural   Ti3AlC2
_chemical_formula_sum   'Ti6 Al2 C4'
_cell_volume   153.59217919
_cell_formula_units_Z   2
loop_
 _symmetry_equiv_pos_site_id
 _symmetry_equiv_pos_as_xyz
  1  'x, y, z'
loop_
 _atom_site_type_symbol
 _atom_site_label
 _atom_site_symmetry_multiplicity
 _atom_site_fract_x
 _atom_site_fract_y
 _atom_site_fract_z
 _atom_site_occupancy
  Ti  Ti0  1  0.66666700  0.33333300  0.37324600  1
  Ti  Ti1  1  0.33333300  0.66666700  0.87324600  1
  Ti  Ti2  1  0.33333300  0.66666700  0.62675400  1
  Ti  Ti3  1  0.66666700  0.33333300  0.12675400  1
  Ti  Ti4  1  0.00000000  0.00000000  0.50000000  1
  Ti  Ti5  1  0.00000000  0.00000000  0.00000000  1
  Al  Al6  1  0.00000000  0.00000000  0.75000000  1
  Al  Al7  1  0.00000000  0.00000000  0.25000000  1
  C  C8  1  0.33333300  0.66666700  0.43073200  1
  C  C9  1  0.66666700  0.33333300  0.93073200  1
  C  C10  1  0.33333300  0.66666700  0.06926800  1
  C  C11  1  0.66666700  0.33333300  0.56926800  1
