# generated using pymatgen
data_Na2CuF4
_symmetry_space_group_name_H-M   'P 1'
_cell_length_a   9.39536400
_cell_length_b   3.35432300
_cell_length_c   5.70277551
_cell_angle_alpha   86.70012804
_cell_angle_beta   90.00000000
_cell_angle_gamma   90.00000000
_symmetry_Int_Tables_number   1
_chemical_formula_structural   Na2CuF4
_chemical_formula_sum   'Na4 Cu2 F8'
_cell_volume   179.42546691
_cell_formula_units_Z   2
loop_
 _symmetry_equiv_pos_site_id
 _symmetry_equiv_pos_as_xyz
  1  'x, y, z'
loop_
 _atom_site_type_symbol
 _atom_site_label
 _atom_site_symmetry_multiplicity
 _atom_site_fract_x
 _atom_site_fract_y
 _atom_site_fract_z
 _atom_site_occupancy
  Na  Na0  1  0.81783800  0.51858300  0.58343100  1
  Na  Na1  1  0.31783800  0.48141700  0.91656900  1
  Na  Na2  1  0.68216200  0.51858300  0.08343100  1
  Na  Na3  1  0.18216200  0.48141700  0.41656900  1
  Cu  Cu4  1  0.00000000  0.00000000  0.00000000  1
  Cu  Cu5  1  0.50000000  0.00000000  0.50000000  1
  F  F6  1  0.69080500  0.01163600  0.37590000  1
  F  F7  1  0.19080500  0.98836400  0.12410000  1
  F  F8  1  0.30919500  0.98836400  0.62410000  1
  F  F9  1  0.80919500  0.01163600  0.87590000  1
  F  F10  1  0.95018900  0.58359600  0.23761600  1
  F  F11  1  0.45018900  0.41640400  0.26238400  1
  F  F12  1  0.54981100  0.58359600  0.73761600  1
  F  F13  1  0.04981100  0.41640400  0.76238400  1
