# generated using pymatgen
data_La3OsO7
_symmetry_space_group_name_H-M   'P 1'
_cell_length_a   6.76306835
_cell_length_b   6.76306835
_cell_length_c   7.70463500
_cell_angle_alpha   90.00000000
_cell_angle_beta   90.00000000
_cell_angle_gamma   111.93325388
_symmetry_Int_Tables_number   1
_chemical_formula_structural   La3OsO7
_chemical_formula_sum   'La6 Os2 O14'
_cell_volume   326.89595615
_cell_formula_units_Z   2
loop_
 _symmetry_equiv_pos_site_id
 _symmetry_equiv_pos_as_xyz
  1  'x, y, z'
loop_
 _atom_site_type_symbol
 _atom_site_label
 _atom_site_symmetry_multiplicity
 _atom_site_fract_x
 _atom_site_fract_y
 _atom_site_fract_z
 _atom_site_occupancy
  La  La0  1  0.50000000  0.50000000  0.00000000  1
  La  La1  1  0.50000000  0.50000000  0.50000000  1
  La  La2  1  0.41471200  0.96877400  0.75000000  1
  La  La3  1  0.58528800  0.03122600  0.25000000  1
  La  La4  1  0.96877400  0.41471200  0.75000000  1
  La  La5  1  0.03122600  0.58528800  0.25000000  1
  Os  Os6  1  0.00000000  0.00000000  0.00000000  1
  Os  Os7  1  0.00000000  0.00000000  0.50000000  1
  O  O8  1  0.60137300  0.34033500  0.75000000  1
  O  O9  1  0.39862700  0.65966500  0.25000000  1
  O  O10  1  0.34033500  0.60137300  0.75000000  1
  O  O11  1  0.65966500  0.39862700  0.25000000  1
  O  O12  1  0.30783200  0.05908800  0.03919800  1
  O  O13  1  0.69216800  0.94091200  0.53919800  1
  O  O14  1  0.05908800  0.30783200  0.46080200  1
  O  O15  1  0.94091200  0.69216800  0.96080200  1
  O  O16  1  0.92039800  0.92039800  0.25000000  1
  O  O17  1  0.07960200  0.07960200  0.75000000  1
  O  O18  1  0.05908800  0.30783200  0.03919800  1
  O  O19  1  0.94091200  0.69216800  0.53919800  1
  O  O20  1  0.30783200  0.05908800  0.46080200  1
  O  O21  1  0.69216800  0.94091200  0.96080200  1
