# generated using pymatgen
data_Ba2CuF6
_symmetry_space_group_name_H-M   'P 1'
_cell_length_a   8.54215266
_cell_length_b   8.54215266
_cell_length_c   6.06865500
_cell_angle_alpha   90.00000000
_cell_angle_beta   90.00000000
_cell_angle_gamma   139.33453152
_symmetry_Int_Tables_number   1
_chemical_formula_structural   Ba2CuF6
_chemical_formula_sum   'Ba4 Cu2 F12'
_cell_volume   288.55974922
_cell_formula_units_Z   2
loop_
 _symmetry_equiv_pos_site_id
 _symmetry_equiv_pos_as_xyz
  1  'x, y, z'
loop_
 _atom_site_type_symbol
 _atom_site_label
 _atom_site_symmetry_multiplicity
 _atom_site_fract_x
 _atom_site_fract_y
 _atom_site_fract_z
 _atom_site_occupancy
  Ba  Ba0  1  0.34889000  0.65111000  0.50000000  1
  Ba  Ba1  1  0.15111000  0.84889000  0.00000000  1
  Ba  Ba2  1  0.65111000  0.34889000  0.50000000  1
  Ba  Ba3  1  0.84889000  0.15111000  0.00000000  1
  Cu  Cu4  1  0.00000000  0.00000000  0.50000000  1
  Cu  Cu5  1  0.50000000  0.50000000  0.00000000  1
  F  F6  1  0.11861100  0.88138900  0.50000000  1
  F  F7  1  0.38138900  0.61861100  0.00000000  1
  F  F8  1  0.88138900  0.11861100  0.50000000  1
  F  F9  1  0.61861100  0.38138900  0.00000000  1
  F  F10  1  0.28890500  0.28890500  0.65717000  1
  F  F11  1  0.21109500  0.21109500  0.15717000  1
  F  F12  1  0.00221400  0.50221400  0.25000000  1
  F  F13  1  0.49778600  0.99778600  0.75000000  1
  F  F14  1  0.99778600  0.49778600  0.75000000  1
  F  F15  1  0.50221400  0.00221400  0.25000000  1
  F  F16  1  0.71109500  0.71109500  0.34283000  1
  F  F17  1  0.78890500  0.78890500  0.84283000  1
