# generated using pymatgen
data_LaScO3
_symmetry_space_group_name_H-M   'P 1'
_cell_length_a   5.70556700
_cell_length_b   5.83691800
_cell_length_c   8.15521300
_cell_angle_alpha   90.00000000
_cell_angle_beta   90.00000000
_cell_angle_gamma   90.00000000
_symmetry_Int_Tables_number   1
_chemical_formula_structural   LaScO3
_chemical_formula_sum   'La4 Sc4 O12'
_cell_volume   271.59246095
_cell_formula_units_Z   4
loop_
 _symmetry_equiv_pos_site_id
 _symmetry_equiv_pos_as_xyz
  1  'x, y, z'
loop_
 _atom_site_type_symbol
 _atom_site_label
 _atom_site_symmetry_multiplicity
 _atom_site_fract_x
 _atom_site_fract_y
 _atom_site_fract_z
 _atom_site_occupancy
  La  La0  1  0.98813200  0.04496400  0.75000000  1
  La  La1  1  0.48813200  0.45503600  0.25000000  1
  La  La2  1  0.51186800  0.54496400  0.75000000  1
  La  La3  1  0.01186800  0.95503600  0.25000000  1
  Sc  Sc4  1  0.00000000  0.50000000  0.50000000  1
  Sc  Sc5  1  0.50000000  0.00000000  0.50000000  1
  Sc  Sc6  1  0.50000000  0.00000000  0.00000000  1
  Sc  Sc7  1  0.00000000  0.50000000  0.00000000  1
  O  O8  1  0.70356900  0.29659800  0.55454900  1
  O  O9  1  0.20356900  0.20340200  0.44545100  1
  O  O10  1  0.79643100  0.79659800  0.94545100  1
  O  O11  1  0.29643100  0.70340200  0.05454900  1
  O  O12  1  0.29643100  0.70340200  0.44545100  1
  O  O13  1  0.79643100  0.79659800  0.55454900  1
  O  O14  1  0.20356900  0.20340200  0.05454900  1
  O  O15  1  0.70356900  0.29659800  0.94545100  1
  O  O16  1  0.89774000  0.53491700  0.25000000  1
  O  O17  1  0.39774000  0.96508300  0.75000000  1
  O  O18  1  0.60226000  0.03491700  0.25000000  1
  O  O19  1  0.10226000  0.46508300  0.75000000  1
