# generated using pymatgen
data_Dy5Ru2
_symmetry_space_group_name_H-M   'P 1'
_cell_length_a   8.49644830
_cell_length_b   8.49644830
_cell_length_c   7.27546809
_cell_angle_alpha   83.20507807
_cell_angle_beta   83.20507807
_cell_angle_gamma   43.94281660
_symmetry_Int_Tables_number   1
_chemical_formula_structural   Dy5Ru2
_chemical_formula_sum   'Dy10 Ru4'
_cell_volume   361.48820169
_cell_formula_units_Z   2
loop_
 _symmetry_equiv_pos_site_id
 _symmetry_equiv_pos_as_xyz
  1  'x, y, z'
loop_
 _atom_site_type_symbol
 _atom_site_label
 _atom_site_symmetry_multiplicity
 _atom_site_fract_x
 _atom_site_fract_y
 _atom_site_fract_z
 _atom_site_occupancy
  Dy  Dy0  1  0.20670500  0.97949200  0.58523800  1
  Dy  Dy1  1  0.02050800  0.79329500  0.91476200  1
  Dy  Dy2  1  0.20622600  0.35963900  0.31412800  1
  Dy  Dy3  1  0.64036100  0.79377400  0.18587200  1
  Dy  Dy4  1  0.79377400  0.64036100  0.68587200  1
  Dy  Dy5  1  0.35963900  0.20622600  0.81412800  1
  Dy  Dy6  1  0.97949200  0.20670500  0.08523800  1
  Dy  Dy7  1  0.79329500  0.02050800  0.41476200  1
  Dy  Dy8  1  0.57923900  0.42076100  0.75000000  1
  Dy  Dy9  1  0.42076100  0.57923900  0.25000000  1
  Ru  Ru10  1  0.17524500  0.60315400  0.57602700  1
  Ru  Ru11  1  0.39684600  0.82475500  0.92397300  1
  Ru  Ru12  1  0.82475500  0.39684600  0.42397300  1
  Ru  Ru13  1  0.60315400  0.17524500  0.07602700  1
