# generated using pymatgen
data_Na3B7O12
_symmetry_space_group_name_H-M   'P 1'
_cell_length_a   6.71859700
_cell_length_b   8.37397028
_cell_length_c   8.94151496
_cell_angle_alpha   95.04132678
_cell_angle_beta   100.75462789
_cell_angle_gamma   99.42710575
_symmetry_Int_Tables_number   1
_chemical_formula_structural   Na3B7O12
_chemical_formula_sum   'Na6 B14 O24'
_cell_volume   483.89646540
_cell_formula_units_Z   2
loop_
 _symmetry_equiv_pos_site_id
 _symmetry_equiv_pos_as_xyz
  1  'x, y, z'
loop_
 _atom_site_type_symbol
 _atom_site_label
 _atom_site_symmetry_multiplicity
 _atom_site_fract_x
 _atom_site_fract_y
 _atom_site_fract_z
 _atom_site_occupancy
  Na  Na0  1  0.76535700  0.22846700  0.97843900  1
  Na  Na1  1  0.23464300  0.77153300  0.02156100  1
  Na  Na2  1  0.44613900  0.91864400  0.71021600  1
  Na  Na3  1  0.55386100  0.08135600  0.28978400  1
  Na  Na4  1  0.93125000  0.27112700  0.66382000  1
  Na  Na5  1  0.06875000  0.72887300  0.33618000  1
  B  B6  1  0.77463800  0.87109200  0.04972100  1
  B  B7  1  0.22536200  0.12890800  0.95027900  1
  B  B8  1  0.78672600  0.84444200  0.52657000  1
  B  B9  1  0.21327400  0.15555800  0.47343000  1
  B  B10  1  0.40079400  0.27168400  0.75410500  1
  B  B11  1  0.59920600  0.72831600  0.24589500  1
  B  B12  1  0.33959100  0.55016200  0.70816500  1
  B  B13  1  0.66040900  0.44983800  0.29183500  1
  B  B14  1  0.90139500  0.95128600  0.80739000  1
  B  B15  1  0.09860500  0.04871400  0.19261000  1
  B  B16  1  0.68616800  0.49699800  0.72731300  1
  B  B17  1  0.31383200  0.50300200  0.27268700  1
  B  B18  1  0.00975400  0.69486700  0.69496500  1
  B  B19  1  0.99024600  0.30513300  0.30503500  1
  O  O20  1  0.27901400  0.40233600  0.75547600  1
  O  O21  1  0.74051100  0.92067100  0.90533200  1
  O  O22  1  0.08680400  0.26878600  0.45645200  1
  O  O23  1  0.91319600  0.73121400  0.54354800  1
  O  O24  1  0.25948900  0.07932900  0.09466800  1
  O  O25  1  0.78112000  0.95755600  0.64863900  1
  O  O26  1  0.77722900  0.33175800  0.31346700  1
  O  O27  1  0.22277100  0.66824200  0.68653300  1
  O  O28  1  0.97191100  0.88147400  0.13769400  1
  O  O29  1  0.02808900  0.11852600  0.86230600  1
  O  O30  1  0.96519500  0.16727800  0.18827400  1
  O  O31  1  0.03480500  0.83272200  0.81172600  1
  O  O32  1  0.10845300  0.45708200  0.26664900  1
  O  O33  1  0.89154700  0.54291800  0.73335100  1
  O  O34  1  0.66909200  0.85249900  0.38421500  1
  O  O35  1  0.33090800  0.14750100  0.61578500  1
  O  O36  1  0.39830900  0.18733800  0.89372900  1
  O  O37  1  0.60169100  0.81266200  0.10627100  1
  O  O38  1  0.62364200  0.34113200  0.76256500  1
  O  O39  1  0.37635800  0.65886800  0.23743500  1
  O  O40  1  0.54251300  0.59561000  0.68658300  1
  O  O41  1  0.45748700  0.40439000  0.31341700  1
  O  O42  1  0.21888000  0.04244400  0.35136100  1
  O  O43  1  0.72098600  0.59766400  0.24452400  1
