# generated using pymatgen
data_Sm3GaO6
_symmetry_space_group_name_H-M   'P 1'
_cell_length_a   7.33408215
_cell_length_b   7.33408215
_cell_length_c   5.56792300
_cell_angle_alpha   90.00000000
_cell_angle_beta   90.00000000
_cell_angle_gamma   102.83756523
_symmetry_Int_Tables_number   1
_chemical_formula_structural   Sm3GaO6
_chemical_formula_sum   'Sm6 Ga2 O12'
_cell_volume   292.00555231
_cell_formula_units_Z   2
loop_
 _symmetry_equiv_pos_site_id
 _symmetry_equiv_pos_as_xyz
  1  'x, y, z'
loop_
 _atom_site_type_symbol
 _atom_site_label
 _atom_site_symmetry_multiplicity
 _atom_site_fract_x
 _atom_site_fract_y
 _atom_site_fract_z
 _atom_site_occupancy
  Sm  Sm0  1  0.39722000  0.60278000  0.92298500  1
  Sm  Sm1  1  0.60278000  0.39722000  0.42298500  1
  Sm  Sm2  1  0.29902900  0.08745600  0.96856200  1
  Sm  Sm3  1  0.70097100  0.91254400  0.46856200  1
  Sm  Sm4  1  0.91254400  0.70097100  0.96856200  1
  Sm  Sm5  1  0.08745600  0.29902900  0.46856200  1
  Ga  Ga6  1  0.19302800  0.80697200  0.50118200  1
  Ga  Ga7  1  0.80697200  0.19302800  0.00118200  1
  O  O8  1  0.21510000  0.78490000  0.16990200  1
  O  O9  1  0.78490000  0.21510000  0.66990200  1
  O  O10  1  0.04114500  0.95885500  0.63524300  1
  O  O11  1  0.95885500  0.04114500  0.13524300  1
  O  O12  1  0.35466800  0.32578900  0.69754100  1
  O  O13  1  0.64533200  0.67421100  0.19754100  1
  O  O14  1  0.67421100  0.64533200  0.69754100  1
  O  O15  1  0.32578900  0.35466800  0.19754100  1
  O  O16  1  0.89312700  0.41812600  0.17343600  1
  O  O17  1  0.10687300  0.58187400  0.67343600  1
  O  O18  1  0.58187400  0.10687300  0.17343600  1
  O  O19  1  0.41812600  0.89312700  0.67343600  1
