# generated using pymatgen
data_Li2NiF4
_symmetry_space_group_name_H-M   'P 1'
_cell_length_a   5.92233193
_cell_length_b   5.92233193
_cell_length_c   5.92233193
_cell_angle_alpha   120.44946675
_cell_angle_beta   118.98822466
_cell_angle_gamma   90.49228608
_symmetry_Int_Tables_number   1
_chemical_formula_structural   Li2NiF4
_chemical_formula_sum   'Li4 Ni2 F8'
_cell_volume   147.46881980
_cell_formula_units_Z   2
loop_
 _symmetry_equiv_pos_site_id
 _symmetry_equiv_pos_as_xyz
  1  'x, y, z'
loop_
 _atom_site_type_symbol
 _atom_site_label
 _atom_site_symmetry_multiplicity
 _atom_site_fract_x
 _atom_site_fract_y
 _atom_site_fract_z
 _atom_site_occupancy
  Li  Li0  1  0.11632200  0.86632200  0.25000000  1
  Li  Li1  1  0.50000000  0.00000000  0.00000000  1
  Li  Li2  1  0.50000000  0.50000000  0.50000000  1
  Li  Li3  1  0.88367800  0.13367800  0.75000000  1
  Ni  Ni4  1  0.00000000  0.50000000  0.50000000  1
  Ni  Ni5  1  0.50000000  0.50000000  0.00000000  1
  F  F6  1  0.25381200  0.73751600  0.98370400  1
  F  F7  1  0.25381200  0.27010800  0.51629600  1
  F  F8  1  0.72365000  0.73862200  0.98502800  1
  F  F9  1  0.25359500  0.73862200  0.51497200  1
  F  F10  1  0.74640500  0.26137800  0.48502800  1
  F  F11  1  0.74618800  0.72989200  0.48370400  1
  F  F12  1  0.27635000  0.26137800  0.01497200  1
  F  F13  1  0.74618800  0.26248400  0.01629600  1
