# generated using pymatgen
data_NaBF4
_symmetry_space_group_name_H-M   'P 1'
_cell_length_a   4.68390583
_cell_length_b   4.68390583
_cell_length_c   6.91762400
_cell_angle_alpha   90.00000000
_cell_angle_beta   90.00000000
_cell_angle_gamma   95.48657424
_symmetry_Int_Tables_number   1
_chemical_formula_structural   NaBF4
_chemical_formula_sum   'Na2 B2 F8'
_cell_volume   151.07027754
_cell_formula_units_Z   2
loop_
 _symmetry_equiv_pos_site_id
 _symmetry_equiv_pos_as_xyz
  1  'x, y, z'
loop_
 _atom_site_type_symbol
 _atom_site_label
 _atom_site_symmetry_multiplicity
 _atom_site_fract_x
 _atom_site_fract_y
 _atom_site_fract_z
 _atom_site_occupancy
  Na  Na0  1  0.34760300  0.34760300  0.25000000  1
  Na  Na1  1  0.65239700  0.65239700  0.75000000  1
  B  B2  1  0.84253200  0.84253200  0.25000000  1
  B  B3  1  0.15746800  0.15746800  0.75000000  1
  F  F4  1  0.70985100  0.70985100  0.41588600  1
  F  F5  1  0.29014900  0.29014900  0.91588600  1
  F  F6  1  0.70985100  0.70985100  0.08411400  1
  F  F7  1  0.29014900  0.29014900  0.58411400  1
  F  F8  1  0.86058600  0.19247900  0.75000000  1
  F  F9  1  0.13941400  0.80752100  0.25000000  1
  F  F10  1  0.19247900  0.86058600  0.75000000  1
  F  F11  1  0.80752100  0.13941400  0.25000000  1
