# generated using pymatgen
data_Cd(GaSe2)2
_symmetry_space_group_name_H-M   'P 1'
_cell_length_a   6.88953383
_cell_length_b   6.88953383
_cell_length_c   6.88953383
_cell_angle_alpha   129.52204394
_cell_angle_beta   129.52204394
_cell_angle_gamma   74.17202072
_symmetry_Int_Tables_number   1
_chemical_formula_structural   Cd(GaSe2)2
_chemical_formula_sum   'Cd1 Ga2 Se4'
_cell_volume   189.71853161
_cell_formula_units_Z   1
loop_
 _symmetry_equiv_pos_site_id
 _symmetry_equiv_pos_as_xyz
  1  'x, y, z'
loop_
 _atom_site_type_symbol
 _atom_site_label
 _atom_site_symmetry_multiplicity
 _atom_site_fract_x
 _atom_site_fract_y
 _atom_site_fract_z
 _atom_site_occupancy
  Cd  Cd0  1  0.00000000  0.00000000  0.00000000  1
  Ga  Ga1  1  0.25000000  0.75000000  0.50000000  1
  Ga  Ga2  1  0.50000000  0.50000000  0.00000000  1
  Se  Se3  1  0.86526000  0.39995400  0.98937200  1
  Se  Se4  1  0.41058100  0.87588800  0.01062800  1
  Se  Se5  1  0.12411200  0.13474000  0.53469300  1
  Se  Se6  1  0.60004600  0.58941900  0.46530700  1
