# generated using pymatgen
data_Li7Sn2
_symmetry_space_group_name_H-M   'P 1'
_cell_length_a   8.47649436
_cell_length_b   8.47649436
_cell_length_c   4.71086700
_cell_angle_alpha   90.00000000
_cell_angle_beta   90.00000000
_cell_angle_gamma   109.37278080
_symmetry_Int_Tables_number   1
_chemical_formula_structural   Li7Sn2
_chemical_formula_sum   'Li14 Sn4'
_cell_volume   319.31566408
_cell_formula_units_Z   2
loop_
 _symmetry_equiv_pos_site_id
 _symmetry_equiv_pos_as_xyz
  1  'x, y, z'
loop_
 _atom_site_type_symbol
 _atom_site_label
 _atom_site_symmetry_multiplicity
 _atom_site_fract_x
 _atom_site_fract_y
 _atom_site_fract_z
 _atom_site_occupancy
  Li  Li0  1  0.00000000  0.00000000  0.00000000  1
  Li  Li1  1  0.50000000  0.50000000  0.50000000  1
  Li  Li2  1  0.65309100  0.65309100  0.00000000  1
  Li  Li3  1  0.34690900  0.34690900  0.00000000  1
  Li  Li4  1  0.82745600  0.17254400  0.50000000  1
  Li  Li5  1  0.17254400  0.82745600  0.50000000  1
  Li  Li6  1  0.65603100  0.97070500  0.00000000  1
  Li  Li7  1  0.34396900  0.02929500  0.00000000  1
  Li  Li8  1  0.97070500  0.65603100  0.00000000  1
  Li  Li9  1  0.02929500  0.34396900  0.00000000  1
  Li  Li10  1  0.49657400  0.81961300  0.50000000  1
  Li  Li11  1  0.50342600  0.18038700  0.50000000  1
  Li  Li12  1  0.81961300  0.49657400  0.50000000  1
  Li  Li13  1  0.18038700  0.50342600  0.50000000  1
  Sn  Sn14  1  0.83528400  0.83528400  0.50000000  1
  Sn  Sn15  1  0.16471600  0.16471600  0.50000000  1
  Sn  Sn16  1  0.68232400  0.31767700  0.00000000  1
  Sn  Sn17  1  0.31767700  0.68232400  0.00000000  1
