# generated using pymatgen
data_Li5Sn2
_symmetry_space_group_name_H-M   'P 1'
_cell_length_a   7.13819915
_cell_length_b   7.13819915
_cell_length_c   7.13819961
_cell_angle_alpha   38.57595125
_cell_angle_beta   38.57595125
_cell_angle_gamma   38.57595745
_symmetry_Int_Tables_number   1
_chemical_formula_structural   Li5Sn2
_chemical_formula_sum   'Li5 Sn2'
_cell_volume   127.08029695
_cell_formula_units_Z   1
loop_
 _symmetry_equiv_pos_site_id
 _symmetry_equiv_pos_as_xyz
  1  'x, y, z'
loop_
 _atom_site_type_symbol
 _atom_site_label
 _atom_site_symmetry_multiplicity
 _atom_site_fract_x
 _atom_site_fract_y
 _atom_site_fract_z
 _atom_site_occupancy
  Li  Li0  1  0.50000000  0.50000000  0.50000000  1
  Li  Li1  1  0.35356100  0.35356100  0.35356100  1
  Li  Li2  1  0.64643900  0.64643900  0.64643900  1
  Li  Li3  1  0.21365400  0.21365400  0.21365400  1
  Li  Li4  1  0.78634600  0.78634600  0.78634600  1
  Sn  Sn5  1  0.07360300  0.07360300  0.07360300  1
  Sn  Sn6  1  0.92639700  0.92639700  0.92639700  1
