# generated using pymatgen
data_Ca3BN3
_symmetry_space_group_name_H-M   'P 1'
_cell_length_a   3.57110200
_cell_length_b   3.57110200
_cell_length_c   8.16881200
_cell_angle_alpha   90.00000000
_cell_angle_beta   90.00000000
_cell_angle_gamma   90.00000000
_symmetry_Int_Tables_number   1
_chemical_formula_structural   Ca3BN3
_chemical_formula_sum   'Ca3 B1 N3'
_cell_volume   104.17497648
_cell_formula_units_Z   1
loop_
 _symmetry_equiv_pos_site_id
 _symmetry_equiv_pos_as_xyz
  1  'x, y, z'
loop_
 _atom_site_type_symbol
 _atom_site_label
 _atom_site_symmetry_multiplicity
 _atom_site_fract_x
 _atom_site_fract_y
 _atom_site_fract_z
 _atom_site_occupancy
  Ca  Ca0  1  0.00000000  0.00000000  0.00000000  1
  Ca  Ca1  1  0.50000000  0.50000000  0.72316400  1
  Ca  Ca2  1  0.50000000  0.50000000  0.27683600  1
  B  B3  1  0.00000000  0.00000000  0.50000000  1
  N  N4  1  0.00000000  0.00000000  0.66576100  1
  N  N5  1  0.00000000  0.00000000  0.33423900  1
  N  N6  1  0.50000000  0.50000000  0.00000000  1
