# generated using pymatgen
data_Ca11Ga7
_symmetry_space_group_name_H-M   'P 1'
_cell_length_a   11.39469910
_cell_length_b   11.39469910
_cell_length_c   11.39469910
_cell_angle_alpha   60.00000000
_cell_angle_beta   60.00000000
_cell_angle_gamma   60.00000000
_symmetry_Int_Tables_number   1
_chemical_formula_structural   Ca11Ga7
_chemical_formula_sum   'Ca22 Ga14'
_cell_volume   1046.14909910
_cell_formula_units_Z   2
loop_
 _symmetry_equiv_pos_site_id
 _symmetry_equiv_pos_as_xyz
  1  'x, y, z'
loop_
 _atom_site_type_symbol
 _atom_site_label
 _atom_site_symmetry_multiplicity
 _atom_site_fract_x
 _atom_site_fract_y
 _atom_site_fract_z
 _atom_site_occupancy
  Ca  Ca0  1  0.00000000  0.00000000  0.00000000  1
  Ca  Ca1  1  0.50000000  0.50000000  0.50000000  1
  Ca  Ca2  1  0.12960900  0.12960900  0.12960900  1
  Ca  Ca3  1  0.38882600  0.87039100  0.87039100  1
  Ca  Ca4  1  0.87039100  0.38882600  0.87039100  1
  Ca  Ca5  1  0.87039100  0.87039100  0.38882600  1
  Ca  Ca6  1  0.12960900  0.61117400  0.12960900  1
  Ca  Ca7  1  0.12960900  0.12960900  0.61117400  1
  Ca  Ca8  1  0.61117400  0.12960900  0.12960900  1
  Ca  Ca9  1  0.87039100  0.87039100  0.87039100  1
  Ca  Ca10  1  0.50000000  0.83494300  0.50000000  1
  Ca  Ca11  1  0.83494300  0.50000000  0.50000000  1
  Ca  Ca12  1  0.50000000  0.83494300  0.16505700  1
  Ca  Ca13  1  0.16505700  0.50000000  0.83494300  1
  Ca  Ca14  1  0.83494300  0.50000000  0.16505700  1
  Ca  Ca15  1  0.50000000  0.50000000  0.83494300  1
  Ca  Ca16  1  0.16505700  0.83494300  0.50000000  1
  Ca  Ca17  1  0.50000000  0.16505700  0.83494300  1
  Ca  Ca18  1  0.50000000  0.50000000  0.16505700  1
  Ca  Ca19  1  0.83494300  0.16505700  0.50000000  1
  Ca  Ca20  1  0.16505700  0.50000000  0.50000000  1
  Ca  Ca21  1  0.50000000  0.16505700  0.50000000  1
  Ga  Ga22  1  0.21916800  0.78083200  0.21916800  1
  Ga  Ga23  1  0.21916800  0.78083200  0.78083200  1
  Ga  Ga24  1  0.78083200  0.21916800  0.21916800  1
  Ga  Ga25  1  0.78083200  0.78083200  0.21916800  1
  Ga  Ga26  1  0.21916800  0.21916800  0.78083200  1
  Ga  Ga27  1  0.78083200  0.21916800  0.78083200  1
  Ga  Ga28  1  0.30938800  0.30938700  0.30938700  1
  Ga  Ga29  1  0.92816200  0.69061300  0.69061300  1
  Ga  Ga30  1  0.69061300  0.92816200  0.69061300  1
  Ga  Ga31  1  0.69061300  0.69061300  0.92816200  1
  Ga  Ga32  1  0.30938700  0.07183800  0.30938700  1
  Ga  Ga33  1  0.30938700  0.30938700  0.07183800  1
  Ga  Ga34  1  0.07183800  0.30938700  0.30938700  1
  Ga  Ga35  1  0.69061300  0.69061300  0.69061200  1
