# generated using pymatgen
data_YPS4
_symmetry_space_group_name_H-M   'P 1'
_cell_length_a   12.24994217
_cell_length_b   12.24994217
_cell_length_c   12.24994217
_cell_angle_alpha   127.60766441
_cell_angle_beta   127.60766441
_cell_angle_gamma   77.26146369
_symmetry_Int_Tables_number   1
_chemical_formula_structural   YPS4
_chemical_formula_sum   'Y8 P8 S32'
_cell_volume   1119.36381266
_cell_formula_units_Z   8
loop_
 _symmetry_equiv_pos_site_id
 _symmetry_equiv_pos_as_xyz
  1  'x, y, z'
loop_
 _atom_site_type_symbol
 _atom_site_label
 _atom_site_symmetry_multiplicity
 _atom_site_fract_x
 _atom_site_fract_y
 _atom_site_fract_z
 _atom_site_occupancy
  Y  Y0  1  0.50000000  0.50000000  0.00000000  1
  Y  Y1  1  0.25000000  0.75000000  0.50000000  1
  Y  Y2  1  0.75000000  0.25000000  0.50000000  1
  Y  Y3  1  0.00000000  0.00000000  0.00000000  1
  Y  Y4  1  0.25000000  0.25000000  0.00000000  1
  Y  Y5  1  0.00000000  0.50000000  0.50000000  1
  Y  Y6  1  0.50000000  0.00000000  0.50000000  1
  Y  Y7  1  0.75000000  0.75000000  0.00000000  1
  P  P8  1  0.62500000  0.91256200  0.78756200  1
  P  P9  1  0.62500000  0.41256200  0.28756200  1
  P  P10  1  0.16256200  0.37500000  0.28756200  1
  P  P11  1  0.08743800  0.87500000  0.71243800  1
  P  P12  1  0.12500000  0.33743800  0.71243800  1
  P  P13  1  0.12500000  0.83743800  0.21243800  1
  P  P14  1  0.58743800  0.87500000  0.21243800  1
  P  P15  1  0.66256200  0.37500000  0.78756200  1
  S  S16  1  0.98643200  0.70987000  0.45213600  1
  S  S17  1  0.25773400  0.53429600  0.54786400  1
  S  S18  1  0.28429600  0.23643200  0.77656200  1
  S  S19  1  0.45987000  0.50773400  0.22343800  1
  S  S20  1  0.99226600  0.04013000  0.77656200  1
  S  S21  1  0.26356800  0.21570400  0.22343800  1
  S  S22  1  0.79013000  0.51356800  0.54786400  1
  S  S23  1  0.96570400  0.24226600  0.45213600  1
  S  S24  1  0.77979700  0.96849000  0.31890000  1
  S  S25  1  0.71849000  0.89959000  0.68869300  1
  S  S26  1  0.21089700  0.02979700  0.31130700  1
  S  S27  1  0.47020300  0.28910300  0.68869300  1
  S  S28  1  0.60041000  0.78151000  0.31130700  1
  S  S29  1  0.03910300  0.85041000  0.31890000  1
  S  S30  1  0.53151000  0.72020300  0.68110000  1
  S  S31  1  0.64959000  0.46089700  0.68110000  1
  S  S32  1  0.97020300  0.28151000  0.18110000  1
  S  S33  1  0.03151000  0.35041000  0.81130700  1
  S  S34  1  0.53910300  0.22020300  0.18869300  1
  S  S35  1  0.27979700  0.96089700  0.81130700  1
  S  S36  1  0.14959000  0.46849000  0.18869300  1
  S  S37  1  0.71089700  0.39959000  0.18110000  1
  S  S38  1  0.21849000  0.52979700  0.81890000  1
  S  S39  1  0.10041000  0.78910300  0.81890000  1
  S  S40  1  0.49226600  0.71570400  0.95213600  1
  S  S41  1  0.46570400  0.01356800  0.72343800  1
  S  S42  1  0.29013000  0.74226600  0.27656200  1
  S  S43  1  0.75773400  0.20987000  0.72343800  1
  S  S44  1  0.48643200  0.03429600  0.27656200  1
  S  S45  1  0.95987000  0.73643200  0.95213600  1
  S  S46  1  0.78429600  0.00773400  0.04786400  1
  S  S47  1  0.76356800  0.54013000  0.04786400  1
