# generated using pymatgen
data_RbHfF5
_symmetry_space_group_name_H-M   'P 1'
_cell_length_a   7.87229164
_cell_length_b   7.87229164
_cell_length_c   7.99580600
_cell_angle_alpha   90.00000000
_cell_angle_beta   90.00000000
_cell_angle_gamma   118.90241321
_symmetry_Int_Tables_number   1
_chemical_formula_structural   RbHfF5
_chemical_formula_sum   'Rb4 Hf4 F20'
_cell_volume   433.80350215
_cell_formula_units_Z   4
loop_
 _symmetry_equiv_pos_site_id
 _symmetry_equiv_pos_as_xyz
  1  'x, y, z'
loop_
 _atom_site_type_symbol
 _atom_site_label
 _atom_site_symmetry_multiplicity
 _atom_site_fract_x
 _atom_site_fract_y
 _atom_site_fract_z
 _atom_site_occupancy
  Rb  Rb0  1  0.79509600  0.20490400  0.50000000  1
  Rb  Rb1  1  0.70490400  0.29509600  0.00000000  1
  Rb  Rb2  1  0.20490400  0.79509600  0.50000000  1
  Rb  Rb3  1  0.29509600  0.70490400  0.00000000  1
  Hf  Hf4  1  0.66152800  0.66152800  0.66093800  1
  Hf  Hf5  1  0.83847200  0.83847200  0.16093800  1
  Hf  Hf6  1  0.33847200  0.33847200  0.33906200  1
  Hf  Hf7  1  0.16152800  0.16152800  0.83906200  1
  F  F8  1  0.08701200  0.91298800  0.00000000  1
  F  F9  1  0.41298800  0.58701200  0.50000000  1
  F  F10  1  0.91298800  0.08701200  0.00000000  1
  F  F11  1  0.58701200  0.41298800  0.50000000  1
  F  F12  1  0.28918800  0.28918800  0.06297500  1
  F  F13  1  0.21081200  0.21081200  0.56297500  1
  F  F14  1  0.71081200  0.71081200  0.93702500  1
  F  F15  1  0.78918800  0.78918800  0.43702500  1
  F  F16  1  0.57098200  0.85599300  0.70950400  1
  F  F17  1  0.92901800  0.64400700  0.20950400  1
  F  F18  1  0.42901800  0.14400700  0.29049600  1
  F  F19  1  0.07098200  0.35599300  0.79049600  1
  F  F20  1  0.85599300  0.57098200  0.70950400  1
  F  F21  1  0.64400700  0.92901800  0.20950400  1
  F  F22  1  0.14400700  0.42901800  0.29049600  1
  F  F23  1  0.35599300  0.07098200  0.79049600  1
  F  F24  1  0.43868600  0.43868600  0.78980500  1
  F  F25  1  0.06131400  0.06131400  0.28980500  1
  F  F26  1  0.56131400  0.56131400  0.21019500  1
  F  F27  1  0.93868600  0.93868600  0.71019500  1
