# generated using pymatgen
data_Sr(PrSe2)2
_symmetry_space_group_name_H-M   'P 1'
_cell_length_a   7.88669902
_cell_length_b   7.88669902
_cell_length_c   7.88669902
_cell_angle_alpha   109.44519845
_cell_angle_beta   109.44519845
_cell_angle_gamma   109.52327754
_symmetry_Int_Tables_number   1
_chemical_formula_structural   Sr(PrSe2)2
_chemical_formula_sum   'Sr2 Pr4 Se8'
_cell_volume   377.62752493
_cell_formula_units_Z   2
loop_
 _symmetry_equiv_pos_site_id
 _symmetry_equiv_pos_as_xyz
  1  'x, y, z'
loop_
 _atom_site_type_symbol
 _atom_site_label
 _atom_site_symmetry_multiplicity
 _atom_site_fract_x
 _atom_site_fract_y
 _atom_site_fract_z
 _atom_site_occupancy
  Sr  Sr0  1  0.75000000  0.25000000  0.50000000  1
  Sr  Sr1  1  0.50000000  0.50000000  0.00000000  1
  Pr  Pr2  1  0.99827100  0.37500000  0.12327100  1
  Pr  Pr3  1  0.62500000  0.74827100  0.62327100  1
  Pr  Pr4  1  0.25172900  0.87500000  0.87672900  1
  Pr  Pr5  1  0.12500000  0.00172900  0.37672900  1
  Se  Se6  1  0.36709900  0.27022600  0.24938400  1
  Se  Se7  1  0.88290100  0.63228500  0.40312700  1
  Se  Se8  1  0.22915800  0.47977400  0.59687300  1
  Se  Se9  1  0.88228500  0.63290100  0.90312700  1
  Se  Se10  1  0.36771500  0.77084200  0.25061600  1
  Se  Se11  1  0.52022600  0.11709900  0.74938400  1
  Se  Se12  1  0.72977400  0.97915800  0.09687300  1
  Se  Se13  1  0.02084200  0.11771500  0.75061600  1
