# generated using pymatgen
data_ZrP2S7
_symmetry_space_group_name_H-M   'P 1'
_cell_length_a   16.92753810
_cell_length_b   15.80628424
_cell_length_c   8.85947995
_cell_angle_alpha   81.41924978
_cell_angle_beta   67.41481478
_cell_angle_gamma   31.16593544
_symmetry_Int_Tables_number   1
_chemical_formula_structural   ZrP2S7
_chemical_formula_sum   'Zr4 P8 S28'
_cell_volume   1049.78918800
_cell_formula_units_Z   4
loop_
 _symmetry_equiv_pos_site_id
 _symmetry_equiv_pos_as_xyz
  1  'x, y, z'
loop_
 _atom_site_type_symbol
 _atom_site_label
 _atom_site_symmetry_multiplicity
 _atom_site_fract_x
 _atom_site_fract_y
 _atom_site_fract_z
 _atom_site_occupancy
  Zr  Zr0  1  0.88818700  0.88818700  0.11181300  1
  Zr  Zr1  1  0.36181300  0.36181300  0.13818700  1
  Zr  Zr2  1  0.11181300  0.11181300  0.88818700  1
  Zr  Zr3  1  0.13818700  0.13818700  0.36181300  1
  P  P4  1  0.74947400  0.13503700  0.87006300  1
  P  P5  1  0.13503700  0.74947400  0.24542600  1
  P  P6  1  0.50052600  0.11496300  0.37993700  1
  P  P7  1  0.11496300  0.50052600  0.00457400  1
  P  P8  1  0.37993700  0.00457400  0.50052600  1
  P  P9  1  0.00457400  0.37993700  0.11496300  1
  P  P10  1  0.87006300  0.24542600  0.74947400  1
  P  P11  1  0.24542600  0.87006300  0.13503700  1
  S  S12  1  0.72967300  0.27032700  0.72967300  1
  S  S13  1  0.10871900  0.24555600  0.64458200  1
  S  S14  1  0.00444400  0.14128100  0.24885600  1
  S  S15  1  0.14128100  0.00444400  0.60541800  1
  S  S16  1  0.95552500  0.43773200  0.35810000  1
  S  S17  1  0.43773200  0.95552500  0.24864300  1
  S  S18  1  0.29447500  0.81226800  0.89190000  1
  S  S19  1  0.81226800  0.29447500  0.00135700  1
  S  S20  1  0.84238700  0.44699800  0.09175500  1
  S  S21  1  0.24555600  0.10871900  0.00114400  1
  S  S22  1  0.40761300  0.80300200  0.15824500  1
  S  S23  1  0.80300200  0.40761300  0.63114000  1
  S  S24  1  0.09175500  0.61886000  0.84238700  1
  S  S25  1  0.61886000  0.09175500  0.44699800  1
  S  S26  1  0.15824500  0.63114000  0.40761300  1
  S  S27  1  0.63114000  0.15824500  0.80300200  1
  S  S28  1  0.35810000  0.24864300  0.95552500  1
  S  S29  1  0.24864300  0.35810000  0.43773200  1
  S  S30  1  0.89190000  0.00135700  0.29447500  1
  S  S31  1  0.00135700  0.89190000  0.81226800  1
  S  S32  1  0.00114400  0.64458200  0.24555600  1
  S  S33  1  0.64458200  0.00114400  0.10871900  1
  S  S34  1  0.24885600  0.60541800  0.00444400  1
  S  S35  1  0.60541800  0.24885600  0.14128100  1
  S  S36  1  0.52032700  0.97967300  0.52032700  1
  S  S37  1  0.97967300  0.52032700  0.97967300  1
  S  S38  1  0.44699800  0.84238700  0.61886000  1
  S  S39  1  0.27032700  0.72967300  0.27032700  1
