# generated using pymatgen
data_Ho2Zn17
_symmetry_space_group_name_H-M   'P 1'
_cell_length_a   6.79114833
_cell_length_b   6.79114833
_cell_length_c   6.79114813
_cell_angle_alpha   82.49837572
_cell_angle_beta   82.49837572
_cell_angle_gamma   82.49837888
_symmetry_Int_Tables_number   1
_chemical_formula_structural   Ho2Zn17
_chemical_formula_sum   'Ho2 Zn17'
_cell_volume   305.80765100
_cell_formula_units_Z   1
loop_
 _symmetry_equiv_pos_site_id
 _symmetry_equiv_pos_as_xyz
  1  'x, y, z'
loop_
 _atom_site_type_symbol
 _atom_site_label
 _atom_site_symmetry_multiplicity
 _atom_site_fract_x
 _atom_site_fract_y
 _atom_site_fract_z
 _atom_site_occupancy
  Ho  Ho0  1  0.66499800  0.66499800  0.66499800  1
  Ho  Ho1  1  0.33500200  0.33500200  0.33500200  1
  Zn  Zn2  1  0.35203700  0.35203700  0.83803800  1
  Zn  Zn3  1  0.83803800  0.35203700  0.35203700  1
  Zn  Zn4  1  0.10008300  0.10008300  0.10008300  1
  Zn  Zn5  1  0.89991700  0.89991700  0.89991700  1
  Zn  Zn6  1  0.00000000  0.00000000  0.50000000  1
  Zn  Zn7  1  0.00000000  0.50000000  0.00000000  1
  Zn  Zn8  1  0.50000000  0.00000000  0.00000000  1
  Zn  Zn9  1  0.29821500  0.70178500  0.00000000  1
  Zn  Zn10  1  0.70178500  0.00000000  0.29821500  1
  Zn  Zn11  1  0.00000000  0.29821500  0.70178500  1
  Zn  Zn12  1  0.70178500  0.29821500  0.00000000  1
  Zn  Zn13  1  0.29821500  0.00000000  0.70178500  1
  Zn  Zn14  1  0.00000000  0.70178500  0.29821500  1
  Zn  Zn15  1  0.16196200  0.64796300  0.64796300  1
  Zn  Zn16  1  0.64796300  0.64796300  0.16196200  1
  Zn  Zn17  1  0.64796300  0.16196200  0.64796300  1
  Zn  Zn18  1  0.35203700  0.83803800  0.35203700  1
