# generated using pymatgen
data_Th5Sn4
_symmetry_space_group_name_H-M   'P 1'
_cell_length_a   9.70988158
_cell_length_b   9.70988158
_cell_length_c   6.58880700
_cell_angle_alpha   90.00000000
_cell_angle_beta   90.00000000
_cell_angle_gamma   119.99999717
_symmetry_Int_Tables_number   1
_chemical_formula_structural   Th5Sn4
_chemical_formula_sum   'Th10 Sn8'
_cell_volume   537.97896808
_cell_formula_units_Z   2
loop_
 _symmetry_equiv_pos_site_id
 _symmetry_equiv_pos_as_xyz
  1  'x, y, z'
loop_
 _atom_site_type_symbol
 _atom_site_label
 _atom_site_symmetry_multiplicity
 _atom_site_fract_x
 _atom_site_fract_y
 _atom_site_fract_z
 _atom_site_occupancy
  Th  Th0  1  0.00000000  0.72068500  0.75000000  1
  Th  Th1  1  0.27931500  0.27931500  0.75000000  1
  Th  Th2  1  0.33333300  0.66666700  0.50000000  1
  Th  Th3  1  0.66666700  0.33333300  0.50000000  1
  Th  Th4  1  0.72068500  0.72068500  0.25000000  1
  Th  Th5  1  0.72068500  0.00000000  0.75000000  1
  Th  Th6  1  0.00000000  0.27931500  0.25000000  1
  Th  Th7  1  0.27931500  0.00000000  0.25000000  1
  Th  Th8  1  0.33333300  0.66666700  0.00000000  1
  Th  Th9  1  0.66666700  0.33333300  0.00000000  1
  Sn  Sn10  1  0.61891600  0.61891600  0.75000000  1
  Sn  Sn11  1  0.00000000  0.38108400  0.75000000  1
  Sn  Sn12  1  0.38108400  0.00000000  0.75000000  1
  Sn  Sn13  1  0.61891600  0.00000000  0.25000000  1
  Sn  Sn14  1  0.38108400  0.38108400  0.25000000  1
  Sn  Sn15  1  0.00000000  0.00000000  0.00000000  1
  Sn  Sn16  1  0.00000000  0.61891600  0.25000000  1
  Sn  Sn17  1  0.00000000  0.00000000  0.50000000  1
