# generated using pymatgen
data_SnHgF6
_symmetry_space_group_name_H-M   'P 1'
_cell_length_a   6.04769224
_cell_length_b   6.04769224
_cell_length_c   6.04769216
_cell_angle_alpha   55.42593412
_cell_angle_beta   55.42593412
_cell_angle_gamma   55.42592559
_symmetry_Int_Tables_number   1
_chemical_formula_structural   SnHgF6
_chemical_formula_sum   'Sn1 Hg1 F6'
_cell_volume   139.79035087
_cell_formula_units_Z   1
loop_
 _symmetry_equiv_pos_site_id
 _symmetry_equiv_pos_as_xyz
  1  'x, y, z'
loop_
 _atom_site_type_symbol
 _atom_site_label
 _atom_site_symmetry_multiplicity
 _atom_site_fract_x
 _atom_site_fract_y
 _atom_site_fract_z
 _atom_site_occupancy
  Sn  Sn0  1  0.00000000  0.00000000  0.00000000  1
  Hg  Hg1  1  0.50000000  0.50000000  0.50000000  1
  F  F2  1  0.23298100  0.88745200  0.65309300  1
  F  F3  1  0.88745200  0.65309300  0.23298100  1
  F  F4  1  0.65309300  0.23298100  0.88745200  1
  F  F5  1  0.34690700  0.76701900  0.11254800  1
  F  F6  1  0.11254800  0.34690700  0.76701900  1
  F  F7  1  0.76701900  0.11254800  0.34690700  1
