# generated using pymatgen
data_Sr6Mg23
_symmetry_space_group_name_H-M   'P 1'
_cell_length_a   10.55061442
_cell_length_b   10.55061442
_cell_length_c   10.55061442
_cell_angle_alpha   60.00000000
_cell_angle_beta   60.00000000
_cell_angle_gamma   60.00000000
_symmetry_Int_Tables_number   1
_chemical_formula_structural   Sr6Mg23
_chemical_formula_sum   'Sr6 Mg23'
_cell_volume   830.45911641
_cell_formula_units_Z   1
loop_
 _symmetry_equiv_pos_site_id
 _symmetry_equiv_pos_as_xyz
  1  'x, y, z'
loop_
 _atom_site_type_symbol
 _atom_site_label
 _atom_site_symmetry_multiplicity
 _atom_site_fract_x
 _atom_site_fract_y
 _atom_site_fract_z
 _atom_site_occupancy
  Sr  Sr0  1  0.20717600  0.20717600  0.79282400  1
  Sr  Sr1  1  0.20717600  0.79282400  0.79282400  1
  Sr  Sr2  1  0.79282400  0.20717600  0.20717600  1
  Sr  Sr3  1  0.20717600  0.79282400  0.20717600  1
  Sr  Sr4  1  0.79282400  0.20717600  0.79282400  1
  Sr  Sr5  1  0.79282400  0.79282400  0.20717600  1
  Mg  Mg6  1  0.50000000  0.50000000  0.50000000  1
  Mg  Mg7  1  0.50000000  0.50000000  0.00000000  1
  Mg  Mg8  1  0.00000000  0.50000000  0.50000000  1
  Mg  Mg9  1  0.50000000  0.00000000  0.00000000  1
  Mg  Mg10  1  0.00000000  0.00000000  0.50000000  1
  Mg  Mg11  1  0.00000000  0.50000000  0.00000000  1
  Mg  Mg12  1  0.50000000  0.00000000  0.50000000  1
  Mg  Mg13  1  0.62209900  0.13370400  0.62209900  1
  Mg  Mg14  1  0.37790100  0.37790100  0.86629600  1
  Mg  Mg15  1  0.86629600  0.37790100  0.37790100  1
  Mg  Mg16  1  0.37790100  0.37790100  0.37790100  1
  Mg  Mg17  1  0.13370400  0.62209900  0.62209900  1
  Mg  Mg18  1  0.62209900  0.62209900  0.62209900  1
  Mg  Mg19  1  0.62209900  0.62209900  0.13370400  1
  Mg  Mg20  1  0.37790100  0.86629600  0.37790100  1
  Mg  Mg21  1  0.82542400  0.52372900  0.82542400  1
  Mg  Mg22  1  0.17457600  0.17457600  0.47627100  1
  Mg  Mg23  1  0.47627100  0.17457600  0.17457600  1
  Mg  Mg24  1  0.17457600  0.17457600  0.17457600  1
  Mg  Mg25  1  0.52372900  0.82542400  0.82542400  1
  Mg  Mg26  1  0.82542400  0.82542400  0.82542400  1
  Mg  Mg27  1  0.82542400  0.82542400  0.52372900  1
  Mg  Mg28  1  0.17457600  0.47627100  0.17457600  1
