# generated using pymatgen
data_H18SO12
_symmetry_space_group_name_H-M   'P 1'
_cell_length_a   7.43991878
_cell_length_b   7.43991878
_cell_length_c   11.99662520
_cell_angle_alpha   71.95958253
_cell_angle_beta   71.95958253
_cell_angle_gamma   89.99015450
_symmetry_Int_Tables_number   1
_chemical_formula_structural   H18SO12
_chemical_formula_sum   'H36 S2 O24'
_cell_volume   596.98062511
_cell_formula_units_Z   2
loop_
 _symmetry_equiv_pos_site_id
 _symmetry_equiv_pos_as_xyz
  1  'x, y, z'
loop_
 _atom_site_type_symbol
 _atom_site_label
 _atom_site_symmetry_multiplicity
 _atom_site_fract_x
 _atom_site_fract_y
 _atom_site_fract_z
 _atom_site_occupancy
  H  H0  1  0.84326500  0.31489400  0.61273300  1
  H  H1  1  0.31489400  0.84326500  0.11273300  1
  H  H2  1  0.94682600  0.15833500  0.55336600  1
  H  H3  1  0.15833500  0.94682600  0.05336600  1
  H  H4  1  0.15678000  0.67754400  0.88742100  1
  H  H5  1  0.67754400  0.15678000  0.38742100  1
  H  H6  1  0.05309400  0.46184600  0.94679600  1
  H  H7  1  0.46184600  0.05309400  0.44679600  1
  H  H8  1  0.10339300  0.35380600  0.54191800  1
  H  H9  1  0.35380600  0.10339300  0.04191800  1
  H  H10  1  0.25024000  0.53757900  0.55341500  1
  H  H11  1  0.53757900  0.25024000  0.05341500  1
  H  H12  1  0.29358300  0.32097100  0.61206100  1
  H  H13  1  0.32097100  0.29358300  0.11206100  1
  H  H14  1  0.70672500  0.68328300  0.88765800  1
  H  H15  1  0.68328300  0.70672500  0.38765800  1
  H  H16  1  0.74990700  0.84144000  0.94633000  1
  H  H17  1  0.84144000  0.74990700  0.44633000  1
  H  H18  1  0.89642900  0.64623500  0.95802800  1
  H  H19  1  0.64623500  0.89642900  0.45802800  1
  H  H20  1  0.55172200  0.27496500  0.73756000  1
  H  H21  1  0.27496500  0.55172200  0.23756000  1
  H  H22  1  0.70820300  0.23545000  0.80633000  1
  H  H23  1  0.23545000  0.70820300  0.30633000  1
  H  H24  1  0.29172600  0.79163800  0.69367100  1
  H  H25  1  0.79163800  0.29172600  0.19367100  1
  H  H26  1  0.54763100  0.66526200  0.25405800  1
  H  H27  1  0.66526200  0.54763100  0.75405800  1
  H  H28  1  0.76129800  0.76675400  0.19313900  1
  H  H29  1  0.76675400  0.76129800  0.69313900  1
  H  H30  1  0.20454800  0.23332000  0.30677000  1
  H  H31  1  0.23332000  0.20454800  0.80677000  1
  H  H32  1  0.05167600  0.33481200  0.24590500  1
  H  H33  1  0.33481200  0.05167600  0.74590500  1
  H  H34  1  0.76253000  0.44828400  0.26237200  1
  H  H35  1  0.44828400  0.76253000  0.76237200  1
  S  S36  1  0.12499400  0.87466600  0.50002100  1
  S  S37  1  0.87466600  0.12499400  0.00002100  1
  O  O38  1  0.95076700  0.29867900  0.54095200  1
  O  O39  1  0.29867900  0.95076700  0.04095200  1
  O  O40  1  0.04930700  0.58976600  0.95921000  1
  O  O41  1  0.58976600  0.04930700  0.45921000  1
  O  O42  1  0.25827900  0.40990600  0.54061600  1
  O  O43  1  0.40990600  0.25827900  0.04061600  1
  O  O44  1  0.74202500  0.70097400  0.95910900  1
  O  O45  1  0.70097400  0.74202500  0.45910900  1
  O  O46  1  0.67813500  0.32614600  0.73525500  1
  O  O47  1  0.32614600  0.67813500  0.23525500  1
  O  O48  1  0.32185400  0.81139800  0.76470400  1
  O  O49  1  0.81139800  0.32185400  0.26470400  1
  O  O50  1  0.33849400  0.19083200  0.73546900  1
  O  O51  1  0.19083200  0.33849400  0.23546900  1
  O  O52  1  0.66163100  0.67635400  0.76450000  1
  O  O53  1  0.67635400  0.66163100  0.26450000  1
  O  O54  1  0.94887000  0.92731500  0.57922900  1
  O  O55  1  0.92731500  0.94887000  0.07922900  1
  O  O56  1  0.25666700  0.05088900  0.42093200  1
  O  O57  1  0.05088900  0.25666700  0.92093200  1
  O  O58  1  0.22212800  0.74275700  0.57908500  1
  O  O59  1  0.74275700  0.22212800  0.07908500  1
  O  O60  1  0.07216900  0.77778300  0.42078600  1
  O  O61  1  0.77778300  0.07216900  0.92078600  1
