# generated using pymatgen
data_Sr(PPd)2
_symmetry_space_group_name_H-M   'P 1'
_cell_length_a   5.76877176
_cell_length_b   5.76877176
_cell_length_c   5.76877176
_cell_angle_alpha   136.45340073
_cell_angle_beta   136.45340073
_cell_angle_gamma   63.28014411
_symmetry_Int_Tables_number   1
_chemical_formula_structural   Sr(PPd)2
_chemical_formula_sum   'Sr1 P2 Pd2'
_cell_volume   89.95376034
_cell_formula_units_Z   1
loop_
 _symmetry_equiv_pos_site_id
 _symmetry_equiv_pos_as_xyz
  1  'x, y, z'
loop_
 _atom_site_type_symbol
 _atom_site_label
 _atom_site_symmetry_multiplicity
 _atom_site_fract_x
 _atom_site_fract_y
 _atom_site_fract_z
 _atom_site_occupancy
  Sr  Sr0  1  0.00000000  0.00000000  0.00000000  1
  P  P1  1  0.61432300  0.61432300  0.00000000  1
  P  P2  1  0.38567700  0.38567700  0.00000000  1
  Pd  Pd3  1  0.75000000  0.25000000  0.50000000  1
  Pd  Pd4  1  0.25000000  0.75000000  0.50000000  1
