# generated using pymatgen
data_BaZnF4
_symmetry_space_group_name_H-M   'P 1'
_cell_length_a   7.75147133
_cell_length_b   7.75147133
_cell_length_c   5.97025100
_cell_angle_alpha   90.00000000
_cell_angle_beta   90.00000000
_cell_angle_gamma   148.15270021
_symmetry_Int_Tables_number   1
_chemical_formula_structural   BaZnF4
_chemical_formula_sum   'Ba2 Zn2 F8'
_cell_volume   189.28350803
_cell_formula_units_Z   2
loop_
 _symmetry_equiv_pos_site_id
 _symmetry_equiv_pos_as_xyz
  1  'x, y, z'
loop_
 _atom_site_type_symbol
 _atom_site_label
 _atom_site_symmetry_multiplicity
 _atom_site_fract_x
 _atom_site_fract_y
 _atom_site_fract_z
 _atom_site_occupancy
  Ba  Ba0  1  0.14939300  0.85060700  0.04382300  1
  Ba  Ba1  1  0.85060700  0.14939300  0.54382300  1
  Zn  Zn2  1  0.58571900  0.41428100  0.50068700  1
  Zn  Zn3  1  0.41428100  0.58571900  0.00068700  1
  F  F4  1  0.07752100  0.92247900  0.48103500  1
  F  F5  1  0.92247900  0.07752100  0.98103500  1
  F  F6  1  0.53111000  0.46889000  0.16788700  1
  F  F7  1  0.46889000  0.53111000  0.66788700  1
  F  F8  1  0.30164200  0.69835800  0.80537200  1
  F  F9  1  0.69835800  0.30164200  0.30537200  1
  F  F10  1  0.33509600  0.66490400  0.27271500  1
  F  F11  1  0.66490400  0.33509600  0.77271500  1
