# generated using pymatgen
data_Ca2As3
_symmetry_space_group_name_H-M   'P 1'
_cell_length_a   5.85844800
_cell_length_b   12.03680700
_cell_length_c   18.18277615
_cell_angle_alpha   49.36270001
_cell_angle_beta   90.00000000
_cell_angle_gamma   90.00000000
_symmetry_Int_Tables_number   1
_chemical_formula_structural   Ca2As3
_chemical_formula_sum   'Ca16 As24'
_cell_volume   972.99043116
_cell_formula_units_Z   8
loop_
 _symmetry_equiv_pos_site_id
 _symmetry_equiv_pos_as_xyz
  1  'x, y, z'
loop_
 _atom_site_type_symbol
 _atom_site_label
 _atom_site_symmetry_multiplicity
 _atom_site_fract_x
 _atom_site_fract_y
 _atom_site_fract_z
 _atom_site_occupancy
  Ca  Ca0  1  0.24558000  0.37544000  0.99920400  1
  Ca  Ca1  1  0.24558000  0.62456000  0.50079600  1
  Ca  Ca2  1  0.75442000  0.62456000  0.00079600  1
  Ca  Ca3  1  0.75442000  0.37544000  0.49920400  1
  Ca  Ca4  1  0.25994500  0.13348500  0.49088000  1
  Ca  Ca5  1  0.25994500  0.86651500  0.00912000  1
  Ca  Ca6  1  0.74005500  0.86651500  0.50912000  1
  Ca  Ca7  1  0.74005500  0.13348500  0.99088000  1
  Ca  Ca8  1  0.54800800  0.75909100  0.24894800  1
  Ca  Ca9  1  0.54800800  0.24090900  0.25105200  1
  Ca  Ca10  1  0.45199200  0.24090900  0.75105200  1
  Ca  Ca11  1  0.45199200  0.75909100  0.74894800  1
  Ca  Ca12  1  0.96011600  0.00000000  0.25000000  1
  Ca  Ca13  1  0.03988400  0.00000000  0.75000000  1
  Ca  Ca14  1  0.90853100  0.50000000  0.25000000  1
  Ca  Ca15  1  0.09146900  0.50000000  0.75000000  1
  As  As16  1  0.54674900  0.92507900  0.84187000  1
  As  As17  1  0.54674900  0.07492100  0.65813000  1
  As  As18  1  0.45325100  0.07492100  0.15813000  1
  As  As19  1  0.45325100  0.92507900  0.34187000  1
  As  As20  1  0.73166400  0.71372900  0.42250100  1
  As  As21  1  0.73166400  0.28627100  0.07749900  1
  As  As22  1  0.26833600  0.28627100  0.57749900  1
  As  As23  1  0.26833600  0.71372900  0.92250100  1
  As  As24  1  0.39695000  0.54815600  0.16451200  1
  As  As25  1  0.39695000  0.45184400  0.33548800  1
  As  As26  1  0.60305000  0.45184400  0.83548800  1
  As  As27  1  0.60305000  0.54815600  0.66451200  1
  As  As28  1  0.04983000  0.15712800  0.32902900  1
  As  As29  1  0.04983000  0.84287200  0.17097100  1
  As  As30  1  0.95017000  0.84287200  0.67097100  1
  As  As31  1  0.95017000  0.15712800  0.82902900  1
  As  As32  1  0.22581500  0.18828000  0.92230200  1
  As  As33  1  0.22581500  0.81172000  0.57769800  1
  As  As34  1  0.77418500  0.81172000  0.07769800  1
  As  As35  1  0.77418500  0.18828000  0.42230200  1
  As  As36  1  0.09676100  0.39410600  0.15496100  1
  As  As37  1  0.09676100  0.60589400  0.34503900  1
  As  As38  1  0.90323900  0.60589400  0.84503900  1
  As  As39  1  0.90323900  0.39410600  0.65496100  1
