# generated using pymatgen
data_PrSi2Ru
_symmetry_space_group_name_H-M   'P 1'
_cell_length_a   4.08317600
_cell_length_b   4.52641600
_cell_length_c   8.34538141
_cell_angle_alpha   78.06297621
_cell_angle_beta   90.00000000
_cell_angle_gamma   90.00000000
_symmetry_Int_Tables_number   1
_chemical_formula_structural   PrSi2Ru
_chemical_formula_sum   'Pr2 Si4 Ru2'
_cell_volume   150.90524667
_cell_formula_units_Z   2
loop_
 _symmetry_equiv_pos_site_id
 _symmetry_equiv_pos_as_xyz
  1  'x, y, z'
loop_
 _atom_site_type_symbol
 _atom_site_label
 _atom_site_symmetry_multiplicity
 _atom_site_fract_x
 _atom_site_fract_y
 _atom_site_fract_z
 _atom_site_occupancy
  Pr  Pr0  1  0.25000000  0.58470100  0.80004600  1
  Pr  Pr1  1  0.75000000  0.41529900  0.19995400  1
  Si  Si2  1  0.25000000  0.33199500  0.49116700  1
  Si  Si3  1  0.75000000  0.66800500  0.50883300  1
  Si  Si4  1  0.75000000  0.03641600  0.90871000  1
  Si  Si5  1  0.25000000  0.96358400  0.09129000  1
  Ru  Ru6  1  0.75000000  0.12117900  0.61161700  1
  Ru  Ru7  1  0.25000000  0.87882100  0.38838300  1
