# generated using pymatgen
data_CeGa4Os
_symmetry_space_group_name_H-M   'P 1'
_cell_length_a   7.69711100
_cell_length_b   8.88420100
_cell_length_c   9.54489700
_cell_angle_alpha   90.00000000
_cell_angle_beta   90.00000000
_cell_angle_gamma   90.00000000
_symmetry_Int_Tables_number   1
_chemical_formula_structural   CeGa4Os
_chemical_formula_sum   'Ce6 Ga24 Os6'
_cell_volume   652.70564905
_cell_formula_units_Z   6
loop_
 _symmetry_equiv_pos_site_id
 _symmetry_equiv_pos_as_xyz
  1  'x, y, z'
loop_
 _atom_site_type_symbol
 _atom_site_label
 _atom_site_symmetry_multiplicity
 _atom_site_fract_x
 _atom_site_fract_y
 _atom_site_fract_z
 _atom_site_occupancy
  Ce  Ce0  1  0.16337400  0.75356100  0.25000000  1
  Ce  Ce1  1  0.16337400  0.24643900  0.25000000  1
  Ce  Ce2  1  0.83662600  0.75356100  0.75000000  1
  Ce  Ce3  1  0.83662600  0.24643900  0.75000000  1
  Ce  Ce4  1  0.67716100  0.50000000  0.25000000  1
  Ce  Ce5  1  0.32283900  0.50000000  0.75000000  1
  Ga  Ga6  1  0.00000000  0.50000000  0.50000000  1
  Ga  Ga7  1  0.00000000  0.50000000  0.00000000  1
  Ga  Ga8  1  0.12994700  0.00000000  0.75000000  1
  Ga  Ga9  1  0.87005300  0.00000000  0.25000000  1
  Ga  Ga10  1  0.33754800  0.00000000  0.06445300  1
  Ga  Ga11  1  0.33754800  0.00000000  0.43554700  1
  Ga  Ga12  1  0.66245200  0.00000000  0.93554700  1
  Ga  Ga13  1  0.66245200  0.00000000  0.56445300  1
  Ga  Ga14  1  0.65593000  0.50000000  0.58962700  1
  Ga  Ga15  1  0.65593000  0.50000000  0.91037300  1
  Ga  Ga16  1  0.34407000  0.50000000  0.41037300  1
  Ga  Ga17  1  0.34407000  0.50000000  0.08962700  1
  Ga  Ga18  1  0.82247300  0.76145200  0.07946800  1
  Ga  Ga19  1  0.82247300  0.23854800  0.42053200  1
  Ga  Ga20  1  0.17752700  0.76145200  0.92053200  1
  Ga  Ga21  1  0.17752700  0.23854800  0.57946800  1
  Ga  Ga22  1  0.17752700  0.23854800  0.92053200  1
  Ga  Ga23  1  0.17752700  0.76145200  0.57946800  1
  Ga  Ga24  1  0.82247300  0.23854800  0.07946800  1
  Ga  Ga25  1  0.82247300  0.76145200  0.42053200  1
  Ga  Ga26  1  0.54633300  0.84269100  0.25000000  1
  Ga  Ga27  1  0.54633300  0.15730900  0.25000000  1
  Ga  Ga28  1  0.45366700  0.84269100  0.75000000  1
  Ga  Ga29  1  0.45366700  0.15730900  0.75000000  1
  Os  Os30  1  0.50000000  0.73979400  0.00000000  1
  Os  Os31  1  0.50000000  0.26020600  0.50000000  1
  Os  Os32  1  0.50000000  0.26020600  0.00000000  1
  Os  Os33  1  0.50000000  0.73979400  0.50000000  1
  Os  Os34  1  0.00000000  0.00000000  0.00000000  1
  Os  Os35  1  0.00000000  0.00000000  0.50000000  1
