# generated using pymatgen
data_CsAs4F13
_symmetry_space_group_name_H-M   'P 1'
_cell_length_a   7.72389650
_cell_length_b   7.72389650
_cell_length_c   7.72389650
_cell_angle_alpha   101.35502139
_cell_angle_beta   101.35502139
_cell_angle_gamma   127.31700866
_symmetry_Int_Tables_number   1
_chemical_formula_structural   CsAs4F13
_chemical_formula_sum   'Cs1 As4 F13'
_cell_volume   328.41646836
_cell_formula_units_Z   1
loop_
 _symmetry_equiv_pos_site_id
 _symmetry_equiv_pos_as_xyz
  1  'x, y, z'
loop_
 _atom_site_type_symbol
 _atom_site_label
 _atom_site_symmetry_multiplicity
 _atom_site_fract_x
 _atom_site_fract_y
 _atom_site_fract_z
 _atom_site_occupancy
  Cs  Cs0  1  0.00000000  0.00000000  0.00000000  1
  As  As1  1  0.78829300  0.46475200  0.28927700  1
  As  As2  1  0.53524800  0.82452600  0.32354100  1
  As  As3  1  0.50098500  0.21170700  0.67645900  1
  As  As4  1  0.17547400  0.49901500  0.71072300  1
  F  F5  1  0.99265500  0.42842300  0.26966700  1
  F  F6  1  0.57157700  0.84124300  0.56423200  1
  F  F7  1  0.27701100  0.00734500  0.43576800  1
  F  F8  1  0.15875700  0.72298900  0.73033300  1
  F  F9  1  0.52567500  0.16863200  0.12568500  1
  F  F10  1  0.75000000  0.25000000  0.50000000  1
  F  F11  1  0.46846600  0.71389900  0.90930000  1
  F  F12  1  0.28610100  0.19540100  0.75456600  1
  F  F13  1  0.44083400  0.53153400  0.24543400  1
  F  F14  1  0.80459900  0.55916600  0.09070000  1
  F  F15  1  0.04294700  0.39999000  0.87431500  1
  F  F16  1  0.60001000  0.47432500  0.64295700  1
  F  F17  1  0.83136800  0.95705300  0.35704300  1
