# generated using pymatgen
data_Ba3Al2F12
_symmetry_space_group_name_H-M   'P 1'
_cell_length_a   9.67542000
_cell_length_b   10.04517700
_cell_length_c   10.35237700
_cell_angle_alpha   90.00000000
_cell_angle_beta   90.00000000
_cell_angle_gamma   90.00000000
_symmetry_Int_Tables_number   1
_chemical_formula_structural   Ba3Al2F12
_chemical_formula_sum   'Ba12 Al8 F48'
_cell_volume   1006.16104549
_cell_formula_units_Z   4
loop_
 _symmetry_equiv_pos_site_id
 _symmetry_equiv_pos_as_xyz
  1  'x, y, z'
loop_
 _atom_site_type_symbol
 _atom_site_label
 _atom_site_symmetry_multiplicity
 _atom_site_fract_x
 _atom_site_fract_y
 _atom_site_fract_z
 _atom_site_occupancy
  Ba  Ba0  1  0.50000000  0.85291200  0.85531900  1
  Ba  Ba1  1  0.50000000  0.14708800  0.14468100  1
  Ba  Ba2  1  0.00000000  0.35291200  0.64468100  1
  Ba  Ba3  1  0.00000000  0.64708800  0.35531900  1
  Ba  Ba4  1  0.50000000  0.71259300  0.26837200  1
  Ba  Ba5  1  0.50000000  0.28740700  0.73162800  1
  Ba  Ba6  1  0.00000000  0.21259300  0.23162800  1
  Ba  Ba7  1  0.00000000  0.78740700  0.76837200  1
  Ba  Ba8  1  0.25211400  0.00000000  0.50000000  1
  Ba  Ba9  1  0.24788600  0.50000000  0.00000000  1
  Ba  Ba10  1  0.74788600  0.00000000  0.50000000  1
  Ba  Ba11  1  0.75211400  0.50000000  0.00000000  1
  Al  Al12  1  0.18538400  0.14200100  0.89774400  1
  Al  Al13  1  0.18538400  0.85799900  0.10225600  1
  Al  Al14  1  0.31461600  0.64200100  0.60225600  1
  Al  Al15  1  0.31461600  0.35799900  0.39774400  1
  Al  Al16  1  0.81461600  0.85799900  0.10225600  1
  Al  Al17  1  0.81461600  0.14200100  0.89774400  1
  Al  Al18  1  0.68538400  0.35799900  0.39774400  1
  Al  Al19  1  0.68538400  0.64200100  0.60225600  1
  F  F20  1  0.15090200  0.04984100  0.75276000  1
  F  F21  1  0.15090200  0.95015900  0.24724000  1
  F  F22  1  0.34909800  0.54984100  0.74724000  1
  F  F23  1  0.34909800  0.45015900  0.25276000  1
  F  F24  1  0.84909800  0.95015900  0.24724000  1
  F  F25  1  0.84909800  0.04984100  0.75276000  1
  F  F26  1  0.65090200  0.45015900  0.25276000  1
  F  F27  1  0.65090200  0.54984100  0.74724000  1
  F  F28  1  0.36375400  0.09337600  0.89808100  1
  F  F29  1  0.36375400  0.90662400  0.10191900  1
  F  F30  1  0.13624600  0.59337600  0.60191900  1
  F  F31  1  0.13624600  0.40662400  0.39808100  1
  F  F32  1  0.63624600  0.90662400  0.10191900  1
  F  F33  1  0.63624600  0.09337600  0.89808100  1
  F  F34  1  0.86375400  0.40662400  0.39808100  1
  F  F35  1  0.86375400  0.59337600  0.60191900  1
  F  F36  1  0.71100000  0.73362400  0.45090400  1
  F  F37  1  0.28900000  0.26637600  0.54909600  1
  F  F38  1  0.21100000  0.76637600  0.95090400  1
  F  F39  1  0.21100000  0.23362400  0.04909600  1
  F  F40  1  0.86491100  0.00000000  0.00000000  1
  F  F41  1  0.63508900  0.50000000  0.50000000  1
  F  F42  1  0.13508900  0.00000000  0.00000000  1
  F  F43  1  0.36491100  0.50000000  0.50000000  1
  F  F44  1  0.00000000  0.19707500  0.90251100  1
  F  F45  1  0.00000000  0.80292500  0.09748900  1
  F  F46  1  0.50000000  0.69707500  0.59748900  1
  F  F47  1  0.50000000  0.30292500  0.40251100  1
  F  F48  1  0.00000000  0.85488900  0.52270100  1
  F  F49  1  0.00000000  0.14511100  0.47729900  1
  F  F50  1  0.50000000  0.35488900  0.97729900  1
  F  F51  1  0.50000000  0.64511100  0.02270100  1
  F  F52  1  0.00000000  0.53435900  0.85667300  1
  F  F53  1  0.00000000  0.46564100  0.14332700  1
  F  F54  1  0.50000000  0.03435900  0.64332700  1
  F  F55  1  0.50000000  0.96564100  0.35667300  1
  F  F56  1  0.72117400  0.79523100  0.68939000  1
  F  F57  1  0.72117400  0.20476900  0.31061000  1
  F  F58  1  0.77882600  0.29523100  0.81061000  1
  F  F59  1  0.77882600  0.70476900  0.18939000  1
  F  F60  1  0.27882600  0.20476900  0.31061000  1
  F  F61  1  0.27882600  0.79523100  0.68939000  1
  F  F62  1  0.22117400  0.70476900  0.18939000  1
  F  F63  1  0.22117400  0.29523100  0.81061000  1
  F  F64  1  0.78900000  0.76637600  0.95090400  1
  F  F65  1  0.78900000  0.23362400  0.04909600  1
  F  F66  1  0.71100000  0.26637600  0.54909600  1
  F  F67  1  0.28900000  0.73362400  0.45090400  1
