# generated using pymatgen
data_Ti2CS
_symmetry_space_group_name_H-M   'P 1'
_cell_length_a   3.20469587
_cell_length_b   3.20469587
_cell_length_c   11.26351100
_cell_angle_alpha   90.00000000
_cell_angle_beta   90.00000000
_cell_angle_gamma   119.99999736
_symmetry_Int_Tables_number   1
_chemical_formula_structural   Ti2CS
_chemical_formula_sum   'Ti4 C2 S2'
_cell_volume   100.17931845
_cell_formula_units_Z   2
loop_
 _symmetry_equiv_pos_site_id
 _symmetry_equiv_pos_as_xyz
  1  'x, y, z'
loop_
 _atom_site_type_symbol
 _atom_site_label
 _atom_site_symmetry_multiplicity
 _atom_site_fract_x
 _atom_site_fract_y
 _atom_site_fract_z
 _atom_site_occupancy
  Ti  Ti0  1  0.33333300  0.66666700  0.40061400  1
  Ti  Ti1  1  0.66666700  0.33333300  0.90061400  1
  Ti  Ti2  1  0.66666700  0.33333300  0.59938600  1
  Ti  Ti3  1  0.33333300  0.66666700  0.09938600  1
  C  C4  1  0.00000000  0.00000000  0.50000000  1
  C  C5  1  0.00000000  0.00000000  0.00000000  1
  S  S6  1  0.66666700  0.33333300  0.25000000  1
  S  S7  1  0.33333300  0.66666700  0.75000000  1
