# generated using pymatgen
data_Pr2Te3
_symmetry_space_group_name_H-M   'P 1'
_cell_length_a   15.94163877
_cell_length_b   15.94163877
_cell_length_c   15.94163877
_cell_angle_alpha   144.99083661
_cell_angle_beta   144.99083661
_cell_angle_gamma   50.34818015
_symmetry_Int_Tables_number   1
_chemical_formula_structural   Pr2Te3
_chemical_formula_sum   'Pr16 Te24'
_cell_volume   1326.84652005
_cell_formula_units_Z   8
loop_
 _symmetry_equiv_pos_site_id
 _symmetry_equiv_pos_as_xyz
  1  'x, y, z'
loop_
 _atom_site_type_symbol
 _atom_site_label
 _atom_site_symmetry_multiplicity
 _atom_site_fract_x
 _atom_site_fract_y
 _atom_site_fract_z
 _atom_site_occupancy
  Pr  Pr0  1  0.41775300  0.91775300  0.50000000  1
  Pr  Pr1  1  0.99448600  0.62500000  0.86948600  1
  Pr  Pr2  1  0.33224700  0.33224700  0.00000000  1
  Pr  Pr3  1  0.03480500  0.92057600  0.37406400  1
  Pr  Pr4  1  0.54651200  0.66074100  0.62593600  1
  Pr  Pr5  1  0.75551400  0.12500000  0.13051400  1
  Pr  Pr6  1  0.33925900  0.96519500  0.88577100  1
  Pr  Pr7  1  0.66775300  0.66775300  0.00000000  1
  Pr  Pr8  1  0.37500000  0.24448600  0.36948600  1
  Pr  Pr9  1  0.87500000  0.00551400  0.63051400  1
  Pr  Pr10  1  0.07942400  0.45348800  0.11422900  1
  Pr  Pr11  1  0.08224700  0.58224700  0.50000000  1
  Pr  Pr12  1  0.67057600  0.28480500  0.87406400  1
  Pr  Pr13  1  0.71519500  0.58925900  0.38577100  1
  Pr  Pr14  1  0.20348800  0.32942400  0.61422900  1
  Pr  Pr15  1  0.41074100  0.79651200  0.12593600  1
  Te  Te16  1  0.50720600  0.25977600  0.90199100  1
  Te  Te17  1  0.72057700  0.82291100  0.74781200  1
  Te  Te18  1  0.35778500  0.60521500  0.09800900  1
  Te  Te19  1  0.24279400  0.64478500  0.25257000  1
  Te  Te20  1  0.39221500  0.99022400  0.74743000  1
  Te  Te21  1  0.67490000  0.42708900  0.39766500  1
  Te  Te22  1  0.07510000  0.97276500  0.25218800  1
  Te  Te23  1  0.84660000  0.59197700  0.90717700  1
  Te  Te24  1  0.02942300  0.27723500  0.60233500  1
  Te  Te25  1  0.06057700  0.15340000  0.74537700  1
  Te  Te26  1  0.68480000  0.93942300  0.09282300  1
  Te  Te27  1  0.57291100  0.97057700  0.24781200  1
  Te  Te28  1  0.72276500  0.32510000  0.75218800  1
  Te  Te29  1  0.00977600  0.75720600  0.40199100  1
  Te  Te30  1  0.40802300  0.31520000  0.25462300  1
  Te  Te31  1  0.17708900  0.92490000  0.89766500  1
  Te  Te32  1  0.35521500  0.60778500  0.59800900  1
  Te  Te33  1  0.39478500  0.49279400  0.75257000  1
  Te  Te34  1  0.02723500  0.27942300  0.10233500  1
  Te  Te35  1  0.90340000  0.31057700  0.24537700  1
  Te  Te36  1  0.06520000  0.65802300  0.75462300  1
  Te  Te37  1  0.34197700  0.09660000  0.40717700  1
  Te  Te38  1  0.74022400  0.64221500  0.24743000  1
  Te  Te39  1  0.68942300  0.93480000  0.59282300  1
