# generated using pymatgen
data_AcClO
_symmetry_space_group_name_H-M   'P 1'
_cell_length_a   4.27280700
_cell_length_b   4.27280700
_cell_length_c   7.17790200
_cell_angle_alpha   90.00000000
_cell_angle_beta   90.00000000
_cell_angle_gamma   90.00000000
_symmetry_Int_Tables_number   1
_chemical_formula_structural   AcClO
_chemical_formula_sum   'Ac2 Cl2 O2'
_cell_volume   131.04609302
_cell_formula_units_Z   2
loop_
 _symmetry_equiv_pos_site_id
 _symmetry_equiv_pos_as_xyz
  1  'x, y, z'
loop_
 _atom_site_type_symbol
 _atom_site_label
 _atom_site_symmetry_multiplicity
 _atom_site_fract_x
 _atom_site_fract_y
 _atom_site_fract_z
 _atom_site_occupancy
  Ac  Ac0  1  0.00000000  0.50000000  0.82329200  1
  Ac  Ac1  1  0.50000000  0.00000000  0.17670800  1
  Cl  Cl2  1  0.50000000  0.00000000  0.63162300  1
  Cl  Cl3  1  0.00000000  0.50000000  0.36837700  1
  O  O4  1  0.00000000  0.00000000  0.00000000  1
  O  O5  1  0.50000000  0.50000000  0.00000000  1
