# generated using pymatgen
data_Pr(SiAu)2
_symmetry_space_group_name_H-M   'P 1'
_cell_length_a   5.99202743
_cell_length_b   5.99202743
_cell_length_c   5.99202743
_cell_angle_alpha   137.20118517
_cell_angle_beta   137.20118517
_cell_angle_gamma   62.12865019
_symmetry_Int_Tables_number   1
_chemical_formula_structural   Pr(SiAu)2
_chemical_formula_sum   'Pr1 Si2 Au2'
_cell_volume   98.13482840
_cell_formula_units_Z   1
loop_
 _symmetry_equiv_pos_site_id
 _symmetry_equiv_pos_as_xyz
  1  'x, y, z'
loop_
 _atom_site_type_symbol
 _atom_site_label
 _atom_site_symmetry_multiplicity
 _atom_site_fract_x
 _atom_site_fract_y
 _atom_site_fract_z
 _atom_site_occupancy
  Pr  Pr0  1  0.00000000  0.00000000  0.00000000  1
  Si  Si1  1  0.61497500  0.61497500  0.00000000  1
  Si  Si2  1  0.38502500  0.38502500  0.00000000  1
  Au  Au3  1  0.75000000  0.25000000  0.50000000  1
  Au  Au4  1  0.25000000  0.75000000  0.50000000  1
