# generated using pymatgen
data_Na3HfF7
_symmetry_space_group_name_H-M   'P 1'
_cell_length_a   5.48781054
_cell_length_b   5.48781054
_cell_length_c   6.26960454
_cell_angle_alpha   66.74837047
_cell_angle_beta   66.74837047
_cell_angle_gamma   90.85711148
_symmetry_Int_Tables_number   1
_chemical_formula_structural   Na3HfF7
_chemical_formula_sum   'Na3 Hf1 F7'
_cell_volume   156.09336956
_cell_formula_units_Z   1
loop_
 _symmetry_equiv_pos_site_id
 _symmetry_equiv_pos_as_xyz
  1  'x, y, z'
loop_
 _atom_site_type_symbol
 _atom_site_label
 _atom_site_symmetry_multiplicity
 _atom_site_fract_x
 _atom_site_fract_y
 _atom_site_fract_z
 _atom_site_occupancy
  Na  Na0  1  0.23906600  0.77308500  0.49217500  1
  Na  Na1  1  0.48613100  0.48613100  0.04397700  1
  Na  Na2  1  0.77308500  0.23906600  0.49217500  1
  Hf  Hf3  1  0.95267000  0.95267000  0.02825300  1
  F  F4  1  0.15270700  0.15270700  0.14767400  1
  F  F5  1  0.10104300  0.64786600  0.23285900  1
  F  F6  1  0.32527500  0.97521500  0.75343200  1
  F  F7  1  0.64786600  0.10104300  0.23285900  1
  F  F8  1  0.62554400  0.62554400  0.28601300  1
  F  F9  1  0.97521500  0.32527500  0.75343200  1
  F  F10  1  0.84639900  0.84639900  0.78714900  1
