# generated using pymatgen
data_SrNiSn3
_symmetry_space_group_name_H-M   'P 1'
_cell_length_a   6.45024921
_cell_length_b   6.45024921
_cell_length_c   6.45024921
_cell_angle_alpha   136.40401975
_cell_angle_beta   136.40401975
_cell_angle_gamma   63.35632905
_symmetry_Int_Tables_number   1
_chemical_formula_structural   SrNiSn3
_chemical_formula_sum   'Sr1 Ni1 Sn3'
_cell_volume   125.96711830
_cell_formula_units_Z   1
loop_
 _symmetry_equiv_pos_site_id
 _symmetry_equiv_pos_as_xyz
  1  'x, y, z'
loop_
 _atom_site_type_symbol
 _atom_site_label
 _atom_site_symmetry_multiplicity
 _atom_site_fract_x
 _atom_site_fract_y
 _atom_site_fract_z
 _atom_site_occupancy
  Sr  Sr0  1  0.00004800  0.00004800  0.00000000  1
  Ni  Ni1  1  0.34125800  0.34125800  0.00000000  1
  Sn  Sn2  1  0.57001500  0.57001500  0.00000000  1
  Sn  Sn3  1  0.25034000  0.75034000  0.50000000  1
  Sn  Sn4  1  0.75034000  0.25034000  0.50000000  1
