# generated using pymatgen
data_BaUS3
_symmetry_space_group_name_H-M   'P 1'
_cell_length_a   7.26197900
_cell_length_b   7.49293300
_cell_length_c   10.39596000
_cell_angle_alpha   90.00000000
_cell_angle_beta   90.00000000
_cell_angle_gamma   90.00000000
_symmetry_Int_Tables_number   1
_chemical_formula_structural   BaUS3
_chemical_formula_sum   'Ba4 U4 S12'
_cell_volume   565.68079915
_cell_formula_units_Z   4
loop_
 _symmetry_equiv_pos_site_id
 _symmetry_equiv_pos_as_xyz
  1  'x, y, z'
loop_
 _atom_site_type_symbol
 _atom_site_label
 _atom_site_symmetry_multiplicity
 _atom_site_fract_x
 _atom_site_fract_y
 _atom_site_fract_z
 _atom_site_occupancy
  Ba  Ba0  1  0.98509100  0.05652800  0.25000000  1
  Ba  Ba1  1  0.48509100  0.44347200  0.75000000  1
  Ba  Ba2  1  0.51490900  0.55652800  0.25000000  1
  Ba  Ba3  1  0.01490900  0.94347200  0.75000000  1
  U  U4  1  0.50000000  0.00000000  0.00000000  1
  U  U5  1  0.00000000  0.50000000  0.00000000  1
  U  U6  1  0.00000000  0.50000000  0.50000000  1
  U  U7  1  0.50000000  0.00000000  0.50000000  1
  S  S8  1  0.70663500  0.29273100  0.45618600  1
  S  S9  1  0.20663500  0.20726900  0.54381400  1
  S  S10  1  0.79336500  0.79273100  0.04381400  1
  S  S11  1  0.29336500  0.70726900  0.95618600  1
  S  S12  1  0.29336500  0.70726900  0.54381400  1
  S  S13  1  0.79336500  0.79273100  0.45618600  1
  S  S14  1  0.20663500  0.20726900  0.95618600  1
  S  S15  1  0.70663500  0.29273100  0.04381400  1
  S  S16  1  0.08230000  0.47941100  0.25000000  1
  S  S17  1  0.58230000  0.02058900  0.75000000  1
  S  S18  1  0.41770000  0.97941100  0.25000000  1
  S  S19  1  0.91770000  0.52058900  0.75000000  1
