# generated using pymatgen
data_Ca2Pb
_symmetry_space_group_name_H-M   'P 1'
_cell_length_a   5.15327400
_cell_length_b   7.98830500
_cell_length_c   9.70804100
_cell_angle_alpha   90.00000000
_cell_angle_beta   90.00000000
_cell_angle_gamma   90.00000000
_symmetry_Int_Tables_number   1
_chemical_formula_structural   Ca2Pb
_chemical_formula_sum   'Ca8 Pb4'
_cell_volume   399.64048247
_cell_formula_units_Z   4
loop_
 _symmetry_equiv_pos_site_id
 _symmetry_equiv_pos_as_xyz
  1  'x, y, z'
loop_
 _atom_site_type_symbol
 _atom_site_label
 _atom_site_symmetry_multiplicity
 _atom_site_fract_x
 _atom_site_fract_y
 _atom_site_fract_z
 _atom_site_occupancy
  Ca  Ca0  1  0.75000000  0.84146100  0.43006800  1
  Ca  Ca1  1  0.25000000  0.15853900  0.56993200  1
  Ca  Ca2  1  0.75000000  0.34146100  0.06993200  1
  Ca  Ca3  1  0.25000000  0.65853900  0.93006800  1
  Ca  Ca4  1  0.75000000  0.97855200  0.81459200  1
  Ca  Ca5  1  0.25000000  0.02144800  0.18540800  1
  Ca  Ca6  1  0.75000000  0.47855200  0.68540800  1
  Ca  Ca7  1  0.25000000  0.52144800  0.31459200  1
  Pb  Pb8  1  0.75000000  0.25191400  0.39069300  1
  Pb  Pb9  1  0.25000000  0.74808600  0.60930700  1
  Pb  Pb10  1  0.75000000  0.75191400  0.10930700  1
  Pb  Pb11  1  0.25000000  0.24808600  0.89069300  1
