# generated using pymatgen
data_Na3BO3
_symmetry_space_group_name_H-M   'P 1'
_cell_length_a   7.56721700
_cell_length_b   5.73027500
_cell_length_c   9.68876251
_cell_angle_alpha   56.43633867
_cell_angle_beta   90.00000000
_cell_angle_gamma   90.00000000
_symmetry_Int_Tables_number   1
_chemical_formula_structural   Na3BO3
_chemical_formula_sum   'Na12 B4 O12'
_cell_volume   350.07957911
_cell_formula_units_Z   4
loop_
 _symmetry_equiv_pos_site_id
 _symmetry_equiv_pos_as_xyz
  1  'x, y, z'
loop_
 _atom_site_type_symbol
 _atom_site_label
 _atom_site_symmetry_multiplicity
 _atom_site_fract_x
 _atom_site_fract_y
 _atom_site_fract_z
 _atom_site_occupancy
  Na  Na0  1  0.64898700  0.94854400  0.43051100  1
  Na  Na1  1  0.14898700  0.05145600  0.06948900  1
  Na  Na2  1  0.35101300  0.05145600  0.56948900  1
  Na  Na3  1  0.85101300  0.94854400  0.93051100  1
  Na  Na4  1  0.02649800  0.79112800  0.45662400  1
  Na  Na5  1  0.52649800  0.20887200  0.04337600  1
  Na  Na6  1  0.97350200  0.20887200  0.54337600  1
  Na  Na7  1  0.47350200  0.79112800  0.95662400  1
  Na  Na8  1  0.28099000  0.40413300  0.72214700  1
  Na  Na9  1  0.78099000  0.59586700  0.77785300  1
  Na  Na10  1  0.71901000  0.59586700  0.27785300  1
  Na  Na11  1  0.21901000  0.40413300  0.22214700  1
  B  B12  1  0.83828100  0.27809600  0.15326200  1
  B  B13  1  0.66171900  0.27809600  0.65326200  1
  B  B14  1  0.16171900  0.72190400  0.84673800  1
  B  B15  1  0.33828100  0.72190400  0.34673800  1
  O  O16  1  0.08294500  0.74978200  0.70780700  1
  O  O17  1  0.73133200  0.51145400  0.04928300  1
  O  O18  1  0.76866800  0.51145400  0.54928300  1
  O  O19  1  0.23133200  0.48854600  0.45071700  1
  O  O20  1  0.35238000  0.93809300  0.37336200  1
  O  O21  1  0.85238000  0.06190700  0.12663800  1
  O  O22  1  0.64762000  0.06190700  0.62663800  1
  O  O23  1  0.14762000  0.93809300  0.87336200  1
  O  O24  1  0.58294500  0.25021800  0.79219300  1
  O  O25  1  0.91705500  0.25021800  0.29219300  1
  O  O26  1  0.41705500  0.74978200  0.20780700  1
  O  O27  1  0.26866800  0.48854600  0.95071700  1
