# generated using pymatgen
data_SrMgSn
_symmetry_space_group_name_H-M   'P 1'
_cell_length_a   4.90272900
_cell_length_b   8.23527100
_cell_length_c   8.94186600
_cell_angle_alpha   90.00000000
_cell_angle_beta   90.00000000
_cell_angle_gamma   90.00000000
_symmetry_Int_Tables_number   1
_chemical_formula_structural   SrMgSn
_chemical_formula_sum   'Sr4 Mg4 Sn4'
_cell_volume   361.03053979
_cell_formula_units_Z   4
loop_
 _symmetry_equiv_pos_site_id
 _symmetry_equiv_pos_as_xyz
  1  'x, y, z'
loop_
 _atom_site_type_symbol
 _atom_site_label
 _atom_site_symmetry_multiplicity
 _atom_site_fract_x
 _atom_site_fract_y
 _atom_site_fract_z
 _atom_site_occupancy
  Sr  Sr0  1  0.75000000  0.98873700  0.81178600  1
  Sr  Sr1  1  0.25000000  0.51126300  0.31178600  1
  Sr  Sr2  1  0.25000000  0.01126300  0.18821400  1
  Sr  Sr3  1  0.75000000  0.48873700  0.68821400  1
  Mg  Mg4  1  0.75000000  0.35355700  0.06691000  1
  Mg  Mg5  1  0.25000000  0.64644300  0.93309000  1
  Mg  Mg6  1  0.75000000  0.85355700  0.43309000  1
  Mg  Mg7  1  0.25000000  0.14644300  0.56691000  1
  Sn  Sn8  1  0.25000000  0.77749700  0.60836500  1
  Sn  Sn9  1  0.25000000  0.27749700  0.89163500  1
  Sn  Sn10  1  0.75000000  0.72250300  0.10836500  1
  Sn  Sn11  1  0.75000000  0.22250300  0.39163500  1
