# generated using pymatgen
data_Ca7Tl3N2
_symmetry_space_group_name_H-M   'P 1'
_cell_length_a   12.68880115
_cell_length_b   12.68880115
_cell_length_c   4.88635400
_cell_angle_alpha   90.00000000
_cell_angle_beta   90.00000000
_cell_angle_gamma   157.42354494
_symmetry_Int_Tables_number   1
_chemical_formula_structural   Ca7Tl3N2
_chemical_formula_sum   'Ca7 Tl3 N2'
_cell_volume   302.03844029
_cell_formula_units_Z   1
loop_
 _symmetry_equiv_pos_site_id
 _symmetry_equiv_pos_as_xyz
  1  'x, y, z'
loop_
 _atom_site_type_symbol
 _atom_site_label
 _atom_site_symmetry_multiplicity
 _atom_site_fract_x
 _atom_site_fract_y
 _atom_site_fract_z
 _atom_site_occupancy
  Ca  Ca0  1  0.60022400  0.39977600  0.00000000  1
  Ca  Ca1  1  0.19649500  0.80350500  0.00000000  1
  Ca  Ca2  1  0.00000000  0.00000000  0.00000000  1
  Ca  Ca3  1  0.39977600  0.60022400  0.00000000  1
  Ca  Ca4  1  0.90096100  0.09903900  0.50000000  1
  Ca  Ca5  1  0.09903900  0.90096100  0.50000000  1
  Ca  Ca6  1  0.80350500  0.19649500  0.00000000  1
  Tl  Tl7  1  0.50000000  0.50000000  0.50000000  1
  Tl  Tl8  1  0.29341500  0.70658500  0.50000000  1
  Tl  Tl9  1  0.70658500  0.29341500  0.50000000  1
  N  N10  1  0.10284800  0.89715200  0.00000000  1
  N  N11  1  0.89715200  0.10284800  0.00000000  1
