# generated using pymatgen
data_LiIr3
_symmetry_space_group_name_H-M   'P 1'
_cell_length_a   5.16436279
_cell_length_b   5.16436279
_cell_length_c   5.16436279
_cell_angle_alpha   149.68601001
_cell_angle_beta   125.86821459
_cell_angle_gamma   63.30793809
_symmetry_Int_Tables_number   1
_chemical_formula_structural   LiIr3
_chemical_formula_sum   'Li1 Ir3'
_cell_volume   55.79528337
_cell_formula_units_Z   1
loop_
 _symmetry_equiv_pos_site_id
 _symmetry_equiv_pos_as_xyz
  1  'x, y, z'
loop_
 _atom_site_type_symbol
 _atom_site_label
 _atom_site_symmetry_multiplicity
 _atom_site_fract_x
 _atom_site_fract_y
 _atom_site_fract_z
 _atom_site_occupancy
  Li  Li0  1  0.48281900  0.50000000  0.98281900  1
  Ir  Ir1  1  0.04785900  0.74039900  0.30746000  1
  Ir  Ir2  1  0.56706100  0.25960100  0.30746000  1
  Ir  Ir3  1  0.99826000  0.00000000  0.99826000  1
