# generated using pymatgen
data_Nd4Se3N2
_symmetry_space_group_name_H-M   'P 1'
_cell_length_a   8.34158644
_cell_length_b   8.34158644
_cell_length_c   6.49910548
_cell_angle_alpha   89.84024179
_cell_angle_beta   89.84024179
_cell_angle_gamma   75.63169457
_symmetry_Int_Tables_number   1
_chemical_formula_structural   Nd4Se3N2
_chemical_formula_sum   'Nd8 Se6 N4'
_cell_volume   438.07323188
_cell_formula_units_Z   2
loop_
 _symmetry_equiv_pos_site_id
 _symmetry_equiv_pos_as_xyz
  1  'x, y, z'
loop_
 _atom_site_type_symbol
 _atom_site_label
 _atom_site_symmetry_multiplicity
 _atom_site_fract_x
 _atom_site_fract_y
 _atom_site_fract_z
 _atom_site_occupancy
  Nd  Nd0  1  0.24461100  0.08560700  0.57216400  1
  Nd  Nd1  1  0.91439300  0.75538900  0.92783600  1
  Nd  Nd2  1  0.75538900  0.91439300  0.42783600  1
  Nd  Nd3  1  0.08560700  0.24461100  0.07216400  1
  Nd  Nd4  1  0.81057900  0.44291800  0.52988400  1
  Nd  Nd5  1  0.55708200  0.18942100  0.97011600  1
  Nd  Nd6  1  0.18942100  0.55708200  0.47011600  1
  Nd  Nd7  1  0.44291800  0.81057900  0.02988400  1
  Se  Se8  1  0.74646900  0.48397200  0.03531800  1
  Se  Se9  1  0.09662800  0.90337200  0.25000000  1
  Se  Se10  1  0.51602800  0.25353100  0.46468200  1
  Se  Se11  1  0.25353100  0.51602800  0.96468200  1
  Se  Se12  1  0.90337200  0.09662800  0.75000000  1
  Se  Se13  1  0.48397200  0.74646900  0.53531800  1
  N  N14  1  0.08183200  0.32942400  0.41476700  1
  N  N15  1  0.32942400  0.08183200  0.91476700  1
  N  N16  1  0.91816800  0.67057600  0.58523300  1
  N  N17  1  0.67057600  0.91816800  0.08523300  1
