# generated using pymatgen
data_Ba4Ga2O7
_symmetry_space_group_name_H-M   'P 1'
_cell_length_a   10.83479400
_cell_length_b   7.45037700
_cell_length_c   18.01900349
_cell_angle_alpha   81.82475302
_cell_angle_beta   90.00000000
_cell_angle_gamma   90.00000000
_symmetry_Int_Tables_number   1
_chemical_formula_structural   Ba4Ga2O7
_chemical_formula_sum   'Ba24 Ga12 O42'
_cell_volume   1439.77189955
_cell_formula_units_Z   6
loop_
 _symmetry_equiv_pos_site_id
 _symmetry_equiv_pos_as_xyz
  1  'x, y, z'
loop_
 _atom_site_type_symbol
 _atom_site_label
 _atom_site_symmetry_multiplicity
 _atom_site_fract_x
 _atom_site_fract_y
 _atom_site_fract_z
 _atom_site_occupancy
  Ba  Ba0  1  0.78622700  0.03978800  0.74310600  1
  Ba  Ba1  1  0.28622700  0.46021200  0.25689400  1
  Ba  Ba2  1  0.21377300  0.96021200  0.25689400  1
  Ba  Ba3  1  0.71377300  0.53978800  0.74310600  1
  Ba  Ba4  1  0.26776500  0.45696200  0.90730500  1
  Ba  Ba5  1  0.76776500  0.04303800  0.09269500  1
  Ba  Ba6  1  0.73223500  0.54303800  0.09269500  1
  Ba  Ba7  1  0.23223500  0.95696200  0.90730500  1
  Ba  Ba8  1  0.29048600  0.50244800  0.58941800  1
  Ba  Ba9  1  0.79048600  0.99755200  0.41058200  1
  Ba  Ba10  1  0.70951400  0.49755200  0.41058200  1
  Ba  Ba11  1  0.20951400  0.00244800  0.58941800  1
  Ba  Ba12  1  0.89589500  0.34203600  0.91801900  1
  Ba  Ba13  1  0.39589500  0.15796400  0.08198100  1
  Ba  Ba14  1  0.10410500  0.65796400  0.08198100  1
  Ba  Ba15  1  0.60410500  0.84203600  0.91801900  1
  Ba  Ba16  1  0.44902800  0.20308400  0.75067000  1
  Ba  Ba17  1  0.94902800  0.29691600  0.24933000  1
  Ba  Ba18  1  0.55097200  0.79691600  0.24933000  1
  Ba  Ba19  1  0.05097200  0.70308400  0.75067000  1
  Ba  Ba20  1  0.92704200  0.34322700  0.58831600  1
  Ba  Ba21  1  0.42704200  0.15677300  0.41168400  1
  Ba  Ba22  1  0.07295800  0.65677300  0.41168400  1
  Ba  Ba23  1  0.57295800  0.84322700  0.58831600  1
  Ga  Ga24  1  0.56945200  0.29541900  0.56571100  1
  Ga  Ga25  1  0.06945200  0.20458100  0.43428900  1
  Ga  Ga26  1  0.43054800  0.70458100  0.43428900  1
  Ga  Ga27  1  0.93054800  0.79541900  0.56571100  1
  Ga  Ga28  1  0.92648200  0.81476900  0.90878800  1
  Ga  Ga29  1  0.42648200  0.68523100  0.09121200  1
  Ga  Ga30  1  0.07351800  0.18523100  0.09121200  1
  Ga  Ga31  1  0.57351800  0.31476900  0.90878800  1
  Ga  Ga32  1  0.05993000  0.19665000  0.76805000  1
  Ga  Ga33  1  0.55993000  0.30335000  0.23195000  1
  Ga  Ga34  1  0.94007000  0.80335000  0.23195000  1
  Ga  Ga35  1  0.44007000  0.69665000  0.76805000  1
  O  O36  1  0.50000000  0.50000000  0.50000000  1
  O  O37  1  0.00000000  0.00000000  0.50000000  1
  O  O38  1  0.43818300  0.15702100  0.92644700  1
  O  O39  1  0.93818300  0.34297900  0.07355300  1
  O  O40  1  0.56181700  0.84297900  0.07355300  1
  O  O41  1  0.06181700  0.65702100  0.92644700  1
  O  O42  1  0.14173500  0.32605800  0.50846600  1
  O  O43  1  0.64173500  0.17394200  0.49153400  1
  O  O44  1  0.85826500  0.67394200  0.49153400  1
  O  O45  1  0.35826500  0.82605800  0.50846600  1
  O  O46  1  0.93997900  0.37994400  0.75376000  1
  O  O47  1  0.43997900  0.12005600  0.24624000  1
  O  O48  1  0.06002100  0.62005600  0.24624000  1
  O  O49  1  0.56002100  0.87994400  0.75376000  1
  O  O50  1  0.42655900  0.16996300  0.60354100  1
  O  O51  1  0.92655900  0.33003700  0.39645900  1
  O  O52  1  0.57344100  0.83003700  0.39645900  1
  O  O53  1  0.07344100  0.66996300  0.60354100  1
  O  O54  1  0.21642900  0.26181600  0.79286600  1
  O  O55  1  0.71642900  0.23818400  0.20713400  1
  O  O56  1  0.78357100  0.73818400  0.20713400  1
  O  O57  1  0.28357100  0.76181600  0.79286600  1
  O  O58  1  0.68624000  0.31387400  0.63870100  1
  O  O59  1  0.18624000  0.18612600  0.36129900  1
  O  O60  1  0.31376000  0.68612600  0.36129900  1
  O  O61  1  0.81376000  0.81387400  0.63870100  1
  O  O62  1  0.99236800  0.04103300  0.85710900  1
  O  O63  1  0.49236800  0.45896700  0.14289100  1
  O  O64  1  0.00763200  0.95896700  0.14289100  1
  O  O65  1  0.50763200  0.54103300  0.85710900  1
  O  O66  1  0.67214100  0.21967600  0.83830600  1
  O  O67  1  0.17214100  0.28032400  0.16169400  1
  O  O68  1  0.32785900  0.78032400  0.16169400  1
  O  O69  1  0.82785900  0.71967600  0.83830600  1
  O  O70  1  0.32860200  0.66013300  0.00959400  1
  O  O71  1  0.82860200  0.83986700  0.99040600  1
  O  O72  1  0.67139800  0.33986700  0.99040600  1
  O  O73  1  0.17139800  0.16013300  0.00959400  1
  O  O74  1  0.03938200  0.06980700  0.68727600  1
  O  O75  1  0.53938200  0.43019300  0.31272400  1
  O  O76  1  0.96061800  0.93019300  0.31272400  1
  O  O77  1  0.46061800  0.56980700  0.68727600  1
