# generated using pymatgen
data_Y2MoO6
_symmetry_space_group_name_H-M   'P 1'
_cell_length_a   9.99010395
_cell_length_b   9.99010395
_cell_length_c   5.42079556
_cell_angle_alpha   74.86032722
_cell_angle_beta   74.86032722
_cell_angle_gamma   67.99826727
_symmetry_Int_Tables_number   1
_chemical_formula_structural   Y2MoO6
_chemical_formula_sum   'Y8 Mo4 O24'
_cell_volume   476.06632363
_cell_formula_units_Z   4
loop_
 _symmetry_equiv_pos_site_id
 _symmetry_equiv_pos_as_xyz
  1  'x, y, z'
loop_
 _atom_site_type_symbol
 _atom_site_label
 _atom_site_symmetry_multiplicity
 _atom_site_fract_x
 _atom_site_fract_y
 _atom_site_fract_z
 _atom_site_occupancy
  Y  Y0  1  0.60669200  0.39330800  0.25000000  1
  Y  Y1  1  0.39330800  0.60669200  0.75000000  1
  Y  Y2  1  0.13628400  0.86371600  0.25000000  1
  Y  Y3  1  0.86371600  0.13628400  0.75000000  1
  Y  Y4  1  0.78371900  0.55227400  0.62197200  1
  Y  Y5  1  0.44772600  0.21628100  0.87802800  1
  Y  Y6  1  0.55227400  0.78371900  0.12197200  1
  Y  Y7  1  0.21628100  0.44772600  0.37802800  1
  Mo  Mo8  1  0.70466000  0.98753100  0.44102400  1
  Mo  Mo9  1  0.01246900  0.29534000  0.05897600  1
  Mo  Mo10  1  0.29534000  0.01246900  0.55897600  1
  Mo  Mo11  1  0.98753100  0.70466000  0.94102400  1
  O  O12  1  0.42711700  0.38988300  0.07806100  1
  O  O13  1  0.61011700  0.57288300  0.42193900  1
  O  O14  1  0.57288300  0.61011700  0.92193900  1
  O  O15  1  0.38988300  0.42711700  0.57806100  1
  O  O16  1  0.19285300  0.66322300  0.08301900  1
  O  O17  1  0.33677700  0.80714700  0.41698100  1
  O  O18  1  0.80714700  0.33677700  0.91698100  1
  O  O19  1  0.66322300  0.19285300  0.58301900  1
  O  O20  1  0.11473700  0.67355700  0.63205200  1
  O  O21  1  0.32644300  0.88526300  0.86794800  1
  O  O22  1  0.88526300  0.32644300  0.36794800  1
  O  O23  1  0.67355700  0.11473700  0.13205200  1
  O  O24  1  0.71120900  0.81674300  0.36546500  1
  O  O25  1  0.18325700  0.28879100  0.13453500  1
  O  O26  1  0.28879100  0.18325700  0.63453500  1
  O  O27  1  0.81674300  0.71120900  0.86546500  1
  O  O28  1  0.88974400  0.95150000  0.48602400  1
  O  O29  1  0.04850000  0.11025600  0.01397600  1
  O  O30  1  0.97570300  0.56879500  0.24575400  1
  O  O31  1  0.95150000  0.88974400  0.98602400  1
  O  O32  1  0.56879500  0.97570300  0.74575400  1
  O  O33  1  0.02429700  0.43120500  0.75424600  1
  O  O34  1  0.43120500  0.02429700  0.25424600  1
  O  O35  1  0.11025600  0.04850000  0.51397600  1
