# generated using pymatgen
data_Pr4Se3O4
_symmetry_space_group_name_H-M   'P 1'
_cell_length_a   6.88949428
_cell_length_b   6.88949428
_cell_length_c   8.54234100
_cell_angle_alpha   90.00000000
_cell_angle_beta   90.00000000
_cell_angle_gamma   145.61711369
_symmetry_Int_Tables_number   1
_chemical_formula_structural   Pr4Se3O4
_chemical_formula_sum   'Pr4 Se3 O4'
_cell_volume   228.97346950
_cell_formula_units_Z   1
loop_
 _symmetry_equiv_pos_site_id
 _symmetry_equiv_pos_as_xyz
  1  'x, y, z'
loop_
 _atom_site_type_symbol
 _atom_site_label
 _atom_site_symmetry_multiplicity
 _atom_site_fract_x
 _atom_site_fract_y
 _atom_site_fract_z
 _atom_site_occupancy
  Pr  Pr0  1  0.31601300  0.68398700  0.76198800  1
  Pr  Pr1  1  0.31601300  0.68398700  0.23801200  1
  Pr  Pr2  1  0.98361200  0.01638800  0.50000000  1
  Pr  Pr3  1  0.99805200  0.00194800  0.00000000  1
  Se  Se4  1  0.64400600  0.35599400  0.35115600  1
  Se  Se5  1  0.68505300  0.31494700  0.00000000  1
  Se  Se6  1  0.64400600  0.35599400  0.64884400  1
  O  O7  1  0.91117500  0.08882500  0.75568100  1
  O  O8  1  0.41057800  0.58942200  0.00000000  1
  O  O9  1  0.91117500  0.08882500  0.24431900  1
  O  O10  1  0.38563900  0.61436100  0.50000000  1
