# generated using pymatgen
data_MnIn2O4
_symmetry_space_group_name_H-M   'P 1'
_cell_length_a   6.48924762
_cell_length_b   6.48924762
_cell_length_c   6.48924762
_cell_angle_alpha   60.00000000
_cell_angle_beta   60.00000000
_cell_angle_gamma   60.00000000
_symmetry_Int_Tables_number   1
_chemical_formula_structural   MnIn2O4
_chemical_formula_sum   'Mn2 In4 O8'
_cell_volume   193.22710295
_cell_formula_units_Z   2
loop_
 _symmetry_equiv_pos_site_id
 _symmetry_equiv_pos_as_xyz
  1  'x, y, z'
loop_
 _atom_site_type_symbol
 _atom_site_label
 _atom_site_symmetry_multiplicity
 _atom_site_fract_x
 _atom_site_fract_y
 _atom_site_fract_z
 _atom_site_occupancy
  Mn  Mn0  1  0.00000000  0.00000000  0.00000000  1
  Mn  Mn1  1  0.25000000  0.25000000  0.25000000  1
  In  In2  1  0.62500000  0.12500000  0.62500000  1
  In  In3  1  0.62500000  0.62500000  0.12500000  1
  In  In4  1  0.12500000  0.62500000  0.62500000  1
  In  In5  1  0.62500000  0.62500000  0.62500000  1
  O  O6  1  0.38376300  0.84871200  0.38376300  1
  O  O7  1  0.86623700  0.86623700  0.86623700  1
  O  O8  1  0.84871200  0.38376300  0.38376300  1
  O  O9  1  0.38376300  0.38376300  0.84871200  1
  O  O10  1  0.86623700  0.86623700  0.40128800  1
  O  O11  1  0.40128800  0.86623700  0.86623700  1
  O  O12  1  0.38376300  0.38376300  0.38376300  1
  O  O13  1  0.86623700  0.40128800  0.86623700  1
