# generated using pymatgen
data_Sn3Pt2
_symmetry_space_group_name_H-M   'P 1'
_cell_length_a   4.41405186
_cell_length_b   4.41405186
_cell_length_c   13.21001900
_cell_angle_alpha   90.00000000
_cell_angle_beta   90.00000000
_cell_angle_gamma   119.99999785
_symmetry_Int_Tables_number   1
_chemical_formula_structural   Sn3Pt2
_chemical_formula_sum   'Sn6 Pt4'
_cell_volume   222.89942354
_cell_formula_units_Z   2
loop_
 _symmetry_equiv_pos_site_id
 _symmetry_equiv_pos_as_xyz
  1  'x, y, z'
loop_
 _atom_site_type_symbol
 _atom_site_label
 _atom_site_symmetry_multiplicity
 _atom_site_fract_x
 _atom_site_fract_y
 _atom_site_fract_z
 _atom_site_occupancy
  Sn  Sn0  1  0.33333300  0.66666700  0.57072000  1
  Sn  Sn1  1  0.66666700  0.33333300  0.07072000  1
  Sn  Sn2  1  0.66666700  0.33333300  0.42928000  1
  Sn  Sn3  1  0.33333300  0.66666700  0.92928000  1
  Sn  Sn4  1  0.00000000  0.00000000  0.25000000  1
  Sn  Sn5  1  0.00000000  0.00000000  0.75000000  1
  Pt  Pt6  1  0.33333300  0.66666700  0.35660700  1
  Pt  Pt7  1  0.66666700  0.33333300  0.85660700  1
  Pt  Pt8  1  0.66666700  0.33333300  0.64339300  1
  Pt  Pt9  1  0.33333300  0.66666700  0.14339300  1
