# generated using pymatgen
data_YbSnPd
_symmetry_space_group_name_H-M   'P 1'
_cell_length_a   4.54933300
_cell_length_b   7.23642900
_cell_length_c   8.19801700
_cell_angle_alpha   90.00000000
_cell_angle_beta   90.00000000
_cell_angle_gamma   90.00000000
_symmetry_Int_Tables_number   1
_chemical_formula_structural   YbSnPd
_chemical_formula_sum   'Yb4 Sn4 Pd4'
_cell_volume   269.88630487
_cell_formula_units_Z   4
loop_
 _symmetry_equiv_pos_site_id
 _symmetry_equiv_pos_as_xyz
  1  'x, y, z'
loop_
 _atom_site_type_symbol
 _atom_site_label
 _atom_site_symmetry_multiplicity
 _atom_site_fract_x
 _atom_site_fract_y
 _atom_site_fract_z
 _atom_site_occupancy
  Yb  Yb0  1  0.25000000  0.52848200  0.18203600  1
  Yb  Yb1  1  0.75000000  0.47151800  0.81796400  1
  Yb  Yb2  1  0.25000000  0.02848200  0.31796400  1
  Yb  Yb3  1  0.75000000  0.97151800  0.68203600  1
  Sn  Sn4  1  0.25000000  0.15750700  0.93506700  1
  Sn  Sn5  1  0.75000000  0.34249300  0.43506700  1
  Sn  Sn6  1  0.25000000  0.65750700  0.56493300  1
  Sn  Sn7  1  0.75000000  0.84249300  0.06493300  1
  Pd  Pd8  1  0.75000000  0.22540100  0.11948700  1
  Pd  Pd9  1  0.25000000  0.27459900  0.61948700  1
  Pd  Pd10  1  0.75000000  0.72540100  0.38051300  1
  Pd  Pd11  1  0.25000000  0.77459900  0.88051300  1
