# generated using pymatgen
data_Pr2Zn17
_symmetry_space_group_name_H-M   'P 1'
_cell_length_a   6.87275525
_cell_length_b   6.87275525
_cell_length_c   6.87275553
_cell_angle_alpha   82.68535376
_cell_angle_beta   82.68535376
_cell_angle_gamma   82.68536420
_symmetry_Int_Tables_number   1
_chemical_formula_structural   Pr2Zn17
_chemical_formula_sum   'Pr2 Zn17'
_cell_volume   317.32736717
_cell_formula_units_Z   1
loop_
 _symmetry_equiv_pos_site_id
 _symmetry_equiv_pos_as_xyz
  1  'x, y, z'
loop_
 _atom_site_type_symbol
 _atom_site_label
 _atom_site_symmetry_multiplicity
 _atom_site_fract_x
 _atom_site_fract_y
 _atom_site_fract_z
 _atom_site_occupancy
  Pr  Pr0  1  0.66417500  0.66417500  0.66417500  1
  Pr  Pr1  1  0.33582500  0.33582500  0.33582500  1
  Zn  Zn2  1  0.34975700  0.34975700  0.83900000  1
  Zn  Zn3  1  0.83900000  0.34975700  0.34975700  1
  Zn  Zn4  1  0.09855200  0.09855200  0.09855200  1
  Zn  Zn5  1  0.90144800  0.90144800  0.90144800  1
  Zn  Zn6  1  0.00000000  0.00000000  0.50000000  1
  Zn  Zn7  1  0.00000000  0.50000000  0.00000000  1
  Zn  Zn8  1  0.50000000  0.00000000  0.00000000  1
  Zn  Zn9  1  0.29262500  0.70737500  0.00000000  1
  Zn  Zn10  1  0.70737500  0.00000000  0.29262500  1
  Zn  Zn11  1  0.00000000  0.29262500  0.70737500  1
  Zn  Zn12  1  0.70737500  0.29262500  0.00000000  1
  Zn  Zn13  1  0.29262500  0.00000000  0.70737500  1
  Zn  Zn14  1  0.00000000  0.70737500  0.29262500  1
  Zn  Zn15  1  0.16100000  0.65024300  0.65024300  1
  Zn  Zn16  1  0.65024300  0.65024300  0.16100000  1
  Zn  Zn17  1  0.65024300  0.16100000  0.65024300  1
  Zn  Zn18  1  0.34975700  0.83900000  0.34975700  1
