# generated using pymatgen
data_LiCaSn
_symmetry_space_group_name_H-M   'P 1'
_cell_length_a   4.92989945
_cell_length_b   4.92989945
_cell_length_c   10.77890400
_cell_angle_alpha   90.00000000
_cell_angle_beta   90.00000000
_cell_angle_gamma   119.99999258
_symmetry_Int_Tables_number   1
_chemical_formula_structural   LiCaSn
_chemical_formula_sum   'Li3 Ca3 Sn3'
_cell_volume   226.87225655
_cell_formula_units_Z   3
loop_
 _symmetry_equiv_pos_site_id
 _symmetry_equiv_pos_as_xyz
  1  'x, y, z'
loop_
 _atom_site_type_symbol
 _atom_site_label
 _atom_site_symmetry_multiplicity
 _atom_site_fract_x
 _atom_site_fract_y
 _atom_site_fract_z
 _atom_site_occupancy
  Li  Li0  1  0.33333300  0.66666700  0.80144400  1
  Li  Li1  1  0.66666700  0.33333300  0.48056900  1
  Li  Li2  1  0.33333300  0.66666700  0.19444800  1
  Ca  Ca3  1  0.00000000  0.00000000  0.66330500  1
  Ca  Ca4  1  0.00000000  0.00000000  0.32846800  1
  Ca  Ca5  1  0.00000000  0.00000000  0.99614100  1
  Sn  Sn6  1  0.66666700  0.33333300  0.84722400  1
  Sn  Sn7  1  0.66666700  0.33333300  0.14822400  1
  Sn  Sn8  1  0.33333300  0.66666700  0.49617800  1
