# generated using pymatgen
data_HoFe3
_symmetry_space_group_name_H-M   'P 1'
_cell_length_a   8.61411212
_cell_length_b   8.61411212
_cell_length_c   8.61411268
_cell_angle_alpha   34.32424927
_cell_angle_beta   34.32424927
_cell_angle_gamma   34.32424864
_symmetry_Int_Tables_number   1
_chemical_formula_structural   HoFe3
_chemical_formula_sum   'Ho3 Fe9'
_cell_volume   181.25692559
_cell_formula_units_Z   3
loop_
 _symmetry_equiv_pos_site_id
 _symmetry_equiv_pos_as_xyz
  1  'x, y, z'
loop_
 _atom_site_type_symbol
 _atom_site_label
 _atom_site_symmetry_multiplicity
 _atom_site_fract_x
 _atom_site_fract_y
 _atom_site_fract_z
 _atom_site_occupancy
  Ho  Ho0  1  0.00000000  0.00000000  0.00000000  1
  Ho  Ho1  1  0.14189500  0.14189500  0.14189500  1
  Ho  Ho2  1  0.85810500  0.85810500  0.85810500  1
  Fe  Fe3  1  0.50000000  0.50000000  0.50000000  1
  Fe  Fe4  1  0.33276300  0.33276300  0.33276300  1
  Fe  Fe5  1  0.66723700  0.66723700  0.66723700  1
  Fe  Fe6  1  0.08197400  0.58102900  0.58102900  1
  Fe  Fe7  1  0.58102900  0.58102900  0.08197400  1
  Fe  Fe8  1  0.58102900  0.08197400  0.58102900  1
  Fe  Fe9  1  0.41897100  0.91802600  0.41897100  1
  Fe  Fe10  1  0.91802600  0.41897100  0.41897100  1
  Fe  Fe11  1  0.41897100  0.41897100  0.91802600  1
