# generated using pymatgen
data_Zn11Ir2
_symmetry_space_group_name_H-M   'P 1'
_cell_length_a   7.93246361
_cell_length_b   7.93246361
_cell_length_c   7.93246361
_cell_angle_alpha   109.47122063
_cell_angle_beta   109.47122063
_cell_angle_gamma   109.47122063
_symmetry_Int_Tables_number   1
_chemical_formula_structural   Zn11Ir2
_chemical_formula_sum   'Zn22 Ir4'
_cell_volume   384.23982379
_cell_formula_units_Z   2
loop_
 _symmetry_equiv_pos_site_id
 _symmetry_equiv_pos_as_xyz
  1  'x, y, z'
loop_
 _atom_site_type_symbol
 _atom_site_label
 _atom_site_symmetry_multiplicity
 _atom_site_fract_x
 _atom_site_fract_y
 _atom_site_fract_z
 _atom_site_occupancy
  Zn  Zn0  1  0.73600900  0.38571300  0.73600900  1
  Zn  Zn1  1  0.61428700  0.35029500  0.35029500  1
  Zn  Zn2  1  0.35029500  0.35029500  0.61428700  1
  Zn  Zn3  1  0.64970500  0.26399100  0.00000000  1
  Zn  Zn4  1  0.20987200  0.20987200  0.20987200  1
  Zn  Zn5  1  0.00000000  0.00000000  0.79012800  1
  Zn  Zn6  1  0.79012800  0.00000000  0.00000000  1
  Zn  Zn7  1  0.00000000  0.79012800  0.00000000  1
  Zn  Zn8  1  0.35696100  0.35696100  0.00000000  1
  Zn  Zn9  1  0.00000000  0.64303900  0.64303900  1
  Zn  Zn10  1  0.00000000  0.35696100  0.35696100  1
  Zn  Zn11  1  0.35696100  0.00000000  0.35696100  1
  Zn  Zn12  1  0.64303900  0.00000000  0.64303900  1
  Zn  Zn13  1  0.64303900  0.64303900  0.00000000  1
  Zn  Zn14  1  0.35029500  0.61428700  0.35029500  1
  Zn  Zn15  1  0.26399100  0.00000000  0.64970500  1
  Zn  Zn16  1  0.64970500  0.00000000  0.26399100  1
  Zn  Zn17  1  0.26399100  0.64970500  0.00000000  1
  Zn  Zn18  1  0.73600900  0.73600900  0.38571300  1
  Zn  Zn19  1  0.38571300  0.73600900  0.73600900  1
  Zn  Zn20  1  0.00000000  0.64970500  0.26399100  1
  Zn  Zn21  1  0.00000000  0.26399100  0.64970500  1
  Ir  Ir22  1  0.00000000  0.34645700  0.00000000  1
  Ir  Ir23  1  0.34645700  0.00000000  0.00000000  1
  Ir  Ir24  1  0.00000000  0.00000000  0.34645700  1
  Ir  Ir25  1  0.65354300  0.65354300  0.65354300  1
