# generated using pymatgen
data_GdPaO4
_symmetry_space_group_name_H-M   'P 1'
_cell_length_a   6.63930764
_cell_length_b   6.63930764
_cell_length_c   6.63930764
_cell_angle_alpha   131.59786421
_cell_angle_beta   131.59786421
_cell_angle_gamma   70.86490300
_symmetry_Int_Tables_number   1
_chemical_formula_structural   GdPaO4
_chemical_formula_sum   'Gd2 Pa2 O8'
_cell_volume   160.29494444
_cell_formula_units_Z   2
loop_
 _symmetry_equiv_pos_site_id
 _symmetry_equiv_pos_as_xyz
  1  'x, y, z'
loop_
 _atom_site_type_symbol
 _atom_site_label
 _atom_site_symmetry_multiplicity
 _atom_site_fract_x
 _atom_site_fract_y
 _atom_site_fract_z
 _atom_site_occupancy
  Gd  Gd0  1  0.50000000  0.50000000  0.00000000  1
  Gd  Gd1  1  0.25000000  0.75000000  0.50000000  1
  Pa  Pa2  1  0.00000000  0.00000000  0.00000000  1
  Pa  Pa3  1  0.75000000  0.25000000  0.50000000  1
  O  O4  1  0.87500000  0.36074700  0.98574700  1
  O  O5  1  0.63925300  0.12500000  0.01425300  1
  O  O6  1  0.37500000  0.36074700  0.48574700  1
  O  O7  1  0.11074700  0.62500000  0.98574700  1
  O  O8  1  0.37500000  0.88925300  0.01425300  1
  O  O9  1  0.87500000  0.88925300  0.51425300  1
  O  O10  1  0.11074700  0.12500000  0.48574700  1
  O  O11  1  0.63925300  0.62500000  0.51425300  1
