# generated using pymatgen
data_DyBiRh
_symmetry_space_group_name_H-M   'P 1'
_cell_length_a   7.68152320
_cell_length_b   7.68152320
_cell_length_c   3.99006200
_cell_angle_alpha   90.00000000
_cell_angle_beta   90.00000000
_cell_angle_gamma   119.99999311
_symmetry_Int_Tables_number   1
_chemical_formula_structural   DyBiRh
_chemical_formula_sum   'Dy3 Bi3 Rh3'
_cell_volume   203.89425966
_cell_formula_units_Z   3
loop_
 _symmetry_equiv_pos_site_id
 _symmetry_equiv_pos_as_xyz
  1  'x, y, z'
loop_
 _atom_site_type_symbol
 _atom_site_label
 _atom_site_symmetry_multiplicity
 _atom_site_fract_x
 _atom_site_fract_y
 _atom_site_fract_z
 _atom_site_occupancy
  Dy  Dy0  1  0.60075600  0.00000000  0.00000000  1
  Dy  Dy1  1  0.39924400  0.39924400  0.00000000  1
  Dy  Dy2  1  0.00000000  0.60075600  0.00000000  1
  Bi  Bi3  1  0.26564600  0.00000000  0.50000000  1
  Bi  Bi4  1  0.73435400  0.73435400  0.50000000  1
  Bi  Bi5  1  0.00000000  0.26564600  0.50000000  1
  Rh  Rh6  1  0.66666700  0.33333300  0.50000000  1
  Rh  Rh7  1  0.00000000  0.00000000  0.00000000  1
  Rh  Rh8  1  0.33333300  0.66666700  0.50000000  1
