# generated using pymatgen
data_Dy5Bi3
_symmetry_space_group_name_H-M   'P 1'
_cell_length_a   8.26615200
_cell_length_b   9.54730200
_cell_length_c   12.04979000
_cell_angle_alpha   90.00000000
_cell_angle_beta   90.00000000
_cell_angle_gamma   90.00000000
_symmetry_Int_Tables_number   1
_chemical_formula_structural   Dy5Bi3
_chemical_formula_sum   'Dy20 Bi12'
_cell_volume   950.96279365
_cell_formula_units_Z   4
loop_
 _symmetry_equiv_pos_site_id
 _symmetry_equiv_pos_as_xyz
  1  'x, y, z'
loop_
 _atom_site_type_symbol
 _atom_site_label
 _atom_site_symmetry_multiplicity
 _atom_site_fract_x
 _atom_site_fract_y
 _atom_site_fract_z
 _atom_site_occupancy
  Dy  Dy0  1  0.35257600  0.75000000  0.21481800  1
  Dy  Dy1  1  0.85257600  0.75000000  0.28518200  1
  Dy  Dy2  1  0.64742400  0.25000000  0.78518200  1
  Dy  Dy3  1  0.14742400  0.25000000  0.71481800  1
  Dy  Dy4  1  0.69292600  0.56353000  0.05830100  1
  Dy  Dy5  1  0.19292600  0.93647000  0.44169900  1
  Dy  Dy6  1  0.30707400  0.06353000  0.94169900  1
  Dy  Dy7  1  0.80707400  0.43647000  0.55830100  1
  Dy  Dy8  1  0.30707400  0.43647000  0.94169900  1
  Dy  Dy9  1  0.80707400  0.06353000  0.55830100  1
  Dy  Dy10  1  0.69292600  0.93647000  0.05830100  1
  Dy  Dy11  1  0.19292600  0.56353000  0.44169900  1
  Dy  Dy12  1  0.47584600  0.25000000  0.48839400  1
  Dy  Dy13  1  0.97584600  0.25000000  0.01160600  1
  Dy  Dy14  1  0.52415400  0.75000000  0.51160600  1
  Dy  Dy15  1  0.02415400  0.75000000  0.98839400  1
  Dy  Dy16  1  0.31269600  0.25000000  0.21879500  1
  Dy  Dy17  1  0.81269600  0.25000000  0.28120500  1
  Dy  Dy18  1  0.68730400  0.75000000  0.78120500  1
  Dy  Dy19  1  0.18730400  0.75000000  0.71879500  1
  Bi  Bi20  1  0.40740600  0.75000000  0.95666400  1
  Bi  Bi21  1  0.90740600  0.75000000  0.54333600  1
  Bi  Bi22  1  0.59259400  0.25000000  0.04333600  1
  Bi  Bi23  1  0.09259400  0.25000000  0.45666400  1
  Bi  Bi24  1  0.56447000  0.99557600  0.32531000  1
  Bi  Bi25  1  0.06447000  0.50442400  0.17469000  1
  Bi  Bi26  1  0.43553000  0.49557600  0.67469000  1
  Bi  Bi27  1  0.93553000  0.00442400  0.82531000  1
  Bi  Bi28  1  0.43553000  0.00442400  0.67469000  1
  Bi  Bi29  1  0.93553000  0.49557600  0.82531000  1
  Bi  Bi30  1  0.56447000  0.50442400  0.32531000  1
  Bi  Bi31  1  0.06447000  0.99557600  0.17469000  1
