# generated using pymatgen
data_La3GaBr3
_symmetry_space_group_name_H-M   'P 1'
_cell_length_a   6.14485200
_cell_length_b   6.14485200
_cell_length_c   6.14485200
_cell_angle_alpha   90.00000000
_cell_angle_beta   90.00000000
_cell_angle_gamma   90.00000000
_symmetry_Int_Tables_number   1
_chemical_formula_structural   La3GaBr3
_chemical_formula_sum   'La3 Ga1 Br3'
_cell_volume   232.02473313
_cell_formula_units_Z   1
loop_
 _symmetry_equiv_pos_site_id
 _symmetry_equiv_pos_as_xyz
  1  'x, y, z'
loop_
 _atom_site_type_symbol
 _atom_site_label
 _atom_site_symmetry_multiplicity
 _atom_site_fract_x
 _atom_site_fract_y
 _atom_site_fract_z
 _atom_site_occupancy
  La  La0  1  0.00000000  0.50000000  0.50000000  1
  La  La1  1  0.50000000  0.00000000  0.50000000  1
  La  La2  1  0.50000000  0.50000000  0.00000000  1
  Ga  Ga3  1  0.50000000  0.50000000  0.50000000  1
  Br  Br4  1  0.00000000  0.00000000  0.50000000  1
  Br  Br5  1  0.50000000  0.00000000  0.00000000  1
  Br  Br6  1  0.00000000  0.50000000  0.00000000  1
