# generated using pymatgen
data_ErSiPd2
_symmetry_space_group_name_H-M   'P 1'
_cell_length_a   5.50895300
_cell_length_b   7.00250200
_cell_length_c   7.28484600
_cell_angle_alpha   90.00000000
_cell_angle_beta   90.00000000
_cell_angle_gamma   90.00000000
_symmetry_Int_Tables_number   1
_chemical_formula_structural   ErSiPd2
_chemical_formula_sum   'Er4 Si4 Pd8'
_cell_volume   281.02352953
_cell_formula_units_Z   4
loop_
 _symmetry_equiv_pos_site_id
 _symmetry_equiv_pos_as_xyz
  1  'x, y, z'
loop_
 _atom_site_type_symbol
 _atom_site_label
 _atom_site_symmetry_multiplicity
 _atom_site_fract_x
 _atom_site_fract_y
 _atom_site_fract_z
 _atom_site_occupancy
  Er  Er0  1  0.14004200  0.75000000  0.52721900  1
  Er  Er1  1  0.64004200  0.25000000  0.97278100  1
  Er  Er2  1  0.85995800  0.25000000  0.47278100  1
  Er  Er3  1  0.35995800  0.75000000  0.02721900  1
  Si  Si4  1  0.86021600  0.75000000  0.87895500  1
  Si  Si5  1  0.36021600  0.25000000  0.62104500  1
  Si  Si6  1  0.13978400  0.25000000  0.12104500  1
  Si  Si7  1  0.63978400  0.75000000  0.37895500  1
  Pd  Pd8  1  0.90568700  0.94846500  0.17917800  1
  Pd  Pd9  1  0.40568700  0.05153500  0.32082200  1
  Pd  Pd10  1  0.09431300  0.44846500  0.82082200  1
  Pd  Pd11  1  0.59431300  0.55153500  0.67917800  1
  Pd  Pd12  1  0.09431300  0.05153500  0.82082200  1
  Pd  Pd13  1  0.59431300  0.94846500  0.67917800  1
  Pd  Pd14  1  0.90568700  0.55153500  0.17917800  1
  Pd  Pd15  1  0.40568700  0.44846500  0.32082200  1
