# generated using pymatgen
data_Ce4Ga5Br2
_symmetry_space_group_name_H-M   'P 1'
_cell_length_a   11.47938861
_cell_length_b   11.47938861
_cell_length_c   4.23408000
_cell_angle_alpha   90.00000000
_cell_angle_beta   90.00000000
_cell_angle_gamma   93.79802005
_symmetry_Int_Tables_number   1
_chemical_formula_structural   Ce4Ga5Br2
_chemical_formula_sum   'Ce8 Ga10 Br4'
_cell_volume   556.72626590
_cell_formula_units_Z   2
loop_
 _symmetry_equiv_pos_site_id
 _symmetry_equiv_pos_as_xyz
  1  'x, y, z'
loop_
 _atom_site_type_symbol
 _atom_site_label
 _atom_site_symmetry_multiplicity
 _atom_site_fract_x
 _atom_site_fract_y
 _atom_site_fract_z
 _atom_site_occupancy
  Ce  Ce0  1  0.67520400  0.04098400  0.50000000  1
  Ce  Ce1  1  0.32479600  0.95901600  0.50000000  1
  Ce  Ce2  1  0.04098400  0.67520400  0.50000000  1
  Ce  Ce3  1  0.95901600  0.32479600  0.50000000  1
  Ce  Ce4  1  0.73018300  0.73018300  0.00000000  1
  Ce  Ce5  1  0.26981700  0.26981700  0.00000000  1
  Ce  Ce6  1  0.36861900  0.63138100  0.00000000  1
  Ce  Ce7  1  0.63138100  0.36861900  0.00000000  1
  Ga  Ga8  1  0.57912800  0.57912800  0.50000000  1
  Ga  Ga9  1  0.42087200  0.42087200  0.50000000  1
  Ga  Ga10  1  0.53631100  0.89919800  0.00000000  1
  Ga  Ga11  1  0.46368900  0.10080200  0.00000000  1
  Ga  Ga12  1  0.89919800  0.53631100  0.00000000  1
  Ga  Ga13  1  0.10080200  0.46368900  0.00000000  1
  Ga  Ga14  1  0.51323600  0.78228200  0.50000000  1
  Ga  Ga15  1  0.48676400  0.21771800  0.50000000  1
  Ga  Ga16  1  0.21771800  0.48676400  0.50000000  1
  Ga  Ga17  1  0.78228200  0.51323600  0.50000000  1
  Br  Br18  1  0.12468600  0.12468600  0.50000000  1
  Br  Br19  1  0.87531400  0.87531400  0.50000000  1
  Br  Br20  1  0.82348000  0.17652000  0.00000000  1
  Br  Br21  1  0.17652000  0.82348000  0.00000000  1
