# generated using pymatgen
data_SiNi
_symmetry_space_group_name_H-M   'P 1'
_cell_length_a   3.35012600
_cell_length_b   5.15462800
_cell_length_c   5.58064800
_cell_angle_alpha   90.00000000
_cell_angle_beta   90.00000000
_cell_angle_gamma   90.00000000
_symmetry_Int_Tables_number   1
_chemical_formula_structural   SiNi
_chemical_formula_sum   'Si4 Ni4'
_cell_volume   96.37027541
_cell_formula_units_Z   4
loop_
 _symmetry_equiv_pos_site_id
 _symmetry_equiv_pos_as_xyz
  1  'x, y, z'
loop_
 _atom_site_type_symbol
 _atom_site_label
 _atom_site_symmetry_multiplicity
 _atom_site_fract_x
 _atom_site_fract_y
 _atom_site_fract_z
 _atom_site_occupancy
  Si  Si0  1  0.75000000  0.32157900  0.91656200  1
  Si  Si1  1  0.75000000  0.82157900  0.58343800  1
  Si  Si2  1  0.25000000  0.67842100  0.08343800  1
  Si  Si3  1  0.25000000  0.17842100  0.41656200  1
  Ni  Ni4  1  0.25000000  0.00919300  0.81196100  1
  Ni  Ni5  1  0.25000000  0.50919300  0.68803900  1
  Ni  Ni6  1  0.75000000  0.99080700  0.18803900  1
  Ni  Ni7  1  0.75000000  0.49080700  0.31196100  1
