# generated using pymatgen
data_Ga2Ir
_symmetry_space_group_name_H-M   'P 1'
_cell_length_a   6.85871663
_cell_length_b   6.85871663
_cell_length_c   11.00719000
_cell_angle_alpha   90.00000000
_cell_angle_beta   90.00000000
_cell_angle_gamma   146.63914696
_symmetry_Int_Tables_number   1
_chemical_formula_structural   Ga2Ir
_chemical_formula_sum   'Ga12 Ir6'
_cell_volume   284.74359536
_cell_formula_units_Z   6
loop_
 _symmetry_equiv_pos_site_id
 _symmetry_equiv_pos_as_xyz
  1  'x, y, z'
loop_
 _atom_site_type_symbol
 _atom_site_label
 _atom_site_symmetry_multiplicity
 _atom_site_fract_x
 _atom_site_fract_y
 _atom_site_fract_z
 _atom_site_occupancy
  Ga  Ga0  1  0.55876100  0.44123900  0.60585300  1
  Ga  Ga1  1  0.44123900  0.55876100  0.39414700  1
  Ga  Ga2  1  0.44123900  0.55876100  0.10585300  1
  Ga  Ga3  1  0.55876100  0.44123900  0.89414700  1
  Ga  Ga4  1  0.17848800  0.82151200  0.51764200  1
  Ga  Ga5  1  0.82151200  0.17848800  0.48235800  1
  Ga  Ga6  1  0.76625400  0.23374600  0.75000000  1
  Ga  Ga7  1  0.23374600  0.76625400  0.25000000  1
  Ga  Ga8  1  0.95959500  0.04040500  0.75000000  1
  Ga  Ga9  1  0.04040500  0.95959500  0.25000000  1
  Ga  Ga10  1  0.17848800  0.82151200  0.98235800  1
  Ga  Ga11  1  0.82151200  0.17848800  0.01764200  1
  Ir  Ir12  1  0.35970500  0.64029500  0.62281400  1
  Ir  Ir13  1  0.64029500  0.35970500  0.37718600  1
  Ir  Ir14  1  0.64029500  0.35970500  0.12281400  1
  Ir  Ir15  1  0.35970500  0.64029500  0.87718600  1
  Ir  Ir16  1  0.85131600  0.14868400  0.25000000  1
  Ir  Ir17  1  0.14868400  0.85131600  0.75000000  1
