# generated using pymatgen
data_Ca4Al51Cr7
_symmetry_space_group_name_H-M   'P 1'
_cell_length_a   10.22451188
_cell_length_b   10.22451188
_cell_length_c   11.47739900
_cell_angle_alpha   90.00000000
_cell_angle_beta   90.00000000
_cell_angle_gamma   119.99999925
_symmetry_Int_Tables_number   1
_chemical_formula_structural   Ca4Al51Cr7
_chemical_formula_sum   'Ca4 Al51 Cr7'
_cell_volume   1039.10463689
_cell_formula_units_Z   1
loop_
 _symmetry_equiv_pos_site_id
 _symmetry_equiv_pos_as_xyz
  1  'x, y, z'
loop_
 _atom_site_type_symbol
 _atom_site_label
 _atom_site_symmetry_multiplicity
 _atom_site_fract_x
 _atom_site_fract_y
 _atom_site_fract_z
 _atom_site_occupancy
  Ca  Ca0  1  0.33333300  0.66666700  0.58479200  1
  Ca  Ca1  1  0.33333300  0.66666700  0.90347800  1
  Ca  Ca2  1  0.66666700  0.33333300  0.41520800  1
  Ca  Ca3  1  0.66666700  0.33333300  0.09652200  1
  Al  Al4  1  0.57787500  0.42212500  0.65249400  1
  Al  Al5  1  0.57787500  0.15575000  0.65249400  1
  Al  Al6  1  0.84425000  0.42212500  0.65249400  1
  Al  Al7  1  0.09110900  0.90889100  0.17087600  1
  Al  Al8  1  0.09110900  0.18221800  0.17087600  1
  Al  Al9  1  0.81778200  0.90889100  0.17087600  1
  Al  Al10  1  0.84564800  0.15435200  0.04377000  1
  Al  Al11  1  0.84564800  0.69129700  0.04377000  1
  Al  Al12  1  0.30870300  0.15435200  0.04377000  1
  Al  Al13  1  0.24263000  0.75737000  0.14372500  1
  Al  Al14  1  0.24263000  0.48525900  0.14372500  1
  Al  Al15  1  0.51474100  0.75737000  0.14372500  1
  Al  Al16  1  0.09179800  0.90820200  0.60476200  1
  Al  Al17  1  0.09179800  0.18359500  0.60476200  1
  Al  Al18  1  0.81640500  0.90820200  0.60476200  1
  Al  Al19  1  0.15435200  0.84564800  0.95623000  1
  Al  Al20  1  0.15435200  0.30870300  0.95623000  1
  Al  Al21  1  0.69129700  0.84564800  0.95623000  1
  Al  Al22  1  0.75737000  0.24263000  0.85627500  1
  Al  Al23  1  0.75737000  0.51474100  0.85627500  1
  Al  Al24  1  0.48525900  0.24263000  0.85627500  1
  Al  Al25  1  0.42212500  0.57787500  0.34750600  1
  Al  Al26  1  0.42212500  0.84425000  0.34750600  1
  Al  Al27  1  0.15575000  0.57787500  0.34750600  1
  Al  Al28  1  0.50000000  0.50000000  0.00000000  1
  Al  Al29  1  0.50000000  0.00000000  0.00000000  1
  Al  Al30  1  0.00000000  0.50000000  0.00000000  1
  Al  Al31  1  0.90889100  0.09110900  0.82912400  1
  Al  Al32  1  0.90889100  0.81778200  0.82912400  1
  Al  Al33  1  0.18221800  0.09110900  0.82912400  1
  Al  Al34  1  0.90820200  0.09179800  0.39523800  1
  Al  Al35  1  0.90820200  0.81640500  0.39523800  1
  Al  Al36  1  0.18359500  0.09179800  0.39523800  1
  Al  Al37  1  0.64088700  0.00000000  0.50000000  1
  Al  Al38  1  0.00000000  0.64088700  0.50000000  1
  Al  Al39  1  0.35911300  0.35911300  0.50000000  1
  Al  Al40  1  0.35911300  0.00000000  0.50000000  1
  Al  Al41  1  0.64088700  0.64088700  0.50000000  1
  Al  Al42  1  0.00000000  0.35911300  0.50000000  1
  Al  Al43  1  0.33003300  0.39779400  0.75395000  1
  Al  Al44  1  0.60220600  0.93223900  0.75395000  1
  Al  Al45  1  0.06776100  0.66996700  0.75395000  1
  Al  Al46  1  0.06776100  0.39779400  0.75395000  1
  Al  Al47  1  0.33003300  0.93223900  0.75395000  1
  Al  Al48  1  0.60220600  0.66996700  0.75395000  1
  Al  Al49  1  0.93223900  0.33003300  0.24605000  1
  Al  Al50  1  0.66996700  0.60220600  0.24605000  1
  Al  Al51  1  0.39779400  0.06776100  0.24605000  1
  Al  Al52  1  0.39779400  0.33003300  0.24605000  1
  Al  Al53  1  0.93223900  0.60220600  0.24605000  1
  Al  Al54  1  0.66996700  0.06776100  0.24605000  1
  Cr  Cr55  1  0.00000000  0.00000000  0.00000000  1
  Cr  Cr56  1  0.16901000  0.83099000  0.34328000  1
  Cr  Cr57  1  0.16901000  0.33802100  0.34328000  1
  Cr  Cr58  1  0.66197900  0.83099000  0.34328000  1
  Cr  Cr59  1  0.83099000  0.16901000  0.65672000  1
  Cr  Cr60  1  0.83099000  0.66197900  0.65672000  1
  Cr  Cr61  1  0.33802100  0.16901000  0.65672000  1
