# generated using pymatgen
data_SbPO4
_symmetry_space_group_name_H-M   'P 1'
_cell_length_a   6.88490000
_cell_length_b   4.87339200
_cell_length_c   5.28824482
_cell_angle_alpha   83.38555686
_cell_angle_beta   90.00000000
_cell_angle_gamma   90.00000000
_symmetry_Int_Tables_number   1
_chemical_formula_structural   SbPO4
_chemical_formula_sum   'Sb2 P2 O8'
_cell_volume   176.25445538
_cell_formula_units_Z   2
loop_
 _symmetry_equiv_pos_site_id
 _symmetry_equiv_pos_as_xyz
  1  'x, y, z'
loop_
 _atom_site_type_symbol
 _atom_site_label
 _atom_site_symmetry_multiplicity
 _atom_site_fract_x
 _atom_site_fract_y
 _atom_site_fract_z
 _atom_site_occupancy
  Sb  Sb0  1  0.75000000  0.19125200  0.80832300  1
  Sb  Sb1  1  0.25000000  0.80874800  0.19167700  1
  P  P2  1  0.75000000  0.72449300  0.38799800  1
  P  P3  1  0.25000000  0.27550700  0.61200200  1
  O  O4  1  0.42913300  0.17552300  0.76960100  1
  O  O5  1  0.92913300  0.82447700  0.23039900  1
  O  O6  1  0.57086700  0.82447700  0.23039900  1
  O  O7  1  0.07086700  0.17552300  0.76960100  1
  O  O8  1  0.25000000  0.17454700  0.33958800  1
  O  O9  1  0.75000000  0.82545300  0.66041200  1
  O  O10  1  0.25000000  0.59829100  0.55478100  1
  O  O11  1  0.75000000  0.40170900  0.44521900  1
