# generated using pymatgen
data_NbGe2
_symmetry_space_group_name_H-M   'P 1'
_cell_length_a   5.01331959
_cell_length_b   5.01331959
_cell_length_c   6.84171200
_cell_angle_alpha   90.00000000
_cell_angle_beta   90.00000000
_cell_angle_gamma   119.99999455
_symmetry_Int_Tables_number   1
_chemical_formula_structural   NbGe2
_chemical_formula_sum   'Nb3 Ge6'
_cell_volume   148.91766765
_cell_formula_units_Z   3
loop_
 _symmetry_equiv_pos_site_id
 _symmetry_equiv_pos_as_xyz
  1  'x, y, z'
loop_
 _atom_site_type_symbol
 _atom_site_label
 _atom_site_symmetry_multiplicity
 _atom_site_fract_x
 _atom_site_fract_y
 _atom_site_fract_z
 _atom_site_occupancy
  Nb  Nb0  1  0.00000000  0.50000000  0.16666700  1
  Nb  Nb1  1  0.50000000  0.50000000  0.83333300  1
  Nb  Nb2  1  0.50000000  0.00000000  0.50000000  1
  Ge  Ge3  1  0.83587700  0.67175300  0.50000000  1
  Ge  Ge4  1  0.16412300  0.83587700  0.83333300  1
  Ge  Ge5  1  0.67175300  0.83587700  0.16666700  1
  Ge  Ge6  1  0.16412300  0.32824700  0.50000000  1
  Ge  Ge7  1  0.83587700  0.16412300  0.83333300  1
  Ge  Ge8  1  0.32824700  0.16412300  0.16666700  1
