# generated using pymatgen
data_SrVF5
_symmetry_space_group_name_H-M   'P 1'
_cell_length_a   7.40264800
_cell_length_b   7.19625100
_cell_length_c   14.98060416
_cell_angle_alpha   84.98783969
_cell_angle_beta   90.00000000
_cell_angle_gamma   90.00000000
_symmetry_Int_Tables_number   1
_chemical_formula_structural   SrVF5
_chemical_formula_sum   'Sr8 V8 F40'
_cell_volume   794.98490507
_cell_formula_units_Z   8
loop_
 _symmetry_equiv_pos_site_id
 _symmetry_equiv_pos_as_xyz
  1  'x, y, z'
loop_
 _atom_site_type_symbol
 _atom_site_label
 _atom_site_symmetry_multiplicity
 _atom_site_fract_x
 _atom_site_fract_y
 _atom_site_fract_z
 _atom_site_occupancy
  Sr  Sr0  1  0.16116000  0.99781500  0.63673400  1
  Sr  Sr1  1  0.66116000  0.00218500  0.86326600  1
  Sr  Sr2  1  0.83884000  0.00218500  0.36326600  1
  Sr  Sr3  1  0.33884000  0.99781500  0.13673400  1
  Sr  Sr4  1  0.65790500  0.31045800  0.58496900  1
  Sr  Sr5  1  0.15790500  0.68954200  0.91503100  1
  Sr  Sr6  1  0.34209500  0.68954200  0.41503100  1
  Sr  Sr7  1  0.84209500  0.31045800  0.08496900  1
  V  V8  1  0.18508000  0.18991700  0.87420600  1
  V  V9  1  0.68508000  0.81008300  0.62579400  1
  V  V10  1  0.81492000  0.81008300  0.12579400  1
  V  V11  1  0.31492000  0.18991700  0.37420600  1
  V  V12  1  0.11846700  0.49357500  0.66263000  1
  V  V13  1  0.61846700  0.50642500  0.83737000  1
  V  V14  1  0.88153300  0.50642500  0.33737000  1
  V  V15  1  0.38153300  0.49357500  0.16263000  1
  F  F16  1  0.32288500  0.04452400  0.96632200  1
  F  F17  1  0.82288500  0.95547600  0.53367800  1
  F  F18  1  0.67711500  0.95547600  0.03367800  1
  F  F19  1  0.17711500  0.04452400  0.46632200  1
  F  F20  1  0.07843000  0.34867100  0.95827800  1
  F  F21  1  0.57843000  0.65132900  0.54172200  1
  F  F22  1  0.92157000  0.65132900  0.04172200  1
  F  F23  1  0.42157000  0.34867100  0.45827800  1
  F  F24  1  0.36577700  0.40032700  0.85325200  1
  F  F25  1  0.86577700  0.59967300  0.64674800  1
  F  F26  1  0.63422300  0.59967300  0.14674800  1
  F  F27  1  0.13422300  0.40032700  0.35325200  1
  F  F28  1  0.31147300  0.03176300  0.79347800  1
  F  F29  1  0.81147300  0.96823700  0.70652200  1
  F  F30  1  0.68852700  0.96823700  0.20652200  1
  F  F31  1  0.18852700  0.03176300  0.29347800  1
  F  F32  1  0.49915200  0.29860000  0.09802300  1
  F  F33  1  0.99915200  0.70140000  0.40197700  1
  F  F34  1  0.50084800  0.70140000  0.90197700  1
  F  F35  1  0.00084800  0.29860000  0.59802300  1
  F  F36  1  0.30568600  0.68664300  0.06726400  1
  F  F37  1  0.80568600  0.31335700  0.43273600  1
  F  F38  1  0.69431400  0.31335700  0.93273600  1
  F  F39  1  0.19431400  0.68664300  0.56726400  1
  F  F40  1  0.33916500  0.68742200  0.24315900  1
  F  F41  1  0.83916500  0.31257800  0.25684100  1
  F  F42  1  0.66083500  0.31257800  0.75684100  1
  F  F43  1  0.16083500  0.68742200  0.74315900  1
  F  F44  1  0.44677900  0.31018100  0.27113600  1
  F  F45  1  0.94677900  0.68981900  0.22886400  1
  F  F46  1  0.55322100  0.68981900  0.72886400  1
  F  F47  1  0.05322100  0.31018100  0.77113600  1
  F  F48  1  0.16379000  0.35369100  0.14888800  1
  F  F49  1  0.66379000  0.64630900  0.35111200  1
  F  F50  1  0.83621000  0.64630900  0.85111200  1
  F  F51  1  0.33621000  0.35369100  0.64888800  1
  F  F52  1  0.50823100  0.99563200  0.39162800  1
  F  F53  1  0.00823100  0.00436800  0.10837200  1
  F  F54  1  0.49176900  0.00436800  0.60837200  1
  F  F55  1  0.99176900  0.99563200  0.89162800  1
