# generated using pymatgen
data_Sm3Sb5O12
_symmetry_space_group_name_H-M   'P 1'
_cell_length_a   9.57315393
_cell_length_b   9.57315393
_cell_length_c   9.57315393
_cell_angle_alpha   109.47122063
_cell_angle_beta   109.47122063
_cell_angle_gamma   109.47122063
_symmetry_Int_Tables_number   1
_chemical_formula_structural   Sm3Sb5O12
_chemical_formula_sum   'Sm6 Sb10 O24'
_cell_volume   675.37228708
_cell_formula_units_Z   2
loop_
 _symmetry_equiv_pos_site_id
 _symmetry_equiv_pos_as_xyz
  1  'x, y, z'
loop_
 _atom_site_type_symbol
 _atom_site_label
 _atom_site_symmetry_multiplicity
 _atom_site_fract_x
 _atom_site_fract_y
 _atom_site_fract_z
 _atom_site_occupancy
  Sm  Sm0  1  0.75000000  0.50000000  0.25000000  1
  Sm  Sm1  1  0.25000000  0.75000000  0.50000000  1
  Sm  Sm2  1  0.75000000  0.25000000  0.50000000  1
  Sm  Sm3  1  0.50000000  0.25000000  0.75000000  1
  Sm  Sm4  1  0.50000000  0.75000000  0.25000000  1
  Sm  Sm5  1  0.25000000  0.50000000  0.75000000  1
  Sb  Sb6  1  0.50898300  0.50898300  0.50898300  1
  Sb  Sb7  1  0.00000000  0.49101700  0.00000000  1
  Sb  Sb8  1  0.49101700  0.00000000  0.00000000  1
  Sb  Sb9  1  0.00000000  0.00000000  0.49101700  1
  Sb  Sb10  1  0.00000000  0.71799900  0.71799900  1
  Sb  Sb11  1  0.00000000  0.28200100  0.28200100  1
  Sb  Sb12  1  0.28200100  0.00000000  0.28200100  1
  Sb  Sb13  1  0.71799900  0.00000000  0.71799900  1
  Sb  Sb14  1  0.28200100  0.28200100  0.00000000  1
  Sb  Sb15  1  0.71799900  0.71799900  0.00000000  1
  O  O16  1  0.52533200  0.00000000  0.80103000  1
  O  O17  1  0.19897000  0.19897000  0.72430200  1
  O  O18  1  0.00000000  0.80103000  0.52533200  1
  O  O19  1  0.27569800  0.47466800  0.47466800  1
  O  O20  1  0.80103000  0.52533200  0.00000000  1
  O  O21  1  0.47466800  0.27569800  0.47466800  1
  O  O22  1  0.19897000  0.72430200  0.19897000  1
  O  O23  1  0.52533200  0.80103000  0.00000000  1
  O  O24  1  0.47466800  0.47466800  0.27569800  1
  O  O25  1  0.00000000  0.52533200  0.80103000  1
  O  O26  1  0.72430200  0.19897000  0.19897000  1
  O  O27  1  0.80103000  0.00000000  0.52533200  1
  O  O28  1  0.49315200  0.00000000  0.29342700  1
  O  O29  1  0.70657300  0.70657300  0.19972600  1
  O  O30  1  0.00000000  0.29342700  0.49315200  1
  O  O31  1  0.80027400  0.50684800  0.50684800  1
  O  O32  1  0.29342700  0.00000000  0.49315200  1
  O  O33  1  0.19972600  0.70657300  0.70657300  1
  O  O34  1  0.00000000  0.49315200  0.29342700  1
  O  O35  1  0.50684800  0.50684800  0.80027400  1
  O  O36  1  0.49315200  0.29342700  0.00000000  1
  O  O37  1  0.70657300  0.19972600  0.70657300  1
  O  O38  1  0.50684800  0.80027400  0.50684800  1
  O  O39  1  0.29342700  0.49315200  0.00000000  1
