# generated using pymatgen
data_Sc(IO3)3
_symmetry_space_group_name_H-M   'P 1'
_cell_length_a   7.51661484
_cell_length_b   7.51661484
_cell_length_c   7.51661442
_cell_angle_alpha   82.25609942
_cell_angle_beta   82.25609942
_cell_angle_gamma   82.25610099
_symmetry_Int_Tables_number   1
_chemical_formula_structural   Sc(IO3)3
_chemical_formula_sum   'Sc2 I6 O18'
_cell_volume   414.02403778
_cell_formula_units_Z   2
loop_
 _symmetry_equiv_pos_site_id
 _symmetry_equiv_pos_as_xyz
  1  'x, y, z'
loop_
 _atom_site_type_symbol
 _atom_site_label
 _atom_site_symmetry_multiplicity
 _atom_site_fract_x
 _atom_site_fract_y
 _atom_site_fract_z
 _atom_site_occupancy
  Sc  Sc0  1  0.82296800  0.82296800  0.82296800  1
  Sc  Sc1  1  0.17703200  0.17703200  0.17703200  1
  I  I2  1  0.86850700  0.28016300  0.57998200  1
  I  I3  1  0.57998200  0.86850700  0.28016300  1
  I  I4  1  0.28016300  0.57998200  0.86850700  1
  I  I5  1  0.13149300  0.71983700  0.42001800  1
  I  I6  1  0.42001800  0.13149300  0.71983700  1
  I  I7  1  0.71983700  0.42001800  0.13149300  1
  O  O8  1  0.72265400  0.21354000  0.42842300  1
  O  O9  1  0.42842300  0.72265400  0.21354000  1
  O  O10  1  0.21354000  0.42842300  0.72265400  1
  O  O11  1  0.27734600  0.78646000  0.57157700  1
  O  O12  1  0.57157700  0.27734600  0.78646000  1
  O  O13  1  0.78646000  0.57157700  0.27734600  1
  O  O14  1  0.08025600  0.28756100  0.42295600  1
  O  O15  1  0.42295600  0.08025600  0.28756100  1
  O  O16  1  0.93639800  0.28888500  0.06587100  1
  O  O17  1  0.28888500  0.06587100  0.93639800  1
  O  O18  1  0.06587100  0.93639800  0.28888500  1
  O  O19  1  0.06360200  0.71111500  0.93412900  1
  O  O20  1  0.71111500  0.93412900  0.06360200  1
  O  O21  1  0.93412900  0.06360200  0.71111500  1
  O  O22  1  0.71243900  0.57704400  0.91974400  1
  O  O23  1  0.57704400  0.91974400  0.71243900  1
  O  O24  1  0.91974400  0.71243900  0.57704400  1
  O  O25  1  0.28756100  0.42295600  0.08025600  1
