# generated using pymatgen
data_La2Zn17
_symmetry_space_group_name_H-M   'P 1'
_cell_length_a   6.91007040
_cell_length_b   6.91007040
_cell_length_c   6.91007024
_cell_angle_alpha   82.69876826
_cell_angle_beta   82.69876826
_cell_angle_gamma   82.69877382
_symmetry_Int_Tables_number   1
_chemical_formula_structural   La2Zn17
_chemical_formula_sum   'La2 Zn17'
_cell_volume   322.55028551
_cell_formula_units_Z   1
loop_
 _symmetry_equiv_pos_site_id
 _symmetry_equiv_pos_as_xyz
  1  'x, y, z'
loop_
 _atom_site_type_symbol
 _atom_site_label
 _atom_site_symmetry_multiplicity
 _atom_site_fract_x
 _atom_site_fract_y
 _atom_site_fract_z
 _atom_site_occupancy
  La  La0  1  0.66351400  0.66351400  0.66351400  1
  La  La1  1  0.33648600  0.33648600  0.33648600  1
  Zn  Zn2  1  0.34855000  0.34855000  0.83973200  1
  Zn  Zn3  1  0.83973200  0.34855000  0.34855000  1
  Zn  Zn4  1  0.09837800  0.09837800  0.09837800  1
  Zn  Zn5  1  0.90162200  0.90162200  0.90162200  1
  Zn  Zn6  1  0.00000000  0.00000000  0.50000000  1
  Zn  Zn7  1  0.00000000  0.50000000  0.00000000  1
  Zn  Zn8  1  0.50000000  0.00000000  0.00000000  1
  Zn  Zn9  1  0.29052200  0.70947800  0.00000000  1
  Zn  Zn10  1  0.70947800  0.00000000  0.29052200  1
  Zn  Zn11  1  0.00000000  0.29052200  0.70947800  1
  Zn  Zn12  1  0.70947800  0.29052200  0.00000000  1
  Zn  Zn13  1  0.29052200  0.00000000  0.70947800  1
  Zn  Zn14  1  0.00000000  0.70947800  0.29052200  1
  Zn  Zn15  1  0.16026800  0.65145000  0.65145000  1
  Zn  Zn16  1  0.65145000  0.65145000  0.16026800  1
  Zn  Zn17  1  0.65145000  0.16026800  0.65145000  1
  Zn  Zn18  1  0.34855000  0.83973200  0.34855000  1
