# generated using pymatgen
data_Nb6Si7Ni16
_symmetry_space_group_name_H-M   'P 1'
_cell_length_a   7.96123605
_cell_length_b   7.96123605
_cell_length_c   7.96123605
_cell_angle_alpha   60.00000000
_cell_angle_beta   60.00000000
_cell_angle_gamma   60.00000000
_symmetry_Int_Tables_number   1
_chemical_formula_structural   Nb6Si7Ni16
_chemical_formula_sum   'Nb6 Si7 Ni16'
_cell_volume   356.80136358
_cell_formula_units_Z   1
loop_
 _symmetry_equiv_pos_site_id
 _symmetry_equiv_pos_as_xyz
  1  'x, y, z'
loop_
 _atom_site_type_symbol
 _atom_site_label
 _atom_site_symmetry_multiplicity
 _atom_site_fract_x
 _atom_site_fract_y
 _atom_site_fract_z
 _atom_site_occupancy
  Nb  Nb0  1  0.79681900  0.79681900  0.20318100  1
  Nb  Nb1  1  0.79681900  0.20318100  0.79681900  1
  Nb  Nb2  1  0.20318100  0.79681900  0.20318100  1
  Nb  Nb3  1  0.79681900  0.20318100  0.20318100  1
  Nb  Nb4  1  0.20318100  0.79681900  0.79681900  1
  Nb  Nb5  1  0.20318100  0.20318100  0.79681900  1
  Si  Si6  1  0.50000000  0.50000000  0.50000000  1
  Si  Si7  1  0.50000000  0.00000000  0.50000000  1
  Si  Si8  1  0.00000000  0.50000000  0.00000000  1
  Si  Si9  1  0.00000000  0.00000000  0.50000000  1
  Si  Si10  1  0.50000000  0.00000000  0.00000000  1
  Si  Si11  1  0.00000000  0.50000000  0.50000000  1
  Si  Si12  1  0.50000000  0.50000000  0.00000000  1
  Ni  Ni13  1  0.16826100  0.16826100  0.49521800  1
  Ni  Ni14  1  0.49521800  0.16826100  0.16826100  1
  Ni  Ni15  1  0.16826100  0.16826100  0.16826100  1
  Ni  Ni16  1  0.50478200  0.83173900  0.83173900  1
  Ni  Ni17  1  0.83173900  0.83173900  0.83173900  1
  Ni  Ni18  1  0.83173900  0.83173900  0.50478200  1
  Ni  Ni19  1  0.16826100  0.49521800  0.16826100  1
  Ni  Ni20  1  0.61661200  0.15016400  0.61661200  1
  Ni  Ni21  1  0.38338800  0.38338800  0.84983600  1
  Ni  Ni22  1  0.84983600  0.38338800  0.38338800  1
  Ni  Ni23  1  0.38338800  0.38338800  0.38338800  1
  Ni  Ni24  1  0.15016400  0.61661200  0.61661200  1
  Ni  Ni25  1  0.61661200  0.61661200  0.61661200  1
  Ni  Ni26  1  0.61661200  0.61661200  0.15016400  1
  Ni  Ni27  1  0.38338800  0.84983600  0.38338800  1
  Ni  Ni28  1  0.83173900  0.50478200  0.83173900  1
