# generated using pymatgen
data_NdNbO4
_symmetry_space_group_name_H-M   'P 1'
_cell_length_a   6.85044406
_cell_length_b   6.85044406
_cell_length_c   5.27976241
_cell_angle_alpha   68.48607074
_cell_angle_beta   68.48607074
_cell_angle_gamma   114.34942170
_symmetry_Int_Tables_number   1
_chemical_formula_structural   NdNbO4
_chemical_formula_sum   'Nd2 Nb2 O8'
_cell_volume   166.23449516
_cell_formula_units_Z   2
loop_
 _symmetry_equiv_pos_site_id
 _symmetry_equiv_pos_as_xyz
  1  'x, y, z'
loop_
 _atom_site_type_symbol
 _atom_site_label
 _atom_site_symmetry_multiplicity
 _atom_site_fract_x
 _atom_site_fract_y
 _atom_site_fract_z
 _atom_site_occupancy
  Nd  Nd0  1  0.37272200  0.62727800  0.75000000  1
  Nd  Nd1  1  0.62727800  0.37272200  0.25000000  1
  Nb  Nb2  1  0.88800300  0.11199700  0.75000000  1
  Nb  Nb3  1  0.11199700  0.88800300  0.25000000  1
  O  O4  1  0.94683800  0.36321900  0.84154400  1
  O  O5  1  0.63678100  0.05316200  0.65845600  1
  O  O6  1  0.05316200  0.63678100  0.15845600  1
  O  O7  1  0.36321900  0.94683800  0.34154400  1
  O  O8  1  0.28163600  0.21260200  0.81812200  1
  O  O9  1  0.78739800  0.71836400  0.68187800  1
  O  O10  1  0.71836400  0.78739800  0.18187800  1
  O  O11  1  0.21260200  0.28163600  0.31812200  1
