# generated using pymatgen
data_Ti2P
_symmetry_space_group_name_H-M   'P 1'
_cell_length_a   6.61779338
_cell_length_b   6.61779338
_cell_length_c   3.51260500
_cell_angle_alpha   90.00000000
_cell_angle_beta   90.00000000
_cell_angle_gamma   119.99999376
_symmetry_Int_Tables_number   1
_chemical_formula_structural   Ti2P
_chemical_formula_sum   'Ti6 P3'
_cell_volume   133.22519995
_cell_formula_units_Z   3
loop_
 _symmetry_equiv_pos_site_id
 _symmetry_equiv_pos_as_xyz
  1  'x, y, z'
loop_
 _atom_site_type_symbol
 _atom_site_label
 _atom_site_symmetry_multiplicity
 _atom_site_fract_x
 _atom_site_fract_y
 _atom_site_fract_z
 _atom_site_occupancy
  Ti  Ti0  1  0.00000000  0.25366800  0.50000000  1
  Ti  Ti1  1  0.25366800  0.00000000  0.50000000  1
  Ti  Ti2  1  0.74633200  0.74633200  0.50000000  1
  Ti  Ti3  1  0.59073200  0.00000000  0.00000000  1
  Ti  Ti4  1  0.40926800  0.40926800  0.00000000  1
  Ti  Ti5  1  0.00000000  0.59073200  0.00000000  1
  P  P6  1  0.00000000  0.00000000  0.00000000  1
  P  P7  1  0.66666700  0.33333300  0.50000000  1
  P  P8  1  0.33333300  0.66666700  0.50000000  1
