# generated using pymatgen
data_Sr(LaS2)2
_symmetry_space_group_name_H-M   'P 1'
_cell_length_a   7.63110072
_cell_length_b   7.63110072
_cell_length_c   7.63110072
_cell_angle_alpha   109.38452047
_cell_angle_beta   109.38452047
_cell_angle_gamma   109.64476047
_symmetry_Int_Tables_number   1
_chemical_formula_structural   Sr(LaS2)2
_chemical_formula_sum   'Sr2 La4 S8'
_cell_volume   342.08708341
_cell_formula_units_Z   2
loop_
 _symmetry_equiv_pos_site_id
 _symmetry_equiv_pos_as_xyz
  1  'x, y, z'
loop_
 _atom_site_type_symbol
 _atom_site_label
 _atom_site_symmetry_multiplicity
 _atom_site_fract_x
 _atom_site_fract_y
 _atom_site_fract_z
 _atom_site_occupancy
  Sr  Sr0  1  0.00000000  0.00000000  0.00000000  1
  Sr  Sr1  1  0.25000000  0.75000000  0.50000000  1
  La  La2  1  0.12500000  0.50351000  0.87851000  1
  La  La3  1  0.49649000  0.37500000  0.62149000  1
  La  La4  1  0.62500000  0.24649000  0.12149000  1
  La  La5  1  0.75351000  0.87500000  0.37851000  1
  S  S6  1  0.86677900  0.61775500  0.09824900  1
  S  S7  1  0.01853000  0.26950500  0.40175100  1
  S  S8  1  0.23147000  0.13322100  0.75097500  1
  S  S9  1  0.38322100  0.98147000  0.25097500  1
  S  S10  1  0.51950500  0.76853000  0.90175100  1
  S  S11  1  0.38224500  0.48049500  0.24902500  1
  S  S12  1  0.73049500  0.13224500  0.74902500  1
  S  S13  1  0.86775500  0.61677900  0.59824900  1
