# generated using pymatgen
data_La2Te3
_symmetry_space_group_name_H-M   'P 1'
_cell_length_a   16.07347018
_cell_length_b   16.07347018
_cell_length_c   16.07347018
_cell_angle_alpha   144.97407280
_cell_angle_beta   144.97407280
_cell_angle_gamma   50.37316349
_symmetry_Int_Tables_number   1
_chemical_formula_structural   La2Te3
_chemical_formula_sum   'La16 Te24'
_cell_volume   1361.15950273
_cell_formula_units_Z   8
loop_
 _symmetry_equiv_pos_site_id
 _symmetry_equiv_pos_as_xyz
  1  'x, y, z'
loop_
 _atom_site_type_symbol
 _atom_site_label
 _atom_site_symmetry_multiplicity
 _atom_site_fract_x
 _atom_site_fract_y
 _atom_site_fract_z
 _atom_site_occupancy
  La  La0  1  0.20357400  0.32904800  0.61400700  1
  La  La1  1  0.41767900  0.91767900  0.50000000  1
  La  La2  1  0.99506900  0.62500000  0.87006900  1
  La  La3  1  0.03495900  0.92095200  0.37452500  1
  La  La4  1  0.33232100  0.33232100  0.00000000  1
  La  La5  1  0.54642600  0.66043300  0.62547500  1
  La  La6  1  0.75493100  0.12500000  0.12993100  1
  La  La7  1  0.33956700  0.96504100  0.88599300  1
  La  La8  1  0.37500000  0.24506900  0.37006900  1
  La  La9  1  0.66767900  0.66767900  0.00000000  1
  La  La10  1  0.87500000  0.00493100  0.62993100  1
  La  La11  1  0.07904800  0.45357400  0.11400700  1
  La  La12  1  0.08232100  0.58232100  0.50000000  1
  La  La13  1  0.67095200  0.28495900  0.87452500  1
  La  La14  1  0.71504100  0.58956700  0.38599300  1
  La  La15  1  0.41043300  0.79642600  0.12547500  1
  Te  Te16  1  0.50763100  0.25975800  0.90230100  1
  Te  Te17  1  0.72050100  0.82282800  0.74732400  1
  Te  Te18  1  0.35745700  0.60533000  0.09769900  1
  Te  Te19  1  0.24236900  0.64467000  0.25212700  1
  Te  Te20  1  0.39254300  0.99024200  0.74787300  1
  Te  Te21  1  0.07550500  0.97317700  0.25267600  1
  Te  Te22  1  0.84575700  0.59198500  0.90631500  1
  Te  Te23  1  0.02949900  0.27682300  0.60232700  1
  Te  Te24  1  0.06055900  0.15424300  0.74622800  1
  Te  Te25  1  0.68567000  0.93944100  0.09368500  1
  Te  Te26  1  0.67449500  0.42717200  0.39767300  1
  Te  Te27  1  0.57282800  0.97050100  0.24732400  1
  Te  Te28  1  0.72317700  0.32550500  0.75267600  1
  Te  Te29  1  0.40801500  0.31433000  0.25377200  1
  Te  Te30  1  0.17717200  0.92449500  0.89767300  1
  Te  Te31  1  0.35533000  0.60745700  0.59769900  1
  Te  Te32  1  0.39467000  0.49236900  0.75212700  1
  Te  Te33  1  0.02682300  0.27949900  0.10232700  1
  Te  Te34  1  0.00975800  0.75763100  0.40230100  1
  Te  Te35  1  0.90424300  0.31055900  0.24622800  1
  Te  Te36  1  0.06433000  0.65801500  0.75377200  1
  Te  Te37  1  0.74024200  0.64254300  0.24787300  1
  Te  Te38  1  0.68944100  0.93567000  0.59368500  1
  Te  Te39  1  0.34198500  0.09575700  0.40631500  1
