# generated using pymatgen
data_Mn2SnO4
_symmetry_space_group_name_H-M   'P 1'
_cell_length_a   6.31118361
_cell_length_b   6.38557672
_cell_length_c   6.38559383
_cell_angle_alpha   89.52401020
_cell_angle_beta   119.61548412
_cell_angle_gamma   60.38456680
_symmetry_Int_Tables_number   1
_chemical_formula_structural   Mn2SnO4
_chemical_formula_sum   'Mn4 Sn2 O8'
_cell_volume   183.32007521
_cell_formula_units_Z   2
loop_
 _symmetry_equiv_pos_site_id
 _symmetry_equiv_pos_as_xyz
  1  'x, y, z'
loop_
 _atom_site_type_symbol
 _atom_site_label
 _atom_site_symmetry_multiplicity
 _atom_site_fract_x
 _atom_site_fract_y
 _atom_site_fract_z
 _atom_site_occupancy
  Mn  Mn0  1  0.00001000  0.01572000  0.01573800  1
  Mn  Mn1  1  0.49998400  0.23428000  0.23425100  1
  Mn  Mn2  1  0.74996800  0.62501800  0.62499600  1
  Mn  Mn3  1  0.25004300  0.62498800  0.62500800  1
  Sn  Sn4  1  0.75000200  0.62499800  0.12500500  1
  Sn  Sn5  1  0.24999800  0.12500200  0.62500200  1
  O  O6  1  0.77387600  0.37585600  0.37585600  1
  O  O7  1  0.22612200  0.37585700  0.37585600  1
  O  O8  1  0.27387900  0.87414200  0.87414600  1
  O  O9  1  0.72612200  0.87414300  0.87414500  1
  O  O10  1  0.76475000  0.83797600  0.36747800  1
  O  O11  1  0.23524800  0.36747700  0.83797700  1
  O  O12  1  0.26474600  0.88252500  0.41201900  1
  O  O13  1  0.73525300  0.41201900  0.88252300  1
