# generated using pymatgen
data_RbBO2
_symmetry_space_group_name_H-M   'P 1'
_cell_length_a   8.13289885
_cell_length_b   8.13289885
_cell_length_c   8.13289891
_cell_angle_alpha   109.78813543
_cell_angle_beta   109.78813543
_cell_angle_gamma   109.78814343
_symmetry_Int_Tables_number   1
_chemical_formula_structural   RbBO2
_chemical_formula_sum   'Rb6 B6 O12'
_cell_volume   409.17751036
_cell_formula_units_Z   6
loop_
 _symmetry_equiv_pos_site_id
 _symmetry_equiv_pos_as_xyz
  1  'x, y, z'
loop_
 _atom_site_type_symbol
 _atom_site_label
 _atom_site_symmetry_multiplicity
 _atom_site_fract_x
 _atom_site_fract_y
 _atom_site_fract_z
 _atom_site_occupancy
  Rb  Rb0  1  0.75000000  0.19013500  0.30986500  1
  Rb  Rb1  1  0.30986500  0.75000000  0.19013500  1
  Rb  Rb2  1  0.19013500  0.30986500  0.75000000  1
  Rb  Rb3  1  0.25000000  0.80986500  0.69013500  1
  Rb  Rb4  1  0.69013500  0.25000000  0.80986500  1
  Rb  Rb5  1  0.80986500  0.69013500  0.25000000  1
  B  B6  1  0.75000000  0.85951000  0.64049000  1
  B  B7  1  0.64049000  0.75000000  0.85951000  1
  B  B8  1  0.85951000  0.64049000  0.75000000  1
  B  B9  1  0.25000000  0.14049000  0.35951000  1
  B  B10  1  0.35951000  0.25000000  0.14049000  1
  B  B11  1  0.14049000  0.35951000  0.25000000  1
  O  O12  1  0.04082300  0.45917700  0.25000000  1
  O  O13  1  0.45917700  0.25000000  0.04082300  1
  O  O14  1  0.25000000  0.04082300  0.45917700  1
  O  O15  1  0.95917700  0.54082300  0.75000000  1
  O  O16  1  0.54082300  0.75000000  0.95917700  1
  O  O17  1  0.75000000  0.95917700  0.54082300  1
  O  O18  1  0.25000000  0.35471700  0.14528300  1
  O  O19  1  0.35471700  0.14528300  0.25000000  1
  O  O20  1  0.14528300  0.25000000  0.35471700  1
  O  O21  1  0.75000000  0.64528300  0.85471700  1
  O  O22  1  0.64528300  0.85471700  0.75000000  1
  O  O23  1  0.85471700  0.75000000  0.64528300  1
