# generated using pymatgen
data_K6Si2O7
_symmetry_space_group_name_H-M   'P 1'
_cell_length_a   8.98622000
_cell_length_b   6.53329900
_cell_length_c   11.03365579
_cell_angle_alpha   55.20609004
_cell_angle_beta   90.00000000
_cell_angle_gamma   90.00000000
_symmetry_Int_Tables_number   1
_chemical_formula_structural   K6Si2O7
_chemical_formula_sum   'K12 Si4 O14'
_cell_volume   531.96513704
_cell_formula_units_Z   2
loop_
 _symmetry_equiv_pos_site_id
 _symmetry_equiv_pos_as_xyz
  1  'x, y, z'
loop_
 _atom_site_type_symbol
 _atom_site_label
 _atom_site_symmetry_multiplicity
 _atom_site_fract_x
 _atom_site_fract_y
 _atom_site_fract_z
 _atom_site_occupancy
  K  K0  1  0.02673000  0.79163000  0.45618500  1
  K  K1  1  0.47327000  0.79163000  0.95618500  1
  K  K2  1  0.97327000  0.20837000  0.54381500  1
  K  K3  1  0.85109100  0.97042900  0.91473200  1
  K  K4  1  0.35109100  0.02957100  0.58526800  1
  K  K5  1  0.14890900  0.02957100  0.08526800  1
  K  K6  1  0.64890900  0.97042900  0.41473200  1
  K  K7  1  0.78162000  0.60504800  0.77636400  1
  K  K8  1  0.28162000  0.39495200  0.72363600  1
  K  K9  1  0.21838000  0.39495200  0.22363600  1
  K  K10  1  0.71838000  0.60504800  0.27636400  1
  K  K11  1  0.52673000  0.20837000  0.04381500  1
  Si  Si12  1  0.13552400  0.67416800  0.87427800  1
  Si  Si13  1  0.36447600  0.67416800  0.37427800  1
  Si  Si14  1  0.86447600  0.32583200  0.12572200  1
  Si  Si15  1  0.63552400  0.32583200  0.62572200  1
  O  O16  1  0.00000000  0.50000000  0.00000000  1
  O  O17  1  0.58134100  0.25946500  0.78673500  1
  O  O18  1  0.08134100  0.74053500  0.71326500  1
  O  O19  1  0.41865900  0.74053500  0.21326500  1
  O  O20  1  0.50000000  0.50000000  0.50000000  1
  O  O21  1  0.84229100  0.07376500  0.12710500  1
  O  O22  1  0.34229100  0.92623500  0.37289500  1
  O  O23  1  0.15770900  0.92623500  0.87289500  1
  O  O24  1  0.65770900  0.07376500  0.62710500  1
  O  O25  1  0.71534900  0.50453000  0.06540100  1
  O  O26  1  0.21534900  0.49547000  0.43459900  1
  O  O27  1  0.28465100  0.49547000  0.93459900  1
  O  O28  1  0.78465100  0.50453000  0.56540100  1
  O  O29  1  0.91865900  0.25946500  0.28673500  1
