# generated using pymatgen
data_DyBe13
_symmetry_space_group_name_H-M   'P 1'
_cell_length_a   7.19658917
_cell_length_b   7.19658917
_cell_length_c   7.19658917
_cell_angle_alpha   60.00000000
_cell_angle_beta   60.00000000
_cell_angle_gamma   60.00000000
_symmetry_Int_Tables_number   1
_chemical_formula_structural   DyBe13
_chemical_formula_sum   'Dy2 Be26'
_cell_volume   263.55128257
_cell_formula_units_Z   2
loop_
 _symmetry_equiv_pos_site_id
 _symmetry_equiv_pos_as_xyz
  1  'x, y, z'
loop_
 _atom_site_type_symbol
 _atom_site_label
 _atom_site_symmetry_multiplicity
 _atom_site_fract_x
 _atom_site_fract_y
 _atom_site_fract_z
 _atom_site_occupancy
  Dy  Dy0  1  0.25000000  0.25000000  0.25000000  1
  Dy  Dy1  1  0.75000000  0.75000000  0.75000000  1
  Be  Be2  1  0.50000000  0.50000000  0.50000000  1
  Be  Be3  1  0.00000000  0.00000000  0.00000000  1
  Be  Be4  1  0.20960100  0.79039900  0.56270400  1
  Be  Be5  1  0.06270400  0.29039900  0.70960100  1
  Be  Be6  1  0.70960100  0.93729600  0.06270400  1
  Be  Be7  1  0.06270400  0.93729600  0.29039900  1
  Be  Be8  1  0.93729600  0.06270400  0.70960100  1
  Be  Be9  1  0.93729600  0.29039900  0.06270400  1
  Be  Be10  1  0.70960100  0.06270400  0.29039900  1
  Be  Be11  1  0.56270400  0.79039900  0.43729600  1
  Be  Be12  1  0.43729600  0.79039900  0.20960100  1
  Be  Be13  1  0.79039900  0.43729600  0.56270400  1
  Be  Be14  1  0.43729600  0.20960100  0.56270400  1
  Be  Be15  1  0.79039900  0.56270400  0.20960100  1
  Be  Be16  1  0.56270400  0.20960100  0.79039900  1
  Be  Be17  1  0.20960100  0.43729600  0.79039900  1
  Be  Be18  1  0.20960100  0.56270400  0.43729600  1
  Be  Be19  1  0.70960100  0.29039900  0.93729600  1
  Be  Be20  1  0.29039900  0.06270400  0.93729600  1
  Be  Be21  1  0.29039900  0.93729600  0.70960100  1
  Be  Be22  1  0.06270400  0.70960100  0.93729600  1
  Be  Be23  1  0.93729600  0.70960100  0.29039900  1
  Be  Be24  1  0.29039900  0.70960100  0.06270400  1
  Be  Be25  1  0.56270400  0.43729600  0.20960100  1
  Be  Be26  1  0.79039900  0.20960100  0.43729600  1
  Be  Be27  1  0.43729600  0.56270400  0.79039900  1
