# generated using pymatgen
data_LiUN2
_symmetry_space_group_name_H-M   'P 1'
_cell_length_a   6.35412167
_cell_length_b   6.35412167
_cell_length_c   6.35412167
_cell_angle_alpha   139.78975481
_cell_angle_beta   139.78975481
_cell_angle_gamma   58.17266539
_symmetry_Int_Tables_number   1
_chemical_formula_structural   LiUN2
_chemical_formula_sum   'Li2 U2 N4'
_cell_volume   105.96241022
_cell_formula_units_Z   2
loop_
 _symmetry_equiv_pos_site_id
 _symmetry_equiv_pos_as_xyz
  1  'x, y, z'
loop_
 _atom_site_type_symbol
 _atom_site_label
 _atom_site_symmetry_multiplicity
 _atom_site_fract_x
 _atom_site_fract_y
 _atom_site_fract_z
 _atom_site_occupancy
  Li  Li0  1  0.25000000  0.75000000  0.50000000  1
  Li  Li1  1  0.50000000  0.50000000  0.00000000  1
  U  U2  1  0.75000000  0.25000000  0.50000000  1
  U  U3  1  0.00000000  0.00000000  0.00000000  1
  N  N4  1  0.54053200  0.04053200  0.50000000  1
  N  N5  1  0.79053200  0.79053200  0.00000000  1
  N  N6  1  0.95946800  0.45946800  0.50000000  1
  N  N7  1  0.20946800  0.20946800  0.00000000  1
