# generated using pymatgen
data_Ta2Te2O9
_symmetry_space_group_name_H-M   'P 1'
_cell_length_a   7.66719000
_cell_length_b   7.24220700
_cell_length_c   14.96670635
_cell_angle_alpha   77.61696208
_cell_angle_beta   90.00000000
_cell_angle_gamma   90.00000000
_symmetry_Int_Tables_number   1
_chemical_formula_structural   Ta2Te2O9
_chemical_formula_sum   'Ta8 Te8 O36'
_cell_volume   811.72796146
_cell_formula_units_Z   4
loop_
 _symmetry_equiv_pos_site_id
 _symmetry_equiv_pos_as_xyz
  1  'x, y, z'
loop_
 _atom_site_type_symbol
 _atom_site_label
 _atom_site_symmetry_multiplicity
 _atom_site_fract_x
 _atom_site_fract_y
 _atom_site_fract_z
 _atom_site_occupancy
  Ta  Ta0  1  0.50451700  0.36379400  0.90310200  1
  Ta  Ta1  1  0.00451700  0.63620600  0.59689800  1
  Ta  Ta2  1  0.49548300  0.63620600  0.09689800  1
  Ta  Ta3  1  0.99548300  0.36379400  0.40310200  1
  Ta  Ta4  1  0.69876200  0.05380900  0.56833500  1
  Ta  Ta5  1  0.19876200  0.94619100  0.93166500  1
  Ta  Ta6  1  0.30123800  0.94619100  0.43166500  1
  Ta  Ta7  1  0.80123800  0.05380900  0.06833500  1
  Te  Te8  1  0.56614300  0.45661700  0.67128100  1
  Te  Te9  1  0.06614300  0.54338300  0.82871900  1
  Te  Te10  1  0.43385700  0.54338300  0.32871900  1
  Te  Te11  1  0.93385700  0.45661700  0.17128100  1
  Te  Te12  1  0.62847700  0.86880800  0.81393400  1
  Te  Te13  1  0.12847700  0.13119200  0.68606600  1
  Te  Te14  1  0.37152300  0.13119200  0.18606600  1
  Te  Te15  1  0.87152300  0.86880800  0.31393400  1
  O  O16  1  0.84811800  0.59933800  0.33188600  1
  O  O17  1  0.34811800  0.40066200  0.16811400  1
  O  O18  1  0.15188200  0.40066200  0.66811400  1
  O  O19  1  0.65188200  0.59933800  0.83188600  1
  O  O20  1  0.89373300  0.11299200  0.65137700  1
  O  O21  1  0.39373300  0.88700800  0.84862300  1
  O  O22  1  0.10626700  0.88700800  0.34862300  1
  O  O23  1  0.60626700  0.11299200  0.15137700  1
  O  O24  1  0.50000000  0.50000000  0.00000000  1
  O  O25  1  0.00000000  0.50000000  0.50000000  1
  O  O26  1  0.58846300  0.89863200  0.68673200  1
  O  O27  1  0.08846300  0.10136800  0.81326800  1
  O  O28  1  0.41153700  0.10136800  0.31326800  1
  O  O29  1  0.91153700  0.89863200  0.18673200  1
  O  O30  1  0.69581500  0.20984600  0.96060400  1
  O  O31  1  0.19581500  0.79015400  0.53939600  1
  O  O32  1  0.30418500  0.79015400  0.03939600  1
  O  O33  1  0.80418500  0.20984600  0.46060400  1
  O  O34  1  0.30961300  0.51297700  0.82972900  1
  O  O35  1  0.80961300  0.48702300  0.67027100  1
  O  O36  1  0.00000000  0.00000000  0.00000000  1
  O  O37  1  0.50000000  0.00000000  0.50000000  1
  O  O38  1  0.93592800  0.28026900  0.09414300  1
  O  O39  1  0.43592800  0.71973100  0.40585700  1
  O  O40  1  0.06407200  0.71973100  0.90585700  1
  O  O41  1  0.56407200  0.28026900  0.59414300  1
  O  O42  1  0.66705800  0.82942000  0.05331900  1
  O  O43  1  0.16705800  0.17058000  0.44668100  1
  O  O44  1  0.33294200  0.17058000  0.94668100  1
  O  O45  1  0.83294200  0.82942000  0.55331900  1
  O  O46  1  0.94081400  0.27171900  0.28401400  1
  O  O47  1  0.44081400  0.72828100  0.21598600  1
  O  O48  1  0.05918600  0.72828100  0.71598600  1
  O  O49  1  0.55918600  0.27171900  0.78401400  1
  O  O50  1  0.19038700  0.51297700  0.32972900  1
  O  O51  1  0.69038700  0.48702300  0.17027100  1
