# generated using pymatgen
data_LiHS
_symmetry_space_group_name_H-M   'P 1'
_cell_length_a   7.88985700
_cell_length_b   7.88985700
_cell_length_c   6.18884500
_cell_angle_alpha   90.00000000
_cell_angle_beta   90.00000000
_cell_angle_gamma   90.00000000
_symmetry_Int_Tables_number   1
_chemical_formula_structural   LiHS
_chemical_formula_sum   'Li8 H8 S8'
_cell_volume   385.25463257
_cell_formula_units_Z   8
loop_
 _symmetry_equiv_pos_site_id
 _symmetry_equiv_pos_as_xyz
  1  'x, y, z'
loop_
 _atom_site_type_symbol
 _atom_site_label
 _atom_site_symmetry_multiplicity
 _atom_site_fract_x
 _atom_site_fract_y
 _atom_site_fract_z
 _atom_site_occupancy
  Li  Li0  1  0.00000000  0.50000000  0.75000000  1
  Li  Li1  1  0.50000000  0.00000000  0.75000000  1
  Li  Li2  1  0.00000000  0.50000000  0.25000000  1
  Li  Li3  1  0.00000000  0.00000000  0.25000000  1
  Li  Li4  1  0.50000000  0.50000000  0.25000000  1
  Li  Li5  1  0.50000000  0.50000000  0.75000000  1
  Li  Li6  1  0.50000000  0.00000000  0.25000000  1
  Li  Li7  1  0.00000000  0.00000000  0.75000000  1
  H  H8  1  0.25113600  0.81324000  0.00000000  1
  H  H9  1  0.74886400  0.18676000  0.00000000  1
  H  H10  1  0.18676000  0.25113600  0.50000000  1
  H  H11  1  0.75113600  0.68676000  0.00000000  1
  H  H12  1  0.68676000  0.24886400  0.50000000  1
  H  H13  1  0.31324000  0.75113600  0.50000000  1
  H  H14  1  0.24886400  0.31324000  0.00000000  1
  H  H15  1  0.81324000  0.74886400  0.50000000  1
  S  S16  1  0.24983000  0.98452900  0.00000000  1
  S  S17  1  0.75017000  0.01547100  0.00000000  1
  S  S18  1  0.01547100  0.24983000  0.50000000  1
  S  S19  1  0.98452900  0.75017000  0.50000000  1
  S  S20  1  0.48452900  0.74983000  0.50000000  1
  S  S21  1  0.74983000  0.51547100  0.00000000  1
  S  S22  1  0.25017000  0.48452900  0.00000000  1
  S  S23  1  0.51547100  0.25017000  0.50000000  1
