# generated using pymatgen
data_Cd5Au3
_symmetry_space_group_name_H-M   'P 1'
_cell_length_a   8.23446736
_cell_length_b   8.23446736
_cell_length_c   8.23446736
_cell_angle_alpha   96.37638119
_cell_angle_beta   96.37638119
_cell_angle_gamma   141.06701184
_symmetry_Int_Tables_number   1
_chemical_formula_structural   Cd5Au3
_chemical_formula_sum   'Cd10 Au6'
_cell_volume   330.81617774
_cell_formula_units_Z   2
loop_
 _symmetry_equiv_pos_site_id
 _symmetry_equiv_pos_as_xyz
  1  'x, y, z'
loop_
 _atom_site_type_symbol
 _atom_site_label
 _atom_site_symmetry_multiplicity
 _atom_site_fract_x
 _atom_site_fract_y
 _atom_site_fract_z
 _atom_site_occupancy
  Cd  Cd0  1  0.57936000  0.27525300  0.85461300  1
  Cd  Cd1  1  0.42064000  0.72474700  0.14538700  1
  Cd  Cd2  1  0.72474700  0.57936000  0.30410700  1
  Cd  Cd3  1  0.27525300  0.42064000  0.69589300  1
  Cd  Cd4  1  0.92064000  0.77525300  0.69589300  1
  Cd  Cd5  1  0.22474700  0.92064000  0.14538700  1
  Cd  Cd6  1  0.25000000  0.75000000  0.50000000  1
  Cd  Cd7  1  0.75000000  0.25000000  0.50000000  1
  Cd  Cd8  1  0.07936000  0.22474700  0.30410700  1
  Cd  Cd9  1  0.77525300  0.07936000  0.85461300  1
  Au  Au10  1  0.83462900  0.33462900  0.16925800  1
  Au  Au11  1  0.66537100  0.83462900  0.50000000  1
  Au  Au12  1  0.33462900  0.16537100  0.50000000  1
  Au  Au13  1  0.16537100  0.66537100  0.83074200  1
  Au  Au14  1  0.75000000  0.75000000  0.00000000  1
  Au  Au15  1  0.25000000  0.25000000  0.00000000  1
