# generated using pymatgen
data_U4N7
_symmetry_space_group_name_H-M   'P 1'
_cell_length_a   9.20417421
_cell_length_b   9.20417421
_cell_length_c   9.20417421
_cell_angle_alpha   109.43999664
_cell_angle_beta   109.43999664
_cell_angle_gamma   109.53368669
_symmetry_Int_Tables_number   1
_chemical_formula_structural   U4N7
_chemical_formula_sum   'U16 N28'
_cell_volume   600.25005969
_cell_formula_units_Z   4
loop_
 _symmetry_equiv_pos_site_id
 _symmetry_equiv_pos_as_xyz
  1  'x, y, z'
loop_
 _atom_site_type_symbol
 _atom_site_label
 _atom_site_symmetry_multiplicity
 _atom_site_fract_x
 _atom_site_fract_y
 _atom_site_fract_z
 _atom_site_occupancy
  U  U0  1  0.77234400  0.99920400  0.25561600  1
  U  U1  1  0.25776400  0.23287700  0.50000000  1
  U  U2  1  0.49920400  0.27234400  0.25561600  1
  U  U3  1  0.47967600  0.97967600  0.50000000  1
  U  U4  1  0.73287700  0.75776400  0.50000000  1
  U  U5  1  0.97967600  0.47967600  0.50000000  1
  U  U6  1  0.74358700  0.51672700  0.74438400  1
  U  U7  1  0.51672700  0.77234400  0.77314000  1
  U  U8  1  0.27234400  0.01672700  0.77314000  1
  U  U9  1  0.00509700  0.00509700  0.00000000  1
  U  U10  1  0.23287700  0.73287700  0.97511300  1
  U  U11  1  0.50509700  0.50509700  0.00000000  1
  U  U12  1  0.01672700  0.24358700  0.74438400  1
  U  U13  1  0.75776400  0.25776400  0.02488700  1
  U  U14  1  0.24358700  0.49920400  0.22686000  1
  U  U15  1  0.99920400  0.74358700  0.22686000  1
  N  N16  1  0.77857900  0.75223400  0.26997400  1
  N  N17  1  0.50532700  0.23086600  0.50000000  1
  N  N18  1  0.49441800  0.51631500  0.24766800  1
  N  N19  1  0.73086600  0.00532700  0.50000000  1
  N  N20  1  0.75753900  0.52770600  0.50000000  1
  N  N21  1  0.25223400  0.27857900  0.26997400  1
  N  N22  1  0.46225100  0.73283800  0.50000000  1
  N  N23  1  0.00532700  0.50532700  0.27446100  1
  N  N24  1  0.23283800  0.96225100  0.50000000  1
  N  N25  1  0.98226000  0.25223400  0.97365500  1
  N  N26  1  0.52770600  0.02770600  0.77016700  1
  N  N27  1  0.96225100  0.46225100  0.72941300  1
  N  N28  1  0.74675000  0.76864600  0.75233200  1
  N  N29  1  0.23086600  0.73086600  0.72553900  1
  N  N30  1  0.00860500  0.98226000  0.73002600  1
  N  N31  1  0.48226000  0.50860500  0.73002600  1
  N  N32  1  0.76864600  0.01631500  0.02189700  1
  N  N33  1  0.02770600  0.25753900  0.50000000  1
  N  N34  1  0.75223400  0.48226000  0.97365500  1
  N  N35  1  0.01631500  0.99441800  0.24766800  1
  N  N36  1  0.50860500  0.77857900  0.02634500  1
  N  N37  1  0.26864600  0.24675000  0.75233200  1
  N  N38  1  0.73283800  0.23283800  0.27058700  1
  N  N39  1  0.27857900  0.00860500  0.02634500  1
  N  N40  1  0.99441800  0.74675000  0.97810300  1
  N  N41  1  0.24675000  0.49441800  0.97810300  1
  N  N42  1  0.51631500  0.26864600  0.02189700  1
  N  N43  1  0.25753900  0.75753900  0.22983300  1
