# generated using pymatgen
data_Be2SiO4
_symmetry_space_group_name_H-M   'P 1'
_cell_length_a   7.76980095
_cell_length_b   7.76980095
_cell_length_c   7.76979991
_cell_angle_alpha   108.01475681
_cell_angle_beta   108.01475681
_cell_angle_gamma   108.01475480
_symmetry_Int_Tables_number   1
_chemical_formula_structural   Be2SiO4
_chemical_formula_sum   'Be12 Si6 O24'
_cell_volume   379.30612558
_cell_formula_units_Z   6
loop_
 _symmetry_equiv_pos_site_id
 _symmetry_equiv_pos_as_xyz
  1  'x, y, z'
loop_
 _atom_site_type_symbol
 _atom_site_label
 _atom_site_symmetry_multiplicity
 _atom_site_fract_x
 _atom_site_fract_y
 _atom_site_fract_z
 _atom_site_occupancy
  Be  Be0  1  0.87292600  0.10148400  0.27877000  1
  Be  Be1  1  0.10148400  0.27877000  0.87292600  1
  Be  Be2  1  0.27877000  0.87292600  0.10148400  1
  Be  Be3  1  0.12707400  0.89851600  0.72123000  1
  Be  Be4  1  0.89851600  0.72123000  0.12707400  1
  Be  Be5  1  0.72123000  0.12707400  0.89851600  1
  Be  Be6  1  0.39007300  0.79419200  0.56887300  1
  Be  Be7  1  0.56887300  0.39007300  0.79419200  1
  Be  Be8  1  0.79419200  0.56887300  0.39007300  1
  Be  Be9  1  0.60992700  0.20580800  0.43112700  1
  Be  Be10  1  0.43112700  0.60992700  0.20580800  1
  Be  Be11  1  0.20580800  0.43112700  0.60992700  1
  Si  Si12  1  0.53862100  0.76566600  0.94556900  1
  Si  Si13  1  0.76566600  0.94556900  0.53862100  1
  Si  Si14  1  0.94556900  0.53862100  0.76566600  1
  Si  Si15  1  0.46137900  0.23433400  0.05443100  1
  Si  Si16  1  0.23433400  0.05443100  0.46137900  1
  Si  Si17  1  0.05443100  0.46137900  0.23433400  1
  O  O18  1  0.29357500  0.62394800  0.32907500  1
  O  O19  1  0.32907500  0.29357500  0.62394800  1
  O  O20  1  0.62394800  0.32907500  0.29357500  1
  O  O21  1  0.70642500  0.37605200  0.67092500  1
  O  O22  1  0.67092500  0.70642500  0.37605200  1
  O  O23  1  0.37605200  0.67092500  0.70642500  1
  O  O24  1  0.04050600  0.33721100  0.37135100  1
  O  O25  1  0.37135100  0.04050600  0.33721100  1
  O  O26  1  0.33721100  0.37135100  0.04050600  1
  O  O27  1  0.95949400  0.66278900  0.62864900  1
  O  O28  1  0.62864900  0.95949400  0.66278900  1
  O  O29  1  0.66278900  0.62864900  0.95949400  1
  O  O30  1  0.91618900  0.58356400  0.25058800  1
  O  O31  1  0.25058800  0.91618900  0.58356400  1
  O  O32  1  0.58356400  0.25058800  0.91618900  1
  O  O33  1  0.08381100  0.41643600  0.74941200  1
  O  O34  1  0.74941200  0.08381100  0.41643600  1
  O  O35  1  0.41643600  0.74941200  0.08381100  1
  O  O36  1  0.96238500  0.29404600  0.99699100  1
  O  O37  1  0.99699100  0.96238500  0.29404600  1
  O  O38  1  0.29404600  0.99699100  0.96238500  1
  O  O39  1  0.03761500  0.70595400  0.00300900  1
  O  O40  1  0.00300900  0.03761500  0.70595400  1
  O  O41  1  0.70595400  0.00300900  0.03761500  1
