# generated using pymatgen
data_KAuS5
_symmetry_space_group_name_H-M   'P 1'
_cell_length_a   10.60600099
_cell_length_b   10.60600099
_cell_length_c   10.60600099
_cell_angle_alpha   129.97678447
_cell_angle_beta   117.36350644
_cell_angle_gamma   84.13923397
_symmetry_Int_Tables_number   1
_chemical_formula_structural   KAuS5
_chemical_formula_sum   'K4 Au4 S20'
_cell_volume   778.53572292
_cell_formula_units_Z   4
loop_
 _symmetry_equiv_pos_site_id
 _symmetry_equiv_pos_as_xyz
  1  'x, y, z'
loop_
 _atom_site_type_symbol
 _atom_site_label
 _atom_site_symmetry_multiplicity
 _atom_site_fract_x
 _atom_site_fract_y
 _atom_site_fract_z
 _atom_site_occupancy
  K  K0  1  0.25000000  0.25000000  0.00000000  1
  K  K1  1  0.75000000  0.75000000  0.00000000  1
  K  K2  1  0.00000000  0.50000000  0.50000000  1
  K  K3  1  0.50000000  0.00000000  0.50000000  1
  Au  Au4  1  0.88686600  0.25000000  0.63686600  1
  Au  Au5  1  0.61313400  0.25000000  0.36313400  1
  Au  Au6  1  0.11313400  0.75000000  0.36313400  1
  Au  Au7  1  0.38686600  0.75000000  0.63686600  1
  S  S8  1  0.42329000  0.40205200  0.61102900  1
  S  S9  1  0.07671000  0.68773900  0.97876200  1
  S  S10  1  0.70897700  0.09794800  0.02123800  1
  S  S11  1  0.79102300  0.81226100  0.38897100  1
  S  S12  1  0.57671000  0.59794800  0.38897100  1
  S  S13  1  0.92329000  0.31226100  0.02123800  1
  S  S14  1  0.29102300  0.90205200  0.97876200  1
  S  S15  1  0.20897700  0.18773900  0.61102900  1
  S  S16  1  0.98738200  0.15686400  0.44533400  1
  S  S17  1  0.51261800  0.95795200  0.16948200  1
  S  S18  1  0.78847000  0.34313600  0.83051800  1
  S  S19  1  0.71153000  0.54204800  0.55466600  1
  S  S20  1  0.01261800  0.84313600  0.55466600  1
  S  S21  1  0.48738200  0.04204800  0.83051800  1
  S  S22  1  0.21153000  0.65686400  0.16948200  1
  S  S23  1  0.28847000  0.45795200  0.44533400  1
  S  S24  1  0.33716900  0.42717400  0.76434200  1
  S  S25  1  0.16283100  0.92717400  0.09000500  1
  S  S26  1  0.83716900  0.07282600  0.90999500  1
  S  S27  1  0.66283100  0.57282600  0.23565800  1
