# generated using pymatgen
data_NiSbS
_symmetry_space_group_name_H-M   'P 1'
_cell_length_a   5.93399000
_cell_length_b   5.93399000
_cell_length_c   5.93399000
_cell_angle_alpha   90.00000000
_cell_angle_beta   90.00000000
_cell_angle_gamma   90.00000000
_symmetry_Int_Tables_number   1
_chemical_formula_structural   NiSbS
_chemical_formula_sum   'Ni4 Sb4 S4'
_cell_volume   208.94906414
_cell_formula_units_Z   4
loop_
 _symmetry_equiv_pos_site_id
 _symmetry_equiv_pos_as_xyz
  1  'x, y, z'
loop_
 _atom_site_type_symbol
 _atom_site_label
 _atom_site_symmetry_multiplicity
 _atom_site_fract_x
 _atom_site_fract_y
 _atom_site_fract_z
 _atom_site_occupancy
  Ni  Ni0  1  0.47963400  0.97963400  0.52036600  1
  Ni  Ni1  1  0.97963400  0.52036600  0.47963400  1
  Ni  Ni2  1  0.52036600  0.47963400  0.97963400  1
  Ni  Ni3  1  0.02036600  0.02036600  0.02036600  1
  Sb  Sb4  1  0.13158200  0.63158200  0.86841800  1
  Sb  Sb5  1  0.63158200  0.86841800  0.13158200  1
  Sb  Sb6  1  0.86841800  0.13158200  0.63158200  1
  Sb  Sb7  1  0.36841800  0.36841800  0.36841800  1
  S  S8  1  0.88132600  0.38132600  0.11867400  1
  S  S9  1  0.38132600  0.11867400  0.88132600  1
  S  S10  1  0.11867400  0.88132600  0.38132600  1
  S  S11  1  0.61867400  0.61867400  0.61867400  1
