# generated using pymatgen
data_La2Te4O11
_symmetry_space_group_name_H-M   'P 1'
_cell_length_a   7.00425861
_cell_length_b   7.00425861
_cell_length_c   16.77704143
_cell_angle_alpha   76.57252429
_cell_angle_beta   76.57252429
_cell_angle_gamma   45.00877056
_symmetry_Int_Tables_number   1
_chemical_formula_structural   La2Te4O11
_chemical_formula_sum   'La4 Te8 O22'
_cell_volume   563.40335222
_cell_formula_units_Z   2
loop_
 _symmetry_equiv_pos_site_id
 _symmetry_equiv_pos_as_xyz
  1  'x, y, z'
loop_
 _atom_site_type_symbol
 _atom_site_label
 _atom_site_symmetry_multiplicity
 _atom_site_fract_x
 _atom_site_fract_y
 _atom_site_fract_z
 _atom_site_occupancy
  La  La0  1  0.13352000  0.62874300  0.53870200  1
  La  La1  1  0.37125700  0.86648000  0.96129800  1
  La  La2  1  0.86648000  0.37125700  0.46129800  1
  La  La3  1  0.62874300  0.13352000  0.03870200  1
  Te  Te4  1  0.60847900  0.15631000  0.70047100  1
  Te  Te5  1  0.84369000  0.39152100  0.79952900  1
  Te  Te6  1  0.39152100  0.84369000  0.29952900  1
  Te  Te7  1  0.15631000  0.60847900  0.20047100  1
  Te  Te8  1  0.14811900  0.58555000  0.87378000  1
  Te  Te9  1  0.41445000  0.85188100  0.62622000  1
  Te  Te10  1  0.85188100  0.41445000  0.12622000  1
  Te  Te11  1  0.58555000  0.14811900  0.37378000  1
  O  O12  1  0.85255900  0.14744100  0.75000000  1
  O  O13  1  0.14744100  0.85255900  0.25000000  1
  O  O14  1  0.19435600  0.09657600  0.82964900  1
  O  O15  1  0.90342400  0.80564400  0.67035100  1
  O  O16  1  0.80564400  0.90342400  0.17035100  1
  O  O17  1  0.09657600  0.19435600  0.32964900  1
  O  O18  1  0.61595700  0.43539600  0.89743000  1
  O  O19  1  0.56460400  0.38404300  0.60257000  1
  O  O20  1  0.38404300  0.56460400  0.10257000  1
  O  O21  1  0.43539600  0.61595700  0.39743000  1
  O  O22  1  0.04615000  0.80594600  0.95291900  1
  O  O23  1  0.19405400  0.95385000  0.54708100  1
  O  O24  1  0.67672500  0.81891900  0.37186300  1
  O  O25  1  0.18108100  0.32327500  0.12813700  1
  O  O26  1  0.32327500  0.18108100  0.62813700  1
  O  O27  1  0.81891900  0.67672500  0.87186300  1
  O  O28  1  0.25366300  0.33227300  0.44335200  1
  O  O29  1  0.66772700  0.74633700  0.05664800  1
  O  O30  1  0.74633700  0.66772700  0.55664800  1
  O  O31  1  0.33227300  0.25366300  0.94335200  1
  O  O32  1  0.80594600  0.04615000  0.45291900  1
  O  O33  1  0.95385000  0.19405400  0.04708100  1
