# generated using pymatgen
data_Mn3Nb6O11
_symmetry_space_group_name_H-M   'P 1'
_cell_length_a   6.16251728
_cell_length_b   15.49986300
_cell_length_c   6.16250900
_cell_angle_alpha   90.00005746
_cell_angle_beta   120.00013048
_cell_angle_gamma   89.99985001
_symmetry_Int_Tables_number   1
_chemical_formula_structural   Mn3Nb6O11
_chemical_formula_sum   'Mn6 Nb12 O22'
_cell_volume   509.76925268
_cell_formula_units_Z   2
loop_
 _symmetry_equiv_pos_site_id
 _symmetry_equiv_pos_as_xyz
  1  'x, y, z'
loop_
 _atom_site_type_symbol
 _atom_site_label
 _atom_site_symmetry_multiplicity
 _atom_site_fract_x
 _atom_site_fract_y
 _atom_site_fract_z
 _atom_site_occupancy
  Mn  Mn0  1  0.00001600  0.25000500  0.99999900  1
  Mn  Mn1  1  0.66667700  0.78503400  0.33334100  1
  Mn  Mn2  1  0.33333900  0.71496700  0.66666500  1
  Mn  Mn3  1  0.00001000  0.75000000  0.00000900  1
  Mn  Mn4  1  0.66664700  0.28503200  0.33333100  1
  Mn  Mn5  1  0.33334000  0.21497000  0.66667400  1
  Nb  Nb6  1  0.15438200  0.42592800  0.84561600  1
  Nb  Nb7  1  0.15438300  0.92593000  0.84561600  1
  Nb  Nb8  1  0.69123000  0.42592900  0.84561500  1
  Nb  Nb9  1  0.69123200  0.92593000  0.84561400  1
  Nb  Nb10  1  0.15438400  0.42592900  0.30876600  1
  Nb  Nb11  1  0.15438300  0.92593000  0.30876500  1
  Nb  Nb12  1  0.84561500  0.07407100  0.69123300  1
  Nb  Nb13  1  0.84561500  0.57406900  0.69123300  1
  Nb  Nb14  1  0.30876500  0.07407000  0.15438500  1
  Nb  Nb15  1  0.30876600  0.57406900  0.15438200  1
  Nb  Nb16  1  0.84561700  0.07407100  0.15438300  1
  Nb  Nb17  1  0.84561500  0.57407000  0.15438000  1
  O  O18  1  0.33333100  0.34830600  0.66666400  1
  O  O19  1  0.33333200  0.84830600  0.66666700  1
  O  O20  1  0.66666500  0.15169300  0.33333100  1
  O  O21  1  0.66666700  0.65169400  0.33333100  1
  O  O22  1  0.49999800  0.00000100  0.99999900  1
  O  O23  1  0.50000200  0.49999900  0.00000400  1
  O  O24  1  0.49999800  0.00000200  0.49999800  1
  O  O25  1  0.49999800  0.49999800  0.49999800  1
  O  O26  1  0.99999800  0.00000200  0.49999900  1
  O  O27  1  0.00000100  0.49999800  0.50000000  1
  O  O28  1  0.84377000  0.34217100  0.15623200  1
  O  O29  1  0.84377100  0.84217500  0.15622700  1
  O  O30  1  0.31246300  0.34217300  0.15623000  1
  O  O31  1  0.31245900  0.84217500  0.15623000  1
  O  O32  1  0.84377000  0.34217200  0.68753900  1
  O  O33  1  0.84377200  0.84217600  0.68754400  1
  O  O34  1  0.15623000  0.15782600  0.31246000  1
  O  O35  1  0.15622400  0.65782500  0.31245500  1
  O  O36  1  0.68753900  0.15782700  0.84377100  1
  O  O37  1  0.68753800  0.65782500  0.84377100  1
  O  O38  1  0.15623000  0.15782700  0.84376900  1
  O  O39  1  0.15622700  0.65782400  0.84377200  1
