# generated using pymatgen
data_Sr3Ag2
_symmetry_space_group_name_H-M   'P 1'
_cell_length_a   8.51885003
_cell_length_b   8.51885003
_cell_length_c   8.51885008
_cell_angle_alpha   72.04469196
_cell_angle_beta   72.04469196
_cell_angle_gamma   72.04469284
_symmetry_Int_Tables_number   1
_chemical_formula_structural   Sr3Ag2
_chemical_formula_sum   'Sr9 Ag6'
_cell_volume   543.71453835
_cell_formula_units_Z   3
loop_
 _symmetry_equiv_pos_site_id
 _symmetry_equiv_pos_as_xyz
  1  'x, y, z'
loop_
 _atom_site_type_symbol
 _atom_site_label
 _atom_site_symmetry_multiplicity
 _atom_site_fract_x
 _atom_site_fract_y
 _atom_site_fract_z
 _atom_site_occupancy
  Sr  Sr0  1  0.83729000  0.10864900  0.33610200  1
  Sr  Sr1  1  0.10864900  0.33610200  0.83729000  1
  Sr  Sr2  1  0.33610200  0.83729000  0.10864900  1
  Sr  Sr3  1  0.16271000  0.89135200  0.66389800  1
  Sr  Sr4  1  0.89135100  0.66389800  0.16271000  1
  Sr  Sr5  1  0.66389800  0.16271000  0.89135200  1
  Sr  Sr6  1  0.50000000  0.50000000  0.50000000  1
  Sr  Sr7  1  0.70558000  0.70558000  0.70558000  1
  Sr  Sr8  1  0.29442000  0.29442000  0.29442000  1
  Ag  Ag9  1  0.45874200  0.08891000  0.64227400  1
  Ag  Ag10  1  0.08891000  0.64227400  0.45874200  1
  Ag  Ag11  1  0.64227400  0.45874200  0.08891000  1
  Ag  Ag12  1  0.54125800  0.91109000  0.35772600  1
  Ag  Ag13  1  0.91109000  0.35772600  0.54125800  1
  Ag  Ag14  1  0.35772600  0.54125800  0.91109000  1
