# generated using pymatgen
data_TlGaTe2
_symmetry_space_group_name_H-M   'P 1'
_cell_length_a   7.03803580
_cell_length_b   7.03803580
_cell_length_c   7.03803580
_cell_angle_alpha   104.04645089
_cell_angle_beta   104.04645089
_cell_angle_gamma   120.96959219
_symmetry_Int_Tables_number   1
_chemical_formula_structural   TlGaTe2
_chemical_formula_sum   'Tl2 Ga2 Te4'
_cell_volume   260.12971891
_cell_formula_units_Z   2
loop_
 _symmetry_equiv_pos_site_id
 _symmetry_equiv_pos_as_xyz
  1  'x, y, z'
loop_
 _atom_site_type_symbol
 _atom_site_label
 _atom_site_symmetry_multiplicity
 _atom_site_fract_x
 _atom_site_fract_y
 _atom_site_fract_z
 _atom_site_occupancy
  Tl  Tl0  1  0.25000000  0.25000000  0.00000000  1
  Tl  Tl1  1  0.75000000  0.75000000  0.00000000  1
  Ga  Ga2  1  0.75000000  0.25000000  0.50000000  1
  Ga  Ga3  1  0.25000000  0.75000000  0.50000000  1
  Te  Te4  1  0.16748800  0.66748800  0.83497500  1
  Te  Te5  1  0.83251200  0.33251200  0.16502500  1
  Te  Te6  1  0.33251200  0.16748800  0.50000000  1
  Te  Te7  1  0.66748800  0.83251200  0.50000000  1
