# generated using pymatgen
data_ThCo
_symmetry_space_group_name_H-M   'P 1'
_cell_length_a   5.89502173
_cell_length_b   5.89502173
_cell_length_c   3.98461400
_cell_angle_alpha   90.00000000
_cell_angle_beta   90.00000000
_cell_angle_gamma   143.15754896
_symmetry_Int_Tables_number   1
_chemical_formula_structural   ThCo
_chemical_formula_sum   'Th2 Co2'
_cell_volume   83.02918992
_cell_formula_units_Z   2
loop_
 _symmetry_equiv_pos_site_id
 _symmetry_equiv_pos_as_xyz
  1  'x, y, z'
loop_
 _atom_site_type_symbol
 _atom_site_label
 _atom_site_symmetry_multiplicity
 _atom_site_fract_x
 _atom_site_fract_y
 _atom_site_fract_z
 _atom_site_occupancy
  Th  Th0  1  0.13341400  0.86658600  0.75000000  1
  Th  Th1  1  0.86658600  0.13341400  0.25000000  1
  Co  Co2  1  0.40753300  0.59246700  0.75000000  1
  Co  Co3  1  0.59246700  0.40753300  0.25000000  1
