# generated using pymatgen
data_NaBO2
_symmetry_space_group_name_H-M   'P 1'
_cell_length_a   7.26370648
_cell_length_b   7.26370648
_cell_length_c   7.26370584
_cell_angle_alpha   111.31260839
_cell_angle_beta   111.31260839
_cell_angle_gamma   111.31260545
_symmetry_Int_Tables_number   1
_chemical_formula_structural   NaBO2
_chemical_formula_sum   'Na6 B6 O12'
_cell_volume   273.06558091
_cell_formula_units_Z   6
loop_
 _symmetry_equiv_pos_site_id
 _symmetry_equiv_pos_as_xyz
  1  'x, y, z'
loop_
 _atom_site_type_symbol
 _atom_site_label
 _atom_site_symmetry_multiplicity
 _atom_site_fract_x
 _atom_site_fract_y
 _atom_site_fract_z
 _atom_site_occupancy
  Na  Na0  1  0.81323900  0.25000000  0.68676100  1
  Na  Na1  1  0.68676200  0.81323900  0.25000000  1
  Na  Na2  1  0.25000000  0.68676200  0.81323800  1
  Na  Na3  1  0.18676100  0.75000000  0.31323900  1
  Na  Na4  1  0.31323900  0.18676200  0.75000000  1
  Na  Na5  1  0.75000000  0.31323900  0.18676100  1
  B  B6  1  0.87090200  0.75000000  0.62909800  1
  B  B7  1  0.12909800  0.25000000  0.37090200  1
  B  B8  1  0.37090200  0.12909800  0.25000000  1
  B  B9  1  0.25000000  0.37090200  0.12909800  1
  B  B10  1  0.62909800  0.87090200  0.75000000  1
  B  B11  1  0.75000000  0.62909800  0.87090200  1
  O  O12  1  0.75000000  0.86624400  0.63375600  1
  O  O13  1  0.86624400  0.63375600  0.75000000  1
  O  O14  1  0.36624400  0.25000000  0.13375600  1
  O  O15  1  0.63375600  0.75000000  0.86624400  1
  O  O16  1  0.25000000  0.13375600  0.36624400  1
  O  O17  1  0.13375600  0.36624400  0.25000000  1
  O  O18  1  0.75000000  0.51922200  0.98077800  1
  O  O19  1  0.51922200  0.98077800  0.75000000  1
  O  O20  1  0.98077800  0.75000000  0.51922200  1
  O  O21  1  0.25000000  0.48077800  0.01922200  1
  O  O22  1  0.48077800  0.01922200  0.25000000  1
  O  O23  1  0.01922200  0.25000000  0.48077800  1
