# generated using pymatgen
data_Nb2SnO6
_symmetry_space_group_name_H-M   'P 1'
_cell_length_a   9.05274808
_cell_length_b   9.05274808
_cell_length_c   5.70721612
_cell_angle_alpha   88.00236531
_cell_angle_beta   88.00236531
_cell_angle_gamma   31.80659686
_symmetry_Int_Tables_number   1
_chemical_formula_structural   Nb2SnO6
_chemical_formula_sum   'Nb4 Sn2 O12'
_cell_volume   246.35112423
_cell_formula_units_Z   2
loop_
 _symmetry_equiv_pos_site_id
 _symmetry_equiv_pos_as_xyz
  1  'x, y, z'
loop_
 _atom_site_type_symbol
 _atom_site_label
 _atom_site_symmetry_multiplicity
 _atom_site_fract_x
 _atom_site_fract_y
 _atom_site_fract_z
 _atom_site_occupancy
  Nb  Nb0  1  0.92859000  0.41197900  0.82609600  1
  Nb  Nb1  1  0.58802100  0.07141000  0.67390400  1
  Nb  Nb2  1  0.07141000  0.58802100  0.17390400  1
  Nb  Nb3  1  0.41197900  0.92859000  0.32609600  1
  Sn  Sn4  1  0.22524600  0.77475400  0.75000000  1
  Sn  Sn5  1  0.77475400  0.22524600  0.25000000  1
  O  O6  1  0.83702400  0.72395000  0.85281900  1
  O  O7  1  0.27605000  0.16297600  0.64718100  1
  O  O8  1  0.16297600  0.27605000  0.14718100  1
  O  O9  1  0.72395000  0.83702400  0.35281900  1
  O  O10  1  0.67704600  0.60879700  0.58096200  1
  O  O11  1  0.39120300  0.32295400  0.91903800  1
  O  O12  1  0.15464900  0.99117200  0.40729600  1
  O  O13  1  0.00882800  0.84535100  0.09270400  1
  O  O14  1  0.84535100  0.00882800  0.59270400  1
  O  O15  1  0.99117200  0.15464900  0.90729600  1
  O  O16  1  0.60879700  0.67704600  0.08096200  1
  O  O17  1  0.32295400  0.39120300  0.41903800  1
