# generated using pymatgen
data_Li3AlH6
_symmetry_space_group_name_H-M   'P 1'
_cell_length_a   5.60073954
_cell_length_b   5.60073954
_cell_length_c   5.60074004
_cell_angle_alpha   91.39251886
_cell_angle_beta   91.39251886
_cell_angle_gamma   91.39251271
_symmetry_Int_Tables_number   1
_chemical_formula_structural   Li3AlH6
_chemical_formula_sum   'Li6 Al2 H12'
_cell_volume   175.52737648
_cell_formula_units_Z   2
loop_
 _symmetry_equiv_pos_site_id
 _symmetry_equiv_pos_as_xyz
  1  'x, y, z'
loop_
 _atom_site_type_symbol
 _atom_site_label
 _atom_site_symmetry_multiplicity
 _atom_site_fract_x
 _atom_site_fract_y
 _atom_site_fract_z
 _atom_site_occupancy
  Li  Li0  1  0.56696800  0.74877400  0.06100700  1
  Li  Li1  1  0.74877400  0.06100700  0.56696800  1
  Li  Li2  1  0.43303200  0.25122600  0.93899300  1
  Li  Li3  1  0.25122600  0.93899300  0.43303200  1
  Li  Li4  1  0.06100700  0.56696800  0.74877400  1
  Li  Li5  1  0.93899300  0.43303200  0.25122600  1
  Al  Al6  1  0.50000000  0.50000000  0.50000000  1
  Al  Al7  1  0.00000000  0.00000000  0.00000000  1
  H  H8  1  0.95173400  0.08906000  0.29534500  1
  H  H9  1  0.04826600  0.91094000  0.70465500  1
  H  H10  1  0.42646900  0.20503700  0.56952300  1
  H  H11  1  0.20503700  0.56952300  0.42646900  1
  H  H12  1  0.56952300  0.42646900  0.20503700  1
  H  H13  1  0.57353100  0.79496300  0.43047700  1
  H  H14  1  0.79496300  0.43047700  0.57353100  1
  H  H15  1  0.43047700  0.57353100  0.79496300  1
  H  H16  1  0.91094000  0.70465500  0.04826600  1
  H  H17  1  0.29534500  0.95173400  0.08906000  1
  H  H18  1  0.08906000  0.29534500  0.95173400  1
  H  H19  1  0.70465500  0.04826600  0.91094000  1
