# generated using pymatgen
data_Sc3Ga2
_symmetry_space_group_name_H-M   'P 1'
_cell_length_a   10.39042453
_cell_length_b   10.39042453
_cell_length_c   10.39042453
_cell_angle_alpha   117.05034647
_cell_angle_beta   117.05034647
_cell_angle_gamma   95.18969574
_symmetry_Int_Tables_number   1
_chemical_formula_structural   Sc3Ga2
_chemical_formula_sum   'Sc24 Ga16'
_cell_volume   824.90603298
_cell_formula_units_Z   8
loop_
 _symmetry_equiv_pos_site_id
 _symmetry_equiv_pos_as_xyz
  1  'x, y, z'
loop_
 _atom_site_type_symbol
 _atom_site_label
 _atom_site_symmetry_multiplicity
 _atom_site_fract_x
 _atom_site_fract_y
 _atom_site_fract_z
 _atom_site_occupancy
  Sc  Sc0  1  0.43186500  0.57001300  0.72985300  1
  Sc  Sc1  1  0.84015900  0.70201200  0.27014700  1
  Sc  Sc2  1  0.92998700  0.06813500  0.27014700  1
  Sc  Sc3  1  0.70201200  0.43186500  0.86185200  1
  Sc  Sc4  1  0.57001300  0.84015900  0.13814800  1
  Sc  Sc5  1  0.06813500  0.79798800  0.13814800  1
  Sc  Sc6  1  0.65984100  0.92998700  0.86185200  1
  Sc  Sc7  1  0.79798800  0.65984100  0.72985300  1
  Sc  Sc8  1  0.56813500  0.42998700  0.27014700  1
  Sc  Sc9  1  0.15984100  0.29798800  0.72985300  1
  Sc  Sc10  1  0.07001300  0.93186500  0.72985300  1
  Sc  Sc11  1  0.29798800  0.56813500  0.13814800  1
  Sc  Sc12  1  0.42998700  0.15984100  0.86185200  1
  Sc  Sc13  1  0.93186500  0.20201200  0.86185200  1
  Sc  Sc14  1  0.34015900  0.07001300  0.13814800  1
  Sc  Sc15  1  0.20201200  0.34015900  0.27014700  1
  Sc  Sc16  1  0.64662200  0.14662200  0.50000000  1
  Sc  Sc17  1  0.14662200  0.64662200  0.50000000  1
  Sc  Sc18  1  0.85337800  0.35337800  0.50000000  1
  Sc  Sc19  1  0.35337800  0.85337800  0.50000000  1
  Sc  Sc20  1  0.16992500  0.66992500  0.83984900  1
  Sc  Sc21  1  0.66992500  0.83007500  0.50000000  1
  Sc  Sc22  1  0.33007500  0.16992500  0.50000000  1
  Sc  Sc23  1  0.83007500  0.33007500  0.16015100  1
  Ga  Ga24  1  0.37608400  0.87608400  0.85263200  1
  Ga  Ga25  1  0.02345300  0.52345300  0.14736800  1
  Ga  Ga26  1  0.62391600  0.12391600  0.14736800  1
  Ga  Ga27  1  0.52345300  0.37608400  0.50000000  1
  Ga  Ga28  1  0.87608400  0.02345300  0.50000000  1
  Ga  Ga29  1  0.12391600  0.97654700  0.50000000  1
  Ga  Ga30  1  0.47654700  0.62391600  0.50000000  1
  Ga  Ga31  1  0.97654700  0.47654700  0.85263200  1
  Ga  Ga32  1  0.38156100  0.88156100  0.26312200  1
  Ga  Ga33  1  0.88156100  0.61843900  0.50000000  1
  Ga  Ga34  1  0.11843900  0.38156100  0.50000000  1
  Ga  Ga35  1  0.61843900  0.11843900  0.73687800  1
  Ga  Ga36  1  0.50000000  0.50000000  0.00000000  1
  Ga  Ga37  1  0.00000000  0.00000000  0.00000000  1
  Ga  Ga38  1  0.75000000  0.75000000  0.00000000  1
  Ga  Ga39  1  0.25000000  0.25000000  0.00000000  1
