# generated using pymatgen
data_AgSbF6
_symmetry_space_group_name_H-M   'P 1'
_cell_length_a   8.65550302
_cell_length_b   8.65550302
_cell_length_c   8.65550302
_cell_angle_alpha   109.47122063
_cell_angle_beta   109.47122063
_cell_angle_gamma   109.47122063
_symmetry_Int_Tables_number   1
_chemical_formula_structural   AgSbF6
_chemical_formula_sum   'Ag4 Sb4 F24'
_cell_volume   499.17755136
_cell_formula_units_Z   4
loop_
 _symmetry_equiv_pos_site_id
 _symmetry_equiv_pos_as_xyz
  1  'x, y, z'
loop_
 _atom_site_type_symbol
 _atom_site_label
 _atom_site_symmetry_multiplicity
 _atom_site_fract_x
 _atom_site_fract_y
 _atom_site_fract_z
 _atom_site_occupancy
  Ag  Ag0  1  0.50000000  0.50000000  0.50000000  1
  Ag  Ag1  1  0.00000000  0.50000000  0.00000000  1
  Ag  Ag2  1  0.00000000  0.00000000  0.50000000  1
  Ag  Ag3  1  0.50000000  0.00000000  0.00000000  1
  Sb  Sb4  1  0.00000000  0.00000000  0.00000000  1
  Sb  Sb5  1  0.50000000  0.50000000  0.00000000  1
  Sb  Sb6  1  0.00000000  0.50000000  0.50000000  1
  Sb  Sb7  1  0.50000000  0.00000000  0.50000000  1
  F  F8  1  0.42145600  0.67804900  0.97461700  1
  F  F9  1  0.29656900  0.82195100  0.24340700  1
  F  F10  1  0.07854400  0.05316100  0.25659300  1
  F  F11  1  0.44683900  0.52538300  0.20343100  1
  F  F12  1  0.52538300  0.20343100  0.44683900  1
  F  F13  1  0.97461700  0.42145600  0.67804900  1
  F  F14  1  0.82195100  0.24340700  0.29656900  1
  F  F15  1  0.25659300  0.07854400  0.05316100  1
  F  F16  1  0.79656900  0.55316100  0.47461700  1
  F  F17  1  0.94683900  0.74340700  0.92145600  1
  F  F18  1  0.75659300  0.70343100  0.17804900  1
  F  F19  1  0.32195100  0.02538300  0.57854400  1
  F  F20  1  0.74340700  0.92145600  0.94683900  1
  F  F21  1  0.17804900  0.75659300  0.70343100  1
  F  F22  1  0.02538300  0.57854400  0.32195100  1
  F  F23  1  0.47461700  0.79656900  0.55316100  1
  F  F24  1  0.55316100  0.47461700  0.79656900  1
  F  F25  1  0.92145600  0.94683900  0.74340700  1
  F  F26  1  0.70343100  0.17804900  0.75659300  1
  F  F27  1  0.57854400  0.32195100  0.02538300  1
  F  F28  1  0.20343100  0.44683900  0.52538300  1
  F  F29  1  0.05316100  0.25659300  0.07854400  1
  F  F30  1  0.24340700  0.29656900  0.82195100  1
  F  F31  1  0.67804900  0.97461700  0.42145600  1
