# generated using pymatgen
data_Co(NO3)2
_symmetry_space_group_name_H-M   'P 1'
_cell_length_a   7.54180454
_cell_length_b   7.54736233
_cell_length_c   7.53497515
_cell_angle_alpha   90.26013194
_cell_angle_beta   90.20419886
_cell_angle_gamma   90.21762704
_symmetry_Int_Tables_number   1
_chemical_formula_structural   Co(NO3)2
_chemical_formula_sum   'Co4 N8 O24'
_cell_volume   428.88603269
_cell_formula_units_Z   4
loop_
 _symmetry_equiv_pos_site_id
 _symmetry_equiv_pos_as_xyz
  1  'x, y, z'
loop_
 _atom_site_type_symbol
 _atom_site_label
 _atom_site_symmetry_multiplicity
 _atom_site_fract_x
 _atom_site_fract_y
 _atom_site_fract_z
 _atom_site_occupancy
  Co  Co0  1  0.00000000  0.00000000  0.00000000  1
  Co  Co1  1  0.00000000  0.50000000  0.50000000  1
  Co  Co2  1  0.50000000  0.50000000  0.00000000  1
  Co  Co3  1  0.50000000  0.00000000  0.50000000  1
  N  N4  1  0.33653400  0.33657700  0.33661900  1
  N  N5  1  0.84194300  0.15884600  0.65131500  1
  N  N6  1  0.15857500  0.65116400  0.84213100  1
  N  N7  1  0.65119500  0.84194200  0.15843900  1
  N  N8  1  0.15805700  0.84115400  0.34868500  1
  N  N9  1  0.66346600  0.66342300  0.66338100  1
  N  N10  1  0.34880500  0.15805800  0.84156100  1
  N  N11  1  0.84142500  0.34883600  0.15786900  1
  O  O12  1  0.98394300  0.24583700  0.62834400  1
  O  O13  1  0.01605700  0.75416300  0.37165600  1
  O  O14  1  0.62830800  0.98387400  0.24590000  1
  O  O15  1  0.24590700  0.62825700  0.98404300  1
  O  O16  1  0.33366400  0.22049600  0.45674800  1
  O  O17  1  0.45672800  0.33373900  0.22036000  1
  O  O18  1  0.22038400  0.45666600  0.33376000  1
  O  O19  1  0.66633600  0.77950400  0.54325200  1
  O  O20  1  0.54327200  0.66626100  0.77964000  1
  O  O21  1  0.77961600  0.54333400  0.66624000  1
  O  O22  1  0.71600700  0.17340200  0.54070900  1
  O  O23  1  0.54058800  0.71611000  0.17324600  1
  O  O24  1  0.17330100  0.54080900  0.71583100  1
  O  O25  1  0.28399300  0.82659800  0.45929100  1
  O  O26  1  0.45941200  0.28389000  0.82675400  1
  O  O27  1  0.82669900  0.45919100  0.28416900  1
  O  O28  1  0.17394800  0.94393100  0.21735300  1
  O  O29  1  0.21729400  0.17434000  0.94384400  1
  O  O30  1  0.94444600  0.21785900  0.17323900  1
  O  O31  1  0.82605200  0.05606900  0.78264700  1
  O  O32  1  0.78270600  0.82566000  0.05615600  1
  O  O33  1  0.05555400  0.78214100  0.82676100  1
  O  O34  1  0.37169200  0.01612600  0.75410000  1
  O  O35  1  0.75409300  0.37174300  0.01595700  1
