# generated using pymatgen
data_BaSi2O5
_symmetry_space_group_name_H-M   'P 1'
_cell_length_a   4.70813800
_cell_length_b   7.79185400
_cell_length_c   13.72438300
_cell_angle_alpha   90.00000000
_cell_angle_beta   90.00000000
_cell_angle_gamma   90.00000000
_symmetry_Int_Tables_number   1
_chemical_formula_structural   BaSi2O5
_chemical_formula_sum   'Ba4 Si8 O20'
_cell_volume   503.48069091
_cell_formula_units_Z   4
loop_
 _symmetry_equiv_pos_site_id
 _symmetry_equiv_pos_as_xyz
  1  'x, y, z'
loop_
 _atom_site_type_symbol
 _atom_site_label
 _atom_site_symmetry_multiplicity
 _atom_site_fract_x
 _atom_site_fract_y
 _atom_site_fract_z
 _atom_site_occupancy
  Ba  Ba0  1  0.28432500  0.75000000  0.04409500  1
  Ba  Ba1  1  0.78432500  0.25000000  0.45590500  1
  Ba  Ba2  1  0.71567500  0.25000000  0.95590500  1
  Ba  Ba3  1  0.21567500  0.75000000  0.54409500  1
  Si  Si4  1  0.64489200  0.04778300  0.68367400  1
  Si  Si5  1  0.14489200  0.95221700  0.81632600  1
  Si  Si6  1  0.35510800  0.54778300  0.31632600  1
  Si  Si7  1  0.85510800  0.45221700  0.18367400  1
  Si  Si8  1  0.35510800  0.95221700  0.31632600  1
  Si  Si9  1  0.85510800  0.04778300  0.18367400  1
  Si  Si10  1  0.64489200  0.45221700  0.68367400  1
  Si  Si11  1  0.14489200  0.54778300  0.81632600  1
  O  O12  1  0.85111600  0.05118700  0.78126000  1
  O  O13  1  0.35111600  0.94881300  0.71874000  1
  O  O14  1  0.14888400  0.55118700  0.21874000  1
  O  O15  1  0.64888400  0.44881300  0.28126000  1
  O  O16  1  0.14888400  0.94881300  0.21874000  1
  O  O17  1  0.64888400  0.05118700  0.28126000  1
  O  O18  1  0.85111600  0.44881300  0.78126000  1
  O  O19  1  0.35111600  0.55118700  0.71874000  1
  O  O20  1  0.76444100  0.96207100  0.58655700  1
  O  O21  1  0.26444100  0.03792900  0.91344300  1
  O  O22  1  0.23555900  0.46207100  0.41344300  1
  O  O23  1  0.73555900  0.53792900  0.08655700  1
  O  O24  1  0.05785600  0.75000000  0.83794300  1
  O  O25  1  0.55785600  0.25000000  0.66205700  1
  O  O26  1  0.94214400  0.25000000  0.16205700  1
  O  O27  1  0.44214400  0.75000000  0.33794300  1
  O  O28  1  0.26444100  0.46207100  0.91344300  1
  O  O29  1  0.76444100  0.53792900  0.58655700  1
  O  O30  1  0.73555900  0.96207100  0.08655700  1
  O  O31  1  0.23555900  0.03792900  0.41344300  1
