# generated using pymatgen
data_TbAgPb
_symmetry_space_group_name_H-M   'P 1'
_cell_length_a   4.83676940
_cell_length_b   4.83676940
_cell_length_c   7.54055500
_cell_angle_alpha   90.00000000
_cell_angle_beta   90.00000000
_cell_angle_gamma   119.99999180
_symmetry_Int_Tables_number   1
_chemical_formula_structural   TbAgPb
_chemical_formula_sum   'Tb2 Ag2 Pb2'
_cell_volume   152.77234473
_cell_formula_units_Z   2
loop_
 _symmetry_equiv_pos_site_id
 _symmetry_equiv_pos_as_xyz
  1  'x, y, z'
loop_
 _atom_site_type_symbol
 _atom_site_label
 _atom_site_symmetry_multiplicity
 _atom_site_fract_x
 _atom_site_fract_y
 _atom_site_fract_z
 _atom_site_occupancy
  Tb  Tb0  1  0.00000000  0.00000000  0.00339700  1
  Tb  Tb1  1  0.00000000  0.00000000  0.50339700  1
  Ag  Ag2  1  0.66666700  0.33333300  0.31828800  1
  Ag  Ag3  1  0.33333300  0.66666700  0.81828800  1
  Pb  Pb4  1  0.33333300  0.66666700  0.22351500  1
  Pb  Pb5  1  0.66666700  0.33333300  0.72351500  1
