# generated using pymatgen
data_Sr(LaSe2)2
_symmetry_space_group_name_H-M   'P 1'
_cell_length_a   7.94509264
_cell_length_b   7.94509264
_cell_length_c   7.94509264
_cell_angle_alpha   109.43939285
_cell_angle_beta   109.43939285
_cell_angle_gamma   109.53489497
_symmetry_Int_Tables_number   1
_chemical_formula_structural   Sr(LaSe2)2
_chemical_formula_sum   'Sr2 La4 Se8'
_cell_volume   386.07759872
_cell_formula_units_Z   2
loop_
 _symmetry_equiv_pos_site_id
 _symmetry_equiv_pos_as_xyz
  1  'x, y, z'
loop_
 _atom_site_type_symbol
 _atom_site_label
 _atom_site_symmetry_multiplicity
 _atom_site_fract_x
 _atom_site_fract_y
 _atom_site_fract_z
 _atom_site_occupancy
  Sr  Sr0  1  0.00000000  0.00000000  0.00000000  1
  Sr  Sr1  1  0.25000000  0.75000000  0.50000000  1
  La  La2  1  0.12500000  0.50125600  0.87625600  1
  La  La3  1  0.62500000  0.24874400  0.12374400  1
  La  La4  1  0.49874400  0.37500000  0.62374400  1
  La  La5  1  0.75125600  0.87500000  0.37625600  1
  Se  Se6  1  0.38177600  0.47962800  0.24910500  1
  Se  Se7  1  0.01947800  0.27037200  0.40214900  1
  Se  Se8  1  0.23052200  0.13267100  0.75089500  1
  Se  Se9  1  0.38267100  0.98052200  0.25089500  1
  Se  Se10  1  0.52037200  0.76947800  0.90214900  1
  Se  Se11  1  0.86732900  0.61822400  0.09785100  1
  Se  Se12  1  0.72962800  0.13177600  0.74910500  1
  Se  Se13  1  0.86822400  0.61732900  0.59785100  1
