# generated using pymatgen
data_Na3AlF6
_symmetry_space_group_name_H-M   'P 1'
_cell_length_a   5.68111000
_cell_length_b   5.47281600
_cell_length_c   9.58165980
_cell_angle_alpha   55.37627478
_cell_angle_beta   90.00000000
_cell_angle_gamma   90.00000000
_symmetry_Int_Tables_number   1
_chemical_formula_structural   Na3AlF6
_chemical_formula_sum   'Na6 Al2 F12'
_cell_volume   245.15032254
_cell_formula_units_Z   2
loop_
 _symmetry_equiv_pos_site_id
 _symmetry_equiv_pos_as_xyz
  1  'x, y, z'
loop_
 _atom_site_type_symbol
 _atom_site_label
 _atom_site_symmetry_multiplicity
 _atom_site_fract_x
 _atom_site_fract_y
 _atom_site_fract_z
 _atom_site_occupancy
  Na  Na0  1  0.55356200  0.73056300  0.25401000  1
  Na  Na1  1  0.05356200  0.26943700  0.24599000  1
  Na  Na2  1  0.44643800  0.26943700  0.74599000  1
  Na  Na3  1  0.94643800  0.73056300  0.75401000  1
  Na  Na4  1  0.50000000  0.50000000  0.00000000  1
  Na  Na5  1  0.00000000  0.50000000  0.50000000  1
  Al  Al6  1  0.50000000  0.00000000  0.50000000  1
  Al  Al7  1  0.00000000  0.00000000  0.00000000  1
  F  F8  1  0.23229300  0.76941700  0.56702300  1
  F  F9  1  0.73229300  0.23058300  0.93297700  1
  F  F10  1  0.76770700  0.23058300  0.43297700  1
  F  F11  1  0.26770700  0.76941700  0.06702300  1
  F  F12  1  0.32570100  0.32008300  0.45255500  1
  F  F13  1  0.82570100  0.67991700  0.04744500  1
  F  F14  1  0.67429900  0.67991700  0.54744500  1
  F  F15  1  0.17429900  0.32008300  0.95255500  1
  F  F16  1  0.04935600  0.11011500  0.78174800  1
  F  F17  1  0.54935600  0.88988500  0.71825200  1
  F  F18  1  0.95064400  0.88988500  0.21825200  1
  F  F19  1  0.45064400  0.11011500  0.28174800  1
