# generated using pymatgen
data_CsWCl6
_symmetry_space_group_name_H-M   'P 1'
_cell_length_a   7.07439587
_cell_length_b   7.07439587
_cell_length_c   12.76027030
_cell_angle_alpha   79.17147918
_cell_angle_beta   79.17147918
_cell_angle_gamma   55.54311848
_symmetry_Int_Tables_number   1
_chemical_formula_structural   CsWCl6
_chemical_formula_sum   'Cs2 W2 Cl12'
_cell_volume   514.56417028
_cell_formula_units_Z   2
loop_
 _symmetry_equiv_pos_site_id
 _symmetry_equiv_pos_as_xyz
  1  'x, y, z'
loop_
 _atom_site_type_symbol
 _atom_site_label
 _atom_site_symmetry_multiplicity
 _atom_site_fract_x
 _atom_site_fract_y
 _atom_site_fract_z
 _atom_site_occupancy
  Cs  Cs0  1  0.11682700  0.88317300  0.25000000  1
  Cs  Cs1  1  0.88317300  0.11682700  0.75000000  1
  W  W2  1  0.00000000  0.50000000  0.00000000  1
  W  W3  1  0.50000000  0.00000000  0.50000000  1
  Cl  Cl4  1  0.19517900  0.37332800  0.15410900  1
  Cl  Cl5  1  0.62667200  0.80482100  0.34589100  1
  Cl  Cl6  1  0.80482100  0.62667200  0.84589100  1
  Cl  Cl7  1  0.37332800  0.19517900  0.65410900  1
  Cl  Cl8  1  0.80020500  0.88331900  0.03921000  1
  Cl  Cl9  1  0.11668100  0.19979500  0.46079000  1
  Cl  Cl10  1  0.19979500  0.11668100  0.96079000  1
  Cl  Cl11  1  0.88331900  0.80020500  0.53921000  1
  Cl  Cl12  1  0.70702500  0.46276400  0.10083000  1
  Cl  Cl13  1  0.53723600  0.29297500  0.39917000  1
  Cl  Cl14  1  0.29297500  0.53723600  0.89917000  1
  Cl  Cl15  1  0.46276400  0.70702500  0.60083000  1
