# generated using pymatgen
data_Sc2(SeO3)3
_symmetry_space_group_name_H-M   'P 1'
_cell_length_a   8.34956937
_cell_length_b   8.34956937
_cell_length_c   7.80065300
_cell_angle_alpha   90.00000000
_cell_angle_beta   90.00000000
_cell_angle_gamma   119.99999499
_symmetry_Int_Tables_number   1
_chemical_formula_structural   Sc2(SeO3)3
_chemical_formula_sum   'Sc4 Se6 O18'
_cell_volume   470.96622953
_cell_formula_units_Z   2
loop_
 _symmetry_equiv_pos_site_id
 _symmetry_equiv_pos_as_xyz
  1  'x, y, z'
loop_
 _atom_site_type_symbol
 _atom_site_label
 _atom_site_symmetry_multiplicity
 _atom_site_fract_x
 _atom_site_fract_y
 _atom_site_fract_z
 _atom_site_occupancy
  Sc  Sc0  1  0.33333300  0.66666700  0.04558200  1
  Sc  Sc1  1  0.66666700  0.33333300  0.54558200  1
  Sc  Sc2  1  0.66666700  0.33333300  0.95441800  1
  Sc  Sc3  1  0.33333300  0.66666700  0.45441800  1
  Se  Se4  1  0.27299000  0.30663200  0.75000000  1
  Se  Se5  1  0.30663200  0.03364200  0.25000000  1
  Se  Se6  1  0.03364200  0.72701000  0.75000000  1
  Se  Se7  1  0.96635800  0.27299000  0.25000000  1
  Se  Se8  1  0.72701000  0.69336800  0.25000000  1
  Se  Se9  1  0.69336800  0.96635800  0.75000000  1
  O  O10  1  0.42309000  0.16749200  0.42238300  1
  O  O11  1  0.25559800  0.42309000  0.92238300  1
  O  O12  1  0.16749200  0.74440200  0.92238300  1
  O  O13  1  0.83250800  0.25559800  0.42238300  1
  O  O14  1  0.74440200  0.57691000  0.42238300  1
  O  O15  1  0.57691000  0.83250800  0.92238300  1
  O  O16  1  0.57691000  0.83250800  0.57761700  1
  O  O17  1  0.74440200  0.57691000  0.07761700  1
  O  O18  1  0.83250800  0.25559800  0.07761700  1
  O  O19  1  0.16749200  0.74440200  0.57761700  1
  O  O20  1  0.13025600  0.51008100  0.25000000  1
  O  O21  1  0.62017400  0.13025600  0.75000000  1
  O  O22  1  0.51008100  0.37982600  0.75000000  1
  O  O23  1  0.48991900  0.62017400  0.25000000  1
  O  O24  1  0.37982600  0.86974400  0.25000000  1
  O  O25  1  0.86974400  0.48991900  0.75000000  1
  O  O26  1  0.42309000  0.16749200  0.07761700  1
  O  O27  1  0.25559800  0.42309000  0.57761700  1
