# generated using pymatgen
data_LiNb3O8
_symmetry_space_group_name_H-M   'P 1'
_cell_length_a   5.10193600
_cell_length_b   7.63227100
_cell_length_c   15.58699446
_cell_angle_alpha   72.95136212
_cell_angle_beta   90.00000000
_cell_angle_gamma   90.00000000
_symmetry_Int_Tables_number   1
_chemical_formula_structural   LiNb3O8
_chemical_formula_sum   'Li4 Nb12 O32'
_cell_volume   580.27598994
_cell_formula_units_Z   4
loop_
 _symmetry_equiv_pos_site_id
 _symmetry_equiv_pos_as_xyz
  1  'x, y, z'
loop_
 _atom_site_type_symbol
 _atom_site_label
 _atom_site_symmetry_multiplicity
 _atom_site_fract_x
 _atom_site_fract_y
 _atom_site_fract_z
 _atom_site_occupancy
  Li  Li0  1  0.75881700  0.26099900  0.07938600  1
  Li  Li1  1  0.74118300  0.26099900  0.57938600  1
  Li  Li2  1  0.24118300  0.73900100  0.92061400  1
  Li  Li3  1  0.25881700  0.73900100  0.42061400  1
  Nb  Nb4  1  0.73893300  0.51874500  0.83476800  1
  Nb  Nb5  1  0.23893300  0.48125500  0.66523200  1
  Nb  Nb6  1  0.26106700  0.48125500  0.16523200  1
  Nb  Nb7  1  0.76106700  0.51874500  0.33476800  1
  Nb  Nb8  1  0.24293400  0.24867400  0.92556400  1
  Nb  Nb9  1  0.74293400  0.75132600  0.57443600  1
  Nb  Nb10  1  0.75706600  0.75132600  0.07443600  1
  Nb  Nb11  1  0.25706600  0.24867400  0.42556400  1
  Nb  Nb12  1  0.73061700  0.00888400  0.83130500  1
  Nb  Nb13  1  0.23061700  0.99111600  0.66869500  1
  Nb  Nb14  1  0.26938300  0.99111600  0.16869500  1
  Nb  Nb15  1  0.76938300  0.00888400  0.33130500  1
  O  O16  1  0.42031700  0.03982800  0.89887600  1
  O  O17  1  0.92031700  0.96017200  0.60112400  1
  O  O18  1  0.57968300  0.96017200  0.10112400  1
  O  O19  1  0.07968300  0.03982800  0.39887600  1
  O  O20  1  0.56541900  0.35163800  0.95028900  1
  O  O21  1  0.06541900  0.64836200  0.54971100  1
  O  O22  1  0.43458100  0.64836200  0.04971100  1
  O  O23  1  0.93458100  0.35163800  0.45028900  1
  O  O24  1  0.91709000  0.21860000  0.84528200  1
  O  O25  1  0.58291000  0.21860000  0.34528200  1
  O  O26  1  0.08291000  0.78140000  0.15471800  1
  O  O27  1  0.41709000  0.78140000  0.65471800  1
  O  O28  1  0.93235500  0.08527400  0.21799800  1
  O  O29  1  0.43235500  0.91472600  0.28200200  1
  O  O30  1  0.06764500  0.91472600  0.78200200  1
  O  O31  1  0.56764500  0.08527400  0.71799800  1
  O  O32  1  0.90114700  0.73595200  0.34528900  1
  O  O33  1  0.40114700  0.26404800  0.15471100  1
  O  O34  1  0.09885300  0.26404800  0.65471100  1
  O  O35  1  0.59885300  0.73595200  0.84528900  1
  O  O36  1  0.08588400  0.41659400  0.28304000  1
  O  O37  1  0.58588400  0.58340600  0.21696000  1
  O  O38  1  0.91411600  0.58340600  0.71696000  1
  O  O39  1  0.41411600  0.41659400  0.78304000  1
  O  O40  1  0.60534700  0.85166000  0.46073000  1
  O  O41  1  0.10534700  0.14834000  0.03927000  1
  O  O42  1  0.39465300  0.14834000  0.53927000  1
  O  O43  1  0.89465300  0.85166000  0.96073000  1
  O  O44  1  0.43954500  0.49878500  0.40104800  1
  O  O45  1  0.93954500  0.50121500  0.09895200  1
  O  O46  1  0.56045500  0.50121500  0.59895200  1
  O  O47  1  0.06045500  0.49878500  0.90104800  1
