# generated using pymatgen
data_U3O8
_symmetry_space_group_name_H-M   'P 1'
_cell_length_a   6.83896575
_cell_length_b   6.83896575
_cell_length_c   4.16068900
_cell_angle_alpha   90.00000000
_cell_angle_beta   90.00000000
_cell_angle_gamma   119.99999756
_symmetry_Int_Tables_number   1
_chemical_formula_structural   U3O8
_chemical_formula_sum   'U3 O8'
_cell_volume   168.52981897
_cell_formula_units_Z   1
loop_
 _symmetry_equiv_pos_site_id
 _symmetry_equiv_pos_as_xyz
  1  'x, y, z'
loop_
 _atom_site_type_symbol
 _atom_site_label
 _atom_site_symmetry_multiplicity
 _atom_site_fract_x
 _atom_site_fract_y
 _atom_site_fract_z
 _atom_site_occupancy
  U  U0  1  0.00000000  0.35120700  0.00000000  1
  U  U1  1  0.64879300  0.64879300  0.00000000  1
  U  U2  1  0.35120700  0.00000000  0.00000000  1
  O  O3  1  0.00000000  0.35773100  0.50000000  1
  O  O4  1  0.64226900  0.64226900  0.50000000  1
  O  O5  1  0.35773100  0.00000000  0.50000000  1
  O  O6  1  0.33333300  0.66666700  0.00000000  1
  O  O7  1  0.66666700  0.33333300  0.00000000  1
  O  O8  1  0.74828600  0.00000000  0.00000000  1
  O  O9  1  0.25171400  0.25171400  0.00000000  1
  O  O10  1  0.00000000  0.74828600  0.00000000  1
