# generated using pymatgen
data_RbCr3O8
_symmetry_space_group_name_H-M   'P 1'
_cell_length_a   5.25645324
_cell_length_b   16.45445622
_cell_length_c   5.25645769
_cell_angle_alpha   85.91228302
_cell_angle_beta   63.57100639
_cell_angle_gamma   85.91230908
_symmetry_Int_Tables_number   1
_chemical_formula_structural   RbCr3O8
_chemical_formula_sum   'Rb2 Cr6 O16'
_cell_volume   405.69171147
_cell_formula_units_Z   2
loop_
 _symmetry_equiv_pos_site_id
 _symmetry_equiv_pos_as_xyz
  1  'x, y, z'
loop_
 _atom_site_type_symbol
 _atom_site_label
 _atom_site_symmetry_multiplicity
 _atom_site_fract_x
 _atom_site_fract_y
 _atom_site_fract_z
 _atom_site_occupancy
  Rb  Rb0  1  0.00000200  0.00001400  0.00000000  1
  Rb  Rb1  1  0.00000700  0.49998700  0.00000100  1
  Cr  Cr2  1  0.00001100  0.25001100  0.99999400  1
  Cr  Cr3  1  0.00000600  0.74998400  0.00000300  1
  Cr  Cr4  1  0.63033600  0.84820800  0.63034000  1
  Cr  Cr5  1  0.36965400  0.15180100  0.36966400  1
  Cr  Cr6  1  0.36967500  0.65179000  0.36967000  1
  Cr  Cr7  1  0.63033900  0.34820300  0.63034200  1
  O  O8  1  0.22013700  0.21888500  0.22013600  1
  O  O9  1  0.22014000  0.71886500  0.22014300  1
  O  O10  1  0.77985400  0.28113500  0.77984800  1
  O  O11  1  0.77984900  0.78112100  0.77985100  1
  O  O12  1  0.67880300  0.44134600  0.67880200  1
  O  O13  1  0.67879000  0.94134100  0.67878900  1
  O  O14  1  0.32119600  0.05866200  0.32120500  1
  O  O15  1  0.32119800  0.55864600  0.32119400  1
  O  O16  1  0.27577600  0.33569000  0.77649200  1
  O  O17  1  0.27579300  0.83567600  0.77649200  1
  O  O18  1  0.22350200  0.16432600  0.72423400  1
  O  O19  1  0.22349700  0.66430900  0.72422600  1
  O  O20  1  0.72422900  0.16432500  0.22350500  1
  O  O21  1  0.72422800  0.66431000  0.22349600  1
  O  O22  1  0.77649200  0.33569000  0.27577900  1
  O  O23  1  0.77648700  0.83567500  0.27579400  1
