# generated using pymatgen
data_KAlH4
_symmetry_space_group_name_H-M   'P 1'
_cell_length_a   5.82804400
_cell_length_b   7.37018500
_cell_length_c   8.85171600
_cell_angle_alpha   90.00000000
_cell_angle_beta   90.00000000
_cell_angle_gamma   90.00000000
_symmetry_Int_Tables_number   1
_chemical_formula_structural   KAlH4
_chemical_formula_sum   'K4 Al4 H16'
_cell_volume   380.21450650
_cell_formula_units_Z   4
loop_
 _symmetry_equiv_pos_site_id
 _symmetry_equiv_pos_as_xyz
  1  'x, y, z'
loop_
 _atom_site_type_symbol
 _atom_site_label
 _atom_site_symmetry_multiplicity
 _atom_site_fract_x
 _atom_site_fract_y
 _atom_site_fract_z
 _atom_site_occupancy
  K  K0  1  0.75000000  0.83307300  0.82115600  1
  K  K1  1  0.25000000  0.16692700  0.17884400  1
  K  K2  1  0.25000000  0.33307300  0.67884400  1
  K  K3  1  0.75000000  0.66692700  0.32115600  1
  Al  Al4  1  0.25000000  0.82205600  0.56715400  1
  Al  Al5  1  0.75000000  0.17794400  0.43284600  1
  Al  Al6  1  0.75000000  0.32205600  0.93284600  1
  Al  Al7  1  0.25000000  0.67794400  0.06715400  1
  H  H8  1  0.97667800  0.19107600  0.92458700  1
  H  H9  1  0.47667800  0.80892400  0.07541300  1
  H  H10  1  0.02332200  0.69107600  0.57541300  1
  H  H11  1  0.52332200  0.30892400  0.42458700  1
  H  H12  1  0.02332200  0.80892400  0.07541300  1
  H  H13  1  0.52332200  0.19107600  0.92458700  1
  H  H14  1  0.97667800  0.30892400  0.42458700  1
  H  H15  1  0.47667800  0.69107600  0.57541300  1
  H  H16  1  0.25000000  0.95549200  0.71444900  1
  H  H17  1  0.75000000  0.04450800  0.28555100  1
  H  H18  1  0.75000000  0.45549200  0.78555100  1
  H  H19  1  0.25000000  0.54450800  0.21444900  1
  H  H20  1  0.75000000  0.43633800  0.09019300  1
  H  H21  1  0.25000000  0.56366200  0.90980700  1
  H  H22  1  0.25000000  0.93633800  0.40980700  1
  H  H23  1  0.75000000  0.06366200  0.59019300  1
