# generated using pymatgen
data_CsB3O5
_symmetry_space_group_name_H-M   'P 1'
_cell_length_a   6.10433600
_cell_length_b   8.56220000
_cell_length_c   9.93936700
_cell_angle_alpha   90.00000000
_cell_angle_beta   90.00000000
_cell_angle_gamma   90.00000000
_symmetry_Int_Tables_number   1
_chemical_formula_structural   CsB3O5
_chemical_formula_sum   'Cs4 B12 O20'
_cell_volume   519.49637953
_cell_formula_units_Z   4
loop_
 _symmetry_equiv_pos_site_id
 _symmetry_equiv_pos_as_xyz
  1  'x, y, z'
loop_
 _atom_site_type_symbol
 _atom_site_label
 _atom_site_symmetry_multiplicity
 _atom_site_fract_x
 _atom_site_fract_y
 _atom_site_fract_z
 _atom_site_occupancy
  Cs  Cs0  1  0.50978100  0.73701000  0.63675100  1
  Cs  Cs1  1  0.00978100  0.76299000  0.36324900  1
  Cs  Cs2  1  0.49021900  0.23701000  0.86324900  1
  Cs  Cs3  1  0.99021900  0.26299000  0.13675100  1
  B  B4  1  0.93744400  0.35000400  0.64261300  1
  B  B5  1  0.43744400  0.14999600  0.35738700  1
  B  B6  1  0.06255600  0.85000400  0.85738700  1
  B  B7  1  0.56255600  0.64999600  0.14261300  1
  B  B8  1  0.97119100  0.57066700  0.80440000  1
  B  B9  1  0.47119100  0.92933300  0.19560000  1
  B  B10  1  0.74050800  0.12762300  0.53366400  1
  B  B11  1  0.24050800  0.37237700  0.46633600  1
  B  B12  1  0.25949200  0.62762300  0.96633600  1
  B  B13  1  0.75949200  0.87237700  0.03366400  1
  B  B14  1  0.02880900  0.07066700  0.69560000  1
  B  B15  1  0.52880900  0.42933300  0.30440000  1
  O  O16  1  0.84184700  0.46561100  0.73609900  1
  O  O17  1  0.24357900  0.78315100  0.93779200  1
  O  O18  1  0.25642100  0.21684900  0.43779200  1
  O  O19  1  0.74357900  0.71684900  0.06220800  1
  O  O20  1  0.44658900  0.77360900  0.21967800  1
  O  O21  1  0.94658900  0.72639100  0.78032200  1
  O  O22  1  0.55341100  0.27360900  0.28032200  1
  O  O23  1  0.05341100  0.22639100  0.71967800  1
  O  O24  1  0.62834500  0.98237000  0.10289100  1
  O  O25  1  0.12834500  0.51763000  0.89710900  1
  O  O26  1  0.37165500  0.48237000  0.39710900  1
  O  O27  1  0.87165500  0.01763000  0.60289100  1
  O  O28  1  0.15815300  0.96561100  0.76390100  1
  O  O29  1  0.65815300  0.53438900  0.23609900  1
  O  O30  1  0.09569200  0.43563100  0.55552300  1
  O  O31  1  0.59569200  0.06436900  0.44447700  1
  O  O32  1  0.90430800  0.93563100  0.94447700  1
  O  O33  1  0.40430800  0.56436900  0.05552300  1
  O  O34  1  0.75642100  0.28315100  0.56220800  1
  O  O35  1  0.34184700  0.03438900  0.26390100  1
