# generated using pymatgen
data_Na8SnSb4
_symmetry_space_group_name_H-M   'P 1'
_cell_length_a   10.55930900
_cell_length_b   10.55930900
_cell_length_c   10.55930900
_cell_angle_alpha   60.00000000
_cell_angle_beta   60.00000000
_cell_angle_gamma   60.00000000
_symmetry_Int_Tables_number   1
_chemical_formula_structural   Na8SnSb4
_chemical_formula_sum   'Na16 Sn2 Sb8'
_cell_volume   832.51391123
_cell_formula_units_Z   2
loop_
 _symmetry_equiv_pos_site_id
 _symmetry_equiv_pos_as_xyz
  1  'x, y, z'
loop_
 _atom_site_type_symbol
 _atom_site_label
 _atom_site_symmetry_multiplicity
 _atom_site_fract_x
 _atom_site_fract_y
 _atom_site_fract_z
 _atom_site_occupancy
  Na  Na0  1  0.62500000  0.12500000  0.62500000  1
  Na  Na1  1  0.62500000  0.62500000  0.12500000  1
  Na  Na2  1  0.12500000  0.62500000  0.62500000  1
  Na  Na3  1  0.62500000  0.62500000  0.62500000  1
  Na  Na4  1  0.02025500  0.02025500  0.47974500  1
  Na  Na5  1  0.77025500  0.22974500  0.22974500  1
  Na  Na6  1  0.22974500  0.77025500  0.77025500  1
  Na  Na7  1  0.77025500  0.77025500  0.22974500  1
  Na  Na8  1  0.77025500  0.22974500  0.77025500  1
  Na  Na9  1  0.22974500  0.77025500  0.22974500  1
  Na  Na10  1  0.47974500  0.02025500  0.47974500  1
  Na  Na11  1  0.47974500  0.02025500  0.02025500  1
  Na  Na12  1  0.02025500  0.47974500  0.47974500  1
  Na  Na13  1  0.02025500  0.47974500  0.02025500  1
  Na  Na14  1  0.22974500  0.22974500  0.77025500  1
  Na  Na15  1  0.47974500  0.47974500  0.02025500  1
  Sn  Sn16  1  0.50000000  0.50000000  0.50000000  1
  Sn  Sn17  1  0.75000000  0.75000000  0.75000000  1
  Sb  Sb18  1  0.41539700  0.86153400  0.86153400  1
  Sb  Sb19  1  0.86153400  0.86153400  0.86153400  1
  Sb  Sb20  1  0.83460300  0.38846600  0.38846600  1
  Sb  Sb21  1  0.38846600  0.38846600  0.38846600  1
  Sb  Sb22  1  0.38846600  0.38846600  0.83460300  1
  Sb  Sb23  1  0.86153400  0.41539700  0.86153400  1
  Sb  Sb24  1  0.86153400  0.86153400  0.41539700  1
  Sb  Sb25  1  0.38846600  0.83460300  0.38846600  1
