# generated using pymatgen
data_Hf2Cu
_symmetry_space_group_name_H-M   'P 1'
_cell_length_a   6.02918394
_cell_length_b   6.02918394
_cell_length_c   6.02918394
_cell_angle_alpha   149.50150849
_cell_angle_beta   149.50150849
_cell_angle_gamma   43.67362984
_symmetry_Int_Tables_number   1
_chemical_formula_structural   Hf2Cu
_chemical_formula_sum   'Hf2 Cu1'
_cell_volume   56.29525532
_cell_formula_units_Z   1
loop_
 _symmetry_equiv_pos_site_id
 _symmetry_equiv_pos_as_xyz
  1  'x, y, z'
loop_
 _atom_site_type_symbol
 _atom_site_label
 _atom_site_symmetry_multiplicity
 _atom_site_fract_x
 _atom_site_fract_y
 _atom_site_fract_z
 _atom_site_occupancy
  Hf  Hf0  1  0.34353100  0.34353100  0.00000000  1
  Hf  Hf1  1  0.65646900  0.65646900  0.00000000  1
  Cu  Cu2  1  0.00000000  0.00000000  0.00000000  1
