# generated using pymatgen
data_Ti3Pt5
_symmetry_space_group_name_H-M   'P 1'
_cell_length_a   7.43133015
_cell_length_b   7.43133015
_cell_length_c   7.43133015
_cell_angle_alpha   136.61311440
_cell_angle_beta   112.50656167
_cell_angle_gamma   83.71228705
_symmetry_Int_Tables_number   1
_chemical_formula_structural   Ti3Pt5
_chemical_formula_sum   'Ti6 Pt10'
_cell_volume   251.06932682
_cell_formula_units_Z   2
loop_
 _symmetry_equiv_pos_site_id
 _symmetry_equiv_pos_as_xyz
  1  'x, y, z'
loop_
 _atom_site_type_symbol
 _atom_site_label
 _atom_site_symmetry_multiplicity
 _atom_site_fract_x
 _atom_site_fract_y
 _atom_site_fract_z
 _atom_site_occupancy
  Ti  Ti0  1  0.64483000  0.43532900  0.79049900  1
  Ti  Ti1  1  0.85517000  0.14566900  0.29049900  1
  Ti  Ti2  1  0.35517000  0.56467100  0.20950100  1
  Ti  Ti3  1  0.14483000  0.85433100  0.70950100  1
  Ti  Ti4  1  0.75000000  0.00000000  0.75000000  1
  Ti  Ti5  1  0.25000000  0.00000000  0.25000000  1
  Pt  Pt6  1  0.10392400  0.31667600  0.21275200  1
  Pt  Pt7  1  0.39607600  0.10882900  0.71275200  1
  Pt  Pt8  1  0.89607600  0.68332400  0.78724800  1
  Pt  Pt9  1  0.60392400  0.89117100  0.28724800  1
  Pt  Pt10  1  0.99310100  0.24310100  0.75000000  1
  Pt  Pt11  1  0.50689900  0.75689900  0.75000000  1
  Pt  Pt12  1  0.00689900  0.75689900  0.25000000  1
  Pt  Pt13  1  0.49310100  0.24310100  0.25000000  1
  Pt  Pt14  1  0.25000000  0.50000000  0.75000000  1
  Pt  Pt15  1  0.75000000  0.50000000  0.25000000  1
