# generated using pymatgen
data_Sr2H5Rh
_symmetry_space_group_name_H-M   'P 1'
_cell_length_a   5.44716166
_cell_length_b   5.44716166
_cell_length_c   5.44716166
_cell_angle_alpha   121.07756613
_cell_angle_beta   121.07756613
_cell_angle_gamma   88.14351854
_symmetry_Int_Tables_number   1
_chemical_formula_structural   Sr2H5Rh
_chemical_formula_sum   'Sr2 H5 Rh1'
_cell_volume   112.36125908
_cell_formula_units_Z   1
loop_
 _symmetry_equiv_pos_site_id
 _symmetry_equiv_pos_as_xyz
  1  'x, y, z'
loop_
 _atom_site_type_symbol
 _atom_site_label
 _atom_site_symmetry_multiplicity
 _atom_site_fract_x
 _atom_site_fract_y
 _atom_site_fract_z
 _atom_site_occupancy
  Sr  Sr0  1  0.74874600  0.24874600  0.50000000  1
  Sr  Sr1  1  0.24874600  0.74874600  0.50000000  1
  H  H2  1  0.77217400  0.21756800  0.00000000  1
  H  H3  1  0.21756800  0.21756800  0.44539400  1
  H  H4  1  0.77217400  0.77217400  0.55460600  1
  H  H5  1  0.21756800  0.77217400  0.00000000  1
  H  H6  1  0.23795200  0.23795200  0.00000000  1
  Rh  Rh7  1  0.00807000  0.00807000  0.00000000  1
