# generated using pymatgen
data_Er5BiPt2
_symmetry_space_group_name_H-M   'P 1'
_cell_length_a   8.74986736
_cell_length_b   8.74986736
_cell_length_c   8.74986736
_cell_angle_alpha   127.18057995
_cell_angle_beta   127.18057995
_cell_angle_gamma   77.95626893
_symmetry_Int_Tables_number   1
_chemical_formula_structural   Er5BiPt2
_chemical_formula_sum   'Er10 Bi2 Pt4'
_cell_volume   412.10251839
_cell_formula_units_Z   2
loop_
 _symmetry_equiv_pos_site_id
 _symmetry_equiv_pos_as_xyz
  1  'x, y, z'
loop_
 _atom_site_type_symbol
 _atom_site_label
 _atom_site_symmetry_multiplicity
 _atom_site_fract_x
 _atom_site_fract_y
 _atom_site_fract_z
 _atom_site_occupancy
  Er  Er0  1  0.00000000  0.00000000  0.00000000  1
  Er  Er1  1  0.50000000  0.50000000  0.00000000  1
  Er  Er2  1  0.79145300  0.29145300  0.81132300  1
  Er  Er3  1  0.29145300  0.48013000  0.50000000  1
  Er  Er4  1  0.98013000  0.79145300  0.50000000  1
  Er  Er5  1  0.70854700  0.51987000  0.50000000  1
  Er  Er6  1  0.01987000  0.20854700  0.50000000  1
  Er  Er7  1  0.51987000  0.01987000  0.81132300  1
  Er  Er8  1  0.20854700  0.70854700  0.18867700  1
  Er  Er9  1  0.48013000  0.98013000  0.18867700  1
  Bi  Bi10  1  0.25000000  0.25000000  0.00000000  1
  Bi  Bi11  1  0.75000000  0.75000000  0.00000000  1
  Pt  Pt12  1  0.86080300  0.36080300  0.22160600  1
  Pt  Pt13  1  0.36080300  0.13919700  0.50000000  1
  Pt  Pt14  1  0.63919700  0.86080300  0.50000000  1
  Pt  Pt15  1  0.13919700  0.63919700  0.77839400  1
