# generated using pymatgen
data_Mg3(Al9Cr)2
_symmetry_space_group_name_H-M   'P 1'
_cell_length_a   10.24328035
_cell_length_b   10.24328035
_cell_length_c   10.24328035
_cell_angle_alpha   60.00000000
_cell_angle_beta   60.00000000
_cell_angle_gamma   60.00000000
_symmetry_Int_Tables_number   1
_chemical_formula_structural   Mg3(Al9Cr)2
_chemical_formula_sum   'Mg6 Al36 Cr4'
_cell_volume   759.98002946
_cell_formula_units_Z   2
loop_
 _symmetry_equiv_pos_site_id
 _symmetry_equiv_pos_as_xyz
  1  'x, y, z'
loop_
 _atom_site_type_symbol
 _atom_site_label
 _atom_site_symmetry_multiplicity
 _atom_site_fract_x
 _atom_site_fract_y
 _atom_site_fract_z
 _atom_site_occupancy
  Mg  Mg0  1  0.12500000  0.12500000  0.12500000  1
  Mg  Mg1  1  0.62500000  0.12500000  0.12500000  1
  Mg  Mg2  1  0.12500000  0.12500000  0.62500000  1
  Mg  Mg3  1  0.12500000  0.62500000  0.12500000  1
  Mg  Mg4  1  0.00000000  0.00000000  0.00000000  1
  Mg  Mg5  1  0.25000000  0.25000000  0.25000000  1
  Al  Al6  1  0.45048000  0.18294300  0.45048000  1
  Al  Al7  1  0.61053100  0.88946900  0.88946900  1
  Al  Al8  1  0.88946900  0.61053100  0.61053100  1
  Al  Al9  1  0.88946900  0.61053100  0.88946900  1
  Al  Al10  1  0.36053100  0.36053100  0.63946900  1
  Al  Al11  1  0.61053100  0.61053100  0.88946900  1
  Al  Al12  1  0.45048000  0.18294300  0.91609800  1
  Al  Al13  1  0.79952000  0.79952000  0.06705700  1
  Al  Al14  1  0.06705700  0.33390200  0.79952000  1
  Al  Al15  1  0.79952000  0.33390200  0.79952000  1
  Al  Al16  1  0.33390200  0.79952000  0.06705700  1
  Al  Al17  1  0.33390200  0.79952000  0.79952000  1
  Al  Al18  1  0.06705700  0.79952000  0.79952000  1
  Al  Al19  1  0.91609800  0.18294300  0.45048000  1
  Al  Al20  1  0.18294300  0.91609800  0.45048000  1
  Al  Al21  1  0.18294300  0.45048000  0.91609800  1
  Al  Al22  1  0.45048000  0.45048000  0.91609800  1
  Al  Al23  1  0.45048000  0.91609800  0.45048000  1
  Al  Al24  1  0.91609800  0.45048000  0.18294300  1
  Al  Al25  1  0.45048000  0.45048000  0.18294300  1
  Al  Al26  1  0.63946900  0.36053100  0.63946900  1
  Al  Al27  1  0.06705700  0.79952000  0.33390200  1
  Al  Al28  1  0.79952000  0.79952000  0.33390200  1
  Al  Al29  1  0.79952000  0.33390200  0.06705700  1
  Al  Al30  1  0.79952000  0.06705700  0.33390200  1
  Al  Al31  1  0.33390200  0.06705700  0.79952000  1
  Al  Al32  1  0.79952000  0.06705700  0.79952000  1
  Al  Al33  1  0.91609800  0.45048000  0.45048000  1
  Al  Al34  1  0.18294300  0.45048000  0.45048000  1
  Al  Al35  1  0.45048000  0.91609800  0.18294300  1
  Al  Al36  1  0.88946900  0.88946900  0.61053100  1
  Al  Al37  1  0.63946900  0.36053100  0.36053100  1
  Al  Al38  1  0.36053100  0.63946900  0.63946900  1
  Al  Al39  1  0.63946900  0.63946900  0.36053100  1
  Al  Al40  1  0.36053100  0.63946900  0.36053100  1
  Al  Al41  1  0.61053100  0.88946900  0.61053100  1
  Cr  Cr42  1  0.62500000  0.62500000  0.62500000  1
  Cr  Cr43  1  0.12500000  0.62500000  0.62500000  1
  Cr  Cr44  1  0.62500000  0.62500000  0.12500000  1
  Cr  Cr45  1  0.62500000  0.12500000  0.62500000  1
