# generated using pymatgen
data_Pr2MoC2
_symmetry_space_group_name_H-M   'P 1'
_cell_length_a   5.86343800
_cell_length_b   5.86343800
_cell_length_c   10.50958300
_cell_angle_alpha   90.00000000
_cell_angle_beta   90.00000000
_cell_angle_gamma   90.00000000
_symmetry_Int_Tables_number   1
_chemical_formula_structural   Pr2MoC2
_chemical_formula_sum   'Pr8 Mo4 C8'
_cell_volume   361.31846702
_cell_formula_units_Z   4
loop_
 _symmetry_equiv_pos_site_id
 _symmetry_equiv_pos_as_xyz
  1  'x, y, z'
loop_
 _atom_site_type_symbol
 _atom_site_label
 _atom_site_symmetry_multiplicity
 _atom_site_fract_x
 _atom_site_fract_y
 _atom_site_fract_z
 _atom_site_occupancy
  Pr  Pr0  1  0.80254600  0.80254600  0.65531300  1
  Pr  Pr1  1  0.19745400  0.19745400  0.65531300  1
  Pr  Pr2  1  0.80254600  0.80254600  0.34468700  1
  Pr  Pr3  1  0.30254600  0.69745400  0.15531300  1
  Pr  Pr4  1  0.69745400  0.30254600  0.15531300  1
  Pr  Pr5  1  0.69745400  0.30254600  0.84468700  1
  Pr  Pr6  1  0.30254600  0.69745400  0.84468700  1
  Pr  Pr7  1  0.19745400  0.19745400  0.34468700  1
  Mo  Mo8  1  0.17542200  0.17542200  0.00000000  1
  Mo  Mo9  1  0.32457800  0.67542200  0.50000000  1
  Mo  Mo10  1  0.67542200  0.32457800  0.50000000  1
  Mo  Mo11  1  0.82457800  0.82457800  0.00000000  1
  C  C12  1  0.50000000  0.00000000  0.00000000  1
  C  C13  1  0.50000000  0.00000000  0.50000000  1
  C  C14  1  0.00000000  0.50000000  0.50000000  1
  C  C15  1  0.00000000  0.50000000  0.00000000  1
  C  C16  1  0.00000000  0.00000000  0.85799600  1
  C  C17  1  0.50000000  0.50000000  0.35799600  1
  C  C18  1  0.50000000  0.50000000  0.64200400  1
  C  C19  1  0.00000000  0.00000000  0.14200400  1
