# generated using pymatgen
data_TlClO4
_symmetry_space_group_name_H-M   'P 1'
_cell_length_a   5.50528450
_cell_length_b   5.50528450
_cell_length_c   5.50528450
_cell_angle_alpha   60.00000000
_cell_angle_beta   60.00000000
_cell_angle_gamma   60.00000000
_symmetry_Int_Tables_number   1
_chemical_formula_structural   TlClO4
_chemical_formula_sum   'Tl1 Cl1 O4'
_cell_volume   117.98432248
_cell_formula_units_Z   1
loop_
 _symmetry_equiv_pos_site_id
 _symmetry_equiv_pos_as_xyz
  1  'x, y, z'
loop_
 _atom_site_type_symbol
 _atom_site_label
 _atom_site_symmetry_multiplicity
 _atom_site_fract_x
 _atom_site_fract_y
 _atom_site_fract_z
 _atom_site_occupancy
  Tl  Tl0  1  0.50000000  0.50000000  0.50000000  1
  Cl  Cl1  1  0.00000000  0.00000000  0.00000000  1
  O  O2  1  0.10879700  0.10879700  0.67360900  1
  O  O3  1  0.10879700  0.67360900  0.10879700  1
  O  O4  1  0.10879700  0.10879700  0.10879700  1
  O  O5  1  0.67360900  0.10879700  0.10879700  1
