# generated using pymatgen
data_Ca3(Bi2Pd)4
_symmetry_space_group_name_H-M   'P 1'
_cell_length_a   4.23945700
_cell_length_b   10.96984500
_cell_length_c   17.22676700
_cell_angle_alpha   90.00000000
_cell_angle_beta   90.00000000
_cell_angle_gamma   90.00000000
_symmetry_Int_Tables_number   1
_chemical_formula_structural   Ca3(Bi2Pd)4
_chemical_formula_sum   'Ca6 Bi16 Pd8'
_cell_volume   801.15123328
_cell_formula_units_Z   2
loop_
 _symmetry_equiv_pos_site_id
 _symmetry_equiv_pos_as_xyz
  1  'x, y, z'
loop_
 _atom_site_type_symbol
 _atom_site_label
 _atom_site_symmetry_multiplicity
 _atom_site_fract_x
 _atom_site_fract_y
 _atom_site_fract_z
 _atom_site_occupancy
  Ca  Ca0  1  0.50000000  0.00000000  0.50000000  1
  Ca  Ca1  1  0.50000000  0.50000000  0.00000000  1
  Ca  Ca2  1  0.50000000  0.85823100  0.19891200  1
  Ca  Ca3  1  0.50000000  0.14176900  0.80108800  1
  Ca  Ca4  1  0.50000000  0.35823100  0.30108800  1
  Ca  Ca5  1  0.50000000  0.64176900  0.69891200  1
  Bi  Bi6  1  0.00000000  0.11016800  0.21350800  1
  Bi  Bi7  1  0.00000000  0.88983200  0.78649200  1
  Bi  Bi8  1  0.00000000  0.61016800  0.28649200  1
  Bi  Bi9  1  0.00000000  0.38983200  0.71350800  1
  Bi  Bi10  1  0.00000000  0.39317700  0.14252800  1
  Bi  Bi11  1  0.00000000  0.60682300  0.85747200  1
  Bi  Bi12  1  0.00000000  0.89317700  0.35747200  1
  Bi  Bi13  1  0.00000000  0.10682300  0.64252800  1
  Bi  Bi14  1  0.50000000  0.12966000  0.03877800  1
  Bi  Bi15  1  0.50000000  0.87034000  0.96122200  1
  Bi  Bi16  1  0.50000000  0.62966000  0.46122200  1
  Bi  Bi17  1  0.50000000  0.37034000  0.53877800  1
  Bi  Bi18  1  0.00000000  0.69545700  0.08566800  1
  Bi  Bi19  1  0.00000000  0.30454300  0.91433200  1
  Bi  Bi20  1  0.00000000  0.19545700  0.41433200  1
  Bi  Bi21  1  0.00000000  0.80454300  0.58566800  1
  Pd  Pd22  1  0.00000000  0.95357500  0.07812500  1
  Pd  Pd23  1  0.00000000  0.04642500  0.92187500  1
  Pd  Pd24  1  0.00000000  0.45357500  0.42187500  1
  Pd  Pd25  1  0.00000000  0.54642500  0.57812500  1
  Pd  Pd26  1  0.50000000  0.56992700  0.17549700  1
  Pd  Pd27  1  0.50000000  0.43007300  0.82450300  1
  Pd  Pd28  1  0.50000000  0.06992700  0.32450300  1
  Pd  Pd29  1  0.50000000  0.93007300  0.67549700  1
