# generated using pymatgen
data_Be4N6O19
_symmetry_space_group_name_H-M   'P 1'
_cell_length_a   13.99016586
_cell_length_b   13.99016586
_cell_length_c   6.73346100
_cell_angle_alpha   90.00000000
_cell_angle_beta   90.00000000
_cell_angle_gamma   119.99999935
_symmetry_Int_Tables_number   1
_chemical_formula_structural   Be4N6O19
_chemical_formula_sum   'Be12 N18 O57'
_cell_volume   1141.33913868
_cell_formula_units_Z   3
loop_
 _symmetry_equiv_pos_site_id
 _symmetry_equiv_pos_as_xyz
  1  'x, y, z'
loop_
 _atom_site_type_symbol
 _atom_site_label
 _atom_site_symmetry_multiplicity
 _atom_site_fract_x
 _atom_site_fract_y
 _atom_site_fract_z
 _atom_site_occupancy
  Be  Be0  1  0.00000000  0.00000000  0.01075300  1
  Be  Be1  1  0.09550800  0.97439800  0.32987600  1
  Be  Be2  1  0.02560200  0.12111000  0.32987600  1
  Be  Be3  1  0.87889000  0.90449200  0.32987600  1
  Be  Be4  1  0.66666700  0.33333300  0.18452800  1
  Be  Be5  1  0.71384200  0.25425400  0.50419300  1
  Be  Be6  1  0.74574600  0.45958800  0.50419300  1
  Be  Be7  1  0.54041200  0.28615800  0.50419300  1
  Be  Be8  1  0.33333300  0.66666700  0.84716100  1
  Be  Be9  1  0.45436200  0.76323600  0.52802900  1
  Be  Be10  1  0.23676400  0.69112600  0.52802900  1
  Be  Be11  1  0.30887400  0.54563800  0.52802900  1
  N  N12  1  0.03026700  0.19659500  0.97667700  1
  N  N13  1  0.80340500  0.83367200  0.97667700  1
  N  N14  1  0.16632800  0.96973300  0.97667700  1
  N  N15  1  0.95673600  0.79608100  0.51980200  1
  N  N16  1  0.20391900  0.16065500  0.51980200  1
  N  N17  1  0.83934500  0.04326400  0.51980200  1
  N  N18  1  0.75634200  0.21234900  0.15174000  1
  N  N19  1  0.78765100  0.54399400  0.15174000  1
  N  N20  1  0.45600600  0.24365800  0.15174000  1
  N  N21  1  0.88072600  0.41380900  0.68687500  1
  N  N22  1  0.58619100  0.46691700  0.68687500  1
  N  N23  1  0.53308300  0.11927400  0.68687500  1
  N  N24  1  0.52760100  0.83676700  0.88131600  1
  N  N25  1  0.16323300  0.69083400  0.88131600  1
  N  N26  1  0.30916600  0.47239900  0.88131600  1
  N  N27  1  0.37425800  0.87300100  0.34559200  1
  N  N28  1  0.12699900  0.50125600  0.34559200  1
  N  N29  1  0.49874400  0.62574200  0.34559200  1
  O  O30  1  0.00000000  0.00000000  0.25290600  1
  O  O31  1  0.66666700  0.33333300  0.42617200  1
  O  O32  1  0.33333300  0.66666700  0.60392400  1
  O  O33  1  0.97723900  0.09437800  0.91404200  1
  O  O34  1  0.90562200  0.88286200  0.91404200  1
  O  O35  1  0.11713800  0.02276100  0.91404200  1
  O  O36  1  0.07346800  0.21506000  0.15331900  1
  O  O37  1  0.78494000  0.85840800  0.15331900  1
  O  O38  1  0.14159200  0.92653200  0.15331900  1
  O  O39  1  0.03881200  0.27080400  0.87305200  1
  O  O40  1  0.72919600  0.76800900  0.87305200  1
  O  O41  1  0.23199100  0.96118800  0.87305200  1
  O  O42  1  0.87758200  0.79389000  0.41491400  1
  O  O43  1  0.20611000  0.08369200  0.41491400  1
  O  O44  1  0.91630800  0.12241800  0.41491400  1
  O  O45  1  0.05457900  0.88324300  0.50895200  1
  O  O46  1  0.11675700  0.17133500  0.50895200  1
  O  O47  1  0.82866500  0.94542100  0.50895200  1
  O  O48  1  0.94024200  0.71940800  0.62497900  1
  O  O49  1  0.28059200  0.22083400  0.62497900  1
  O  O50  1  0.77916600  0.05975800  0.62497900  1
  O  O51  1  0.75331400  0.29912000  0.08820900  1
  O  O52  1  0.70088000  0.45419400  0.08820900  1
  O  O53  1  0.54580600  0.24668600  0.08820900  1
  O  O54  1  0.82638800  0.54110200  0.32573700  1
  O  O55  1  0.45889800  0.28528600  0.32573700  1
  O  O56  1  0.71471400  0.17361200  0.32573700  1
  O  O57  1  0.79594300  0.16960000  0.05092100  1
  O  O58  1  0.83040000  0.62634300  0.05092100  1
  O  O59  1  0.37365700  0.20405700  0.05092100  1
  O  O60  1  0.84198700  0.32397500  0.58252900  1
  O  O61  1  0.67602500  0.51801200  0.58252900  1
  O  O62  1  0.48198800  0.15801300  0.58252900  1
  O  O63  1  0.82726800  0.46783900  0.68614000  1
  O  O64  1  0.53216100  0.35942900  0.68614000  1
  O  O65  1  0.64057100  0.17273200  0.68614000  1
  O  O66  1  0.96440600  0.44655900  0.78307300  1
  O  O67  1  0.55344100  0.51784700  0.78307300  1
  O  O68  1  0.48215300  0.03559400  0.78307300  1
  O  O69  1  0.42511000  0.78526600  0.94338500  1
  O  O70  1  0.21473400  0.63984400  0.94338500  1
  O  O71  1  0.36015600  0.57489000  0.94338500  1
  O  O72  1  0.54746200  0.81166200  0.70617100  1
  O  O73  1  0.18833800  0.73580000  0.70617100  1
  O  O74  1  0.26420000  0.45253800  0.70617100  1
  O  O75  1  0.60049200  0.90446200  0.98450100  1
  O  O76  1  0.09553800  0.69602900  0.98450100  1
  O  O77  1  0.30397100  0.39950800  0.98450100  1
  O  O78  1  0.45485200  0.87347200  0.44273500  1
  O  O79  1  0.12652800  0.58137900  0.44273500  1
  O  O80  1  0.41862100  0.54514800  0.44273500  1
  O  O81  1  0.27739700  0.78454300  0.35172900  1
  O  O82  1  0.21545700  0.49285400  0.35172900  1
  O  O83  1  0.50714600  0.72260300  0.35172900  1
  O  O84  1  0.38935000  0.95300800  0.25153100  1
  O  O85  1  0.04699200  0.43634200  0.25153100  1
  O  O86  1  0.56365800  0.61065000  0.25153100  1
