# generated using pymatgen
data_Ho6FeBi2
_symmetry_space_group_name_H-M   'P 1'
_cell_length_a   8.30526211
_cell_length_b   8.30526211
_cell_length_c   4.14815400
_cell_angle_alpha   90.00000000
_cell_angle_beta   90.00000000
_cell_angle_gamma   120.00000085
_symmetry_Int_Tables_number   1
_chemical_formula_structural   Ho6FeBi2
_chemical_formula_sum   'Ho6 Fe1 Bi2'
_cell_volume   247.79479807
_cell_formula_units_Z   1
loop_
 _symmetry_equiv_pos_site_id
 _symmetry_equiv_pos_as_xyz
  1  'x, y, z'
loop_
 _atom_site_type_symbol
 _atom_site_label
 _atom_site_symmetry_multiplicity
 _atom_site_fract_x
 _atom_site_fract_y
 _atom_site_fract_z
 _atom_site_occupancy
  Ho  Ho0  1  0.22946600  0.00000000  0.00000000  1
  Ho  Ho1  1  0.00000000  0.61086900  0.50000000  1
  Ho  Ho2  1  0.38913100  0.38913100  0.50000000  1
  Ho  Ho3  1  0.77053400  0.77053400  0.00000000  1
  Ho  Ho4  1  0.00000000  0.22946600  0.00000000  1
  Ho  Ho5  1  0.61086900  0.00000000  0.50000000  1
  Fe  Fe6  1  0.00000000  0.00000000  0.50000000  1
  Bi  Bi7  1  0.33333300  0.66666700  0.00000000  1
  Bi  Bi8  1  0.66666700  0.33333300  0.00000000  1
