# generated using pymatgen
data_La(SiIr)2
_symmetry_space_group_name_H-M   'P 1'
_cell_length_a   5.95163608
_cell_length_b   5.95163608
_cell_length_c   5.95163608
_cell_angle_alpha   139.23027707
_cell_angle_beta   139.23027707
_cell_angle_gamma   59.02389978
_symmetry_Int_Tables_number   1
_chemical_formula_structural   La(SiIr)2
_chemical_formula_sum   'La1 Si2 Ir2'
_cell_volume   89.03943155
_cell_formula_units_Z   1
loop_
 _symmetry_equiv_pos_site_id
 _symmetry_equiv_pos_as_xyz
  1  'x, y, z'
loop_
 _atom_site_type_symbol
 _atom_site_label
 _atom_site_symmetry_multiplicity
 _atom_site_fract_x
 _atom_site_fract_y
 _atom_site_fract_z
 _atom_site_occupancy
  La  La0  1  0.00000000  0.00000000  0.00000000  1
  Si  Si1  1  0.62712900  0.62712900  0.00000000  1
  Si  Si2  1  0.37287100  0.37287100  0.00000000  1
  Ir  Ir3  1  0.25000000  0.75000000  0.50000000  1
  Ir  Ir4  1  0.75000000  0.25000000  0.50000000  1
