# generated using pymatgen
data_SrNb8O14
_symmetry_space_group_name_H-M   'P 1'
_cell_length_a   6.02082200
_cell_length_b   9.37884800
_cell_length_c   10.39962700
_cell_angle_alpha   90.00000000
_cell_angle_beta   90.00000000
_cell_angle_gamma   90.00000000
_symmetry_Int_Tables_number   1
_chemical_formula_structural   SrNb8O14
_chemical_formula_sum   'Sr2 Nb16 O28'
_cell_volume   587.25003078
_cell_formula_units_Z   2
loop_
 _symmetry_equiv_pos_site_id
 _symmetry_equiv_pos_as_xyz
  1  'x, y, z'
loop_
 _atom_site_type_symbol
 _atom_site_label
 _atom_site_symmetry_multiplicity
 _atom_site_fract_x
 _atom_site_fract_y
 _atom_site_fract_z
 _atom_site_occupancy
  Sr  Sr0  1  0.50000000  0.50000000  0.00000000  1
  Sr  Sr1  1  0.50000000  0.00000000  0.50000000  1
  Nb  Nb2  1  0.00000000  0.38372900  0.16363400  1
  Nb  Nb3  1  0.00000000  0.61627100  0.83636600  1
  Nb  Nb4  1  0.00000000  0.88372900  0.33636600  1
  Nb  Nb5  1  0.00000000  0.11627100  0.66363400  1
  Nb  Nb6  1  0.50000000  0.38013800  0.66459900  1
  Nb  Nb7  1  0.50000000  0.61986200  0.33540100  1
  Nb  Nb8  1  0.50000000  0.88013800  0.83540100  1
  Nb  Nb9  1  0.50000000  0.11986200  0.16459900  1
  Nb  Nb10  1  0.73173000  0.62528600  0.57684700  1
  Nb  Nb11  1  0.73173000  0.37471400  0.42315300  1
  Nb  Nb12  1  0.26827000  0.12528500  0.92315300  1
  Nb  Nb13  1  0.26827000  0.87471400  0.07684700  1
  Nb  Nb14  1  0.26827000  0.37471400  0.42315300  1
  Nb  Nb15  1  0.26827000  0.62528600  0.57684700  1
  Nb  Nb16  1  0.73173000  0.87471400  0.07684700  1
  Nb  Nb17  1  0.73173000  0.12528500  0.92315300  1
  O  O18  1  0.74568300  0.50493300  0.75337900  1
  O  O19  1  0.74568300  0.49506700  0.24662100  1
  O  O20  1  0.25431700  0.00493300  0.74662100  1
  O  O21  1  0.25431700  0.99506700  0.25337900  1
  O  O22  1  0.25431700  0.49506700  0.24662100  1
  O  O23  1  0.25431700  0.50493300  0.75337900  1
  O  O24  1  0.74568300  0.99506700  0.25337900  1
  O  O25  1  0.74568300  0.00493300  0.74662100  1
  O  O26  1  0.25437300  0.73966800  0.91356300  1
  O  O27  1  0.25437300  0.26033200  0.08643700  1
  O  O28  1  0.74562700  0.23966800  0.58643700  1
  O  O29  1  0.74562700  0.76033200  0.41356300  1
  O  O30  1  0.74562700  0.26033200  0.08643700  1
  O  O31  1  0.74562700  0.73966800  0.91356300  1
  O  O32  1  0.25437300  0.76033200  0.41356300  1
  O  O33  1  0.25437300  0.23966800  0.58643700  1
  O  O34  1  0.00000000  0.50000000  0.00000000  1
  O  O35  1  0.00000000  0.00000000  0.50000000  1
  O  O36  1  0.00000000  0.23437700  0.82109000  1
  O  O37  1  0.00000000  0.76562300  0.17891000  1
  O  O38  1  0.00000000  0.73437700  0.67891000  1
  O  O39  1  0.00000000  0.26562300  0.32109000  1
  O  O40  1  0.50000000  0.23666800  0.34862200  1
  O  O41  1  0.50000000  0.76333200  0.65137800  1
  O  O42  1  0.50000000  0.73666800  0.15137800  1
  O  O43  1  0.50000000  0.26333200  0.84862200  1
  O  O44  1  0.00000000  0.00000000  0.00000000  1
  O  O45  1  0.00000000  0.50000000  0.50000000  1
