# generated using pymatgen
data_Na5P3O10
_symmetry_space_group_name_H-M   'P 1'
_cell_length_a   8.57455250
_cell_length_b   8.57455250
_cell_length_c   11.34203446
_cell_angle_alpha   86.64932146
_cell_angle_beta   86.64932146
_cell_angle_gamma   35.94624939
_symmetry_Int_Tables_number   1
_chemical_formula_structural   Na5P3O10
_chemical_formula_sum   'Na10 P6 O20'
_cell_volume   488.59593652
_cell_formula_units_Z   2
loop_
 _symmetry_equiv_pos_site_id
 _symmetry_equiv_pos_as_xyz
  1  'x, y, z'
loop_
 _atom_site_type_symbol
 _atom_site_label
 _atom_site_symmetry_multiplicity
 _atom_site_fract_x
 _atom_site_fract_y
 _atom_site_fract_z
 _atom_site_occupancy
  Na  Na0  1  0.30532000  0.77811000  0.03788900  1
  Na  Na1  1  0.77811000  0.30532000  0.53788900  1
  Na  Na2  1  0.69468000  0.22189000  0.96211100  1
  Na  Na3  1  0.11051800  0.56893000  0.20628900  1
  Na  Na4  1  0.43107000  0.88948200  0.29371100  1
  Na  Na5  1  0.88948200  0.43107000  0.79371100  1
  Na  Na6  1  0.00000000  0.50000000  0.50000000  1
  Na  Na7  1  0.50000000  0.00000000  0.00000000  1
  Na  Na8  1  0.56893000  0.11051800  0.70628900  1
  Na  Na9  1  0.22189000  0.69468000  0.46211100  1
  P  P10  1  0.04993200  0.65648900  0.89999600  1
  P  P11  1  0.34351100  0.95006800  0.60000400  1
  P  P12  1  0.95006800  0.34351100  0.10000400  1
  P  P13  1  0.65648900  0.04993200  0.39999600  1
  P  P14  1  0.30801700  0.69198300  0.75000000  1
  P  P15  1  0.69198300  0.30801700  0.25000000  1
  O  O16  1  0.73051300  0.83441600  0.34990300  1
  O  O17  1  0.96965100  0.78932900  0.01766800  1
  O  O18  1  0.21067100  0.03034900  0.48233200  1
  O  O19  1  0.03034900  0.21067100  0.98233200  1
  O  O20  1  0.78932900  0.96965100  0.51766800  1
  O  O21  1  0.83441600  0.73051300  0.84990300  1
  O  O22  1  0.50593400  0.41881500  0.15271900  1
  O  O23  1  0.58118500  0.49406600  0.34728100  1
  O  O24  1  0.49406600  0.58118500  0.84728100  1
  O  O25  1  0.41881500  0.50593400  0.65271900  1
  O  O26  1  0.82656500  0.04171000  0.30624800  1
  O  O27  1  0.95829000  0.17343500  0.19375200  1
  O  O28  1  0.17343500  0.95829000  0.69375200  1
  O  O29  1  0.04171000  0.82656500  0.80624800  1
  O  O30  1  0.16558400  0.26948700  0.15009700  1
  O  O31  1  0.66743000  0.63587700  0.10675900  1
  O  O32  1  0.63587700  0.66743000  0.60675900  1
  O  O33  1  0.33257000  0.36412300  0.89324100  1
  O  O34  1  0.36412300  0.33257000  0.39324100  1
  O  O35  1  0.26948700  0.16558400  0.65009700  1
