# generated using pymatgen
data_Sr9Cd4Bi9
_symmetry_space_group_name_H-M   'P 1'
_cell_length_a   4.96999800
_cell_length_b   13.42614800
_cell_length_c   23.69169300
_cell_angle_alpha   90.00000000
_cell_angle_beta   90.00000000
_cell_angle_gamma   90.00000000
_symmetry_Int_Tables_number   1
_chemical_formula_structural   Sr9Cd4Bi9
_chemical_formula_sum   'Sr18 Cd8 Bi18'
_cell_volume   1580.89760147
_cell_formula_units_Z   2
loop_
 _symmetry_equiv_pos_site_id
 _symmetry_equiv_pos_as_xyz
  1  'x, y, z'
loop_
 _atom_site_type_symbol
 _atom_site_label
 _atom_site_symmetry_multiplicity
 _atom_site_fract_x
 _atom_site_fract_y
 _atom_site_fract_z
 _atom_site_occupancy
  Sr  Sr0  1  0.00000000  0.36751200  0.63559800  1
  Sr  Sr1  1  0.00000000  0.56528000  0.91095200  1
  Sr  Sr2  1  0.00000000  0.63248800  0.36440200  1
  Sr  Sr3  1  0.00000000  0.43472000  0.08904800  1
  Sr  Sr4  1  0.00000000  0.13248800  0.13559800  1
  Sr  Sr5  1  0.00000000  0.86751200  0.86440200  1
  Sr  Sr6  1  0.50000000  0.50000000  0.50000000  1
  Sr  Sr7  1  0.50000000  0.00000000  0.00000000  1
  Sr  Sr8  1  0.50000000  0.70935300  0.10246400  1
  Sr  Sr9  1  0.50000000  0.29064700  0.89753600  1
  Sr  Sr10  1  0.50000000  0.20935300  0.39753600  1
  Sr  Sr11  1  0.50000000  0.79064700  0.60246400  1
  Sr  Sr12  1  0.00000000  0.87539600  0.23546400  1
  Sr  Sr13  1  0.00000000  0.12460400  0.76453600  1
  Sr  Sr14  1  0.00000000  0.37539600  0.26453600  1
  Sr  Sr15  1  0.00000000  0.62460400  0.73546400  1
  Sr  Sr16  1  0.00000000  0.93472000  0.41095200  1
  Sr  Sr17  1  0.00000000  0.06528000  0.58904800  1
  Cd  Cd18  1  0.50000000  0.72928800  0.95418200  1
  Cd  Cd19  1  0.50000000  0.27071200  0.04581800  1
  Cd  Cd20  1  0.50000000  0.22928800  0.54581800  1
  Cd  Cd21  1  0.50000000  0.77071200  0.45418200  1
  Cd  Cd22  1  0.50000000  0.61363200  0.26114500  1
  Cd  Cd23  1  0.50000000  0.11363200  0.23885500  1
  Cd  Cd24  1  0.50000000  0.38636800  0.73885500  1
  Cd  Cd25  1  0.50000000  0.88636800  0.76114500  1
  Bi  Bi26  1  0.50000000  0.81161200  0.33084500  1
  Bi  Bi27  1  0.50000000  0.18838800  0.66915500  1
  Bi  Bi28  1  0.50000000  0.31161200  0.16915500  1
  Bi  Bi29  1  0.50000000  0.68838800  0.83084500  1
  Bi  Bi30  1  0.50000000  0.95659300  0.14577600  1
  Bi  Bi31  1  0.50000000  0.04340700  0.85422400  1
  Bi  Bi32  1  0.50000000  0.45659300  0.35422400  1
  Bi  Bi33  1  0.50000000  0.54340700  0.64577600  1
  Bi  Bi34  1  0.00000000  0.61798500  0.19205200  1
  Bi  Bi35  1  0.00000000  0.38201500  0.80794800  1
  Bi  Bi36  1  0.00000000  0.11798500  0.30794800  1
  Bi  Bi37  1  0.00000000  0.88201500  0.69205200  1
  Bi  Bi38  1  0.00000000  0.81145900  0.01036400  1
  Bi  Bi39  1  0.00000000  0.18854100  0.98963600  1
  Bi  Bi40  1  0.00000000  0.31145900  0.48963600  1
  Bi  Bi41  1  0.00000000  0.68854100  0.51036400  1
  Bi  Bi42  1  0.50000000  0.00000000  0.50000000  1
  Bi  Bi43  1  0.50000000  0.50000000  0.00000000  1
