# generated using pymatgen
data_Dy2Al3Si2
_symmetry_space_group_name_H-M   'P 1'
_cell_length_a   5.49456638
_cell_length_b   5.49456638
_cell_length_c   6.62936119
_cell_angle_alpha   79.74759493
_cell_angle_beta   79.74759493
_cell_angle_gamma   43.14465128
_symmetry_Int_Tables_number   1
_chemical_formula_structural   Dy2Al3Si2
_chemical_formula_sum   'Dy2 Al3 Si2'
_cell_volume   134.33560022
_cell_formula_units_Z   1
loop_
 _symmetry_equiv_pos_site_id
 _symmetry_equiv_pos_as_xyz
  1  'x, y, z'
loop_
 _atom_site_type_symbol
 _atom_site_label
 _atom_site_symmetry_multiplicity
 _atom_site_fract_x
 _atom_site_fract_y
 _atom_site_fract_z
 _atom_site_occupancy
  Dy  Dy0  1  0.61976900  0.61976900  0.67728300  1
  Dy  Dy1  1  0.38023100  0.38023100  0.32271700  1
  Al  Al2  1  0.30540400  0.30540400  0.86647200  1
  Al  Al3  1  0.00000000  0.00000000  0.00000000  1
  Al  Al4  1  0.69459600  0.69459600  0.13352800  1
  Si  Si5  1  0.09300500  0.09300500  0.35978900  1
  Si  Si6  1  0.90699500  0.90699500  0.64021100  1
