# generated using pymatgen
data_Ba9Nb10O30
_symmetry_space_group_name_H-M   'P 1'
_cell_length_a   9.22851200
_cell_length_b   9.25816335
_cell_length_c   9.25916963
_cell_angle_alpha   113.63981207
_cell_angle_beta   89.76221907
_cell_angle_gamma   101.62584545
_symmetry_Int_Tables_number   1
_chemical_formula_structural   Ba9Nb10O30
_chemical_formula_sum   'Ba9 Nb10 O30'
_cell_volume   707.24665517
_cell_formula_units_Z   1
loop_
 _symmetry_equiv_pos_site_id
 _symmetry_equiv_pos_as_xyz
  1  'x, y, z'
loop_
 _atom_site_type_symbol
 _atom_site_label
 _atom_site_symmetry_multiplicity
 _atom_site_fract_x
 _atom_site_fract_y
 _atom_site_fract_z
 _atom_site_occupancy
  Ba  Ba0  1  0.19783600  0.99975000  0.39663600  1
  Ba  Ba1  1  0.39645800  0.99999700  0.80208200  1
  Ba  Ba2  1  0.60354200  0.00000300  0.19791800  1
  Ba  Ba3  1  0.09860400  0.49639900  0.19870300  1
  Ba  Ba4  1  0.80216400  0.00025000  0.60336400  1
  Ba  Ba5  1  0.29968500  0.50003700  0.60106600  1
  Ba  Ba6  1  0.50000000  0.50000000  0.00000000  1
  Ba  Ba7  1  0.70031500  0.49996300  0.39893400  1
  Ba  Ba8  1  0.90139600  0.50360100  0.80129700  1
  Nb  Nb9  1  0.04897300  0.75341200  0.60498600  1
  Nb  Nb10  1  0.24689300  0.75290500  0.99958200  1
  Nb  Nb11  1  0.14753800  0.24706400  0.80271600  1
  Nb  Nb12  1  0.34518000  0.24547200  0.19615900  1
  Nb  Nb13  1  0.44968300  0.74956500  0.39980900  1
  Nb  Nb14  1  0.65482000  0.75452800  0.80384100  1
  Nb  Nb15  1  0.55031700  0.25043500  0.60019100  1
  Nb  Nb16  1  0.85246200  0.75293600  0.19728400  1
  Nb  Nb17  1  0.75310700  0.24709500  0.00041800  1
  Nb  Nb18  1  0.95102700  0.24658800  0.39501400  1
  O  O19  1  0.10106200  0.99988000  0.69591600  1
  O  O20  1  0.15208700  0.25286200  0.30334300  1
  O  O21  1  0.15193900  0.74690700  0.79692600  1
  O  O22  1  0.04992100  0.24950000  0.59957000  1
  O  O23  1  0.30382600  0.99984200  0.10084600  1
  O  O24  1  0.19926900  0.49984200  0.90002900  1
  O  O25  1  0.35019300  0.24976000  0.70016300  1
  O  O26  1  0.05079600  0.74718700  0.10102900  1
  O  O27  1  0.35012900  0.75033000  0.20026900  1
  O  O28  1  0.25331400  0.25293500  0.99957300  1
  O  O29  1  0.39953200  0.49993600  0.29967300  1
  O  O30  1  0.50000000  0.00000000  0.50000000  1
  O  O31  1  0.54976900  0.24907400  0.09973000  1
  O  O32  1  0.25035200  0.75022400  0.50042400  1
  O  O33  1  0.55013600  0.75044100  0.60004000  1
  O  O34  1  0.44986400  0.24955900  0.39996000  1
  O  O35  1  0.69617400  0.00015800  0.89915400  1
  O  O36  1  0.60046800  0.50006400  0.70032700  1
  O  O37  1  0.74964800  0.24977600  0.49957600  1
  O  O38  1  0.45023100  0.75092600  0.90027000  1
  O  O39  1  0.74668600  0.74706500  0.00042700  1
  O  O40  1  0.64987100  0.24967000  0.79973100  1
  O  O41  1  0.89893800  0.00012000  0.30408400  1
  O  O42  1  0.80073100  0.50015800  0.09997100  1
  O  O43  1  0.94920400  0.25281300  0.89897100  1
  O  O44  1  0.64980700  0.75024000  0.29983700  1
  O  O45  1  0.95007900  0.75050000  0.40043000  1
  O  O46  1  0.84806100  0.25309300  0.20307400  1
  O  O47  1  0.00000000  0.50000000  0.50000000  1
  O  O48  1  0.84791300  0.74713800  0.69665700  1
