# generated using pymatgen
data_Zn3GaB6PO12
_symmetry_space_group_name_H-M   'P 1'
_cell_length_a   6.67920463
_cell_length_b   6.67920463
_cell_length_c   6.67920509
_cell_angle_alpha   109.55951019
_cell_angle_beta   109.55951019
_cell_angle_gamma   109.55950272
_symmetry_Int_Tables_number   1
_chemical_formula_structural   Zn3GaB6PO12
_chemical_formula_sum   'Zn3 Ga1 B6 P1 O12'
_cell_volume   228.62547813
_cell_formula_units_Z   1
loop_
 _symmetry_equiv_pos_site_id
 _symmetry_equiv_pos_as_xyz
  1  'x, y, z'
loop_
 _atom_site_type_symbol
 _atom_site_label
 _atom_site_symmetry_multiplicity
 _atom_site_fract_x
 _atom_site_fract_y
 _atom_site_fract_z
 _atom_site_occupancy
  Zn  Zn0  1  0.99966900  0.99966900  0.33375700  1
  Zn  Zn1  1  0.33375700  0.99966900  0.99966900  1
  Zn  Zn2  1  0.99966900  0.33375700  0.99966900  1
  Ga  Ga3  1  0.65283500  0.65283500  0.65283500  1
  B  B4  1  0.24872000  0.75076700  0.50271600  1
  B  B5  1  0.24872000  0.50271600  0.75076700  1
  B  B6  1  0.50271600  0.75076700  0.24872000  1
  B  B7  1  0.50271600  0.24872000  0.75076700  1
  B  B8  1  0.75076700  0.50271600  0.24872000  1
  B  B9  1  0.75076700  0.24872000  0.50271600  1
  P  P10  1  0.99229000  0.99229000  0.99229000  1
  O  O11  1  0.00040000  0.56988000  0.28659100  1
  O  O12  1  0.43104600  0.70735600  0.43104600  1
  O  O13  1  0.29375700  0.72021300  0.72021300  1
  O  O14  1  0.28659100  0.00040000  0.56988000  1
  O  O15  1  0.28659100  0.56988000  0.00040000  1
  O  O16  1  0.43104600  0.43104600  0.70735600  1
  O  O17  1  0.72021300  0.29375700  0.72021300  1
  O  O18  1  0.56988000  0.00040000  0.28659100  1
  O  O19  1  0.56988000  0.28659100  0.00040000  1
  O  O20  1  0.70735600  0.43104600  0.43104600  1
  O  O21  1  0.72021300  0.72021300  0.29375700  1
  O  O22  1  0.00040000  0.28659100  0.56988000  1
