# generated using pymatgen
data_Tb(NiB)2
_symmetry_space_group_name_H-M   'P 1'
_cell_length_a   4.97205436
_cell_length_b   4.97205436
_cell_length_c   6.84796953
_cell_angle_alpha   59.45905867
_cell_angle_beta   59.45905867
_cell_angle_gamma   64.38262929
_symmetry_Int_Tables_number   1
_chemical_formula_structural   Tb(NiB)2
_chemical_formula_sum   'Tb2 Ni4 B4'
_cell_volume   122.06713570
_cell_formula_units_Z   2
loop_
 _symmetry_equiv_pos_site_id
 _symmetry_equiv_pos_as_xyz
  1  'x, y, z'
loop_
 _atom_site_type_symbol
 _atom_site_label
 _atom_site_symmetry_multiplicity
 _atom_site_fract_x
 _atom_site_fract_y
 _atom_site_fract_z
 _atom_site_occupancy
  Tb  Tb0  1  0.88189200  0.11810800  0.75000000  1
  Tb  Tb1  1  0.11810800  0.88189200  0.25000000  1
  Ni  Ni2  1  0.46792600  0.27935100  0.19978500  1
  Ni  Ni3  1  0.53207400  0.72064900  0.80021500  1
  Ni  Ni4  1  0.72064900  0.53207400  0.30021500  1
  Ni  Ni5  1  0.27935100  0.46792600  0.69978500  1
  B  B6  1  0.49518600  0.84578200  0.47569100  1
  B  B7  1  0.50481400  0.15421800  0.52430900  1
  B  B8  1  0.15421800  0.50481400  0.02430900  1
  B  B9  1  0.84578200  0.49518600  0.97569100  1
