# generated using pymatgen
data_CaGePt
_symmetry_space_group_name_H-M   'P 1'
_cell_length_a   4.44555900
_cell_length_b   7.23381000
_cell_length_c   7.50867000
_cell_angle_alpha   90.00000000
_cell_angle_beta   90.00000000
_cell_angle_gamma   90.00000000
_symmetry_Int_Tables_number   1
_chemical_formula_structural   CaGePt
_chemical_formula_sum   'Ca4 Ge4 Pt4'
_cell_volume   241.46628134
_cell_formula_units_Z   4
loop_
 _symmetry_equiv_pos_site_id
 _symmetry_equiv_pos_as_xyz
  1  'x, y, z'
loop_
 _atom_site_type_symbol
 _atom_site_label
 _atom_site_symmetry_multiplicity
 _atom_site_fract_x
 _atom_site_fract_y
 _atom_site_fract_z
 _atom_site_occupancy
  Ca  Ca0  1  0.75000000  0.00689600  0.69619300  1
  Ca  Ca1  1  0.25000000  0.99310400  0.30380700  1
  Ca  Ca2  1  0.75000000  0.50689600  0.80380700  1
  Ca  Ca3  1  0.25000000  0.49310400  0.19619300  1
  Ge  Ge4  1  0.75000000  0.68019200  0.41674100  1
  Ge  Ge5  1  0.25000000  0.31980800  0.58325900  1
  Ge  Ge6  1  0.75000000  0.18019200  0.08325900  1
  Ge  Ge7  1  0.25000000  0.81980800  0.91674100  1
  Pt  Pt8  1  0.75000000  0.80204000  0.09241000  1
  Pt  Pt9  1  0.25000000  0.19796000  0.90759000  1
  Pt  Pt10  1  0.75000000  0.30204000  0.40759000  1
  Pt  Pt11  1  0.25000000  0.69796000  0.59241000  1
