# generated using pymatgen
data_Mn
_symmetry_space_group_name_H-M   'P 1'
_cell_length_a   7.46383821
_cell_length_b   7.46383821
_cell_length_c   7.46383821
_cell_angle_alpha   109.47122063
_cell_angle_beta   109.47122063
_cell_angle_gamma   109.47122063
_symmetry_Int_Tables_number   1
_chemical_formula_structural   Mn
_chemical_formula_sum   Mn29
_cell_volume   320.08458536
_cell_formula_units_Z   29
loop_
 _symmetry_equiv_pos_site_id
 _symmetry_equiv_pos_as_xyz
  1  'x, y, z'
loop_
 _atom_site_type_symbol
 _atom_site_label
 _atom_site_symmetry_multiplicity
 _atom_site_fract_x
 _atom_site_fract_y
 _atom_site_fract_z
 _atom_site_occupancy
  Mn  Mn0  1  0.00000000  0.00000000  0.00000000  1
  Mn  Mn1  1  0.63757300  0.63757300  0.63757300  1
  Mn  Mn2  1  0.00000000  0.00000000  0.36242700  1
  Mn  Mn3  1  0.36242700  0.00000000  0.00000000  1
  Mn  Mn4  1  0.00000000  0.36242700  0.00000000  1
  Mn  Mn5  1  0.39167200  0.71240800  0.39167200  1
  Mn  Mn6  1  0.32073600  0.00000000  0.60832800  1
  Mn  Mn7  1  0.60832800  0.00000000  0.32073600  1
  Mn  Mn8  1  0.32073600  0.60832800  0.00000000  1
  Mn  Mn9  1  0.67926400  0.67926400  0.28759200  1
  Mn  Mn10  1  0.28759200  0.67926400  0.67926400  1
  Mn  Mn11  1  0.00000000  0.60832800  0.32073600  1
  Mn  Mn12  1  0.00000000  0.32073600  0.60832800  1
  Mn  Mn13  1  0.60832800  0.32073600  0.00000000  1
  Mn  Mn14  1  0.39167200  0.39167200  0.71240800  1
  Mn  Mn15  1  0.71240800  0.39167200  0.39167200  1
  Mn  Mn16  1  0.67926400  0.28759200  0.67926400  1
  Mn  Mn17  1  0.37160400  0.17811900  0.37160400  1
  Mn  Mn18  1  0.80651500  0.00000000  0.62839600  1
  Mn  Mn19  1  0.62839600  0.00000000  0.80651500  1
  Mn  Mn20  1  0.80651500  0.62839600  0.00000000  1
  Mn  Mn21  1  0.19348500  0.19348500  0.82188100  1
  Mn  Mn22  1  0.82188100  0.19348500  0.19348500  1
  Mn  Mn23  1  0.00000000  0.62839600  0.80651500  1
  Mn  Mn24  1  0.00000000  0.80651500  0.62839600  1
  Mn  Mn25  1  0.62839600  0.80651500  0.00000000  1
  Mn  Mn26  1  0.37160400  0.37160400  0.17811900  1
  Mn  Mn27  1  0.17811900  0.37160400  0.37160400  1
  Mn  Mn28  1  0.19348500  0.82188100  0.19348500  1
