# generated using pymatgen
data_RbGa3
_symmetry_space_group_name_H-M   'P 1'
_cell_length_a   8.85494511
_cell_length_b   8.85494511
_cell_length_c   8.85494511
_cell_angle_alpha   137.45273061
_cell_angle_beta   137.45273061
_cell_angle_gamma   61.74220937
_symmetry_Int_Tables_number   1
_chemical_formula_structural   RbGa3
_chemical_formula_sum   'Rb3 Ga9'
_cell_volume   313.80300256
_cell_formula_units_Z   3
loop_
 _symmetry_equiv_pos_site_id
 _symmetry_equiv_pos_as_xyz
  1  'x, y, z'
loop_
 _atom_site_type_symbol
 _atom_site_label
 _atom_site_symmetry_multiplicity
 _atom_site_fract_x
 _atom_site_fract_y
 _atom_site_fract_z
 _atom_site_occupancy
  Rb  Rb0  1  0.00000000  0.00000000  0.00000000  1
  Rb  Rb1  1  0.37208900  0.87208900  0.50000000  1
  Rb  Rb2  1  0.12791100  0.62791100  0.50000000  1
  Ga  Ga3  1  0.50000000  0.50000000  0.00000000  1
  Ga  Ga4  1  0.43072700  0.22324300  0.20748400  1
  Ga  Ga5  1  0.77675700  0.98424200  0.20748400  1
  Ga  Ga6  1  0.77675700  0.56927300  0.79251600  1
  Ga  Ga7  1  0.01575800  0.22324300  0.79251600  1
  Ga  Ga8  1  0.69729700  0.39122800  0.30606800  1
  Ga  Ga9  1  0.60877200  0.91484000  0.30606800  1
  Ga  Ga10  1  0.60877200  0.30270300  0.69393200  1
  Ga  Ga11  1  0.08516000  0.39122800  0.69393200  1
