# generated using pymatgen
data_KSnSb
_symmetry_space_group_name_H-M   'P 1'
_cell_length_a   4.44680244
_cell_length_b   4.44680244
_cell_length_c   13.29794000
_cell_angle_alpha   90.00000000
_cell_angle_beta   90.00000000
_cell_angle_gamma   120.00000647
_symmetry_Int_Tables_number   1
_chemical_formula_structural   KSnSb
_chemical_formula_sum   'K2 Sn2 Sb2'
_cell_volume   227.72496399
_cell_formula_units_Z   2
loop_
 _symmetry_equiv_pos_site_id
 _symmetry_equiv_pos_as_xyz
  1  'x, y, z'
loop_
 _atom_site_type_symbol
 _atom_site_label
 _atom_site_symmetry_multiplicity
 _atom_site_fract_x
 _atom_site_fract_y
 _atom_site_fract_z
 _atom_site_occupancy
  K  K0  1  0.33333300  0.66666700  0.99951100  1
  K  K1  1  0.66666700  0.33333300  0.49951100  1
  Sn  Sn2  1  0.00000000  0.00000000  0.29664100  1
  Sn  Sn3  1  0.00000000  0.00000000  0.79664100  1
  Sb  Sb4  1  0.33333300  0.66666700  0.68834800  1
  Sb  Sb5  1  0.66666700  0.33333300  0.18834800  1
