# generated using pymatgen
data_Nd(C2N3)3
_symmetry_space_group_name_H-M   'P 1'
_cell_length_a   7.11742440
_cell_length_b   7.11742440
_cell_length_c   10.55986400
_cell_angle_alpha   90.00000000
_cell_angle_beta   90.00000000
_cell_angle_gamma   113.06153644
_symmetry_Int_Tables_number   1
_chemical_formula_structural   Nd(C2N3)3
_chemical_formula_sum   'Nd2 C12 N18'
_cell_volume   492.18893516
_cell_formula_units_Z   2
loop_
 _symmetry_equiv_pos_site_id
 _symmetry_equiv_pos_as_xyz
  1  'x, y, z'
loop_
 _atom_site_type_symbol
 _atom_site_label
 _atom_site_symmetry_multiplicity
 _atom_site_fract_x
 _atom_site_fract_y
 _atom_site_fract_z
 _atom_site_occupancy
  Nd  Nd0  1  0.71506600  0.28493400  0.75000000  1
  Nd  Nd1  1  0.28493400  0.71506600  0.25000000  1
  C  C2  1  0.73059600  0.55658400  0.25000000  1
  C  C3  1  0.99902300  0.29010200  0.44708700  1
  C  C4  1  0.00097700  0.70989800  0.94708700  1
  C  C5  1  0.26940400  0.44341600  0.75000000  1
  C  C6  1  0.55658400  0.73059600  0.75000000  1
  C  C7  1  0.44341600  0.26940400  0.25000000  1
  C  C8  1  0.29010200  0.99902300  0.94708700  1
  C  C9  1  0.70989800  0.00097700  0.44708700  1
  C  C10  1  0.99902300  0.29010200  0.05291300  1
  C  C11  1  0.00097700  0.70989800  0.55291300  1
  C  C12  1  0.70989800  0.00097700  0.05291300  1
  C  C13  1  0.29010200  0.99902300  0.55291300  1
  N  N14  1  0.14129700  0.42018800  0.40091300  1
  N  N15  1  0.85870300  0.57981200  0.90091300  1
  N  N16  1  0.53199700  0.46800300  0.25000000  1
  N  N17  1  0.46800300  0.53199700  0.75000000  1
  N  N18  1  0.90920600  0.64520100  0.25000000  1
  N  N19  1  0.09079400  0.35479900  0.75000000  1
  N  N20  1  0.64520100  0.90920600  0.75000000  1
  N  N21  1  0.35479900  0.09079400  0.25000000  1
  N  N22  1  0.15569500  0.84430500  0.00627000  1
  N  N23  1  0.84430500  0.15569500  0.50627000  1
  N  N24  1  0.84430500  0.15569500  0.99373000  1
  N  N25  1  0.15569500  0.84430500  0.49373000  1
  N  N26  1  0.42018800  0.14129700  0.90091300  1
  N  N27  1  0.57981200  0.85870300  0.40091300  1
  N  N28  1  0.14129700  0.42018800  0.09908700  1
  N  N29  1  0.85870300  0.57981200  0.59908700  1
  N  N30  1  0.57981200  0.85870300  0.09908700  1
  N  N31  1  0.42018800  0.14129700  0.59908700  1
