# generated using pymatgen
data_Ba4Y3F17
_symmetry_space_group_name_H-M   'P 1'
_cell_length_a   9.42530200
_cell_length_b   9.42853980
_cell_length_c   9.48029443
_cell_angle_alpha   72.79899201
_cell_angle_beta   72.98952047
_cell_angle_gamma   73.00219391
_symmetry_Int_Tables_number   1
_chemical_formula_structural   Ba4Y3F17
_chemical_formula_sum   'Ba8 Y6 F34'
_cell_volume   749.80355972
_cell_formula_units_Z   2
loop_
 _symmetry_equiv_pos_site_id
 _symmetry_equiv_pos_as_xyz
  1  'x, y, z'
loop_
 _atom_site_type_symbol
 _atom_site_label
 _atom_site_symmetry_multiplicity
 _atom_site_fract_x
 _atom_site_fract_y
 _atom_site_fract_z
 _atom_site_occupancy
  Ba  Ba0  1  0.10830400  0.68846200  0.95313900  1
  Ba  Ba1  1  0.73095300  0.73580900  0.73332500  1
  Ba  Ba2  1  0.94231500  0.11464900  0.68549000  1
  Ba  Ba3  1  0.31287300  0.05215600  0.88872800  1
  Ba  Ba4  1  0.68574900  0.94485000  0.11636500  1
  Ba  Ba5  1  0.04971500  0.88630800  0.31448700  1
  Ba  Ba6  1  0.26230100  0.26907200  0.26791700  1
  Ba  Ba7  1  0.88752400  0.31214600  0.05461700  1
  Y  Y8  1  0.53152500  0.39124700  0.83761300  1
  Y  Y9  1  0.39076100  0.83942500  0.53209300  1
  Y  Y10  1  0.16008100  0.46929600  0.60903800  1
  Y  Y11  1  0.81339800  0.52680100  0.39260200  1
  Y  Y12  1  0.60891100  0.18317000  0.46485600  1
  Y  Y13  1  0.47297200  0.60491400  0.17461200  1
  F  F14  1  0.00129600  0.99480800  0.00463000  1
  F  F15  1  0.54411400  0.81732200  0.98810500  1
  F  F16  1  0.86026800  0.86342100  0.86230700  1
  F  F17  1  0.63641600  0.51120400  0.95750400  1
  F  F18  1  0.98795600  0.54738800  0.81720600  1
  F  F19  1  0.73535500  0.21741100  0.91616900  1
  F  F20  1  0.81195900  0.98844100  0.54828300  1
  F  F21  1  0.50806400  0.96461400  0.63747900  1
  F  F22  1  0.21760500  0.91329800  0.73630100  1
  F  F23  1  0.45670700  0.65030800  0.73392200  1
  F  F24  1  0.30553500  0.41092600  0.78621500  1
  F  F25  1  0.74018800  0.45168900  0.65514700  1
  F  F26  1  0.95678100  0.63956300  0.51485100  1
  F  F27  1  0.59276400  0.20805700  0.69988500  1
  F  F28  1  0.08506800  0.26373200  0.78195000  1
  F  F29  1  0.64876500  0.74319600  0.45469100  1
  F  F30  1  0.21398600  0.69586200  0.58423200  1
  F  F31  1  0.56666700  0.47536800  0.44582900  1
  F  F32  1  0.82337700  0.27995700  0.40357000  1
  F  F33  1  0.34835000  0.26602200  0.54352400  1
  F  F34  1  0.90911700  0.73136100  0.22664000  1
  F  F35  1  0.41672200  0.79382500  0.30178600  1
  F  F36  1  0.03789000  0.36467100  0.49104500  1
  F  F37  1  0.26392900  0.54323200  0.35149500  1
  F  F38  1  0.71456900  0.59612800  0.17849500  1
  F  F39  1  0.54825000  0.34182700  0.24490800  1
  F  F40  1  0.77840500  0.08601600  0.26664400  1
  F  F41  1  0.48613300  0.04496800  0.36307200  1
  F  F42  1  0.18188900  0.01245100  0.45438500  1
  F  F43  1  0.26670400  0.77645000  0.09240200  1
  F  F44  1  0.01127100  0.45354300  0.18384400  1
  F  F45  1  0.35977800  0.49021400  0.04022200  1
  F  F46  1  0.13953200  0.13669900  0.13777500  1
  F  F47  1  0.45150700  0.18442100  0.01310600  1
