# generated using pymatgen
data_CaAl9Ni
_symmetry_space_group_name_H-M   'P 1'
_cell_length_a   7.55400678
_cell_length_b   7.55400678
_cell_length_c   7.97031300
_cell_angle_alpha   90.00000000
_cell_angle_beta   90.00000000
_cell_angle_gamma   120.00000685
_symmetry_Int_Tables_number   1
_chemical_formula_structural   CaAl9Ni
_chemical_formula_sum   'Ca2 Al18 Ni2'
_cell_volume   393.87708883
_cell_formula_units_Z   2
loop_
 _symmetry_equiv_pos_site_id
 _symmetry_equiv_pos_as_xyz
  1  'x, y, z'
loop_
 _atom_site_type_symbol
 _atom_site_label
 _atom_site_symmetry_multiplicity
 _atom_site_fract_x
 _atom_site_fract_y
 _atom_site_fract_z
 _atom_site_occupancy
  Ca  Ca0  1  0.00000000  0.00000000  0.25000000  1
  Ca  Ca1  1  0.00000000  0.00000000  0.75000000  1
  Al  Al2  1  0.47569000  0.95138000  0.25000000  1
  Al  Al3  1  0.52431000  0.47569000  0.75000000  1
  Al  Al4  1  0.95138000  0.47569000  0.75000000  1
  Al  Al5  1  0.04862000  0.52431000  0.25000000  1
  Al  Al6  1  0.47569000  0.52431000  0.25000000  1
  Al  Al7  1  0.52431000  0.04862000  0.75000000  1
  Al  Al8  1  0.20817900  0.41635800  0.51616600  1
  Al  Al9  1  0.79182100  0.20817900  0.01616600  1
  Al  Al10  1  0.41635800  0.20817900  0.01616600  1
  Al  Al11  1  0.58364200  0.79182100  0.51616600  1
  Al  Al12  1  0.20817900  0.79182100  0.51616600  1
  Al  Al13  1  0.79182100  0.58364200  0.48383400  1
  Al  Al14  1  0.79182100  0.20817900  0.48383400  1
  Al  Al15  1  0.79182100  0.58364200  0.01616600  1
  Al  Al16  1  0.41635800  0.20817900  0.48383400  1
  Al  Al17  1  0.58364200  0.79182100  0.98383400  1
  Al  Al18  1  0.20817900  0.41635800  0.98383400  1
  Al  Al19  1  0.20817900  0.79182100  0.98383400  1
  Ni  Ni20  1  0.33333300  0.66666700  0.75000000  1
  Ni  Ni21  1  0.66666700  0.33333300  0.25000000  1
