# generated using pymatgen
data_RbFe2S3
_symmetry_space_group_name_H-M   'P 1'
_cell_length_a   7.36937058
_cell_length_b   7.36937058
_cell_length_c   5.16447700
_cell_angle_alpha   90.00000000
_cell_angle_beta   90.00000000
_cell_angle_gamma   103.45616952
_symmetry_Int_Tables_number   1
_chemical_formula_structural   RbFe2S3
_chemical_formula_sum   'Rb2 Fe4 S6'
_cell_volume   272.77105433
_cell_formula_units_Z   2
loop_
 _symmetry_equiv_pos_site_id
 _symmetry_equiv_pos_as_xyz
  1  'x, y, z'
loop_
 _atom_site_type_symbol
 _atom_site_label
 _atom_site_symmetry_multiplicity
 _atom_site_fract_x
 _atom_site_fract_y
 _atom_site_fract_z
 _atom_site_occupancy
  Rb  Rb0  1  0.67597400  0.32402600  0.25000000  1
  Rb  Rb1  1  0.32402600  0.67597400  0.75000000  1
  Fe  Fe2  1  0.13908900  0.13908900  0.00000000  1
  Fe  Fe3  1  0.86091100  0.86091100  0.00000000  1
  Fe  Fe4  1  0.86091100  0.86091100  0.50000000  1
  Fe  Fe5  1  0.13908900  0.13908900  0.50000000  1
  S  S6  1  0.83435700  0.62747600  0.75000000  1
  S  S7  1  0.16564300  0.37252400  0.25000000  1
  S  S8  1  0.62747600  0.83435700  0.25000000  1
  S  S9  1  0.37252400  0.16564300  0.75000000  1
  S  S10  1  0.89487800  0.10512200  0.75000000  1
  S  S11  1  0.10512200  0.89487800  0.25000000  1
