# generated using pymatgen
data_SrAg
_symmetry_space_group_name_H-M   'P 1'
_cell_length_a   4.86451600
_cell_length_b   6.40569300
_cell_length_c   16.61714200
_cell_angle_alpha   90.00000000
_cell_angle_beta   90.00000000
_cell_angle_gamma   90.00000000
_symmetry_Int_Tables_number   1
_chemical_formula_structural   SrAg
_chemical_formula_sum   'Sr8 Ag8'
_cell_volume   517.80005003
_cell_formula_units_Z   8
loop_
 _symmetry_equiv_pos_site_id
 _symmetry_equiv_pos_as_xyz
  1  'x, y, z'
loop_
 _atom_site_type_symbol
 _atom_site_label
 _atom_site_symmetry_multiplicity
 _atom_site_fract_x
 _atom_site_fract_y
 _atom_site_fract_z
 _atom_site_occupancy
  Sr  Sr0  1  0.25000000  0.75409800  0.53477900  1
  Sr  Sr1  1  0.75000000  0.24590200  0.46522100  1
  Sr  Sr2  1  0.75000000  0.25409800  0.96522100  1
  Sr  Sr3  1  0.25000000  0.74590200  0.03477900  1
  Sr  Sr4  1  0.25000000  0.98747400  0.78504700  1
  Sr  Sr5  1  0.75000000  0.01252600  0.21495300  1
  Sr  Sr6  1  0.75000000  0.48747400  0.71495300  1
  Sr  Sr7  1  0.25000000  0.51252600  0.28504700  1
  Ag  Ag8  1  0.25000000  0.24357300  0.60762200  1
  Ag  Ag9  1  0.75000000  0.75642700  0.39237800  1
  Ag  Ag10  1  0.75000000  0.74357300  0.89237800  1
  Ag  Ag11  1  0.25000000  0.25642700  0.10762200  1
  Ag  Ag12  1  0.25000000  0.49669500  0.85707600  1
  Ag  Ag13  1  0.75000000  0.50330500  0.14292400  1
  Ag  Ag14  1  0.75000000  0.99669500  0.64292400  1
  Ag  Ag15  1  0.25000000  0.00330500  0.35707600  1
