# generated using pymatgen
data_Sr3Te4O11
_symmetry_space_group_name_H-M   'P 1'
_cell_length_a   7.69802300
_cell_length_b   9.45635162
_cell_length_c   9.74094326
_cell_angle_alpha   98.43048452
_cell_angle_beta   110.03180238
_cell_angle_gamma   100.96704781
_symmetry_Int_Tables_number   1
_chemical_formula_structural   Sr3Te4O11
_chemical_formula_sum   'Sr6 Te8 O22'
_cell_volume   636.55552862
_cell_formula_units_Z   2
loop_
 _symmetry_equiv_pos_site_id
 _symmetry_equiv_pos_as_xyz
  1  'x, y, z'
loop_
 _atom_site_type_symbol
 _atom_site_label
 _atom_site_symmetry_multiplicity
 _atom_site_fract_x
 _atom_site_fract_y
 _atom_site_fract_z
 _atom_site_occupancy
  Sr  Sr0  1  0.29326100  0.03952900  0.11737700  1
  Sr  Sr1  1  0.70673900  0.96047100  0.88262300  1
  Sr  Sr2  1  0.86133600  0.07853600  0.32260600  1
  Sr  Sr3  1  0.13866400  0.92146400  0.67739400  1
  Sr  Sr4  1  0.30994000  0.53333800  0.61981900  1
  Sr  Sr5  1  0.69006000  0.46666200  0.38018100  1
  Te  Te6  1  0.07233700  0.35644800  0.20227400  1
  Te  Te7  1  0.92766300  0.64355200  0.79772600  1
  Te  Te8  1  0.01483400  0.25084300  0.77333700  1
  Te  Te9  1  0.98516600  0.74915700  0.22666300  1
  Te  Te10  1  0.46549400  0.69921700  0.04461300  1
  Te  Te11  1  0.53450600  0.30078300  0.95538700  1
  Te  Te12  1  0.49844800  0.80760300  0.46025000  1
  Te  Te13  1  0.50155200  0.19239700  0.53975000  1
  O  O14  1  0.99022700  0.55722300  0.63956400  1
  O  O15  1  0.00977300  0.44277700  0.36043600  1
  O  O16  1  0.43190800  0.60010500  0.39470000  1
  O  O17  1  0.56809200  0.39989500  0.60530000  1
  O  O18  1  0.82840400  0.21593900  0.09708300  1
  O  O19  1  0.17159600  0.78406100  0.90291700  1
  O  O20  1  0.70528800  0.14304300  0.69234500  1
  O  O21  1  0.29471200  0.85695700  0.30765500  1
  O  O22  1  0.39469100  0.81596700  0.61002300  1
  O  O23  1  0.60530900  0.18403300  0.38997700  1
  O  O24  1  0.02714600  0.14589500  0.59945000  1
  O  O25  1  0.97285400  0.85410500  0.40055000  1
  O  O26  1  0.47535000  0.30497700  0.12636500  1
  O  O27  1  0.52465000  0.69502300  0.87363500  1
  O  O28  1  0.56136900  0.90509100  0.12757400  1
  O  O29  1  0.43863100  0.09490900  0.87242600  1
  O  O30  1  0.95192100  0.89463300  0.11341700  1
  O  O31  1  0.04807900  0.10536700  0.88658300  1
  O  O32  1  0.19017600  0.22098300  0.29978800  1
  O  O33  1  0.80982400  0.77901700  0.70021200  1
  O  O34  1  0.69506900  0.63828100  0.16437000  1
  O  O35  1  0.30493100  0.36171900  0.83563000  1
