# generated using pymatgen
data_HoTlPd
_symmetry_space_group_name_H-M   'P 1'
_cell_length_a   7.86954088
_cell_length_b   7.86954088
_cell_length_c   3.76704300
_cell_angle_alpha   90.00000000
_cell_angle_beta   90.00000000
_cell_angle_gamma   119.99999062
_symmetry_Int_Tables_number   1
_chemical_formula_structural   HoTlPd
_chemical_formula_sum   'Ho3 Tl3 Pd3'
_cell_volume   202.03659582
_cell_formula_units_Z   3
loop_
 _symmetry_equiv_pos_site_id
 _symmetry_equiv_pos_as_xyz
  1  'x, y, z'
loop_
 _atom_site_type_symbol
 _atom_site_label
 _atom_site_symmetry_multiplicity
 _atom_site_fract_x
 _atom_site_fract_y
 _atom_site_fract_z
 _atom_site_occupancy
  Ho  Ho0  1  0.59853000  0.00000000  0.50000000  1
  Ho  Ho1  1  0.40147000  0.40147000  0.50000000  1
  Ho  Ho2  1  0.00000000  0.59853000  0.50000000  1
  Tl  Tl3  1  0.26835300  0.00000000  0.00000000  1
  Tl  Tl4  1  0.73164700  0.73164700  0.00000000  1
  Tl  Tl5  1  0.00000000  0.26835300  0.00000000  1
  Pd  Pd6  1  0.33333300  0.66666700  0.00000000  1
  Pd  Pd7  1  0.66666700  0.33333300  0.00000000  1
  Pd  Pd8  1  0.00000000  0.00000000  0.50000000  1
