# generated using pymatgen
data_SiPd
_symmetry_space_group_name_H-M   'P 1'
_cell_length_a   3.46907400
_cell_length_b   5.64505600
_cell_length_c   6.16173900
_cell_angle_alpha   90.00000000
_cell_angle_beta   90.00000000
_cell_angle_gamma   90.00000000
_symmetry_Int_Tables_number   1
_chemical_formula_structural   SiPd
_chemical_formula_sum   'Si4 Pd4'
_cell_volume   120.66605575
_cell_formula_units_Z   4
loop_
 _symmetry_equiv_pos_site_id
 _symmetry_equiv_pos_as_xyz
  1  'x, y, z'
loop_
 _atom_site_type_symbol
 _atom_site_label
 _atom_site_symmetry_multiplicity
 _atom_site_fract_x
 _atom_site_fract_y
 _atom_site_fract_z
 _atom_site_occupancy
  Si  Si0  1  0.25000000  0.67681000  0.07272500  1
  Si  Si1  1  0.75000000  0.32319000  0.92727500  1
  Si  Si2  1  0.25000000  0.17681000  0.42727500  1
  Si  Si3  1  0.75000000  0.82319000  0.57272500  1
  Pd  Pd4  1  0.25000000  0.50399000  0.69087700  1
  Pd  Pd5  1  0.75000000  0.49601000  0.30912300  1
  Pd  Pd6  1  0.25000000  0.00399000  0.80912300  1
  Pd  Pd7  1  0.75000000  0.99601000  0.19087700  1
