# generated using pymatgen
data_K3ErCl6
_symmetry_space_group_name_H-M   'P 1'
_cell_length_a   7.82128600
_cell_length_b   12.79713500
_cell_length_c   13.23078249
_cell_angle_alpha   69.93592137
_cell_angle_beta   90.00000000
_cell_angle_gamma   90.00000000
_symmetry_Int_Tables_number   1
_chemical_formula_structural   K3ErCl6
_chemical_formula_sum   'K12 Er4 Cl24'
_cell_volume   1243.89915838
_cell_formula_units_Z   4
loop_
 _symmetry_equiv_pos_site_id
 _symmetry_equiv_pos_as_xyz
  1  'x, y, z'
loop_
 _atom_site_type_symbol
 _atom_site_label
 _atom_site_symmetry_multiplicity
 _atom_site_fract_x
 _atom_site_fract_y
 _atom_site_fract_z
 _atom_site_occupancy
  K  K0  1  0.57529300  0.89044000  0.82371600  1
  K  K1  1  0.07529300  0.60956000  0.17628400  1
  K  K2  1  0.42470700  0.10956000  0.17628400  1
  K  K3  1  0.92470700  0.39044000  0.82371600  1
  K  K4  1  0.05407700  0.73277200  0.81093900  1
  K  K5  1  0.55407700  0.76722800  0.18906100  1
  K  K6  1  0.94592300  0.26722800  0.18906100  1
  K  K7  1  0.44592300  0.23277200  0.81093900  1
  K  K8  1  0.46360300  0.62958200  0.60868400  1
  K  K9  1  0.96360300  0.87041800  0.39131600  1
  K  K10  1  0.53639700  0.37041800  0.39131600  1
  K  K11  1  0.03639700  0.12958200  0.60868400  1
  Er  Er12  1  0.00000000  0.50000000  0.50000000  1
  Er  Er13  1  0.50000000  0.00000000  0.50000000  1
  Er  Er14  1  0.50000000  0.50000000  0.00000000  1
  Er  Er15  1  0.00000000  0.00000000  0.00000000  1
  Cl  Cl16  1  0.16784500  0.35044200  0.65203600  1
  Cl  Cl17  1  0.66784500  0.14955800  0.34796400  1
  Cl  Cl18  1  0.83215500  0.64955800  0.34796400  1
  Cl  Cl19  1  0.33215500  0.85044200  0.65203600  1
  Cl  Cl20  1  0.71001300  0.42597300  0.60613800  1
  Cl  Cl21  1  0.21001300  0.07402700  0.39386200  1
  Cl  Cl22  1  0.28998700  0.57402700  0.39386200  1
  Cl  Cl23  1  0.78998700  0.92597300  0.60613800  1
  Cl  Cl24  1  0.03214400  0.64256500  0.60005500  1
  Cl  Cl25  1  0.53214400  0.85743500  0.39994500  1
  Cl  Cl26  1  0.96785600  0.35743500  0.39994500  1
  Cl  Cl27  1  0.46785600  0.14256500  0.60005500  1
  Cl  Cl28  1  0.70324100  0.60640700  0.83852800  1
  Cl  Cl29  1  0.20324100  0.89359300  0.16147200  1
  Cl  Cl30  1  0.29675900  0.39359300  0.16147200  1
  Cl  Cl31  1  0.79675900  0.10640700  0.83852800  1
  Cl  Cl32  1  0.87141800  0.80955300  0.99690300  1
  Cl  Cl33  1  0.37141800  0.69044700  0.00309700  1
  Cl  Cl34  1  0.12858200  0.19044700  0.00309700  1
  Cl  Cl35  1  0.62858200  0.30955300  0.99690300  1
  Cl  Cl36  1  0.77125500  0.99863800  0.14468400  1
  Cl  Cl37  1  0.27125500  0.50136200  0.85531600  1
  Cl  Cl38  1  0.22874500  0.00136200  0.85531600  1
  Cl  Cl39  1  0.72874500  0.49863800  0.14468400  1
