# generated using pymatgen
data_Ca11Al14O32
_symmetry_space_group_name_H-M   'P 1'
_cell_length_a   10.48794626
_cell_length_b   10.48794626
_cell_length_c   12.05848394
_cell_angle_alpha   54.90173051
_cell_angle_beta   54.90173051
_cell_angle_gamma   70.46515438
_symmetry_Int_Tables_number   1
_chemical_formula_structural   Ca11Al14O32
_chemical_formula_sum   'Ca11 Al14 O32'
_cell_volume   887.87271020
_cell_formula_units_Z   1
loop_
 _symmetry_equiv_pos_site_id
 _symmetry_equiv_pos_as_xyz
  1  'x, y, z'
loop_
 _atom_site_type_symbol
 _atom_site_label
 _atom_site_symmetry_multiplicity
 _atom_site_fract_x
 _atom_site_fract_y
 _atom_site_fract_z
 _atom_site_occupancy
  Ca  Ca0  1  0.63402400  0.14080200  0.36421800  1
  Ca  Ca1  1  0.74611100  0.74836900  0.13709900  1
  Ca  Ca2  1  0.25163100  0.25388900  0.86290100  1
  Ca  Ca3  1  0.12096400  0.61168700  0.87879400  1
  Ca  Ca4  1  0.88263100  0.11736900  0.50000000  1
  Ca  Ca5  1  0.85919800  0.36597600  0.63578200  1
  Ca  Ca6  1  0.75005100  0.74943000  0.61341300  1
  Ca  Ca7  1  0.13578100  0.86421900  0.00000000  1
  Ca  Ca8  1  0.25057000  0.24994900  0.38658700  1
  Ca  Ca9  1  0.61049000  0.38951000  0.00000000  1
  Ca  Ca10  1  0.38831300  0.87903600  0.12120600  1
  Al  Al11  1  0.87439500  0.12560500  0.00000000  1
  Al  Al12  1  0.53396200  0.00083000  0.71567200  1
  Al  Al13  1  0.37632900  0.87443700  0.62273600  1
  Al  Al14  1  0.62137600  0.37862400  0.50000000  1
  Al  Al15  1  0.03349600  0.00025100  0.21608900  1
  Al  Al16  1  0.99974900  0.96650400  0.78391100  1
  Al  Al17  1  0.99917100  0.46603800  0.28432800  1
  Al  Al18  1  0.24959000  0.24875900  0.12656700  1
  Al  Al19  1  0.46596700  0.49930200  0.74816300  1
  Al  Al20  1  0.12556300  0.62367100  0.37726400  1
  Al  Al21  1  0.50660800  0.04049500  0.24046000  1
  Al  Al22  1  0.50069800  0.53403300  0.25183700  1
  Al  Al23  1  0.75124100  0.75041000  0.87343300  1
  Al  Al24  1  0.95950500  0.49339200  0.75954000  1
  O  O25  1  0.41210400  0.01729500  0.43113900  1
  O  O26  1  0.68791600  0.12236600  0.15560000  1
  O  O27  1  0.61352100  0.51049100  0.32851800  1
  O  O28  1  0.61266500  0.18589400  0.54600400  1
  O  O29  1  0.38221000  0.68248900  0.67377700  1
  O  O30  1  0.48950900  0.38647900  0.67148200  1
  O  O31  1  0.02074900  0.09006200  0.04391700  1
  O  O32  1  0.90948300  0.79582900  0.85865200  1
  O  O33  1  0.09624200  0.46676700  0.80679800  1
  O  O34  1  0.90993800  0.97925100  0.95608300  1
  O  O35  1  0.81410600  0.38733500  0.45399600  1
  O  O36  1  0.52224300  0.91273200  0.63108400  1
  O  O37  1  0.00607500  0.63280100  0.11534300  1
  O  O38  1  0.20417100  0.09051700  0.14134800  1
  O  O39  1  0.18827800  0.89814600  0.76257100  1
  O  O40  1  0.09226700  0.29321800  0.27175300  1
  O  O41  1  0.29728100  0.40291900  0.93793600  1
  O  O42  1  0.86713900  0.00377000  0.38107100  1
  O  O43  1  0.99623000  0.13286100  0.61892900  1
  O  O44  1  0.70678200  0.90773300  0.72824700  1
  O  O45  1  0.08726800  0.47775700  0.36891600  1
  O  O46  1  0.10185400  0.81172200  0.23742900  1
  O  O47  1  0.98270500  0.58789600  0.56886100  1
  O  O48  1  0.40386600  0.21233900  0.16032900  1
  O  O49  1  0.36719900  0.99392500  0.88465700  1
  O  O50  1  0.63283500  0.50376700  0.74776900  1
  O  O51  1  0.31751100  0.61779000  0.32622300  1
  O  O52  1  0.49623300  0.36716500  0.25223100  1
  O  O53  1  0.59708100  0.70271900  0.06206400  1
  O  O54  1  0.87763400  0.31208400  0.84440000  1
  O  O55  1  0.78766100  0.59613400  0.83967100  1
  O  O56  1  0.53323300  0.90375800  0.19320200  1
