# generated using pymatgen
data_Ce3Ga4Cl
_symmetry_space_group_name_H-M   'P 1'
_cell_length_a   7.94607332
_cell_length_b   7.94607332
_cell_length_c   7.94607332
_cell_angle_alpha   119.40896075
_cell_angle_beta   119.40896075
_cell_angle_gamma   91.02679524
_symmetry_Int_Tables_number   1
_chemical_formula_structural   Ce3Ga4Cl
_chemical_formula_sum   'Ce6 Ga8 Cl2'
_cell_volume   357.87370341
_cell_formula_units_Z   2
loop_
 _symmetry_equiv_pos_site_id
 _symmetry_equiv_pos_as_xyz
  1  'x, y, z'
loop_
 _atom_site_type_symbol
 _atom_site_label
 _atom_site_symmetry_multiplicity
 _atom_site_fract_x
 _atom_site_fract_y
 _atom_site_fract_z
 _atom_site_occupancy
  Ce  Ce0  1  0.84051100  0.65948900  0.50000000  1
  Ce  Ce1  1  0.65948900  0.15948900  0.81897800  1
  Ce  Ce2  1  0.34051100  0.84051100  0.18102200  1
  Ce  Ce3  1  0.15948900  0.34051100  0.50000000  1
  Ce  Ce4  1  0.25000000  0.25000000  0.00000000  1
  Ce  Ce5  1  0.75000000  0.75000000  0.00000000  1
  Ga  Ga6  1  0.16230500  0.94977900  0.50000000  1
  Ga  Ga7  1  0.44977900  0.66230500  0.50000000  1
  Ga  Ga8  1  0.55022100  0.33769500  0.50000000  1
  Ga  Ga9  1  0.66230500  0.16230500  0.21252600  1
  Ga  Ga10  1  0.83769500  0.05022100  0.50000000  1
  Ga  Ga11  1  0.05022100  0.55022100  0.21252600  1
  Ga  Ga12  1  0.33769500  0.83769500  0.78747400  1
  Ga  Ga13  1  0.94977900  0.44977900  0.78747400  1
  Cl  Cl14  1  0.00000000  0.00000000  0.00000000  1
  Cl  Cl15  1  0.50000000  0.50000000  0.00000000  1
