# generated using pymatgen
data_Al4(B2O5)3
_symmetry_space_group_name_H-M   'P 1'
_cell_length_a   7.03441354
_cell_length_b   7.03441354
_cell_length_c   7.03441361
_cell_angle_alpha   110.88497068
_cell_angle_beta   110.88497068
_cell_angle_gamma   110.88497234
_symmetry_Int_Tables_number   1
_chemical_formula_structural   Al4(B2O5)3
_chemical_formula_sum   'Al4 B6 O15'
_cell_volume   252.96058516
_cell_formula_units_Z   1
loop_
 _symmetry_equiv_pos_site_id
 _symmetry_equiv_pos_as_xyz
  1  'x, y, z'
loop_
 _atom_site_type_symbol
 _atom_site_label
 _atom_site_symmetry_multiplicity
 _atom_site_fract_x
 _atom_site_fract_y
 _atom_site_fract_z
 _atom_site_occupancy
  Al  Al0  1  0.08532400  0.80309700  0.29196600  1
  Al  Al1  1  0.80309700  0.29196600  0.08532400  1
  Al  Al2  1  0.29196600  0.08532400  0.80309700  1
  Al  Al3  1  0.00144200  0.00144200  0.00144200  1
  B  B4  1  0.17388100  0.27255500  0.50011000  1
  B  B5  1  0.27255500  0.50011000  0.17388100  1
  B  B6  1  0.50011000  0.17388100  0.27255500  1
  B  B7  1  0.59901700  0.52424100  0.85777600  1
  B  B8  1  0.52424100  0.85777600  0.59901700  1
  B  B9  1  0.85777600  0.59901700  0.52424100  1
  O  O10  1  0.07628000  0.52404300  0.10476600  1
  O  O11  1  0.69006500  0.39347300  0.49875500  1
  O  O12  1  0.49875500  0.69006500  0.39347300  1
  O  O13  1  0.39347300  0.49875500  0.69006500  1
  O  O14  1  0.10476600  0.07628000  0.52404300  1
  O  O15  1  0.23913000  0.28007400  0.02794600  1
  O  O16  1  0.02794600  0.23913000  0.28007400  1
  O  O17  1  0.01549500  0.82514800  0.74277100  1
  O  O18  1  0.74277100  0.01549500  0.82514800  1
  O  O19  1  0.82514800  0.74277100  0.01549500  1
  O  O20  1  0.57739100  0.33397900  0.87957600  1
  O  O21  1  0.87957600  0.57739100  0.33397900  1
  O  O22  1  0.33397900  0.87957600  0.57739100  1
  O  O23  1  0.28007400  0.02794600  0.23913000  1
  O  O24  1  0.52404300  0.10476600  0.07628000  1
