# generated using pymatgen
data_AgTe4Au
_symmetry_space_group_name_H-M   'P 1'
_cell_length_a   4.57816800
_cell_length_b   9.06789900
_cell_length_c   10.27568270
_cell_angle_alpha   56.06524685
_cell_angle_beta   90.00000000
_cell_angle_gamma   90.00000000
_symmetry_Int_Tables_number   1
_chemical_formula_structural   AgTe4Au
_chemical_formula_sum   'Ag2 Te8 Au2'
_cell_volume   353.92926605
_cell_formula_units_Z   2
loop_
 _symmetry_equiv_pos_site_id
 _symmetry_equiv_pos_as_xyz
  1  'x, y, z'
loop_
 _atom_site_type_symbol
 _atom_site_label
 _atom_site_symmetry_multiplicity
 _atom_site_fract_x
 _atom_site_fract_y
 _atom_site_fract_z
 _atom_site_occupancy
  Ag  Ag0  1  0.48001200  0.50000000  0.25000000  1
  Ag  Ag1  1  0.51998800  0.50000000  0.75000000  1
  Te  Te2  1  0.39953900  0.80667400  0.45478500  1
  Te  Te3  1  0.39953900  0.19332600  0.04521500  1
  Te  Te4  1  0.96889000  0.29682200  0.70507300  1
  Te  Te5  1  0.96889000  0.70317800  0.79492700  1
  Te  Te6  1  0.03111000  0.70317800  0.29492700  1
  Te  Te7  1  0.03111000  0.29682200  0.20507300  1
  Te  Te8  1  0.60046100  0.80667400  0.95478500  1
  Te  Te9  1  0.60046100  0.19332600  0.54521500  1
  Au  Au10  1  0.00000000  0.00000000  0.50000000  1
  Au  Au11  1  0.00000000  0.00000000  0.00000000  1
