# generated using pymatgen
data_Sr(NdSe2)2
_symmetry_space_group_name_H-M   'P 1'
_cell_length_a   7.85567347
_cell_length_b   7.85567347
_cell_length_c   7.85567347
_cell_angle_alpha   109.45450113
_cell_angle_beta   109.45450113
_cell_angle_gamma   109.50466482
_symmetry_Int_Tables_number   1
_chemical_formula_structural   Sr(NdSe2)2
_chemical_formula_sum   'Sr2 Nd4 Se8'
_cell_volume   373.18851357
_cell_formula_units_Z   2
loop_
 _symmetry_equiv_pos_site_id
 _symmetry_equiv_pos_as_xyz
  1  'x, y, z'
loop_
 _atom_site_type_symbol
 _atom_site_label
 _atom_site_symmetry_multiplicity
 _atom_site_fract_x
 _atom_site_fract_y
 _atom_site_fract_z
 _atom_site_occupancy
  Sr  Sr0  1  0.75000000  0.25000000  0.50000000  1
  Sr  Sr1  1  0.50000000  0.50000000  0.00000000  1
  Nd  Nd2  1  0.99874600  0.37500000  0.12374600  1
  Nd  Nd3  1  0.25125400  0.87500000  0.87625400  1
  Nd  Nd4  1  0.62500000  0.74874600  0.62374600  1
  Nd  Nd5  1  0.12500000  0.00125400  0.37625400  1
  Se  Se6  1  0.36498800  0.26801400  0.24896100  1
  Se  Se7  1  0.23094700  0.48198600  0.59697500  1
  Se  Se8  1  0.36602700  0.76905300  0.25103900  1
  Se  Se9  1  0.88397300  0.63501200  0.90302500  1
  Se  Se10  1  0.88501200  0.63397300  0.40302500  1
  Se  Se11  1  0.51801400  0.11498800  0.74896100  1
  Se  Se12  1  0.73198600  0.98094700  0.09697500  1
  Se  Se13  1  0.01905300  0.11602700  0.75103900  1
