# generated using pymatgen
data_ErTaO4
_symmetry_space_group_name_H-M   'P 1'
_cell_length_a   5.49018000
_cell_length_b   5.12289100
_cell_length_c   5.30982060
_cell_angle_alpha   83.62984868
_cell_angle_beta   90.00000000
_cell_angle_gamma   90.00000000
_symmetry_Int_Tables_number   1
_chemical_formula_structural   ErTaO4
_chemical_formula_sum   'Er2 Ta2 O8'
_cell_volume   148.41979866
_cell_formula_units_Z   2
loop_
 _symmetry_equiv_pos_site_id
 _symmetry_equiv_pos_as_xyz
  1  'x, y, z'
loop_
 _atom_site_type_symbol
 _atom_site_label
 _atom_site_symmetry_multiplicity
 _atom_site_fract_x
 _atom_site_fract_y
 _atom_site_fract_z
 _atom_site_occupancy
  Er  Er0  1  0.76794000  0.00000000  0.75000000  1
  Er  Er1  1  0.23206000  0.00000000  0.25000000  1
  Ta  Ta2  1  0.69486500  0.50000000  0.25000000  1
  Ta  Ta3  1  0.30513500  0.50000000  0.75000000  1
  O  O4  1  0.56532300  0.26722200  0.00354700  1
  O  O5  1  0.56532300  0.73277800  0.49645300  1
  O  O6  1  0.43467700  0.73277800  0.99645300  1
  O  O7  1  0.43467700  0.26722200  0.50354700  1
  O  O8  1  0.08396800  0.75182100  0.59770600  1
  O  O9  1  0.08396800  0.24817900  0.90229400  1
  O  O10  1  0.91603200  0.24817900  0.40229400  1
  O  O11  1  0.91603200  0.75182100  0.09770600  1
