# generated using pymatgen
data_La3TaO7
_symmetry_space_group_name_H-M   'P 1'
_cell_length_a   6.78563365
_cell_length_b   6.78563365
_cell_length_c   7.81800600
_cell_angle_alpha   90.00000000
_cell_angle_beta   90.00000000
_cell_angle_gamma   111.48394220
_symmetry_Int_Tables_number   1
_chemical_formula_structural   La3TaO7
_chemical_formula_sum   'La6 Ta2 O14'
_cell_volume   334.96747844
_cell_formula_units_Z   2
loop_
 _symmetry_equiv_pos_site_id
 _symmetry_equiv_pos_as_xyz
  1  'x, y, z'
loop_
 _atom_site_type_symbol
 _atom_site_label
 _atom_site_symmetry_multiplicity
 _atom_site_fract_x
 _atom_site_fract_y
 _atom_site_fract_z
 _atom_site_occupancy
  La  La0  1  0.00000000  0.00000000  0.00000000  1
  La  La1  1  0.00000000  0.00000000  0.50000000  1
  La  La2  1  0.47691200  0.93222100  0.75000000  1
  La  La3  1  0.52308800  0.06777900  0.25000000  1
  La  La4  1  0.93222100  0.47691200  0.75000000  1
  La  La5  1  0.06777900  0.52308800  0.25000000  1
  Ta  Ta6  1  0.50000000  0.50000000  0.00000000  1
  Ta  Ta7  1  0.50000000  0.50000000  0.50000000  1
  O  O8  1  0.84605200  0.10670700  0.75000000  1
  O  O9  1  0.15394800  0.89329300  0.25000000  1
  O  O10  1  0.10670700  0.84605200  0.75000000  1
  O  O11  1  0.89329300  0.15394800  0.25000000  1
  O  O12  1  0.43911700  0.18935000  0.96763500  1
  O  O13  1  0.56088300  0.81065000  0.46763500  1
  O  O14  1  0.18935000  0.43911700  0.53236500  1
  O  O15  1  0.81065000  0.56088300  0.03236500  1
  O  O16  1  0.43800800  0.43800800  0.25000000  1
  O  O17  1  0.56199200  0.56199200  0.75000000  1
  O  O18  1  0.18935000  0.43911700  0.96763500  1
  O  O19  1  0.81065000  0.56088300  0.46763500  1
  O  O20  1  0.43911700  0.18935000  0.53236500  1
  O  O21  1  0.56088300  0.81065000  0.03236500  1
