# generated using pymatgen
data_Er2Mo2C3
_symmetry_space_group_name_H-M   'P 1'
_cell_length_a   6.05543502
_cell_length_b   6.05543502
_cell_length_c   5.68890467
_cell_angle_alpha   69.04651267
_cell_angle_beta   69.04651267
_cell_angle_gamma   31.90496361
_symmetry_Int_Tables_number   1
_chemical_formula_structural   Er2Mo2C3
_chemical_formula_sum   'Er2 Mo2 C3'
_cell_volume   102.33955510
_cell_formula_units_Z   1
loop_
 _symmetry_equiv_pos_site_id
 _symmetry_equiv_pos_as_xyz
  1  'x, y, z'
loop_
 _atom_site_type_symbol
 _atom_site_label
 _atom_site_symmetry_multiplicity
 _atom_site_fract_x
 _atom_site_fract_y
 _atom_site_fract_z
 _atom_site_occupancy
  Er  Er0  1  0.61059100  0.61059100  0.17307100  1
  Er  Er1  1  0.38940900  0.38940900  0.82692900  1
  Mo  Mo2  1  0.84335900  0.84335900  0.32658600  1
  Mo  Mo3  1  0.15664100  0.15664100  0.67341400  1
  C  C4  1  0.24765500  0.24765500  0.26452000  1
  C  C5  1  0.75234500  0.75234500  0.73548000  1
  C  C6  1  0.00000000  0.00000000  0.00000000  1
