# generated using pymatgen
data_UGeSe
_symmetry_space_group_name_H-M   'P 1'
_cell_length_a   8.73575342
_cell_length_b   8.73575342
_cell_length_c   8.73575342
_cell_angle_alpha   153.80428191
_cell_angle_beta   153.80428191
_cell_angle_gamma   37.38413929
_symmetry_Int_Tables_number   1
_chemical_formula_structural   UGeSe
_chemical_formula_sum   'U2 Ge2 Se2'
_cell_volume   129.71936307
_cell_formula_units_Z   2
loop_
 _symmetry_equiv_pos_site_id
 _symmetry_equiv_pos_as_xyz
  1  'x, y, z'
loop_
 _atom_site_type_symbol
 _atom_site_label
 _atom_site_symmetry_multiplicity
 _atom_site_fract_x
 _atom_site_fract_y
 _atom_site_fract_z
 _atom_site_occupancy
  U  U0  1  0.86350400  0.86350400  0.00000000  1
  U  U1  1  0.13649600  0.13649600  0.00000000  1
  Ge  Ge2  1  0.50000000  0.00000000  0.50000000  1
  Ge  Ge3  1  0.00000000  0.50000000  0.50000000  1
  Se  Se4  1  0.31748300  0.31748300  0.00000000  1
  Se  Se5  1  0.68251700  0.68251700  0.00000000  1
