# generated using pymatgen
data_Zr3InF15
_symmetry_space_group_name_H-M   'P 1'
_cell_length_a   8.04798285
_cell_length_b   8.04798285
_cell_length_c   8.04798295
_cell_angle_alpha   99.86675865
_cell_angle_beta   99.86675865
_cell_angle_gamma   99.86675203
_symmetry_Int_Tables_number   1
_chemical_formula_structural   Zr3InF15
_chemical_formula_sum   'Zr6 In2 F30'
_cell_volume   495.02536712
_cell_formula_units_Z   2
loop_
 _symmetry_equiv_pos_site_id
 _symmetry_equiv_pos_as_xyz
  1  'x, y, z'
loop_
 _atom_site_type_symbol
 _atom_site_label
 _atom_site_symmetry_multiplicity
 _atom_site_fract_x
 _atom_site_fract_y
 _atom_site_fract_z
 _atom_site_occupancy
  Zr  Zr0  1  0.68064300  0.81935700  0.25000000  1
  Zr  Zr1  1  0.75000000  0.31935700  0.18064300  1
  Zr  Zr2  1  0.81935700  0.25000000  0.68064300  1
  Zr  Zr3  1  0.18064300  0.75000000  0.31935700  1
  Zr  Zr4  1  0.25000000  0.68064300  0.81935700  1
  Zr  Zr5  1  0.31935700  0.18064300  0.75000000  1
  In  In6  1  0.75000000  0.75000000  0.75000000  1
  In  In7  1  0.25000000  0.25000000  0.25000000  1
  F  F8  1  0.96236400  0.53763600  0.25000000  1
  F  F9  1  0.28363400  0.51986000  0.27873600  1
  F  F10  1  0.15036400  0.67560600  0.04819900  1
  F  F11  1  0.75000000  0.03763600  0.46236400  1
  F  F12  1  0.77873600  0.01986000  0.78363400  1
  F  F13  1  0.54819900  0.17560600  0.65036400  1
  F  F14  1  0.98014000  0.21636600  0.22126400  1
  F  F15  1  0.21636600  0.22126400  0.98014000  1
  F  F16  1  0.67560600  0.04819900  0.15036400  1
  F  F17  1  0.82439400  0.34963600  0.45180100  1
  F  F18  1  0.53763600  0.25000000  0.96236400  1
  F  F19  1  0.04819900  0.15036400  0.67560600  1
  F  F20  1  0.34963600  0.45180100  0.82439400  1
  F  F21  1  0.51986000  0.27873600  0.28363400  1
  F  F22  1  0.27873600  0.28363400  0.51986000  1
  F  F23  1  0.72126400  0.71636600  0.48014000  1
  F  F24  1  0.48014000  0.72126400  0.71636600  1
  F  F25  1  0.65036400  0.54819900  0.17560600  1
  F  F26  1  0.95180100  0.84963600  0.32439400  1
  F  F27  1  0.46236400  0.75000000  0.03763600  1
  F  F28  1  0.17560600  0.65036400  0.54819900  1
  F  F29  1  0.32439400  0.95180100  0.84963600  1
  F  F30  1  0.78363400  0.77873600  0.01986000  1
  F  F31  1  0.01986000  0.78363400  0.77873600  1
  F  F32  1  0.45180100  0.82439400  0.34963600  1
  F  F33  1  0.22126400  0.98014000  0.21636600  1
  F  F34  1  0.25000000  0.96236400  0.53763600  1
  F  F35  1  0.84963600  0.32439400  0.95180100  1
  F  F36  1  0.71636600  0.48014000  0.72126400  1
  F  F37  1  0.03763600  0.46236400  0.75000000  1
