# generated using pymatgen
data_Dy2Zn17
_symmetry_space_group_name_H-M   'P 1'
_cell_length_a   6.79974284
_cell_length_b   6.79974284
_cell_length_c   6.79974251
_cell_angle_alpha   82.51177744
_cell_angle_beta   82.51177744
_cell_angle_gamma   82.51179102
_symmetry_Int_Tables_number   1
_chemical_formula_structural   Dy2Zn17
_chemical_formula_sum   'Dy2 Zn17'
_cell_volume   306.99557125
_cell_formula_units_Z   1
loop_
 _symmetry_equiv_pos_site_id
 _symmetry_equiv_pos_as_xyz
  1  'x, y, z'
loop_
 _atom_site_type_symbol
 _atom_site_label
 _atom_site_symmetry_multiplicity
 _atom_site_fract_x
 _atom_site_fract_y
 _atom_site_fract_z
 _atom_site_occupancy
  Dy  Dy0  1  0.66512300  0.66512300  0.66512300  1
  Dy  Dy1  1  0.33487700  0.33487700  0.33487700  1
  Zn  Zn2  1  0.35186000  0.35186000  0.83807200  1
  Zn  Zn3  1  0.83807200  0.35186000  0.35186000  1
  Zn  Zn4  1  0.09995000  0.09995000  0.09995000  1
  Zn  Zn5  1  0.90005000  0.90005000  0.90005000  1
  Zn  Zn6  1  0.00000000  0.00000000  0.50000000  1
  Zn  Zn7  1  0.00000000  0.50000000  0.00000000  1
  Zn  Zn8  1  0.50000000  0.00000000  0.00000000  1
  Zn  Zn9  1  0.29748600  0.70251400  0.00000000  1
  Zn  Zn10  1  0.70251400  0.00000000  0.29748600  1
  Zn  Zn11  1  0.00000000  0.29748600  0.70251400  1
  Zn  Zn12  1  0.70251400  0.29748600  0.00000000  1
  Zn  Zn13  1  0.29748600  0.00000000  0.70251400  1
  Zn  Zn14  1  0.00000000  0.70251400  0.29748600  1
  Zn  Zn15  1  0.16192800  0.64814000  0.64814000  1
  Zn  Zn16  1  0.64814000  0.64814000  0.16192800  1
  Zn  Zn17  1  0.64814000  0.16192800  0.64814000  1
  Zn  Zn18  1  0.35186000  0.83807200  0.35186000  1
