# generated using pymatgen
data_Mg(HO)2
_symmetry_space_group_name_H-M   'P 1'
_cell_length_a   3.18589028
_cell_length_b   3.18589028
_cell_length_c   4.78161800
_cell_angle_alpha   90.00000000
_cell_angle_beta   90.00000000
_cell_angle_gamma   120.00000587
_symmetry_Int_Tables_number   1
_chemical_formula_structural   Mg(HO)2
_chemical_formula_sum   'Mg1 H2 O2'
_cell_volume   42.03074754
_cell_formula_units_Z   1
loop_
 _symmetry_equiv_pos_site_id
 _symmetry_equiv_pos_as_xyz
  1  'x, y, z'
loop_
 _atom_site_type_symbol
 _atom_site_label
 _atom_site_symmetry_multiplicity
 _atom_site_fract_x
 _atom_site_fract_y
 _atom_site_fract_z
 _atom_site_occupancy
  Mg  Mg0  1  0.00000000  0.00000000  0.00000000  1
  H  H1  1  0.66666700  0.33333300  0.57869900  1
  H  H2  1  0.33333300  0.66666700  0.42130100  1
  O  O3  1  0.66666700  0.33333300  0.78177600  1
  O  O4  1  0.33333300  0.66666700  0.21822400  1
