# generated using pymatgen
data_HoNbO4
_symmetry_space_group_name_H-M   'P 1'
_cell_length_a   6.58774359
_cell_length_b   6.58774359
_cell_length_c   5.13885103
_cell_angle_alpha   68.75740513
_cell_angle_beta   68.75740513
_cell_angle_gamma   114.39482212
_symmetry_Int_Tables_number   1
_chemical_formula_structural   HoNbO4
_chemical_formula_sum   'Ho2 Nb2 O8'
_cell_volume   150.99906703
_cell_formula_units_Z   2
loop_
 _symmetry_equiv_pos_site_id
 _symmetry_equiv_pos_as_xyz
  1  'x, y, z'
loop_
 _atom_site_type_symbol
 _atom_site_label
 _atom_site_symmetry_multiplicity
 _atom_site_fract_x
 _atom_site_fract_y
 _atom_site_fract_z
 _atom_site_occupancy
  Ho  Ho0  1  0.37192800  0.62807200  0.25000000  1
  Ho  Ho1  1  0.62807200  0.37192800  0.75000000  1
  Nb  Nb2  1  0.89136000  0.10864000  0.25000000  1
  Nb  Nb3  1  0.10864000  0.89136000  0.75000000  1
  O  O4  1  0.62748200  0.04919300  0.15980900  1
  O  O5  1  0.95080700  0.37251800  0.34019100  1
  O  O6  1  0.37251800  0.95080700  0.84019100  1
  O  O7  1  0.04919300  0.62748200  0.65980900  1
  O  O8  1  0.78162600  0.71663100  0.20501800  1
  O  O9  1  0.28336900  0.21837400  0.29498200  1
  O  O10  1  0.21837400  0.28336900  0.79498200  1
  O  O11  1  0.71663100  0.78162600  0.70501800  1
