# generated using pymatgen
data_Li3TaO4
_symmetry_space_group_name_H-M   'P 1'
_cell_length_a   6.07952870
_cell_length_b   6.07952870
_cell_length_c   9.39920013
_cell_angle_alpha   71.31976958
_cell_angle_beta   71.31976958
_cell_angle_gamma   90.07687639
_symmetry_Int_Tables_number   1
_chemical_formula_structural   Li3TaO4
_chemical_formula_sum   'Li12 Ta4 O16'
_cell_volume   309.66570642
_cell_formula_units_Z   4
loop_
 _symmetry_equiv_pos_site_id
 _symmetry_equiv_pos_as_xyz
  1  'x, y, z'
loop_
 _atom_site_type_symbol
 _atom_site_label
 _atom_site_symmetry_multiplicity
 _atom_site_fract_x
 _atom_site_fract_y
 _atom_site_fract_z
 _atom_site_occupancy
  Li  Li0  1  0.30546300  0.05748400  0.63556300  1
  Li  Li1  1  0.69453700  0.94251600  0.36443700  1
  Li  Li2  1  0.05748400  0.30546300  0.13556300  1
  Li  Li3  1  0.94251600  0.69453700  0.86443700  1
  Li  Li4  1  0.43235400  0.19275300  0.88538100  1
  Li  Li5  1  0.80724700  0.56764600  0.61461900  1
  Li  Li6  1  0.56764600  0.80724700  0.11461900  1
  Li  Li7  1  0.19275300  0.43235400  0.38538100  1
  Li  Li8  1  0.64486600  0.43900600  0.37490300  1
  Li  Li9  1  0.56099400  0.35513400  0.12509700  1
  Li  Li10  1  0.35513400  0.56099400  0.62509700  1
  Li  Li11  1  0.43900600  0.64486600  0.87490300  1
  Ta  Ta12  1  0.93815200  0.21982900  0.87521100  1
  Ta  Ta13  1  0.78017100  0.06184800  0.62478900  1
  Ta  Ta14  1  0.06184800  0.78017100  0.12478900  1
  Ta  Ta15  1  0.21982900  0.93815200  0.37521100  1
  O  O16  1  0.05224800  0.83298500  0.61164700  1
  O  O17  1  0.83298500  0.05224800  0.11164700  1
  O  O18  1  0.16701500  0.94775200  0.88835300  1
  O  O19  1  0.94775200  0.16701500  0.38835300  1
  O  O20  1  0.28821500  0.04167500  0.13841000  1
  O  O21  1  0.95832500  0.71178500  0.36159000  1
  O  O22  1  0.71178500  0.95832500  0.86159000  1
  O  O23  1  0.04167500  0.28821500  0.63841000  1
  O  O24  1  0.57850400  0.30136600  0.61754600  1
  O  O25  1  0.69863400  0.42149600  0.88245400  1
  O  O26  1  0.42149600  0.69863400  0.38245400  1
  O  O27  1  0.30136600  0.57850400  0.11754600  1
  O  O28  1  0.82136400  0.57186300  0.13246400  1
  O  O29  1  0.42813700  0.17863600  0.36753600  1
  O  O30  1  0.17863600  0.42813700  0.86753600  1
  O  O31  1  0.57186300  0.82136400  0.63246400  1
