# generated using pymatgen
data_Sr(CuGe)2
_symmetry_space_group_name_H-M   'P 1'
_cell_length_a   5.97479238
_cell_length_b   5.97479238
_cell_length_c   5.97479238
_cell_angle_alpha   138.00871232
_cell_angle_beta   138.00871232
_cell_angle_gamma   60.88965552
_symmetry_Int_Tables_number   1
_chemical_formula_structural   Sr(CuGe)2
_chemical_formula_sum   'Sr1 Cu2 Ge2'
_cell_volume   94.42373389
_cell_formula_units_Z   1
loop_
 _symmetry_equiv_pos_site_id
 _symmetry_equiv_pos_as_xyz
  1  'x, y, z'
loop_
 _atom_site_type_symbol
 _atom_site_label
 _atom_site_symmetry_multiplicity
 _atom_site_fract_x
 _atom_site_fract_y
 _atom_site_fract_z
 _atom_site_occupancy
  Sr  Sr0  1  0.00000000  0.00000000  0.00000000  1
  Cu  Cu1  1  0.25000000  0.75000000  0.50000000  1
  Cu  Cu2  1  0.75000000  0.25000000  0.50000000  1
  Ge  Ge3  1  0.62655100  0.62655100  0.00000000  1
  Ge  Ge4  1  0.37344900  0.37344900  0.00000000  1
