# generated using pymatgen
data_BeAl2O4
_symmetry_space_group_name_H-M   'P 1'
_cell_length_a   4.46147400
_cell_length_b   5.52789900
_cell_length_c   9.49986500
_cell_angle_alpha   90.00000000
_cell_angle_beta   90.00000000
_cell_angle_gamma   90.00000000
_symmetry_Int_Tables_number   1
_chemical_formula_structural   BeAl2O4
_chemical_formula_sum   'Be4 Al8 O16'
_cell_volume   234.29115835
_cell_formula_units_Z   4
loop_
 _symmetry_equiv_pos_site_id
 _symmetry_equiv_pos_as_xyz
  1  'x, y, z'
loop_
 _atom_site_type_symbol
 _atom_site_label
 _atom_site_symmetry_multiplicity
 _atom_site_fract_x
 _atom_site_fract_y
 _atom_site_fract_z
 _atom_site_occupancy
  Be  Be0  1  0.06696800  0.25000000  0.40754900  1
  Be  Be1  1  0.93303200  0.75000000  0.59245100  1
  Be  Be2  1  0.43303200  0.25000000  0.90754900  1
  Be  Be3  1  0.56696800  0.75000000  0.09245100  1
  Al  Al4  1  0.49474400  0.75000000  0.77284500  1
  Al  Al5  1  0.99474400  0.25000000  0.72715500  1
  Al  Al6  1  0.50525600  0.25000000  0.22715500  1
  Al  Al7  1  0.00525600  0.75000000  0.27284500  1
  Al  Al8  1  0.50000000  0.50000000  0.50000000  1
  Al  Al9  1  0.00000000  0.50000000  0.00000000  1
  Al  Al10  1  0.50000000  0.00000000  0.50000000  1
  Al  Al11  1  0.00000000  0.00000000  0.00000000  1
  O  O12  1  0.75748500  0.51611500  0.66308200  1
  O  O13  1  0.25748500  0.48388500  0.83691800  1
  O  O14  1  0.24251500  0.01611500  0.33691800  1
  O  O15  1  0.74251500  0.98388500  0.16308200  1
  O  O16  1  0.25748500  0.01611500  0.83691800  1
  O  O17  1  0.24251500  0.48388500  0.33691800  1
  O  O18  1  0.75748500  0.98388500  0.66308200  1
  O  O19  1  0.74251500  0.51611500  0.16308200  1
  O  O20  1  0.21344900  0.75000000  0.09043700  1
  O  O21  1  0.71344900  0.25000000  0.40956300  1
  O  O22  1  0.78655100  0.25000000  0.90956300  1
  O  O23  1  0.28655100  0.75000000  0.59043700  1
  O  O24  1  0.75934600  0.75000000  0.43354700  1
  O  O25  1  0.25934600  0.25000000  0.06645300  1
  O  O26  1  0.24065400  0.25000000  0.56645300  1
  O  O27  1  0.74065400  0.75000000  0.93354700  1
