# generated using pymatgen
data_La2CuS4
_symmetry_space_group_name_H-M   'P 1'
_cell_length_a   7.57246200
_cell_length_b   7.76118000
_cell_length_c   10.89723018
_cell_angle_alpha   75.48598555
_cell_angle_beta   90.00000000
_cell_angle_gamma   90.00000000
_symmetry_Int_Tables_number   1
_chemical_formula_structural   La2CuS4
_chemical_formula_sum   'La8 Cu4 S16'
_cell_volume   620.00485213
_cell_formula_units_Z   4
loop_
 _symmetry_equiv_pos_site_id
 _symmetry_equiv_pos_as_xyz
  1  'x, y, z'
loop_
 _atom_site_type_symbol
 _atom_site_label
 _atom_site_symmetry_multiplicity
 _atom_site_fract_x
 _atom_site_fract_y
 _atom_site_fract_z
 _atom_site_occupancy
  La  La0  1  0.29782000  0.05957800  0.13894800  1
  La  La1  1  0.79782000  0.94042200  0.36105200  1
  La  La2  1  0.70218000  0.94042200  0.86105200  1
  La  La3  1  0.20218000  0.05957800  0.63894800  1
  La  La4  1  0.62630900  0.52900300  0.67467600  1
  La  La5  1  0.12630900  0.47099700  0.82532400  1
  La  La6  1  0.37369100  0.47099700  0.32532400  1
  La  La7  1  0.87369100  0.52900300  0.17467600  1
  Cu  Cu8  1  0.61488300  0.32208100  0.99495000  1
  Cu  Cu9  1  0.11488300  0.67791900  0.50505000  1
  Cu  Cu10  1  0.38511700  0.67791900  0.00505000  1
  Cu  Cu11  1  0.88511700  0.32208100  0.49495000  1
  S  S12  1  0.94513900  0.11049200  0.02615400  1
  S  S13  1  0.44513900  0.88950800  0.47384600  1
  S  S14  1  0.05486100  0.88950800  0.97384600  1
  S  S15  1  0.55486100  0.11049200  0.52615400  1
  S  S16  1  0.07037200  0.20736900  0.37409600  1
  S  S17  1  0.57037200  0.79263100  0.12590400  1
  S  S18  1  0.92962800  0.79263100  0.62590400  1
  S  S19  1  0.42962800  0.20736900  0.87409600  1
  S  S20  1  0.60449800  0.24740400  0.20800200  1
  S  S21  1  0.10449800  0.75259600  0.29199800  1
  S  S22  1  0.39550200  0.75259600  0.79199800  1
  S  S23  1  0.89550200  0.24740400  0.70800200  1
  S  S24  1  0.78804400  0.55482500  0.91258000  1
  S  S25  1  0.28804400  0.44517500  0.58742000  1
  S  S26  1  0.21195600  0.44517500  0.08742000  1
  S  S27  1  0.71195600  0.55482500  0.41258000  1
