# generated using pymatgen
data_NaZnF3
_symmetry_space_group_name_H-M   'P 1'
_cell_length_a   5.49013100
_cell_length_b   5.68395000
_cell_length_c   7.89140100
_cell_angle_alpha   90.00000000
_cell_angle_beta   90.00000000
_cell_angle_gamma   90.00000000
_symmetry_Int_Tables_number   1
_chemical_formula_structural   NaZnF3
_chemical_formula_sum   'Na4 Zn4 F12'
_cell_volume   246.25614056
_cell_formula_units_Z   4
loop_
 _symmetry_equiv_pos_site_id
 _symmetry_equiv_pos_as_xyz
  1  'x, y, z'
loop_
 _atom_site_type_symbol
 _atom_site_label
 _atom_site_symmetry_multiplicity
 _atom_site_fract_x
 _atom_site_fract_y
 _atom_site_fract_z
 _atom_site_occupancy
  Na  Na0  1  0.01602200  0.94308400  0.75000000  1
  Na  Na1  1  0.51602200  0.55691600  0.25000000  1
  Na  Na2  1  0.48397800  0.44308400  0.75000000  1
  Na  Na3  1  0.98397800  0.05691600  0.25000000  1
  Zn  Zn4  1  0.50000000  0.00000000  0.50000000  1
  Zn  Zn5  1  0.00000000  0.50000000  0.50000000  1
  Zn  Zn6  1  0.00000000  0.50000000  0.00000000  1
  Zn  Zn7  1  0.50000000  0.00000000  0.00000000  1
  F  F8  1  0.69710000  0.29925900  0.44338600  1
  F  F9  1  0.19710000  0.20074100  0.55661400  1
  F  F10  1  0.80290000  0.79925900  0.05661400  1
  F  F11  1  0.30290000  0.70074100  0.94338600  1
  F  F12  1  0.30290000  0.70074100  0.55661400  1
  F  F13  1  0.80290000  0.79925900  0.44338600  1
  F  F14  1  0.19710000  0.20074100  0.94338600  1
  F  F15  1  0.69710000  0.29925900  0.05661400  1
  F  F16  1  0.10790200  0.46018200  0.25000000  1
  F  F17  1  0.60790200  0.03981800  0.75000000  1
  F  F18  1  0.39209800  0.96018200  0.25000000  1
  F  F19  1  0.89209800  0.53981800  0.75000000  1
