# generated using pymatgen
data_Na2HF4
_symmetry_space_group_name_H-M   'P 1'
_cell_length_a   3.58813400
_cell_length_b   4.79235700
_cell_length_c   6.00182773
_cell_angle_alpha   69.47520511
_cell_angle_beta   90.00000000
_cell_angle_gamma   90.00000000
_symmetry_Int_Tables_number   1
_chemical_formula_structural   Na2HF4
_chemical_formula_sum   'Na2 H1 F4'
_cell_volume   96.65373764
_cell_formula_units_Z   1
loop_
 _symmetry_equiv_pos_site_id
 _symmetry_equiv_pos_as_xyz
  1  'x, y, z'
loop_
 _atom_site_type_symbol
 _atom_site_label
 _atom_site_symmetry_multiplicity
 _atom_site_fract_x
 _atom_site_fract_y
 _atom_site_fract_z
 _atom_site_occupancy
  Na  Na0  1  0.00000000  0.00000000  0.00000000  1
  Na  Na1  1  0.50000000  0.50000000  0.50000000  1
  H  H2  1  0.50000000  0.50000000  0.00000000  1
  F  F3  1  0.00000000  0.84438100  0.42478500  1
  F  F4  1  0.50000000  0.32795700  0.90776300  1
  F  F5  1  0.50000000  0.67204300  0.09223700  1
  F  F6  1  0.00000000  0.15561900  0.57521500  1
