# generated using pymatgen
data_CoBr2
_symmetry_space_group_name_H-M   'P 1'
_cell_length_a   3.73788580
_cell_length_b   3.73788580
_cell_length_c   6.90660500
_cell_angle_alpha   90.00000000
_cell_angle_beta   90.00000000
_cell_angle_gamma   119.99999644
_symmetry_Int_Tables_number   1
_chemical_formula_structural   CoBr2
_chemical_formula_sum   'Co1 Br2'
_cell_volume   83.56940749
_cell_formula_units_Z   1
loop_
 _symmetry_equiv_pos_site_id
 _symmetry_equiv_pos_as_xyz
  1  'x, y, z'
loop_
 _atom_site_type_symbol
 _atom_site_label
 _atom_site_symmetry_multiplicity
 _atom_site_fract_x
 _atom_site_fract_y
 _atom_site_fract_z
 _atom_site_occupancy
  Co  Co0  1  0.00000000  0.00000000  0.00000000  1
  Br  Br1  1  0.33333300  0.66666700  0.20690900  1
  Br  Br2  1  0.66666700  0.33333300  0.79309100  1
