# generated using pymatgen
data_Cs2PdSe8
_symmetry_space_group_name_H-M   'P 1'
_cell_length_a   12.79849480
_cell_length_b   12.79849480
_cell_length_c   12.79849480
_cell_angle_alpha   106.13068055
_cell_angle_beta   106.13068055
_cell_angle_gamma   116.38123651
_symmetry_Int_Tables_number   1
_chemical_formula_structural   Cs2PdSe8
_chemical_formula_sum   'Cs8 Pd4 Se32'
_cell_volume   1596.00972347
_cell_formula_units_Z   4
loop_
 _symmetry_equiv_pos_site_id
 _symmetry_equiv_pos_as_xyz
  1  'x, y, z'
loop_
 _atom_site_type_symbol
 _atom_site_label
 _atom_site_symmetry_multiplicity
 _atom_site_fract_x
 _atom_site_fract_y
 _atom_site_fract_z
 _atom_site_occupancy
  Cs  Cs0  1  0.61640900  0.88359100  0.50000000  1
  Cs  Cs1  1  0.13359100  0.13359100  0.76718100  1
  Cs  Cs2  1  0.36640900  0.36640900  0.23281900  1
  Cs  Cs3  1  0.38359100  0.11640900  0.50000000  1
  Cs  Cs4  1  0.86640900  0.63359100  0.00000000  1
  Cs  Cs5  1  0.88359100  0.38359100  0.26718100  1
  Cs  Cs6  1  0.11640900  0.61640900  0.73281900  1
  Cs  Cs7  1  0.63359100  0.86640900  0.00000000  1
  Pd  Pd8  1  0.75000000  0.25000000  0.50000000  1
  Pd  Pd9  1  0.50000000  0.50000000  0.00000000  1
  Pd  Pd10  1  0.25000000  0.75000000  0.50000000  1
  Pd  Pd11  1  0.00000000  0.00000000  0.00000000  1
  Se  Se12  1  0.79209700  0.12927700  0.84990900  1
  Se  Se13  1  0.19218900  0.54209700  0.16282100  1
  Se  Se14  1  0.37927700  0.02936800  0.83717900  1
  Se  Se15  1  0.27936800  0.94218900  0.15009100  1
  Se  Se16  1  0.37072300  0.70790300  0.15009100  1
  Se  Se17  1  0.95790300  0.30781100  0.83717900  1
  Se  Se18  1  0.47063200  0.12072300  0.16282100  1
  Se  Se19  1  0.55781100  0.22063200  0.84990900  1
  Se  Se20  1  0.45790300  0.62072300  0.65009100  1
  Se  Se21  1  0.05781100  0.20790300  0.33717900  1
  Se  Se22  1  0.87072300  0.72063200  0.66282100  1
  Se  Se23  1  0.97063200  0.80781100  0.34990900  1
  Se  Se24  1  0.77166000  0.40048200  0.68688500  1
  Se  Se25  1  0.65048200  0.46359700  0.12882200  1
  Se  Se26  1  0.33477500  0.52166000  0.87117800  1
  Se  Se27  1  0.71359700  0.08477500  0.31311500  1
  Se  Se28  1  0.09951800  0.72834000  0.31311500  1
  Se  Se29  1  0.03640300  0.84951800  0.87117800  1
  Se  Se30  1  0.97834000  0.16522500  0.12882200  1
  Se  Se31  1  0.41522500  0.78640300  0.68688500  1
  Se  Se32  1  0.47834000  0.34951800  0.81311500  1
  Se  Se33  1  0.59951800  0.28640300  0.37117800  1
  Se  Se34  1  0.91522500  0.22834000  0.62882200  1
  Se  Se35  1  0.53640300  0.66522500  0.18688500  1
  Se  Se36  1  0.15048200  0.02166000  0.18688500  1
  Se  Se37  1  0.21359700  0.90048200  0.62882200  1
  Se  Se38  1  0.27166000  0.58477500  0.37117800  1
  Se  Se39  1  0.83477500  0.96359700  0.81311500  1
  Se  Se40  1  0.69218900  0.52936800  0.65009100  1
  Se  Se41  1  0.77936800  0.62927700  0.33717900  1
  Se  Se42  1  0.29209700  0.44218900  0.66282100  1
  Se  Se43  1  0.87927700  0.04209700  0.34990900  1
