# generated using pymatgen
data_La5TlSe8
_symmetry_space_group_name_H-M   'P 1'
_cell_length_a   7.94353426
_cell_length_b   7.94353426
_cell_length_c   7.94353426
_cell_angle_alpha   109.17337785
_cell_angle_beta   109.17337785
_cell_angle_gamma   110.06856264
_symmetry_Int_Tables_number   1
_chemical_formula_structural   La5TlSe8
_chemical_formula_sum   'La5 Tl1 Se8'
_cell_volume   385.81932829
_cell_formula_units_Z   1
loop_
 _symmetry_equiv_pos_site_id
 _symmetry_equiv_pos_as_xyz
  1  'x, y, z'
loop_
 _atom_site_type_symbol
 _atom_site_label
 _atom_site_symmetry_multiplicity
 _atom_site_fract_x
 _atom_site_fract_y
 _atom_site_fract_z
 _atom_site_occupancy
  La  La0  1  0.49856500  0.88136400  0.12098800  1
  La  La1  1  0.25000000  0.75000000  0.50000000  1
  La  La2  1  0.76037600  0.37757700  0.87901200  1
  La  La3  1  0.62242300  0.50143500  0.38279900  1
  La  La4  1  0.11863600  0.23962400  0.61720100  1
  Tl  Tl5  1  0.00000000  0.00000000  0.00000000  1
  Se  Se6  1  0.38663000  0.12988600  0.89521000  1
  Se  Se7  1  0.38682100  0.12851100  0.41566400  1
  Se  Se8  1  0.02884300  0.61317900  0.74169000  1
  Se  Se9  1  0.71284700  0.97115700  0.58433600  1
  Se  Se10  1  0.87011400  0.76532400  0.25674400  1
  Se  Se11  1  0.23467600  0.49142000  0.10479000  1
  Se  Se12  1  0.50858000  0.61337000  0.74325600  1
  Se  Se13  1  0.87148900  0.28715300  0.25831000  1
