# generated using pymatgen
data_H5NF2
_symmetry_space_group_name_H-M   'P 1'
_cell_length_a   3.68813000
_cell_length_b   8.19419900
_cell_length_c   8.45151000
_cell_angle_alpha   90.00000000
_cell_angle_beta   90.00000000
_cell_angle_gamma   90.00000000
_symmetry_Int_Tables_number   1
_chemical_formula_structural   H5NF2
_chemical_formula_sum   'H20 N4 F8'
_cell_volume   255.41537540
_cell_formula_units_Z   4
loop_
 _symmetry_equiv_pos_site_id
 _symmetry_equiv_pos_as_xyz
  1  'x, y, z'
loop_
 _atom_site_type_symbol
 _atom_site_label
 _atom_site_symmetry_multiplicity
 _atom_site_fract_x
 _atom_site_fract_y
 _atom_site_fract_z
 _atom_site_occupancy
  H  H0  1  0.38933800  0.79630200  0.34013200  1
  H  H1  1  0.38933800  0.70369800  0.15986800  1
  H  H2  1  0.61066200  0.29630200  0.15986800  1
  H  H3  1  0.61066200  0.20369800  0.34013200  1
  H  H4  1  0.61066200  0.20369800  0.65986800  1
  H  H5  1  0.61066200  0.29630200  0.84013200  1
  H  H6  1  0.38933800  0.70369800  0.84013200  1
  H  H7  1  0.38933800  0.79630200  0.65986800  1
  H  H8  1  0.71516400  0.84291700  0.20569000  1
  H  H9  1  0.71516400  0.65708300  0.29431000  1
  H  H10  1  0.28483600  0.34291700  0.29431000  1
  H  H11  1  0.28483600  0.15708300  0.20569000  1
  H  H12  1  0.00000000  0.00000000  0.00000000  1
  H  H13  1  0.00000000  0.50000000  0.50000000  1
  H  H14  1  0.00000000  0.00000000  0.50000000  1
  H  H15  1  0.00000000  0.50000000  0.00000000  1
  H  H16  1  0.71516400  0.84291700  0.79431000  1
  H  H17  1  0.71516400  0.65708300  0.70569000  1
  H  H18  1  0.28483600  0.34291700  0.70569000  1
  H  H19  1  0.28483600  0.15708300  0.79431000  1
  N  N20  1  0.55174400  0.75000000  0.75000000  1
  N  N21  1  0.44825600  0.25000000  0.75000000  1
  N  N22  1  0.44825600  0.25000000  0.25000000  1
  N  N23  1  0.55174400  0.75000000  0.25000000  1
  F  F24  1  0.00000000  0.50000000  0.36396600  1
  F  F25  1  0.00000000  0.00000000  0.13603400  1
  F  F26  1  0.00000000  0.50000000  0.63603400  1
  F  F27  1  0.00000000  0.00000000  0.86396600  1
  F  F28  1  0.12257000  0.62943600  0.00000000  1
  F  F29  1  0.12257000  0.87056400  0.50000000  1
  F  F30  1  0.87743000  0.12943600  0.50000000  1
  F  F31  1  0.87743000  0.37056400  0.00000000  1
