# generated using pymatgen
data_DyAl4Ni
_symmetry_space_group_name_H-M   'P 1'
_cell_length_a   7.97072422
_cell_length_b   7.97072422
_cell_length_c   6.61447800
_cell_angle_alpha   90.00000000
_cell_angle_beta   90.00000000
_cell_angle_gamma   150.50059341
_symmetry_Int_Tables_number   1
_chemical_formula_structural   DyAl4Ni
_chemical_formula_sum   'Dy2 Al8 Ni2'
_cell_volume   206.92931331
_cell_formula_units_Z   2
loop_
 _symmetry_equiv_pos_site_id
 _symmetry_equiv_pos_as_xyz
  1  'x, y, z'
loop_
 _atom_site_type_symbol
 _atom_site_label
 _atom_site_symmetry_multiplicity
 _atom_site_fract_x
 _atom_site_fract_y
 _atom_site_fract_z
 _atom_site_occupancy
  Dy  Dy0  1  0.11740900  0.88259100  0.75000000  1
  Dy  Dy1  1  0.88259100  0.11740900  0.25000000  1
  Al  Al2  1  0.50000000  0.50000000  0.00000000  1
  Al  Al3  1  0.50000000  0.50000000  0.50000000  1
  Al  Al4  1  0.92374900  0.07625100  0.75000000  1
  Al  Al5  1  0.07625100  0.92374900  0.25000000  1
  Al  Al6  1  0.31147600  0.68852400  0.94726500  1
  Al  Al7  1  0.68852400  0.31147600  0.05273500  1
  Al  Al8  1  0.68852400  0.31147600  0.44726500  1
  Al  Al9  1  0.31147600  0.68852400  0.55273500  1
  Ni  Ni10  1  0.77356800  0.22643200  0.75000000  1
  Ni  Ni11  1  0.22643200  0.77356800  0.25000000  1
