# generated using pymatgen
data_HfF4
_symmetry_space_group_name_H-M   'P 1'
_cell_length_a   7.72809427
_cell_length_b   7.72809427
_cell_length_c   7.72134728
_cell_angle_alpha   63.34202751
_cell_angle_beta   63.34202751
_cell_angle_gamma   80.16253163
_symmetry_Int_Tables_number   1
_chemical_formula_structural   HfF4
_chemical_formula_sum   'Hf6 F24'
_cell_volume   368.04963299
_cell_formula_units_Z   6
loop_
 _symmetry_equiv_pos_site_id
 _symmetry_equiv_pos_as_xyz
  1  'x, y, z'
loop_
 _atom_site_type_symbol
 _atom_site_label
 _atom_site_symmetry_multiplicity
 _atom_site_fract_x
 _atom_site_fract_y
 _atom_site_fract_z
 _atom_site_occupancy
  Hf  Hf0  1  0.78587300  0.21412700  0.75000000  1
  Hf  Hf1  1  0.21412700  0.78587300  0.25000000  1
  Hf  Hf2  1  0.22351900  0.36595500  0.83317000  1
  Hf  Hf3  1  0.63404500  0.77648100  0.66683000  1
  Hf  Hf4  1  0.77648100  0.63404500  0.16683000  1
  Hf  Hf5  1  0.36595500  0.22351900  0.33317000  1
  F  F6  1  0.31705700  0.25844800  0.60659600  1
  F  F7  1  0.74155200  0.68294300  0.89340400  1
  F  F8  1  0.68294300  0.74155200  0.39340400  1
  F  F9  1  0.25844800  0.31705700  0.10659600  1
  F  F10  1  0.81561700  0.40212700  0.42419000  1
  F  F11  1  0.59787300  0.18438300  0.07581000  1
  F  F12  1  0.60639900  0.39360100  0.25000000  1
  F  F13  1  0.39360100  0.60639900  0.75000000  1
  F  F14  1  0.26118400  0.50246500  0.28266800  1
  F  F15  1  0.49753500  0.73881600  0.21733200  1
  F  F16  1  0.73881600  0.49753500  0.71733200  1
  F  F17  1  0.50246500  0.26118400  0.78266800  1
  F  F18  1  0.02998600  0.72366700  0.14997300  1
  F  F19  1  0.27633300  0.97001400  0.35002700  1
  F  F20  1  0.97001400  0.27633300  0.85002700  1
  F  F21  1  0.72366700  0.02998600  0.64997300  1
  F  F22  1  0.00000000  0.50000000  0.00000000  1
  F  F23  1  0.50000000  0.00000000  0.50000000  1
  F  F24  1  0.17253100  0.06261300  0.04418400  1
  F  F25  1  0.93738700  0.82746900  0.45581600  1
  F  F26  1  0.82746900  0.93738700  0.95581600  1
  F  F27  1  0.06261300  0.17253100  0.54418400  1
  F  F28  1  0.40212700  0.81561700  0.92419000  1
  F  F29  1  0.18438300  0.59787300  0.57581000  1
