# generated using pymatgen
data_Be2Te7Cl6
_symmetry_space_group_name_H-M   'P 1'
_cell_length_a   5.53118700
_cell_length_b   10.33191600
_cell_length_c   16.82092900
_cell_angle_alpha   90.00000000
_cell_angle_beta   90.00000000
_cell_angle_gamma   90.00000000
_symmetry_Int_Tables_number   1
_chemical_formula_structural   Be2Te7Cl6
_chemical_formula_sum   'Be4 Te14 Cl12'
_cell_volume   961.27840446
_cell_formula_units_Z   2
loop_
 _symmetry_equiv_pos_site_id
 _symmetry_equiv_pos_as_xyz
  1  'x, y, z'
loop_
 _atom_site_type_symbol
 _atom_site_label
 _atom_site_symmetry_multiplicity
 _atom_site_fract_x
 _atom_site_fract_y
 _atom_site_fract_z
 _atom_site_occupancy
  Be  Be0  1  0.00000000  0.50000000  0.41930900  1
  Be  Be1  1  0.50000000  0.00000000  0.08069100  1
  Be  Be2  1  0.00000000  0.50000000  0.58069100  1
  Be  Be3  1  0.50000000  0.00000000  0.91930900  1
  Te  Te4  1  0.50000000  0.50000000  0.76077300  1
  Te  Te5  1  0.00000000  0.00000000  0.73922700  1
  Te  Te6  1  0.50000000  0.50000000  0.23922700  1
  Te  Te7  1  0.00000000  0.00000000  0.26077300  1
  Te  Te8  1  0.32833400  0.89614200  0.62857500  1
  Te  Te9  1  0.82833400  0.60385800  0.87142500  1
  Te  Te10  1  0.17166600  0.39614200  0.87142500  1
  Te  Te11  1  0.67166600  0.10385800  0.62857500  1
  Te  Te12  1  0.67166600  0.10385800  0.37142500  1
  Te  Te13  1  0.17166600  0.39614200  0.12857500  1
  Te  Te14  1  0.82833400  0.60385800  0.12857500  1
  Te  Te15  1  0.32833400  0.89614200  0.37142500  1
  Te  Te16  1  0.50000000  0.50000000  0.00000000  1
  Te  Te17  1  0.00000000  0.00000000  0.50000000  1
  Cl  Cl18  1  0.34744700  0.86129900  0.14673200  1
  Cl  Cl19  1  0.84744700  0.63870100  0.35326800  1
  Cl  Cl20  1  0.15255300  0.36129900  0.35326800  1
  Cl  Cl21  1  0.65255300  0.13870100  0.14673200  1
  Cl  Cl22  1  0.65255300  0.13870100  0.85326800  1
  Cl  Cl23  1  0.15255300  0.36129900  0.64673200  1
  Cl  Cl24  1  0.84744700  0.63870100  0.64673200  1
  Cl  Cl25  1  0.34744700  0.86129900  0.85326800  1
  Cl  Cl26  1  0.26711500  0.08528000  0.00000000  1
  Cl  Cl27  1  0.76711500  0.41472000  0.50000000  1
  Cl  Cl28  1  0.73288500  0.91472000  0.00000000  1
  Cl  Cl29  1  0.23288500  0.58528000  0.50000000  1
