# generated using pymatgen
data_K2(NbBr3)3
_symmetry_space_group_name_H-M   'P 1'
_cell_length_a   10.42017274
_cell_length_b   10.42017274
_cell_length_c   10.31827297
_cell_angle_alpha   77.53534214
_cell_angle_beta   77.53534214
_cell_angle_gamma   117.60343171
_symmetry_Int_Tables_number   1
_chemical_formula_structural   K2(NbBr3)3
_chemical_formula_sum   'K4 Nb6 Br18'
_cell_volume   902.54222464
_cell_formula_units_Z   2
loop_
 _symmetry_equiv_pos_site_id
 _symmetry_equiv_pos_as_xyz
  1  'x, y, z'
loop_
 _atom_site_type_symbol
 _atom_site_label
 _atom_site_symmetry_multiplicity
 _atom_site_fract_x
 _atom_site_fract_y
 _atom_site_fract_z
 _atom_site_occupancy
  K  K0  1  0.27089500  0.94936900  0.16776100  1
  K  K1  1  0.05063100  0.72910500  0.83223900  1
  K  K2  1  0.72910500  0.05063100  0.83223900  1
  K  K3  1  0.94936900  0.27089500  0.16776100  1
  Nb  Nb4  1  0.54445200  0.71148500  0.36662500  1
  Nb  Nb5  1  0.28851500  0.45554800  0.63337500  1
  Nb  Nb6  1  0.45554800  0.28851500  0.63337500  1
  Nb  Nb7  1  0.71148500  0.54445200  0.36662500  1
  Nb  Nb8  1  0.38454900  0.38454900  0.37700400  1
  Nb  Nb9  1  0.61545100  0.61545100  0.62299600  1
  Br  Br10  1  0.99916300  0.39366600  0.81991900  1
  Br  Br11  1  0.60633400  0.00083700  0.18008100  1
  Br  Br12  1  0.18420800  0.18420800  0.82554900  1
  Br  Br13  1  0.81579200  0.81579200  0.17445100  1
  Br  Br14  1  0.38122600  0.58494300  0.81296800  1
  Br  Br15  1  0.41505700  0.61877400  0.18703200  1
  Br  Br16  1  0.61877400  0.41505700  0.18703200  1
  Br  Br17  1  0.58494300  0.38122600  0.81296800  1
  Br  Br18  1  0.69380500  0.90044800  0.48726100  1
  Br  Br19  1  0.09955200  0.30619500  0.51273900  1
  Br  Br20  1  0.30619500  0.09955200  0.51273900  1
  Br  Br21  1  0.90044800  0.69380500  0.48726100  1
  Br  Br22  1  0.70515100  0.29484900  0.50000000  1
  Br  Br23  1  0.29484900  0.70515100  0.50000000  1
  Br  Br24  1  0.22935500  0.22935500  0.21257300  1
  Br  Br25  1  0.77064500  0.77064500  0.78742700  1
  Br  Br26  1  0.39366600  0.99916300  0.81991900  1
  Br  Br27  1  0.00083700  0.60633400  0.18008100  1
