# generated using pymatgen
data_Ca5Ag3
_symmetry_space_group_name_H-M   'P 1'
_cell_length_a   9.38219075
_cell_length_b   9.38219075
_cell_length_c   9.38219075
_cell_angle_alpha   129.39348824
_cell_angle_beta   129.39348824
_cell_angle_gamma   74.37825316
_symmetry_Int_Tables_number   1
_chemical_formula_structural   Ca5Ag3
_chemical_formula_sum   'Ca10 Ag6'
_cell_volume   480.75655690
_cell_formula_units_Z   2
loop_
 _symmetry_equiv_pos_site_id
 _symmetry_equiv_pos_as_xyz
  1  'x, y, z'
loop_
 _atom_site_type_symbol
 _atom_site_label
 _atom_site_symmetry_multiplicity
 _atom_site_fract_x
 _atom_site_fract_y
 _atom_site_fract_z
 _atom_site_occupancy
  Ca  Ca0  1  0.47827900  0.97827900  0.16532400  1
  Ca  Ca1  1  0.18704600  0.68704600  0.16532400  1
  Ca  Ca2  1  0.52172100  0.02172100  0.83467600  1
  Ca  Ca3  1  0.02172100  0.18704600  0.50000000  1
  Ca  Ca4  1  0.68704600  0.52172100  0.50000000  1
  Ca  Ca5  1  0.97827900  0.81295400  0.50000000  1
  Ca  Ca6  1  0.00000000  0.00000000  0.00000000  1
  Ca  Ca7  1  0.50000000  0.50000000  0.00000000  1
  Ca  Ca8  1  0.81295400  0.31295400  0.83467600  1
  Ca  Ca9  1  0.31295400  0.47827900  0.50000000  1
  Ag  Ag10  1  0.12683700  0.62683700  0.75367300  1
  Ag  Ag11  1  0.62683700  0.87316300  0.50000000  1
  Ag  Ag12  1  0.37316300  0.12683700  0.50000000  1
  Ag  Ag13  1  0.87316300  0.37316300  0.24632700  1
  Ag  Ag14  1  0.75000000  0.75000000  0.00000000  1
  Ag  Ag15  1  0.25000000  0.25000000  0.00000000  1
