# generated using pymatgen
data_P2PbAu2
_symmetry_space_group_name_H-M   'P 1'
_cell_length_a   6.01360937
_cell_length_b   6.01360937
_cell_length_c   11.38190900
_cell_angle_alpha   90.00000000
_cell_angle_beta   90.00000000
_cell_angle_gamma   148.15200361
_symmetry_Int_Tables_number   1
_chemical_formula_structural   P2PbAu2
_chemical_formula_sum   'P4 Pb2 Au4'
_cell_volume   217.19305475
_cell_formula_units_Z   2
loop_
 _symmetry_equiv_pos_site_id
 _symmetry_equiv_pos_as_xyz
  1  'x, y, z'
loop_
 _atom_site_type_symbol
 _atom_site_label
 _atom_site_symmetry_multiplicity
 _atom_site_fract_x
 _atom_site_fract_y
 _atom_site_fract_z
 _atom_site_occupancy
  P  P0  1  0.79841400  0.20158600  0.54352700  1
  P  P1  1  0.20158600  0.79841400  0.04352700  1
  P  P2  1  0.20158600  0.79841400  0.45647300  1
  P  P3  1  0.79841400  0.20158600  0.95647300  1
  Pb  Pb4  1  0.52288800  0.47711200  0.75000000  1
  Pb  Pb5  1  0.47711200  0.52288800  0.25000000  1
  Au  Au6  1  0.00000000  0.00000000  0.00000000  1
  Au  Au7  1  0.77611000  0.22389000  0.75000000  1
  Au  Au8  1  0.00000000  0.00000000  0.50000000  1
  Au  Au9  1  0.22389000  0.77611000  0.25000000  1
