# generated using pymatgen
data_Bi4Rh
_symmetry_space_group_name_H-M   'P 1'
_cell_length_a   13.15719660
_cell_length_b   13.15719660
_cell_length_c   13.15719660
_cell_angle_alpha   109.47122063
_cell_angle_beta   109.47122063
_cell_angle_gamma   109.47122063
_symmetry_Int_Tables_number   1
_chemical_formula_structural   Bi4Rh
_chemical_formula_sum   'Bi48 Rh12'
_cell_volume   1753.34832123
_cell_formula_units_Z   12
loop_
 _symmetry_equiv_pos_site_id
 _symmetry_equiv_pos_as_xyz
  1  'x, y, z'
loop_
 _atom_site_type_symbol
 _atom_site_label
 _atom_site_symmetry_multiplicity
 _atom_site_fract_x
 _atom_site_fract_y
 _atom_site_fract_z
 _atom_site_occupancy
  Bi  Bi0  1  0.91099100  0.37162000  0.58732700  1
  Bi  Bi1  1  0.58900900  0.17633600  0.46062900  1
  Bi  Bi2  1  0.46062900  0.58900900  0.17633600  1
  Bi  Bi3  1  0.12838000  0.03937100  0.21570800  1
  Bi  Bi4  1  0.91099100  0.03937100  0.32366400  1
  Bi  Bi5  1  0.32366400  0.91267300  0.28429200  1
  Bi  Bi6  1  0.32366400  0.91099100  0.03937100  1
  Bi  Bi7  1  0.37162000  0.58732700  0.91099100  1
  Bi  Bi8  1  0.03937100  0.32366400  0.91099100  1
  Bi  Bi9  1  0.28429200  0.46062900  0.37162000  1
  Bi  Bi10  1  0.17633600  0.21570800  0.58732700  1
  Bi  Bi11  1  0.91267300  0.12838000  0.58900900  1
  Bi  Bi12  1  0.82366400  0.53937100  0.41099100  1
  Bi  Bi13  1  0.78429200  0.41267300  0.82366400  1
  Bi  Bi14  1  0.41099100  0.08732700  0.87162000  1
  Bi  Bi15  1  0.87162000  0.41099100  0.08732700  1
  Bi  Bi16  1  0.62838000  0.71570800  0.53937100  1
  Bi  Bi17  1  0.53937100  0.62838000  0.71570800  1
  Bi  Bi18  1  0.41267300  0.82366400  0.78429200  1
  Bi  Bi19  1  0.96062900  0.78429200  0.87162000  1
  Bi  Bi20  1  0.71570800  0.67633600  0.08732700  1
  Bi  Bi21  1  0.41267300  0.08900900  0.62838000  1
  Bi  Bi22  1  0.78429200  0.87162000  0.96062900  1
  Bi  Bi23  1  0.08732700  0.71570800  0.67633600  1
  Bi  Bi24  1  0.08900900  0.62838000  0.41267300  1
  Bi  Bi25  1  0.41099100  0.82366400  0.53937100  1
  Bi  Bi26  1  0.53937100  0.41099100  0.82366400  1
  Bi  Bi27  1  0.87162000  0.96062900  0.78429200  1
  Bi  Bi28  1  0.08900900  0.96062900  0.67633600  1
  Bi  Bi29  1  0.67633600  0.08732700  0.71570800  1
  Bi  Bi30  1  0.67633600  0.08900900  0.96062900  1
  Bi  Bi31  1  0.62838000  0.41267300  0.08900900  1
  Bi  Bi32  1  0.96062900  0.67633600  0.08900900  1
  Bi  Bi33  1  0.71570800  0.53937100  0.62838000  1
  Bi  Bi34  1  0.82366400  0.78429200  0.41267300  1
  Bi  Bi35  1  0.08732700  0.87162000  0.41099100  1
  Bi  Bi36  1  0.91267300  0.28429200  0.32366400  1
  Bi  Bi37  1  0.21570800  0.12838000  0.03937100  1
  Bi  Bi38  1  0.58732700  0.91099100  0.37162000  1
  Bi  Bi39  1  0.28429200  0.32366400  0.91267300  1
  Bi  Bi40  1  0.03937100  0.21570800  0.12838000  1
  Bi  Bi41  1  0.58732700  0.17633600  0.21570800  1
  Bi  Bi42  1  0.46062900  0.37162000  0.28429200  1
  Bi  Bi43  1  0.37162000  0.28429200  0.46062900  1
  Bi  Bi44  1  0.12838000  0.58900900  0.91267300  1
  Bi  Bi45  1  0.58900900  0.91267300  0.12838000  1
  Bi  Bi46  1  0.21570800  0.58732700  0.17633600  1
  Bi  Bi47  1  0.17633600  0.46062900  0.58900900  1
  Rh  Rh48  1  0.87500000  0.62500000  0.25000000  1
  Rh  Rh49  1  0.62500000  0.25000000  0.87500000  1
  Rh  Rh50  1  0.87500000  0.75000000  0.62500000  1
  Rh  Rh51  1  0.75000000  0.62500000  0.87500000  1
  Rh  Rh52  1  0.25000000  0.87500000  0.62500000  1
  Rh  Rh53  1  0.62500000  0.87500000  0.75000000  1
  Rh  Rh54  1  0.12500000  0.37500000  0.75000000  1
  Rh  Rh55  1  0.37500000  0.75000000  0.12500000  1
  Rh  Rh56  1  0.12500000  0.25000000  0.37500000  1
  Rh  Rh57  1  0.25000000  0.37500000  0.12500000  1
  Rh  Rh58  1  0.75000000  0.12500000  0.37500000  1
  Rh  Rh59  1  0.37500000  0.12500000  0.25000000  1
