# generated using pymatgen
data_Pb3Au
_symmetry_space_group_name_H-M   'P 1'
_cell_length_a   9.16035452
_cell_length_b   9.16035452
_cell_length_c   9.16035452
_cell_angle_alpha   96.32200919
_cell_angle_beta   96.32200919
_cell_angle_gamma   141.23931738
_symmetry_Int_Tables_number   1
_chemical_formula_structural   Pb3Au
_chemical_formula_sum   'Pb12 Au4'
_cell_volume   453.96840235
_cell_formula_units_Z   4
loop_
 _symmetry_equiv_pos_site_id
 _symmetry_equiv_pos_as_xyz
  1  'x, y, z'
loop_
 _atom_site_type_symbol
 _atom_site_label
 _atom_site_symmetry_multiplicity
 _atom_site_fract_x
 _atom_site_fract_y
 _atom_site_fract_z
 _atom_site_occupancy
  Pb  Pb0  1  0.14089600  0.50000000  0.64089600  1
  Pb  Pb1  1  0.50000000  0.85910400  0.35910400  1
  Pb  Pb2  1  0.50000000  0.14089600  0.64089600  1
  Pb  Pb3  1  0.85910400  0.50000000  0.35910400  1
  Pb  Pb4  1  0.16002600  0.16002600  0.80821300  1
  Pb  Pb5  1  0.64818700  0.83997400  0.00000000  1
  Pb  Pb6  1  0.83997400  0.64818700  0.00000000  1
  Pb  Pb7  1  0.35181300  0.35181300  0.19178700  1
  Pb  Pb8  1  0.56266400  0.56266400  0.59909000  1
  Pb  Pb9  1  0.03642500  0.43733600  0.00000000  1
  Pb  Pb10  1  0.43733600  0.03642500  0.00000000  1
  Pb  Pb11  1  0.96357500  0.96357500  0.40091000  1
  Au  Au12  1  0.70596400  0.00000000  0.70596400  1
  Au  Au13  1  0.00000000  0.29403600  0.29403600  1
  Au  Au14  1  0.00000000  0.70596400  0.70596400  1
  Au  Au15  1  0.29403600  0.00000000  0.29403600  1
