# generated using pymatgen
data_ZrGe2Rh
_symmetry_space_group_name_H-M   'P 1'
_cell_length_a   8.08907000
_cell_length_b   9.41676900
_cell_length_c   10.58548300
_cell_angle_alpha   90.00000000
_cell_angle_beta   90.00000000
_cell_angle_gamma   90.00000000
_symmetry_Int_Tables_number   1
_chemical_formula_structural   ZrGe2Rh
_chemical_formula_sum   'Zr12 Ge24 Rh12'
_cell_volume   806.32697628
_cell_formula_units_Z   12
loop_
 _symmetry_equiv_pos_site_id
 _symmetry_equiv_pos_as_xyz
  1  'x, y, z'
loop_
 _atom_site_type_symbol
 _atom_site_label
 _atom_site_symmetry_multiplicity
 _atom_site_fract_x
 _atom_site_fract_y
 _atom_site_fract_z
 _atom_site_occupancy
  Zr  Zr0  1  0.75857600  0.32852300  0.04843700  1
  Zr  Zr1  1  0.75857600  0.82852300  0.45156300  1
  Zr  Zr2  1  0.75857600  0.67147700  0.95156300  1
  Zr  Zr3  1  0.00000000  0.66559300  0.67911300  1
  Zr  Zr4  1  0.24142400  0.82852300  0.45156300  1
  Zr  Zr5  1  0.24142400  0.32852300  0.04843700  1
  Zr  Zr6  1  0.00000000  0.16559300  0.82088700  1
  Zr  Zr7  1  0.24142400  0.67147700  0.95156300  1
  Zr  Zr8  1  0.24142400  0.17147700  0.54843700  1
  Zr  Zr9  1  0.75857600  0.17147700  0.54843700  1
  Zr  Zr10  1  0.00000000  0.83440700  0.17911300  1
  Zr  Zr11  1  0.00000000  0.33440700  0.32088700  1
  Ge  Ge12  1  0.34818500  0.65690500  0.68262800  1
  Ge  Ge13  1  0.50000000  0.94766900  0.60956400  1
  Ge  Ge14  1  0.00000000  0.03814400  0.38447400  1
  Ge  Ge15  1  0.34818500  0.34309500  0.31737200  1
  Ge  Ge16  1  0.00000000  0.53814400  0.11552600  1
  Ge  Ge17  1  0.00000000  0.46185600  0.88447400  1
  Ge  Ge18  1  0.50000000  0.86101500  0.90093100  1
  Ge  Ge19  1  0.65181500  0.34309500  0.31737200  1
  Ge  Ge20  1  0.65181500  0.84309500  0.18262800  1
  Ge  Ge21  1  0.00000000  0.96185600  0.61552600  1
  Ge  Ge22  1  0.00000000  0.62857100  0.39714700  1
  Ge  Ge23  1  0.50000000  0.05233100  0.39043600  1
  Ge  Ge24  1  0.50000000  0.36101500  0.59906900  1
  Ge  Ge25  1  0.50000000  0.13898500  0.09906900  1
  Ge  Ge26  1  0.50000000  0.55233100  0.10956400  1
  Ge  Ge27  1  0.65181500  0.65690500  0.68262800  1
  Ge  Ge28  1  0.65181500  0.15690500  0.81737200  1
  Ge  Ge29  1  0.34818500  0.15690500  0.81737200  1
  Ge  Ge30  1  0.00000000  0.12857100  0.10285300  1
  Ge  Ge31  1  0.00000000  0.87142900  0.89714700  1
  Ge  Ge32  1  0.50000000  0.44766900  0.89043600  1
  Ge  Ge33  1  0.34818500  0.84309500  0.18262800  1
  Ge  Ge34  1  0.50000000  0.63898500  0.40093100  1
  Ge  Ge35  1  0.00000000  0.37142900  0.60285300  1
  Rh  Rh36  1  0.74841400  0.40505600  0.75583800  1
  Rh  Rh37  1  0.25275100  0.00000000  0.00000000  1
  Rh  Rh38  1  0.74841400  0.59494400  0.24416200  1
  Rh  Rh39  1  0.74724900  0.00000000  0.00000000  1
  Rh  Rh40  1  0.74841400  0.90505600  0.74416200  1
  Rh  Rh41  1  0.74841400  0.09494400  0.25583800  1
  Rh  Rh42  1  0.25158600  0.40505600  0.75583800  1
  Rh  Rh43  1  0.25158600  0.59494400  0.24416200  1
  Rh  Rh44  1  0.25275100  0.50000000  0.50000000  1
  Rh  Rh45  1  0.74724900  0.50000000  0.50000000  1
  Rh  Rh46  1  0.25158600  0.90505600  0.74416200  1
  Rh  Rh47  1  0.25158600  0.09494400  0.25583800  1
