# generated using pymatgen
data_PtCl3
_symmetry_space_group_name_H-M   'P 1'
_cell_length_a   13.09195444
_cell_length_b   13.09195444
_cell_length_c   13.09195389
_cell_angle_alpha   115.13172756
_cell_angle_beta   115.13172756
_cell_angle_gamma   115.13172277
_symmetry_Int_Tables_number   1
_chemical_formula_structural   PtCl3
_chemical_formula_sum   'Pt12 Cl36'
_cell_volume   1240.64436237
_cell_formula_units_Z   12
loop_
 _symmetry_equiv_pos_site_id
 _symmetry_equiv_pos_as_xyz
  1  'x, y, z'
loop_
 _atom_site_type_symbol
 _atom_site_label
 _atom_site_symmetry_multiplicity
 _atom_site_fract_x
 _atom_site_fract_y
 _atom_site_fract_z
 _atom_site_occupancy
  Pt  Pt0  1  0.80193400  0.22913300  0.47677000  1
  Pt  Pt1  1  0.47677000  0.80193400  0.22913300  1
  Pt  Pt2  1  0.22913300  0.47677000  0.80193400  1
  Pt  Pt3  1  0.19806600  0.77086700  0.52323000  1
  Pt  Pt4  1  0.52323000  0.19806600  0.77086700  1
  Pt  Pt5  1  0.77086700  0.52323000  0.19806600  1
  Pt  Pt6  1  0.93431300  0.75649500  0.83632600  1
  Pt  Pt7  1  0.83632600  0.93431300  0.75649500  1
  Pt  Pt8  1  0.75649500  0.83632600  0.93431300  1
  Pt  Pt9  1  0.06568700  0.24350500  0.16367400  1
  Pt  Pt10  1  0.16367400  0.06568700  0.24350500  1
  Pt  Pt11  1  0.24350500  0.16367400  0.06568700  1
  Cl  Cl12  1  0.85390500  0.46025700  0.62844100  1
  Cl  Cl13  1  0.62844100  0.85390500  0.46025700  1
  Cl  Cl14  1  0.46025700  0.62844100  0.85390500  1
  Cl  Cl15  1  0.14609500  0.53974300  0.37155900  1
  Cl  Cl16  1  0.37155900  0.14609500  0.53974300  1
  Cl  Cl17  1  0.53974300  0.37155900  0.14609500  1
  Cl  Cl18  1  0.65217200  0.16638700  0.24200100  1
  Cl  Cl19  1  0.24200100  0.65217200  0.16638700  1
  Cl  Cl20  1  0.16638700  0.24200100  0.65217200  1
  Cl  Cl21  1  0.34782800  0.83361300  0.75799900  1
  Cl  Cl22  1  0.75799900  0.34782800  0.83361300  1
  Cl  Cl23  1  0.83361300  0.75799900  0.34782800  1
  Cl  Cl24  1  0.07716100  0.09451200  0.82734900  1
  Cl  Cl25  1  0.09451200  0.82734900  0.07716100  1
  Cl  Cl26  1  0.82734900  0.07716100  0.09451200  1
  Cl  Cl27  1  0.92283900  0.90548800  0.17265100  1
  Cl  Cl28  1  0.90548800  0.17265100  0.92283900  1
  Cl  Cl29  1  0.17265100  0.92283900  0.90548800  1
  Cl  Cl30  1  0.29929800  0.39430900  0.22192900  1
  Cl  Cl31  1  0.39430900  0.22192900  0.29929800  1
  Cl  Cl32  1  0.22192900  0.29929800  0.39430900  1
  Cl  Cl33  1  0.70070200  0.60569100  0.77807100  1
  Cl  Cl34  1  0.60569100  0.77807100  0.70070200  1
  Cl  Cl35  1  0.77807100  0.70070200  0.60569100  1
  Cl  Cl36  1  0.60304700  0.44290000  0.95040500  1
  Cl  Cl37  1  0.44290000  0.95040500  0.60304700  1
  Cl  Cl38  1  0.95040500  0.60304700  0.44290000  1
  Cl  Cl39  1  0.39695300  0.55710000  0.04959500  1
  Cl  Cl40  1  0.55710000  0.04959500  0.39695300  1
  Cl  Cl41  1  0.04959500  0.39695300  0.55710000  1
  Cl  Cl42  1  0.02545200  0.69092300  0.27303900  1
  Cl  Cl43  1  0.69092300  0.27303900  0.02545200  1
  Cl  Cl44  1  0.27303900  0.02545200  0.69092300  1
  Cl  Cl45  1  0.97454800  0.30907700  0.72696100  1
  Cl  Cl46  1  0.30907700  0.72696100  0.97454800  1
  Cl  Cl47  1  0.72696100  0.97454800  0.30907700  1
