# generated using pymatgen
data_Li7BiO6
_symmetry_space_group_name_H-M   'P 1'
_cell_length_a   5.52968000
_cell_length_b   5.58373213
_cell_length_c   6.04743907
_cell_angle_alpha   63.55846673
_cell_angle_beta   64.54601636
_cell_angle_gamma   60.93567652
_symmetry_Int_Tables_number   1
_chemical_formula_structural   Li7BiO6
_chemical_formula_sum   'Li7 Bi1 O6'
_cell_volume   140.59469181
_cell_formula_units_Z   1
loop_
 _symmetry_equiv_pos_site_id
 _symmetry_equiv_pos_as_xyz
  1  'x, y, z'
loop_
 _atom_site_type_symbol
 _atom_site_label
 _atom_site_symmetry_multiplicity
 _atom_site_fract_x
 _atom_site_fract_y
 _atom_site_fract_z
 _atom_site_occupancy
  Li  Li0  1  0.10988500  0.74253800  0.61703800  1
  Li  Li1  1  0.47143600  0.15123400  0.61368400  1
  Li  Li2  1  0.35750100  0.33541100  0.98939300  1
  Li  Li3  1  0.62668700  0.63428700  0.05240100  1
  Li  Li4  1  0.50530600  0.89508700  0.37130400  1
  Li  Li5  1  0.91158700  0.23285400  0.35391500  1
  Li  Li6  1  0.80293600  0.49130400  0.62138800  1
  Bi  Bi7  1  0.00849500  0.97890700  0.00598800  1
  O  O8  1  0.09134000  0.37251800  0.78616600  1
  O  O9  1  0.24337600  0.91725300  0.24135300  1
  O  O10  1  0.62186400  0.22236700  0.23573300  1
  O  O11  1  0.39784700  0.75497200  0.75747300  1
  O  O12  1  0.78108600  0.09744100  0.73363600  1
  O  O13  1  0.88065600  0.61882800  0.24252900  1
