# generated using pymatgen
data_MgTiO3
_symmetry_space_group_name_H-M   'P 1'
_cell_length_a   5.53133974
_cell_length_b   5.53133974
_cell_length_c   5.53134039
_cell_angle_alpha   54.94174579
_cell_angle_beta   54.94174579
_cell_angle_gamma   54.94174788
_symmetry_Int_Tables_number   1
_chemical_formula_structural   MgTiO3
_chemical_formula_sum   'Mg2 Ti2 O6'
_cell_volume   105.58040383
_cell_formula_units_Z   2
loop_
 _symmetry_equiv_pos_site_id
 _symmetry_equiv_pos_as_xyz
  1  'x, y, z'
loop_
 _atom_site_type_symbol
 _atom_site_label
 _atom_site_symmetry_multiplicity
 _atom_site_fract_x
 _atom_site_fract_y
 _atom_site_fract_z
 _atom_site_occupancy
  Mg  Mg0  1  0.64526900  0.64526900  0.64526900  1
  Mg  Mg1  1  0.35473100  0.35473100  0.35473100  1
  Ti  Ti2  1  0.85638900  0.85638900  0.85638900  1
  Ti  Ti3  1  0.14361100  0.14361100  0.14361100  1
  O  O4  1  0.56299000  0.95183500  0.22524500  1
  O  O5  1  0.95183500  0.22524500  0.56299000  1
  O  O6  1  0.22524500  0.56299000  0.95183500  1
  O  O7  1  0.43701000  0.04816500  0.77475500  1
  O  O8  1  0.77475500  0.43701000  0.04816500  1
  O  O9  1  0.04816500  0.77475500  0.43701000  1
