# generated using pymatgen
data_Np(SiRu)2
_symmetry_space_group_name_H-M   'P 1'
_cell_length_a   5.63952855
_cell_length_b   5.63952855
_cell_length_c   5.63952855
_cell_angle_alpha   136.68445492
_cell_angle_beta   136.68445492
_cell_angle_gamma   62.92391356
_symmetry_Int_Tables_number   1
_chemical_formula_structural   Np(SiRu)2
_chemical_formula_sum   'Np1 Si2 Ru2'
_cell_volume   83.35451511
_cell_formula_units_Z   1
loop_
 _symmetry_equiv_pos_site_id
 _symmetry_equiv_pos_as_xyz
  1  'x, y, z'
loop_
 _atom_site_type_symbol
 _atom_site_label
 _atom_site_symmetry_multiplicity
 _atom_site_fract_x
 _atom_site_fract_y
 _atom_site_fract_z
 _atom_site_occupancy
  Np  Np0  1  0.00000000  0.00000000  0.00000000  1
  Si  Si1  1  0.62792200  0.62792200  0.00000000  1
  Si  Si2  1  0.37207800  0.37207800  0.00000000  1
  Ru  Ru3  1  0.25000000  0.75000000  0.50000000  1
  Ru  Ru4  1  0.75000000  0.25000000  0.50000000  1
