# generated using pymatgen
data_Er2(SeO3)3
_symmetry_space_group_name_H-M   'P 1'
_cell_length_a   7.05326900
_cell_length_b   8.09715487
_cell_length_c   9.04767718
_cell_angle_alpha   71.55650130
_cell_angle_beta   70.04556868
_cell_angle_gamma   66.06132807
_symmetry_Int_Tables_number   1
_chemical_formula_structural   Er2(SeO3)3
_chemical_formula_sum   'Er4 Se6 O18'
_cell_volume   434.30209682
_cell_formula_units_Z   2
loop_
 _symmetry_equiv_pos_site_id
 _symmetry_equiv_pos_as_xyz
  1  'x, y, z'
loop_
 _atom_site_type_symbol
 _atom_site_label
 _atom_site_symmetry_multiplicity
 _atom_site_fract_x
 _atom_site_fract_y
 _atom_site_fract_z
 _atom_site_occupancy
  Er  Er0  1  0.33450800  0.72667300  0.59079200  1
  Er  Er1  1  0.66549200  0.27332700  0.40920800  1
  Er  Er2  1  0.74195100  0.73588400  0.79738100  1
  Er  Er3  1  0.25804900  0.26411600  0.20261900  1
  Se  Se4  1  0.42728400  0.77524800  0.19806500  1
  Se  Se5  1  0.57271600  0.22475200  0.80193500  1
  Se  Se6  1  0.14735400  0.75008000  0.96529700  1
  Se  Se7  1  0.85264600  0.24992000  0.03470300  1
  Se  Se8  1  0.88627500  0.76001800  0.41448100  1
  Se  Se9  1  0.11372500  0.23998200  0.58551900  1
  O  O10  1  0.65054900  0.79139100  0.04982300  1
  O  O11  1  0.34945100  0.20860900  0.95017700  1
  O  O12  1  0.36015300  0.94462700  0.30488600  1
  O  O13  1  0.63984700  0.05537300  0.69511400  1
  O  O14  1  0.51760000  0.59392200  0.35225900  1
  O  O15  1  0.48240000  0.40607800  0.64774100  1
  O  O16  1  0.16702400  0.56528400  0.12095000  1
  O  O17  1  0.83297600  0.43471600  0.87905000  1
  O  O18  1  0.40898600  0.71080300  0.84855400  1
  O  O19  1  0.59101400  0.28919700  0.15144600  1
  O  O20  1  0.34493100  0.25317000  0.43530700  1
  O  O21  1  0.65506900  0.74683000  0.56469300  1
  O  O22  1  0.96675900  0.29327300  0.44455000  1
  O  O23  1  0.03324100  0.70672700  0.55545000  1
  O  O24  1  0.15987500  0.01110700  0.65366800  1
  O  O25  1  0.84012500  0.98889300  0.34633200  1
  O  O26  1  0.93289400  0.30608500  0.16892400  1
  O  O27  1  0.06710600  0.69391500  0.83107600  1
