# generated using pymatgen
data_Ta2CrO6
_symmetry_space_group_name_H-M   'P 1'
_cell_length_a   4.81810880
_cell_length_b   4.83008100
_cell_length_c   18.77802203
_cell_angle_alpha   90.00228258
_cell_angle_beta   91.40542299
_cell_angle_gamma   89.99635808
_symmetry_Int_Tables_number   1
_chemical_formula_structural   Ta2CrO6
_chemical_formula_sum   'Ta8 Cr4 O24'
_cell_volume   436.86795757
_cell_formula_units_Z   4
loop_
 _symmetry_equiv_pos_site_id
 _symmetry_equiv_pos_as_xyz
  1  'x, y, z'
loop_
 _atom_site_type_symbol
 _atom_site_label
 _atom_site_symmetry_multiplicity
 _atom_site_fract_x
 _atom_site_fract_y
 _atom_site_fract_z
 _atom_site_occupancy
  Ta  Ta0  1  0.50177600  0.48764200  0.41599900  1
  Ta  Ta1  1  0.50181500  0.48764100  0.91600600  1
  Ta  Ta2  1  0.99829800  0.98763300  0.33400000  1
  Ta  Ta3  1  0.99822700  0.98761300  0.83400100  1
  Ta  Ta4  1  0.49825200  0.51239000  0.08399800  1
  Ta  Ta5  1  0.49819800  0.51242300  0.58399900  1
  Ta  Ta6  1  0.00173500  0.01251400  0.16599400  1
  Ta  Ta7  1  0.00173700  0.01246400  0.66600000  1
  Cr  Cr8  1  0.99979000  0.00011300  0.49992500  1
  Cr  Cr9  1  0.50003100  0.50006200  0.75004500  1
  Cr  Cr10  1  0.00007600  0.99993800  0.00000500  1
  Cr  Cr11  1  0.50007700  0.50020300  0.24998500  1
  O  O12  1  0.71046500  0.72716200  0.15579100  1
  O  O13  1  0.71036300  0.72721800  0.65582900  1
  O  O14  1  0.21038100  0.77278600  0.40583900  1
  O  O15  1  0.21044500  0.77269000  0.90577700  1
  O  O16  1  0.28962900  0.27262800  0.34423500  1
  O  O17  1  0.28969100  0.27270200  0.84417100  1
  O  O18  1  0.78946000  0.22710200  0.09422000  1
  O  O19  1  0.78945100  0.22711600  0.59419200  1
  O  O20  1  0.31356500  0.31388700  0.50034900  1
  O  O21  1  0.31363900  0.31394100  0.00031600  1
  O  O22  1  0.18635500  0.81398100  0.24967900  1
  O  O23  1  0.18642300  0.81390500  0.74964900  1
  O  O24  1  0.81366000  0.18606200  0.25035700  1
  O  O25  1  0.81352500  0.18610300  0.75035100  1
  O  O26  1  0.68638300  0.68607900  0.99964500  1
  O  O27  1  0.68649000  0.68611500  0.49966100  1
  O  O28  1  0.20264600  0.81107700  0.08826700  1
  O  O29  1  0.20263100  0.81105100  0.58820400  1
  O  O30  1  0.79703100  0.18894400  0.41177400  1
  O  O31  1  0.79733600  0.18897400  0.91175100  1
  O  O32  1  0.29738700  0.31110400  0.16174000  1
  O  O33  1  0.29739100  0.31109100  0.66179400  1
  O  O34  1  0.70283800  0.68883900  0.33825100  1
  O  O35  1  0.70280200  0.68880700  0.83820300  1
