# generated using pymatgen
data_Li2MoO3
_symmetry_space_group_name_H-M   'P 1'
_cell_length_a   5.25803380
_cell_length_b   5.25803380
_cell_length_c   5.27737709
_cell_angle_alpha   80.43495074
_cell_angle_beta   80.43495074
_cell_angle_gamma   119.99307691
_symmetry_Int_Tables_number   1
_chemical_formula_structural   Li2MoO3
_chemical_formula_sum   'Li4 Mo2 O6'
_cell_volume   119.18388658
_cell_formula_units_Z   2
loop_
 _symmetry_equiv_pos_site_id
 _symmetry_equiv_pos_as_xyz
  1  'x, y, z'
loop_
 _atom_site_type_symbol
 _atom_site_label
 _atom_site_symmetry_multiplicity
 _atom_site_fract_x
 _atom_site_fract_y
 _atom_site_fract_z
 _atom_site_occupancy
  Li  Li0  1  0.65800500  0.34199500  0.50000000  1
  Li  Li1  1  0.34199500  0.65800500  0.50000000  1
  Li  Li2  1  0.00000000  0.00000000  0.50000000  1
  Li  Li3  1  0.50000000  0.50000000  0.00000000  1
  Mo  Mo4  1  0.16711700  0.83288300  0.00000000  1
  Mo  Mo5  1  0.83288300  0.16711700  0.00000000  1
  O  O6  1  0.57942500  0.92650400  0.76302900  1
  O  O7  1  0.42057500  0.07349600  0.23697100  1
  O  O8  1  0.23241900  0.23241900  0.76056200  1
  O  O9  1  0.07349600  0.42057500  0.23697100  1
  O  O10  1  0.92650400  0.57942500  0.76302900  1
  O  O11  1  0.76758100  0.76758100  0.23943800  1
