# generated using pymatgen
data_K6Tl2Sb3
_symmetry_space_group_name_H-M   'P 1'
_cell_length_a   10.05514670
_cell_length_b   10.05514670
_cell_length_c   20.04402102
_cell_angle_alpha   82.96631631
_cell_angle_beta   82.96631631
_cell_angle_gamma   119.49550447
_symmetry_Int_Tables_number   1
_chemical_formula_structural   K6Tl2Sb3
_chemical_formula_sum   'K24 Tl8 Sb12'
_cell_volume   1711.02006287
_cell_formula_units_Z   4
loop_
 _symmetry_equiv_pos_site_id
 _symmetry_equiv_pos_as_xyz
  1  'x, y, z'
loop_
 _atom_site_type_symbol
 _atom_site_label
 _atom_site_symmetry_multiplicity
 _atom_site_fract_x
 _atom_site_fract_y
 _atom_site_fract_z
 _atom_site_occupancy
  K  K0  1  0.48552900  0.33626600  0.94580500  1
  K  K1  1  0.66373400  0.51447100  0.55419500  1
  K  K2  1  0.51447100  0.66373400  0.05419500  1
  K  K3  1  0.33626600  0.48552900  0.44580500  1
  K  K4  1  0.21672700  0.67204900  0.94641500  1
  K  K5  1  0.32795100  0.78327300  0.55358500  1
  K  K6  1  0.78327300  0.32795100  0.05358500  1
  K  K7  1  0.67204900  0.21672700  0.44641500  1
  K  K8  1  0.58770600  0.07569300  0.82240400  1
  K  K9  1  0.92430700  0.41229400  0.67759600  1
  K  K10  1  0.41229400  0.92430700  0.17759600  1
  K  K11  1  0.07569300  0.58770600  0.32240400  1
  K  K12  1  0.24361300  0.41305700  0.82248900  1
  K  K13  1  0.58694300  0.75638700  0.67751100  1
  K  K14  1  0.75638700  0.58694300  0.17751100  1
  K  K15  1  0.41305700  0.24361300  0.32248900  1
  K  K16  1  0.12543400  0.93808100  0.05431800  1
  K  K17  1  0.06191900  0.87456600  0.44568200  1
  K  K18  1  0.87456600  0.06191900  0.94568200  1
  K  K19  1  0.93808100  0.12543400  0.55431800  1
  K  K20  1  0.97638800  0.02361200  0.75000000  1
  K  K21  1  0.02361200  0.97638800  0.25000000  1
  K  K22  1  0.20013400  0.79986600  0.75000000  1
  K  K23  1  0.79986600  0.20013400  0.25000000  1
  Tl  Tl24  1  0.87527500  0.70538000  0.92920500  1
  Tl  Tl25  1  0.29462000  0.12472500  0.57079500  1
  Tl  Tl26  1  0.12472500  0.29462000  0.07079500  1
  Tl  Tl27  1  0.70538000  0.87527500  0.42920500  1
  Tl  Tl28  1  0.73214500  0.56101600  0.77227100  1
  Tl  Tl29  1  0.43898400  0.26785500  0.72772900  1
  Tl  Tl30  1  0.26785500  0.43898400  0.22772900  1
  Tl  Tl31  1  0.56101600  0.73214500  0.27227100  1
  Sb  Sb32  1  0.60490000  0.72752000  0.86191700  1
  Sb  Sb33  1  0.27248000  0.39510000  0.63808300  1
  Sb  Sb34  1  0.39510000  0.27248000  0.13808300  1
  Sb  Sb35  1  0.72752000  0.60490000  0.36191700  1
  Sb  Sb36  1  0.96716100  0.78969000  0.63055200  1
  Sb  Sb37  1  0.21031000  0.03283900  0.86944800  1
  Sb  Sb38  1  0.03283900  0.21031000  0.36944800  1
  Sb  Sb39  1  0.78969000  0.96716100  0.13055200  1
  Sb  Sb40  1  0.88717000  0.42835600  0.86491800  1
  Sb  Sb41  1  0.57164400  0.11283000  0.63508200  1
  Sb  Sb42  1  0.11283000  0.57164400  0.13508200  1
  Sb  Sb43  1  0.42835600  0.88717000  0.36491800  1
