# generated using pymatgen
data_RbSO3
_symmetry_space_group_name_H-M   'P 1'
_cell_length_a   10.33246683
_cell_length_b   10.33246683
_cell_length_c   6.68497900
_cell_angle_alpha   90.00000000
_cell_angle_beta   90.00000000
_cell_angle_gamma   120.00000532
_symmetry_Int_Tables_number   1
_chemical_formula_structural   RbSO3
_chemical_formula_sum   'Rb6 S6 O18'
_cell_volume   618.07146745
_cell_formula_units_Z   6
loop_
 _symmetry_equiv_pos_site_id
 _symmetry_equiv_pos_as_xyz
  1  'x, y, z'
loop_
 _atom_site_type_symbol
 _atom_site_label
 _atom_site_symmetry_multiplicity
 _atom_site_fract_x
 _atom_site_fract_y
 _atom_site_fract_z
 _atom_site_occupancy
  Rb  Rb0  1  0.29501100  0.00000000  0.50000000  1
  Rb  Rb1  1  0.00000000  0.29501100  0.50000000  1
  Rb  Rb2  1  0.70498900  0.70498900  0.50000000  1
  Rb  Rb3  1  0.61918500  0.00000000  0.00000000  1
  Rb  Rb4  1  0.00000000  0.61918500  0.00000000  1
  Rb  Rb5  1  0.38081500  0.38081500  0.00000000  1
  S  S6  1  0.00000000  0.00000000  0.16692600  1
  S  S7  1  0.00000000  0.00000000  0.83307400  1
  S  S8  1  0.33333300  0.66666700  0.59648400  1
  S  S9  1  0.66666700  0.33333300  0.40351600  1
  S  S10  1  0.33333300  0.66666700  0.26533900  1
  S  S11  1  0.66666700  0.33333300  0.73466100  1
  O  O12  1  0.21037800  0.51783400  0.20733300  1
  O  O13  1  0.48216600  0.69254400  0.20733300  1
  O  O14  1  0.30745600  0.78962200  0.20733300  1
  O  O15  1  0.69254400  0.48216600  0.79266700  1
  O  O16  1  0.78962200  0.30745600  0.79266700  1
  O  O17  1  0.51783400  0.21037800  0.79266700  1
  O  O18  1  0.17817100  0.62056800  0.64960300  1
  O  O19  1  0.37943200  0.55760400  0.64960300  1
  O  O20  1  0.44239600  0.82182900  0.64960300  1
  O  O21  1  0.55760400  0.37943200  0.35039700  1
  O  O22  1  0.82182900  0.44239600  0.35039700  1
  O  O23  1  0.62056800  0.17817100  0.35039700  1
  O  O24  1  0.15185300  0.11643800  0.22414600  1
  O  O25  1  0.88356200  0.03541400  0.22414600  1
  O  O26  1  0.96458600  0.84814700  0.22414600  1
  O  O27  1  0.03541400  0.88356200  0.77585400  1
  O  O28  1  0.84814700  0.96458600  0.77585400  1
  O  O29  1  0.11643800  0.15185300  0.77585400  1
