# generated using pymatgen
data_Bi4I2O5
_symmetry_space_group_name_H-M   'P 1'
_cell_length_a   5.81232500
_cell_length_b   11.49694600
_cell_length_c   15.19819164
_cell_angle_alpha   79.75548642
_cell_angle_beta   90.00000000
_cell_angle_gamma   90.00000000
_symmetry_Int_Tables_number   1
_chemical_formula_structural   Bi4I2O5
_chemical_formula_sum   'Bi16 I8 O20'
_cell_volume   999.41272843
_cell_formula_units_Z   4
loop_
 _symmetry_equiv_pos_site_id
 _symmetry_equiv_pos_as_xyz
  1  'x, y, z'
loop_
 _atom_site_type_symbol
 _atom_site_label
 _atom_site_symmetry_multiplicity
 _atom_site_fract_x
 _atom_site_fract_y
 _atom_site_fract_z
 _atom_site_occupancy
  Bi  Bi0  1  0.25132200  0.77289000  0.14748700  1
  Bi  Bi1  1  0.75132200  0.22711000  0.85251300  1
  Bi  Bi2  1  0.75208000  0.62683400  0.29680900  1
  Bi  Bi3  1  0.25208000  0.37316600  0.70319100  1
  Bi  Bi4  1  0.19280900  0.72946800  0.88464800  1
  Bi  Bi5  1  0.69280900  0.27053200  0.11535200  1
  Bi  Bi6  1  0.63406900  0.59033800  0.04128500  1
  Bi  Bi7  1  0.13406900  0.40966200  0.95871500  1
  Bi  Bi8  1  0.16136700  0.42783000  0.21395000  1
  Bi  Bi9  1  0.66136700  0.57217000  0.78605000  1
  Bi  Bi10  1  0.73324300  0.26588500  0.36406900  1
  Bi  Bi11  1  0.23324300  0.73411500  0.63593100  1
  Bi  Bi12  1  0.24506000  0.07375600  0.53982200  1
  Bi  Bi13  1  0.74506000  0.92624400  0.46017800  1
  Bi  Bi14  1  0.74170200  0.90664400  0.70467500  1
  Bi  Bi15  1  0.24170200  0.09335600  0.29532500  1
  I  I16  1  0.25354900  0.77671100  0.38398900  1
  I  I17  1  0.75354900  0.22328900  0.61601100  1
  I  I18  1  0.77785300  0.60851400  0.55808200  1
  I  I19  1  0.27785300  0.39148600  0.44191800  1
  I  I20  1  0.75166800  0.94375000  0.22353200  1
  I  I21  1  0.77078500  0.87989000  0.95192200  1
  I  I22  1  0.27078500  0.12011000  0.04807800  1
  I  I23  1  0.25166800  0.05625000  0.77646800  1
  O  O24  1  0.28892600  0.68926500  0.03346000  1
  O  O25  1  0.78892600  0.31073500  0.96654000  1
  O  O26  1  0.00668200  0.63859400  0.19339800  1
  O  O27  1  0.50668200  0.36140600  0.80660200  1
  O  O28  1  0.50575300  0.63859600  0.19105500  1
  O  O29  1  0.00575300  0.36140400  0.80894500  1
  O  O30  1  0.80385800  0.44629900  0.28461500  1
  O  O31  1  0.30385800  0.55370100  0.71538500  1
  O  O32  1  0.95412800  0.42126700  0.09321800  1
  O  O33  1  0.45412800  0.57873300  0.90678200  1
  O  O34  1  0.45108900  0.42066800  0.08722500  1
  O  O35  1  0.95108900  0.57933200  0.91277500  1
  O  O36  1  0.98657400  0.92358400  0.58026700  1
  O  O37  1  0.48657400  0.07641600  0.41973300  1
  O  O38  1  0.50472100  0.92140900  0.58084200  1
  O  O39  1  0.00472100  0.07859100  0.41915800  1
  O  O40  1  0.47926600  0.24812200  0.25966500  1
  O  O41  1  0.49229700  0.75636800  0.74460500  1
  O  O42  1  0.99229700  0.24363200  0.25539500  1
  O  O43  1  0.97926600  0.75187800  0.74033500  1
