# generated using pymatgen
data_Li4TaN3
_symmetry_space_group_name_H-M   'P 1'
_cell_length_a   8.96926157
_cell_length_b   8.96926157
_cell_length_c   8.96926078
_cell_angle_alpha   148.06462088
_cell_angle_beta   114.03993435
_cell_angle_gamma   75.16605184
_symmetry_Int_Tables_number   1
_chemical_formula_structural   Li4TaN3
_chemical_formula_sum   'Li16 Ta4 N12'
_cell_volume   342.50880285
_cell_formula_units_Z   4
loop_
 _symmetry_equiv_pos_site_id
 _symmetry_equiv_pos_as_xyz
  1  'x, y, z'
loop_
 _atom_site_type_symbol
 _atom_site_label
 _atom_site_symmetry_multiplicity
 _atom_site_fract_x
 _atom_site_fract_y
 _atom_site_fract_z
 _atom_site_occupancy
  Li  Li0  1  0.87904500  0.93849000  0.98796800  1
  Li  Li1  1  0.62095500  0.60892400  0.05944500  1
  Li  Li2  1  0.04947800  0.56151000  0.44055500  1
  Li  Li3  1  0.45052100  0.89107600  0.51203200  1
  Li  Li4  1  0.12095500  0.06151000  0.01203200  1
  Li  Li5  1  0.37904500  0.39107600  0.94055500  1
  Li  Li6  1  0.95052200  0.43849000  0.55944500  1
  Li  Li7  1  0.54947800  0.10892400  0.48796900  1
  Li  Li8  1  0.47570000  0.22570000  0.25000000  1
  Li  Li9  1  0.02430000  0.27430000  0.75000000  1
  Li  Li10  1  0.52430000  0.77430000  0.75000000  1
  Li  Li11  1  0.97570000  0.72570000  0.25000000  1
  Li  Li12  1  0.25000000  0.65467800  0.40467800  1
  Li  Li13  1  0.75000000  0.84532200  0.09532200  1
  Li  Li14  1  0.75000000  0.34532200  0.59532200  1
  Li  Li15  1  0.25000000  0.15467800  0.90467800  1
  Ta  Ta16  1  0.66933300  0.41933300  0.25000000  1
  Ta  Ta17  1  0.83066700  0.08066700  0.75000000  1
  Ta  Ta18  1  0.33066700  0.58066700  0.75000000  1
  Ta  Ta19  1  0.16933300  0.91933300  0.25000000  1
  N  N20  1  0.86546300  0.75000000  0.61546300  1
  N  N21  1  0.63453700  0.25000000  0.88453700  1
  N  N22  1  0.13453700  0.25000000  0.38453700  1
  N  N23  1  0.36546300  0.75000000  0.11546300  1
  N  N24  1  0.46107500  0.51745000  0.30559700  1
  N  N25  1  0.03892500  0.34452200  0.05637500  1
  N  N26  1  0.78814700  0.98255000  0.44362500  1
  N  N27  1  0.71185300  0.15547800  0.19440300  1
  N  N28  1  0.53892500  0.48255000  0.69440300  1
  N  N29  1  0.96107500  0.65547800  0.94362500  1
  N  N30  1  0.21185300  0.01745000  0.55637500  1
  N  N31  1  0.28814700  0.84452200  0.80559700  1
