# generated using pymatgen
data_Ca3Ga3Ir2
_symmetry_space_group_name_H-M   'P 1'
_cell_length_a   5.84120500
_cell_length_b   8.11745900
_cell_length_c   14.98651100
_cell_angle_alpha   90.00000000
_cell_angle_beta   90.00000000
_cell_angle_gamma   90.00000000
_symmetry_Int_Tables_number   1
_chemical_formula_structural   Ca3Ga3Ir2
_chemical_formula_sum   'Ca12 Ga12 Ir8'
_cell_volume   710.59654053
_cell_formula_units_Z   4
loop_
 _symmetry_equiv_pos_site_id
 _symmetry_equiv_pos_as_xyz
  1  'x, y, z'
loop_
 _atom_site_type_symbol
 _atom_site_label
 _atom_site_symmetry_multiplicity
 _atom_site_fract_x
 _atom_site_fract_y
 _atom_site_fract_z
 _atom_site_occupancy
  Ca  Ca0  1  0.88811300  0.45202000  0.10778100  1
  Ca  Ca1  1  0.38811300  0.04798000  0.89221900  1
  Ca  Ca2  1  0.61188700  0.95202000  0.39221900  1
  Ca  Ca3  1  0.11188700  0.54798000  0.60778100  1
  Ca  Ca4  1  0.11188700  0.54798000  0.89221900  1
  Ca  Ca5  1  0.61188700  0.95202000  0.10778100  1
  Ca  Ca6  1  0.38811300  0.04798000  0.60778100  1
  Ca  Ca7  1  0.88811300  0.45202000  0.39221900  1
  Ca  Ca8  1  0.37830700  0.30031000  0.25000000  1
  Ca  Ca9  1  0.87830700  0.19969000  0.75000000  1
  Ca  Ca10  1  0.12169300  0.80031000  0.25000000  1
  Ca  Ca11  1  0.62169300  0.69969000  0.75000000  1
  Ga  Ga12  1  0.91999100  0.14400700  0.25000000  1
  Ga  Ga13  1  0.41999100  0.35599300  0.75000000  1
  Ga  Ga14  1  0.58000900  0.64400700  0.25000000  1
  Ga  Ga15  1  0.08000900  0.85599300  0.75000000  1
  Ga  Ga16  1  0.37605300  0.32183600  0.03930700  1
  Ga  Ga17  1  0.87605300  0.17816400  0.96069300  1
  Ga  Ga18  1  0.12394700  0.82183600  0.46069300  1
  Ga  Ga19  1  0.62394700  0.67816400  0.53930700  1
  Ga  Ga20  1  0.62394700  0.67816400  0.96069300  1
  Ga  Ga21  1  0.12394700  0.82183600  0.03930700  1
  Ga  Ga22  1  0.87605300  0.17816400  0.53930700  1
  Ga  Ga23  1  0.37605300  0.32183600  0.46069300  1
  Ir  Ir24  1  0.10626800  0.11026400  0.09936900  1
  Ir  Ir25  1  0.60626800  0.38973600  0.90063100  1
  Ir  Ir26  1  0.39373200  0.61026400  0.40063100  1
  Ir  Ir27  1  0.89373200  0.88973600  0.59936900  1
  Ir  Ir28  1  0.89373200  0.88973600  0.90063100  1
  Ir  Ir29  1  0.39373200  0.61026400  0.09936900  1
  Ir  Ir30  1  0.60626800  0.38973600  0.59936900  1
  Ir  Ir31  1  0.10626800  0.11026400  0.40063100  1
