# generated using pymatgen
data_Ba3(LiSn2)4
_symmetry_space_group_name_H-M   'P 1'
_cell_length_a   9.96705371
_cell_length_b   9.96705371
_cell_length_c   6.89966016
_cell_angle_alpha   81.77321006
_cell_angle_beta   81.77321006
_cell_angle_gamma   39.76064010
_symmetry_Int_Tables_number   1
_chemical_formula_structural   Ba3(LiSn2)4
_chemical_formula_sum   'Ba3 Li4 Sn8'
_cell_volume   433.28209597
_cell_formula_units_Z   1
loop_
 _symmetry_equiv_pos_site_id
 _symmetry_equiv_pos_as_xyz
  1  'x, y, z'
loop_
 _atom_site_type_symbol
 _atom_site_label
 _atom_site_symmetry_multiplicity
 _atom_site_fract_x
 _atom_site_fract_y
 _atom_site_fract_z
 _atom_site_occupancy
  Ba  Ba0  1  0.32273500  0.32273500  0.31407300  1
  Ba  Ba1  1  0.00000000  0.00000000  0.00000000  1
  Ba  Ba2  1  0.67726500  0.67726500  0.68592700  1
  Li  Li3  1  0.78741400  0.78741400  0.12988200  1
  Li  Li4  1  0.21258600  0.21258600  0.87011800  1
  Li  Li5  1  0.78441900  0.21558100  0.50000000  1
  Li  Li6  1  0.21558100  0.78441900  0.50000000  1
  Sn  Sn7  1  0.41514800  0.88649500  0.19623400  1
  Sn  Sn8  1  0.58485200  0.11350500  0.80376600  1
  Sn  Sn9  1  0.88649500  0.41514800  0.19623400  1
  Sn  Sn10  1  0.12859900  0.12859900  0.54926800  1
  Sn  Sn11  1  0.87140100  0.87140100  0.45073200  1
  Sn  Sn12  1  0.48427300  0.48427300  0.79732900  1
  Sn  Sn13  1  0.51572700  0.51572700  0.20267100  1
  Sn  Sn14  1  0.11350500  0.58485200  0.80376600  1
