# generated using pymatgen
data_Sc3FeC4
_symmetry_space_group_name_H-M   'P 1'
_cell_length_a   6.65642641
_cell_length_b   6.65642641
_cell_length_c   6.65642641
_cell_angle_alpha   150.46309762
_cell_angle_beta   141.79976070
_cell_angle_gamma   49.01262826
_symmetry_Int_Tables_number   1
_chemical_formula_structural   Sc3FeC4
_chemical_formula_sum   'Sc3 Fe1 C4'
_cell_volume   89.53993060
_cell_formula_units_Z   1
loop_
 _symmetry_equiv_pos_site_id
 _symmetry_equiv_pos_as_xyz
  1  'x, y, z'
loop_
 _atom_site_type_symbol
 _atom_site_label
 _atom_site_symmetry_multiplicity
 _atom_site_fract_x
 _atom_site_fract_y
 _atom_site_fract_z
 _atom_site_occupancy
  Sc  Sc0  1  0.50000000  0.00000000  0.50000000  1
  Sc  Sc1  1  0.18850000  0.18850000  0.00000000  1
  Sc  Sc2  1  0.81150000  0.81150000  0.00000000  1
  Fe  Fe3  1  0.00000000  0.50000000  0.50000000  1
  C  C4  1  0.21028300  0.37608400  0.83419900  1
  C  C5  1  0.78971700  0.62391600  0.16580100  1
  C  C6  1  0.45811500  0.62391600  0.83419900  1
  C  C7  1  0.54188500  0.37608400  0.16580100  1
