# generated using pymatgen
data_La3(VN3)2
_symmetry_space_group_name_H-M   'P 1'
_cell_length_a   10.39271548
_cell_length_b   10.39271548
_cell_length_c   10.39271548
_cell_angle_alpha   158.30989815
_cell_angle_beta   158.30989815
_cell_angle_gamma   30.86338986
_symmetry_Int_Tables_number   1
_chemical_formula_structural   La3(VN3)2
_chemical_formula_sum   'La3 V2 N6'
_cell_volume   153.22372320
_cell_formula_units_Z   1
loop_
 _symmetry_equiv_pos_site_id
 _symmetry_equiv_pos_as_xyz
  1  'x, y, z'
loop_
 _atom_site_type_symbol
 _atom_site_label
 _atom_site_symmetry_multiplicity
 _atom_site_fract_x
 _atom_site_fract_y
 _atom_site_fract_z
 _atom_site_occupancy
  La  La0  1  0.00000000  0.00000000  0.00000000  1
  La  La1  1  0.82231200  0.82231200  0.00000000  1
  La  La2  1  0.17768800  0.17768800  0.00000000  1
  V  V3  1  0.39668400  0.39668400  0.00000000  1
  V  V4  1  0.60331600  0.60331600  0.00000000  1
  N  N5  1  0.08694000  0.58694000  0.50000000  1
  N  N6  1  0.58694000  0.08694000  0.50000000  1
  N  N7  1  0.91306000  0.41306000  0.50000000  1
  N  N8  1  0.41306000  0.91306000  0.50000000  1
  N  N9  1  0.69370300  0.69370300  0.00000000  1
  N  N10  1  0.30629700  0.30629700  0.00000000  1
