# generated using pymatgen
data_HfO2
_symmetry_space_group_name_H-M   'P 1'
_cell_length_a   5.19514800
_cell_length_b   5.14231900
_cell_length_c   5.32603846
_cell_angle_alpha   80.32547070
_cell_angle_beta   90.00000000
_cell_angle_gamma   90.00000000
_symmetry_Int_Tables_number   1
_chemical_formula_structural   HfO2
_chemical_formula_sum   'Hf4 O8'
_cell_volume   140.26214593
_cell_formula_units_Z   4
loop_
 _symmetry_equiv_pos_site_id
 _symmetry_equiv_pos_as_xyz
  1  'x, y, z'
loop_
 _atom_site_type_symbol
 _atom_site_label
 _atom_site_symmetry_multiplicity
 _atom_site_fract_x
 _atom_site_fract_y
 _atom_site_fract_z
 _atom_site_occupancy
  Hf  Hf0  1  0.54268100  0.72404100  0.70789100  1
  Hf  Hf1  1  0.04268100  0.27595900  0.79210900  1
  Hf  Hf2  1  0.45731900  0.27595900  0.29210900  1
  Hf  Hf3  1  0.95731900  0.72404100  0.20789100  1
  O  O4  1  0.25739700  0.55111300  0.97770800  1
  O  O5  1  0.75739700  0.44888700  0.52229200  1
  O  O6  1  0.74260300  0.44888700  0.02229200  1
  O  O7  1  0.24260300  0.55111300  0.47770800  1
  O  O8  1  0.66987800  0.93215100  0.34709400  1
  O  O9  1  0.16987800  0.06784900  0.15290600  1
  O  O10  1  0.33012200  0.06784900  0.65290600  1
  O  O11  1  0.83012200  0.93215100  0.84709400  1
