# generated using pymatgen
data_Re2NiO8
_symmetry_space_group_name_H-M   'P 1'
_cell_length_a   5.75237200
_cell_length_b   5.75237349
_cell_length_c   26.58264000
_cell_angle_alpha   90.00000560
_cell_angle_beta   90.00000000
_cell_angle_gamma   120.00000141
_symmetry_Int_Tables_number   1
_chemical_formula_structural   Re2NiO8
_chemical_formula_sum   'Re8 Ni4 O32'
_cell_volume   761.76808730
_cell_formula_units_Z   4
loop_
 _symmetry_equiv_pos_site_id
 _symmetry_equiv_pos_as_xyz
  1  'x, y, z'
loop_
 _atom_site_type_symbol
 _atom_site_label
 _atom_site_symmetry_multiplicity
 _atom_site_fract_x
 _atom_site_fract_y
 _atom_site_fract_z
 _atom_site_occupancy
  Re  Re0  1  0.33333300  0.66666700  0.06655600  1
  Re  Re1  1  0.33333300  0.66666700  0.31655700  1
  Re  Re2  1  0.33333300  0.66666700  0.56655600  1
  Re  Re3  1  0.33333300  0.66666700  0.81655800  1
  Re  Re4  1  0.66666700  0.33333300  0.18344600  1
  Re  Re5  1  0.66666700  0.33333300  0.43344200  1
  Re  Re6  1  0.66666700  0.33333300  0.68344100  1
  Re  Re7  1  0.66666700  0.33333300  0.93344500  1
  Ni  Ni8  1  0.00000000  0.00000000  0.50000100  1
  Ni  Ni9  1  0.00000000  0.00000000  0.74999600  1
  Ni  Ni10  1  0.00000000  0.00000000  0.99999600  1
  Ni  Ni11  1  0.00000000  0.00000000  0.25000800  1
  O  O12  1  0.66666700  0.33333300  0.11820100  1
  O  O13  1  0.66666700  0.33333300  0.36821300  1
  O  O14  1  0.66666700  0.33333300  0.61820200  1
  O  O15  1  0.66666700  0.33333300  0.86819200  1
  O  O16  1  0.33333300  0.66666700  0.13180000  1
  O  O17  1  0.33333300  0.66666700  0.38180800  1
  O  O18  1  0.33333300  0.66666700  0.63179700  1
  O  O19  1  0.33333300  0.66666700  0.88178700  1
  O  O20  1  0.81404300  0.14879800  0.20534400  1
  O  O21  1  0.81405000  0.14879400  0.45534700  1
  O  O22  1  0.81404300  0.14879100  0.70533500  1
  O  O23  1  0.81403500  0.14880300  0.95532800  1
  O  O24  1  0.14879500  0.33475300  0.04465700  1
  O  O25  1  0.14880200  0.33476700  0.29467300  1
  O  O26  1  0.14879800  0.33475300  0.54466300  1
  O  O27  1  0.14879000  0.33474300  0.79465300  1
  O  O28  1  0.66524700  0.81404300  0.04465700  1
  O  O29  1  0.66523300  0.81403600  0.29467300  1
  O  O30  1  0.66524700  0.81404600  0.54466300  1
  O  O31  1  0.66525700  0.81404800  0.79465300  1
  O  O32  1  0.18595700  0.85120400  0.04465700  1
  O  O33  1  0.18596400  0.85119800  0.29467300  1
  O  O34  1  0.18595400  0.85120200  0.54466300  1
  O  O35  1  0.18595200  0.85121000  0.79465300  1
  O  O36  1  0.85120300  0.66524400  0.20534400  1
  O  O37  1  0.85120500  0.66525500  0.45534700  1
  O  O38  1  0.85120900  0.66525200  0.70533400  1
  O  O39  1  0.85119700  0.66523100  0.95532800  1
  O  O40  1  0.33475600  0.18595700  0.20534400  1
  O  O41  1  0.33474500  0.18595000  0.45534700  1
  O  O42  1  0.33474800  0.18595600  0.70533400  1
  O  O43  1  0.33476900  0.18596500  0.95532800  1
