# generated using pymatgen
data_Dy(BO2)3
_symmetry_space_group_name_H-M   'P 1'
_cell_length_a   7.43805900
_cell_length_b   12.33113700
_cell_length_c   16.04503600
_cell_angle_alpha   90.00000000
_cell_angle_beta   90.00000000
_cell_angle_gamma   90.00000000
_symmetry_Int_Tables_number   1
_chemical_formula_structural   Dy(BO2)3
_chemical_formula_sum   'Dy16 B48 O96'
_cell_volume   1471.64628220
_cell_formula_units_Z   16
loop_
 _symmetry_equiv_pos_site_id
 _symmetry_equiv_pos_as_xyz
  1  'x, y, z'
loop_
 _atom_site_type_symbol
 _atom_site_label
 _atom_site_symmetry_multiplicity
 _atom_site_fract_x
 _atom_site_fract_y
 _atom_site_fract_z
 _atom_site_occupancy
  Dy  Dy0  1  0.25000000  0.76692100  0.87119700  1
  Dy  Dy1  1  0.75000000  0.23307900  0.12880300  1
  Dy  Dy2  1  0.75000000  0.26692100  0.62880300  1
  Dy  Dy3  1  0.25000000  0.73307900  0.37119700  1
  Dy  Dy4  1  0.25000000  0.41338200  0.54858800  1
  Dy  Dy5  1  0.75000000  0.58661800  0.45141200  1
  Dy  Dy6  1  0.75000000  0.91338200  0.95141200  1
  Dy  Dy7  1  0.25000000  0.08661800  0.04858800  1
  Dy  Dy8  1  0.25000000  0.06465600  0.67318700  1
  Dy  Dy9  1  0.75000000  0.93534400  0.32681300  1
  Dy  Dy10  1  0.75000000  0.56465600  0.82681300  1
  Dy  Dy11  1  0.25000000  0.43534400  0.17318700  1
  Dy  Dy12  1  0.25000000  0.49079000  0.88061700  1
  Dy  Dy13  1  0.75000000  0.50921000  0.11938300  1
  Dy  Dy14  1  0.75000000  0.99079000  0.61938300  1
  Dy  Dy15  1  0.25000000  0.00921000  0.38061700  1
  B  B16  1  0.06997900  0.81306300  0.21695600  1
  B  B17  1  0.56040100  0.82261900  0.46771700  1
  B  B18  1  0.06040100  0.17738100  0.53228300  1
  B  B19  1  0.43959900  0.32261900  0.03228300  1
  B  B20  1  0.93959900  0.67738100  0.96771700  1
  B  B21  1  0.43959900  0.17738100  0.53228300  1
  B  B22  1  0.93959900  0.82261900  0.46771700  1
  B  B23  1  0.56040100  0.67738100  0.96771700  1
  B  B24  1  0.06040100  0.32261900  0.03228300  1
  B  B25  1  0.57733000  0.98217600  0.15277300  1
  B  B26  1  0.07733000  0.01782400  0.84722700  1
  B  B27  1  0.42267000  0.48217600  0.34722700  1
  B  B28  1  0.92267000  0.51782400  0.65277300  1
  B  B29  1  0.42267000  0.01782400  0.84722700  1
  B  B30  1  0.92267000  0.98217600  0.15277300  1
  B  B31  1  0.57733000  0.51782400  0.65277300  1
  B  B32  1  0.07733000  0.48217600  0.34722700  1
  B  B33  1  0.56997900  0.18693700  0.78304400  1
  B  B34  1  0.93002100  0.31306300  0.28304400  1
  B  B35  1  0.43002100  0.68693700  0.71695600  1
  B  B36  1  0.93002100  0.18693700  0.78304400  1
  B  B37  1  0.43002100  0.81306300  0.21695600  1
  B  B38  1  0.06997900  0.68693700  0.71695600  1
  B  B39  1  0.56997900  0.31306300  0.28304400  1
  B  B40  1  0.07244700  0.84522100  0.05649200  1
  B  B41  1  0.57244700  0.15477900  0.94350800  1
  B  B42  1  0.92755300  0.34522100  0.44350800  1
  B  B43  1  0.42755300  0.65477900  0.55649200  1
  B  B44  1  0.92755300  0.15477900  0.94350800  1
  B  B45  1  0.42755300  0.84522100  0.05649200  1
  B  B46  1  0.07244700  0.65477900  0.55649200  1
  B  B47  1  0.57244700  0.34522100  0.44350800  1
  B  B48  1  0.07649100  0.64308600  0.10947800  1
  B  B49  1  0.57649100  0.35691400  0.89052200  1
  B  B50  1  0.92350900  0.14308600  0.39052200  1
  B  B51  1  0.42350900  0.85691400  0.60947800  1
  B  B52  1  0.92350900  0.35691400  0.89052200  1
  B  B53  1  0.42350900  0.64308600  0.10947800  1
  B  B54  1  0.07649100  0.85691400  0.60947800  1
  B  B55  1  0.57649100  0.14308600  0.39052200  1
  B  B56  1  0.06896300  0.12742500  0.24236800  1
  B  B57  1  0.56896300  0.87257500  0.75763200  1
  B  B58  1  0.93103700  0.62742500  0.25763200  1
  B  B59  1  0.43103700  0.37257500  0.74236800  1
  B  B60  1  0.93103700  0.87257500  0.75763200  1
  B  B61  1  0.43103700  0.12742500  0.24236800  1
  B  B62  1  0.06896300  0.37257500  0.74236800  1
  B  B63  1  0.56896300  0.62742500  0.25763200  1
  O  O64  1  0.93578500  0.62235700  0.04784700  1
  O  O65  1  0.01910400  0.70904100  0.47800900  1
  O  O66  1  0.51910400  0.29095900  0.52199100  1
  O  O67  1  0.98089600  0.20904100  0.02199100  1
  O  O68  1  0.48089600  0.79095900  0.97800900  1
  O  O69  1  0.98089600  0.29095900  0.52199100  1
  O  O70  1  0.48089600  0.70904100  0.47800900  1
  O  O71  1  0.01910400  0.79095900  0.97800900  1
  O  O72  1  0.51910400  0.20904100  0.02199100  1
  O  O73  1  0.04378500  0.87684600  0.40380100  1
  O  O74  1  0.54378500  0.12315400  0.59619900  1
  O  O75  1  0.95621500  0.37684600  0.09619900  1
  O  O76  1  0.45621500  0.62315400  0.90380100  1
  O  O77  1  0.95621500  0.12315400  0.59619900  1
  O  O78  1  0.45621500  0.87684600  0.40380100  1
  O  O79  1  0.04378500  0.62315400  0.90380100  1
  O  O80  1  0.25000000  0.85334700  0.24477100  1
  O  O81  1  0.75000000  0.14665300  0.75522900  1
  O  O82  1  0.75000000  0.35334700  0.25522900  1
  O  O83  1  0.25000000  0.64665300  0.74477100  1
  O  O84  1  0.25000000  0.89673600  0.04759800  1
  O  O85  1  0.75000000  0.10326400  0.95240200  1
  O  O86  1  0.75000000  0.39673600  0.45240200  1
  O  O87  1  0.25000000  0.60326400  0.54759800  1
  O  O88  1  0.25000000  0.60531500  0.07868100  1
  O  O89  1  0.75000000  0.39468500  0.92131900  1
  O  O90  1  0.75000000  0.10531500  0.42131900  1
  O  O91  1  0.25000000  0.89468500  0.57868100  1
  O  O92  1  0.25000000  0.13655800  0.27569100  1
  O  O93  1  0.75000000  0.86344200  0.72430900  1
  O  O94  1  0.75000000  0.63655800  0.22430900  1
  O  O95  1  0.25000000  0.36344200  0.77569100  1
  O  O96  1  0.25000000  0.53981700  0.34068100  1
  O  O97  1  0.75000000  0.46018300  0.65931900  1
  O  O98  1  0.75000000  0.03981700  0.15931900  1
  O  O99  1  0.25000000  0.96018300  0.84068100  1
  O  O100  1  0.25000000  0.30650400  0.06630800  1
  O  O101  1  0.75000000  0.69349600  0.93369200  1
  O  O102  1  0.75000000  0.80650400  0.43369200  1
  O  O103  1  0.25000000  0.19349600  0.56630800  1
  O  O104  1  0.07299200  0.76486200  0.12843800  1
  O  O105  1  0.57299200  0.23513800  0.87156200  1
  O  O106  1  0.92700800  0.26486200  0.37156200  1
  O  O107  1  0.42700800  0.73513800  0.62843800  1
  O  O108  1  0.92700800  0.23513800  0.87156200  1
  O  O109  1  0.42700800  0.76486200  0.12843800  1
  O  O110  1  0.07299200  0.73513800  0.62843800  1
  O  O111  1  0.57299200  0.26486200  0.37156200  1
  O  O112  1  0.03338800  0.57687500  0.18468400  1
  O  O113  1  0.53338800  0.42312500  0.81531600  1
  O  O114  1  0.96661200  0.07687500  0.31531600  1
  O  O115  1  0.46661200  0.92312500  0.68468400  1
  O  O116  1  0.96661200  0.42312500  0.81531600  1
  O  O117  1  0.46661200  0.57687500  0.18468400  1
  O  O118  1  0.03338800  0.92312500  0.68468400  1
  O  O119  1  0.53338800  0.07687500  0.31531600  1
  O  O120  1  0.06421500  0.12235700  0.45215300  1
  O  O121  1  0.56421500  0.87764300  0.54784700  1
  O  O122  1  0.54378500  0.37684600  0.09619900  1
  O  O123  1  0.43578500  0.37764300  0.95215300  1
  O  O124  1  0.93578500  0.87764300  0.54784700  1
  O  O125  1  0.43578500  0.12235700  0.45215300  1
  O  O126  1  0.06421500  0.37764300  0.95215300  1
  O  O127  1  0.56421500  0.62235700  0.04784700  1
  O  O128  1  0.01959100  0.72929600  0.27594400  1
  O  O129  1  0.51959100  0.27070400  0.72405600  1
  O  O130  1  0.98040900  0.22929600  0.22405600  1
  O  O131  1  0.48040900  0.77070400  0.77594400  1
  O  O132  1  0.98040900  0.27070400  0.72405600  1
  O  O133  1  0.48040900  0.72929600  0.27594400  1
  O  O134  1  0.01959100  0.77070400  0.77594400  1
  O  O135  1  0.51959100  0.22929600  0.22405600  1
  O  O136  1  0.56409100  0.89828600  0.21785600  1
  O  O137  1  0.56482400  0.93590100  0.83548800  1
  O  O138  1  0.93517600  0.56409900  0.33548800  1
  O  O139  1  0.43517600  0.43590100  0.66451200  1
  O  O140  1  0.93517600  0.93590100  0.83548800  1
  O  O141  1  0.43517600  0.06409900  0.16451200  1
  O  O142  1  0.06482400  0.43590100  0.66451200  1
  O  O143  1  0.56482400  0.56409900  0.33548800  1
  O  O144  1  0.05814200  0.43180500  0.43036200  1
  O  O145  1  0.55814200  0.56819500  0.56963800  1
  O  O146  1  0.94185800  0.93180500  0.06963800  1
  O  O147  1  0.44185800  0.06819500  0.93036200  1
  O  O148  1  0.94185800  0.56819500  0.56963800  1
  O  O149  1  0.44185800  0.43180500  0.43036200  1
  O  O150  1  0.05814200  0.06819500  0.93036200  1
  O  O151  1  0.55814200  0.93180500  0.06963800  1
  O  O152  1  0.06409100  0.39828600  0.28214400  1
  O  O153  1  0.56409100  0.60171400  0.71785600  1
  O  O154  1  0.93590900  0.89828600  0.21785600  1
  O  O155  1  0.43590900  0.10171400  0.78214400  1
  O  O156  1  0.93590900  0.60171400  0.71785600  1
  O  O157  1  0.43590900  0.39828600  0.28214400  1
  O  O158  1  0.06409100  0.10171400  0.78214400  1
  O  O159  1  0.06482400  0.06409900  0.16451200  1
