# generated using pymatgen
data_CaZnSn
_symmetry_space_group_name_H-M   'P 1'
_cell_length_a   4.70569662
_cell_length_b   4.70569662
_cell_length_c   7.56569000
_cell_angle_alpha   90.00000000
_cell_angle_beta   90.00000000
_cell_angle_gamma   120.00000879
_symmetry_Int_Tables_number   1
_chemical_formula_structural   CaZnSn
_chemical_formula_sum   'Ca2 Zn2 Sn2'
_cell_volume   145.08649373
_cell_formula_units_Z   2
loop_
 _symmetry_equiv_pos_site_id
 _symmetry_equiv_pos_as_xyz
  1  'x, y, z'
loop_
 _atom_site_type_symbol
 _atom_site_label
 _atom_site_symmetry_multiplicity
 _atom_site_fract_x
 _atom_site_fract_y
 _atom_site_fract_z
 _atom_site_occupancy
  Ca  Ca0  1  0.00000000  0.00000000  0.24625500  1
  Ca  Ca1  1  0.00000000  0.00000000  0.74625500  1
  Zn  Zn2  1  0.33333300  0.66666700  0.05503100  1
  Zn  Zn3  1  0.66666700  0.33333300  0.55503100  1
  Sn  Sn4  1  0.33333300  0.66666700  0.46451400  1
  Sn  Sn5  1  0.66666700  0.33333300  0.96451400  1
