# generated using pymatgen
data_Na8Al6Si6CO27
_symmetry_space_group_name_H-M   'P 1'
_cell_length_a   9.10603564
_cell_length_b   9.10603564
_cell_length_c   9.10603560
_cell_angle_alpha   90.01472928
_cell_angle_beta   90.01472928
_cell_angle_gamma   90.01472673
_symmetry_Int_Tables_number   1
_chemical_formula_structural   Na8Al6Si6CO27
_chemical_formula_sum   'Na8 Al6 Si6 C1 O27'
_cell_volume   755.07135133
_cell_formula_units_Z   1
loop_
 _symmetry_equiv_pos_site_id
 _symmetry_equiv_pos_as_xyz
  1  'x, y, z'
loop_
 _atom_site_type_symbol
 _atom_site_label
 _atom_site_symmetry_multiplicity
 _atom_site_fract_x
 _atom_site_fract_y
 _atom_site_fract_z
 _atom_site_occupancy
  Na  Na0  1  0.17596400  0.17681300  0.81879400  1
  Na  Na1  1  0.81879400  0.17596400  0.17681300  1
  Na  Na2  1  0.77864100  0.22742200  0.77903500  1
  Na  Na3  1  0.29918900  0.29918900  0.29918900  1
  Na  Na4  1  0.22742200  0.77903500  0.77864100  1
  Na  Na5  1  0.77903500  0.77864100  0.22742200  1
  Na  Na6  1  0.80040900  0.80040900  0.80040900  1
  Na  Na7  1  0.17681300  0.81879400  0.17596400  1
  Al  Al8  1  0.49974600  0.00245900  0.75024500  1
  Al  Al9  1  0.49871500  0.00035700  0.25172300  1
  Al  Al10  1  0.00035700  0.25172300  0.49871500  1
  Al  Al11  1  0.25172300  0.49871500  0.00035700  1
  Al  Al12  1  0.75024500  0.49974600  0.00245900  1
  Al  Al13  1  0.00245900  0.75024500  0.49974600  1
  Si  Si14  1  0.24960600  0.00263100  0.49915000  1
  Si  Si15  1  0.75125200  0.00151200  0.50082000  1
  Si  Si16  1  0.49915000  0.24960600  0.00263100  1
  Si  Si17  1  0.00151200  0.50082000  0.75125200  1
  Si  Si18  1  0.00263100  0.49915000  0.24960600  1
  Si  Si19  1  0.50082000  0.75125200  0.00151200  1
  C  C20  1  0.99428900  0.99428900  0.99428900  1
  O  O21  1  0.34733900  0.05669900  0.35766700  1
  O  O22  1  0.65610600  0.04879700  0.64645300  1
  O  O23  1  0.93485100  0.11189000  0.93826800  1
  O  O24  1  0.44747900  0.15132500  0.86131900  1
  O  O25  1  0.55218100  0.15167200  0.14402100  1
  O  O26  1  0.15167200  0.14402100  0.55218100  1
  O  O27  1  0.84987700  0.14237000  0.44842000  1
  O  O28  1  0.64015400  0.34960700  0.95316700  1
  O  O29  1  0.35766700  0.34733900  0.05669900  1
  O  O30  1  0.95179900  0.36095700  0.64995100  1
  O  O31  1  0.05669900  0.35766700  0.34733900  1
  O  O32  1  0.14237000  0.44842000  0.84987700  1
  O  O33  1  0.86131900  0.44747900  0.15132500  1
  O  O34  1  0.86016900  0.55024500  0.85144600  1
  O  O35  1  0.14402100  0.55218100  0.15167200  1
  O  O36  1  0.95316700  0.64015400  0.34960700  1
  O  O37  1  0.04879700  0.64645300  0.65610600  1
  O  O38  1  0.36095700  0.64995100  0.95179900  1
  O  O39  1  0.64645300  0.65610600  0.04879700  1
  O  O40  1  0.15132500  0.86131900  0.44747900  1
  O  O41  1  0.85144600  0.86016900  0.55024500  1
  O  O42  1  0.55024500  0.85144600  0.86016900  1
  O  O43  1  0.44842000  0.84987700  0.14237000  1
  O  O44  1  0.93826800  0.93485100  0.11189000  1
  O  O45  1  0.11189000  0.93826800  0.93485100  1
  O  O46  1  0.34960700  0.95316700  0.64015400  1
  O  O47  1  0.64995100  0.95179900  0.36095700  1
