# generated using pymatgen
data_AsI5F6
_symmetry_space_group_name_H-M   'P 1'
_cell_length_a   10.75618575
_cell_length_b   10.75618575
_cell_length_c   8.90488893
_cell_angle_alpha   72.38608867
_cell_angle_beta   72.38608867
_cell_angle_gamma   119.78915892
_symmetry_Int_Tables_number   1
_chemical_formula_structural   AsI5F6
_chemical_formula_sum   'As2 I10 F12'
_cell_volume   713.08416409
_cell_formula_units_Z   2
loop_
 _symmetry_equiv_pos_site_id
 _symmetry_equiv_pos_as_xyz
  1  'x, y, z'
loop_
 _atom_site_type_symbol
 _atom_site_label
 _atom_site_symmetry_multiplicity
 _atom_site_fract_x
 _atom_site_fract_y
 _atom_site_fract_z
 _atom_site_occupancy
  As  As0  1  0.40644600  0.59355400  0.75000000  1
  As  As1  1  0.59355400  0.40644600  0.25000000  1
  I  I2  1  0.67028200  0.88746800  0.06029100  1
  I  I3  1  0.00000000  0.00000000  0.50000000  1
  I  I4  1  0.32971800  0.11253200  0.93970900  1
  I  I5  1  0.88746800  0.67028200  0.56029100  1
  I  I6  1  0.00000000  0.00000000  0.00000000  1
  I  I7  1  0.11253200  0.32971800  0.43970900  1
  I  I8  1  0.30260300  0.85187100  0.93192100  1
  I  I9  1  0.14812900  0.69739700  0.56807900  1
  I  I10  1  0.69739700  0.14812900  0.06807900  1
  I  I11  1  0.85187100  0.30260300  0.43192100  1
  F  F12  1  0.77487300  0.45047900  0.07817400  1
  F  F13  1  0.54952100  0.22512700  0.42182600  1
  F  F14  1  0.22512700  0.54952100  0.92182600  1
  F  F15  1  0.45047900  0.77487300  0.57817400  1
  F  F16  1  0.64313700  0.59078300  0.07874100  1
  F  F17  1  0.40921700  0.35686300  0.42125900  1
  F  F18  1  0.27912600  0.46828300  0.68580400  1
  F  F19  1  0.59078300  0.64313700  0.57874100  1
  F  F20  1  0.46828300  0.27912600  0.18580400  1
  F  F21  1  0.72087400  0.53171700  0.31419600  1
  F  F22  1  0.53171700  0.72087400  0.81419600  1
  F  F23  1  0.35686300  0.40921700  0.92125900  1
