# generated using pymatgen
data_Tb2(MoO4)3
_symmetry_space_group_name_H-M   'P 1'
_cell_length_a   10.55818800
_cell_length_b   10.56751900
_cell_length_c   10.75003500
_cell_angle_alpha   90.00000000
_cell_angle_beta   90.00000000
_cell_angle_gamma   90.00000000
_symmetry_Int_Tables_number   1
_chemical_formula_structural   Tb2(MoO4)3
_chemical_formula_sum   'Tb8 Mo12 O48'
_cell_volume   1199.42281726
_cell_formula_units_Z   4
loop_
 _symmetry_equiv_pos_site_id
 _symmetry_equiv_pos_as_xyz
  1  'x, y, z'
loop_
 _atom_site_type_symbol
 _atom_site_label
 _atom_site_symmetry_multiplicity
 _atom_site_fract_x
 _atom_site_fract_y
 _atom_site_fract_z
 _atom_site_occupancy
  Tb  Tb0  1  0.99644200  0.18764300  0.26276500  1
  Tb  Tb1  1  0.00355800  0.81235700  0.26276500  1
  Tb  Tb2  1  0.50355800  0.68764300  0.26276500  1
  Tb  Tb3  1  0.49644200  0.31235700  0.26276500  1
  Tb  Tb4  1  0.68772400  0.00192700  0.73807600  1
  Tb  Tb5  1  0.31227600  0.99807300  0.73807600  1
  Tb  Tb6  1  0.81227600  0.50192700  0.73807600  1
  Tb  Tb7  1  0.18772400  0.49807300  0.73807600  1
  Mo  Mo8  1  0.74547800  0.25352600  0.00028000  1
  Mo  Mo9  1  0.25452200  0.74647400  0.00028000  1
  Mo  Mo10  1  0.75452200  0.75352600  0.00028000  1
  Mo  Mo11  1  0.24547800  0.24647400  0.00028000  1
  Mo  Mo12  1  0.50129400  0.29294400  0.64425500  1
  Mo  Mo13  1  0.49870600  0.70705600  0.64425500  1
  Mo  Mo14  1  0.99870600  0.79294400  0.64425500  1
  Mo  Mo15  1  0.00129400  0.20705600  0.64425500  1
  Mo  Mo16  1  0.70679200  0.00648700  0.35647300  1
  Mo  Mo17  1  0.29320800  0.99351300  0.35647300  1
  Mo  Mo18  1  0.79320800  0.50648700  0.35647300  1
  Mo  Mo19  1  0.20679200  0.49351300  0.35647300  1
  O  O20  1  0.67491400  0.13682600  0.90139300  1
  O  O21  1  0.32508600  0.86317400  0.90139300  1
  O  O22  1  0.82508600  0.63682600  0.90139300  1
  O  O23  1  0.17491400  0.36317400  0.90139300  1
  O  O24  1  0.86111300  0.18161900  0.09969600  1
  O  O25  1  0.13888700  0.81838100  0.09969600  1
  O  O26  1  0.63888700  0.68161900  0.09969600  1
  O  O27  1  0.36111300  0.31838100  0.09969600  1
  O  O28  1  0.81777100  0.37208500  0.90462200  1
  O  O29  1  0.18222900  0.62791500  0.90462200  1
  O  O30  1  0.68222900  0.87208500  0.90462200  1
  O  O31  1  0.31777100  0.12791500  0.90462200  1
  O  O32  1  0.62564500  0.32442100  0.09528900  1
  O  O33  1  0.37435500  0.67557900  0.09528900  1
  O  O34  1  0.87435500  0.82442100  0.09528900  1
  O  O35  1  0.12564500  0.17557900  0.09528900  1
  O  O36  1  0.87149600  0.12482300  0.71321700  1
  O  O37  1  0.87631900  0.37387500  0.29435300  1
  O  O38  1  0.62368100  0.87387500  0.29435300  1
  O  O39  1  0.37631900  0.12612500  0.29435300  1
  O  O40  1  0.19535400  0.49395700  0.52187400  1
  O  O41  1  0.80464600  0.50604300  0.52187400  1
  O  O42  1  0.30464600  0.99395700  0.52187400  1
  O  O43  1  0.69535400  0.00604300  0.52187400  1
  O  O44  1  0.48770400  0.30415100  0.47927300  1
  O  O45  1  0.51229600  0.69584900  0.47927300  1
  O  O46  1  0.01229600  0.80415100  0.47927300  1
  O  O47  1  0.98770400  0.19584900  0.47927300  1
  O  O48  1  0.12650100  0.00272600  0.30875500  1
  O  O49  1  0.87349900  0.99727400  0.30875500  1
  O  O50  1  0.37349900  0.50272600  0.30875500  1
  O  O51  1  0.62650100  0.49727400  0.30875500  1
  O  O52  1  0.49654100  0.12635100  0.69240200  1
  O  O53  1  0.50345900  0.87364900  0.69240200  1
  O  O54  1  0.00345900  0.62635100  0.69240200  1
  O  O55  1  0.99654100  0.37364900  0.69240200  1
  O  O56  1  0.15028300  0.14415100  0.69189500  1
  O  O57  1  0.84971700  0.85584900  0.69189500  1
  O  O58  1  0.34971700  0.64415100  0.69189500  1
  O  O59  1  0.65028300  0.35584900  0.69189500  1
  O  O60  1  0.14505100  0.34671700  0.30139200  1
  O  O61  1  0.85494900  0.65328300  0.30139200  1
  O  O62  1  0.35494900  0.84671700  0.30139200  1
  O  O63  1  0.64505100  0.15328300  0.30139200  1
  O  O64  1  0.37149600  0.37517700  0.71321700  1
  O  O65  1  0.62850400  0.62482300  0.71321700  1
  O  O66  1  0.12850400  0.87517700  0.71321700  1
  O  O67  1  0.12368100  0.62612500  0.29435300  1
