# generated using pymatgen
data_Ba3(BN2)2
_symmetry_space_group_name_H-M   'P 1'
_cell_length_a   4.29993000
_cell_length_b   11.16357800
_cell_length_c   14.91346400
_cell_angle_alpha   90.00000000
_cell_angle_beta   90.00000000
_cell_angle_gamma   90.00000000
_symmetry_Int_Tables_number   1
_chemical_formula_structural   Ba3(BN2)2
_chemical_formula_sum   'Ba12 B8 N16'
_cell_volume   715.88510591
_cell_formula_units_Z   4
loop_
 _symmetry_equiv_pos_site_id
 _symmetry_equiv_pos_as_xyz
  1  'x, y, z'
loop_
 _atom_site_type_symbol
 _atom_site_label
 _atom_site_symmetry_multiplicity
 _atom_site_fract_x
 _atom_site_fract_y
 _atom_site_fract_z
 _atom_site_occupancy
  Ba  Ba0  1  0.85295900  0.03789600  0.82943000  1
  Ba  Ba1  1  0.35295900  0.46210400  0.17057000  1
  Ba  Ba2  1  0.14704100  0.53789600  0.67057000  1
  Ba  Ba3  1  0.64704100  0.96210400  0.32943000  1
  Ba  Ba4  1  0.72565200  0.84492100  0.59300100  1
  Ba  Ba5  1  0.22565200  0.65507900  0.40699900  1
  Ba  Ba6  1  0.27434800  0.34492100  0.90699900  1
  Ba  Ba7  1  0.77434800  0.15507900  0.09300100  1
  Ba  Ba8  1  0.60044900  0.68793800  0.88605900  1
  Ba  Ba9  1  0.10044900  0.81206200  0.11394100  1
  Ba  Ba10  1  0.39955100  0.18793800  0.61394100  1
  Ba  Ba11  1  0.89955100  0.31206200  0.38605900  1
  B  B12  1  0.59302100  0.50068400  0.52087400  1
  B  B13  1  0.09302100  0.99931600  0.47912600  1
  B  B14  1  0.90697900  0.49931600  0.02087400  1
  B  B15  1  0.40697900  0.00068400  0.97912600  1
  B  B16  1  0.23446700  0.85879600  0.73832500  1
  B  B17  1  0.73446700  0.64120400  0.26167500  1
  B  B18  1  0.76553300  0.35879600  0.76167500  1
  B  B19  1  0.26553300  0.14120400  0.23832500  1
  N  N20  1  0.35241000  0.96691500  0.71617600  1
  N  N21  1  0.85241000  0.53308500  0.28382400  1
  N  N22  1  0.64759000  0.46691500  0.78382400  1
  N  N23  1  0.14759000  0.03308500  0.21617600  1
  N  N24  1  0.93227900  0.10025400  0.49548300  1
  N  N25  1  0.43227900  0.39974600  0.50451700  1
  N  N26  1  0.06772100  0.60025500  0.00451700  1
  N  N27  1  0.56772100  0.89974500  0.99548300  1
  N  N28  1  0.78755400  0.38867500  0.03662900  1
  N  N29  1  0.28755400  0.11132500  0.96337100  1
  N  N30  1  0.71244600  0.61132500  0.53662900  1
  N  N31  1  0.21244600  0.88867500  0.46337100  1
  N  N32  1  0.59357800  0.74586300  0.24249900  1
  N  N33  1  0.09357800  0.75413700  0.75750100  1
  N  N34  1  0.40642200  0.24586300  0.25750100  1
  N  N35  1  0.90642200  0.25413700  0.74249900  1
