# generated using pymatgen
data_NaNbO2
_symmetry_space_group_name_H-M   'P 1'
_cell_length_a   2.99387045
_cell_length_b   2.99387045
_cell_length_c   11.68566200
_cell_angle_alpha   90.00000000
_cell_angle_beta   90.00000000
_cell_angle_gamma   120.00001004
_symmetry_Int_Tables_number   1
_chemical_formula_structural   NaNbO2
_chemical_formula_sum   'Na2 Nb2 O4'
_cell_volume   90.70890345
_cell_formula_units_Z   2
loop_
 _symmetry_equiv_pos_site_id
 _symmetry_equiv_pos_as_xyz
  1  'x, y, z'
loop_
 _atom_site_type_symbol
 _atom_site_label
 _atom_site_symmetry_multiplicity
 _atom_site_fract_x
 _atom_site_fract_y
 _atom_site_fract_z
 _atom_site_occupancy
  Na  Na0  1  0.00000000  0.00000000  0.00000000  1
  Na  Na1  1  0.00000000  0.00000000  0.50000000  1
  Nb  Nb2  1  0.33333300  0.66666700  0.75000000  1
  Nb  Nb3  1  0.66666700  0.33333300  0.25000000  1
  O  O4  1  0.33333300  0.66666700  0.36300900  1
  O  O5  1  0.66666700  0.33333300  0.86300900  1
  O  O6  1  0.33333300  0.66666700  0.13699100  1
  O  O7  1  0.66666700  0.33333300  0.63699100  1
