# generated using pymatgen
data_Rb3CoO2
_symmetry_space_group_name_H-M   'P 1'
_cell_length_a   6.28874600
_cell_length_b   7.82580300
_cell_length_c   12.43848200
_cell_angle_alpha   90.00000000
_cell_angle_beta   90.00000000
_cell_angle_gamma   90.00000000
_symmetry_Int_Tables_number   1
_chemical_formula_structural   Rb3CoO2
_chemical_formula_sum   'Rb12 Co4 O8'
_cell_volume   612.15351458
_cell_formula_units_Z   4
loop_
 _symmetry_equiv_pos_site_id
 _symmetry_equiv_pos_as_xyz
  1  'x, y, z'
loop_
 _atom_site_type_symbol
 _atom_site_label
 _atom_site_symmetry_multiplicity
 _atom_site_fract_x
 _atom_site_fract_y
 _atom_site_fract_z
 _atom_site_occupancy
  Rb  Rb0  1  0.77661300  0.75000000  0.89948300  1
  Rb  Rb1  1  0.27661300  0.25000000  0.60051700  1
  Rb  Rb2  1  0.22338700  0.25000000  0.10051700  1
  Rb  Rb3  1  0.72338700  0.75000000  0.39948300  1
  Rb  Rb4  1  0.31830100  0.50087100  0.86236400  1
  Rb  Rb5  1  0.81830100  0.49912900  0.63763600  1
  Rb  Rb6  1  0.68169900  0.00087100  0.13763600  1
  Rb  Rb7  1  0.18169900  0.99912900  0.36236400  1
  Rb  Rb8  1  0.68169900  0.49912900  0.13763600  1
  Rb  Rb9  1  0.18169900  0.50087100  0.36236400  1
  Rb  Rb10  1  0.31830100  0.99912900  0.86236400  1
  Rb  Rb11  1  0.81830100  0.00087100  0.63763600  1
  Co  Co12  1  0.30624800  0.75000000  0.61891000  1
  Co  Co13  1  0.19375200  0.75000000  0.11891000  1
  Co  Co14  1  0.80624800  0.25000000  0.88109000  1
  Co  Co15  1  0.69375200  0.25000000  0.38109000  1
  O  O16  1  0.58745000  0.25000000  0.97072500  1
  O  O17  1  0.08745000  0.75000000  0.52927500  1
  O  O18  1  0.41255000  0.75000000  0.02927500  1
  O  O19  1  0.91255000  0.25000000  0.47072500  1
  O  O20  1  0.01593000  0.25000000  0.78572500  1
  O  O21  1  0.48407000  0.25000000  0.28572500  1
  O  O22  1  0.51593000  0.75000000  0.71427500  1
  O  O23  1  0.98407000  0.75000000  0.21427500  1
