# generated using pymatgen
data_Na2SiF6
_symmetry_space_group_name_H-M   'P 1'
_cell_length_a   9.01998598
_cell_length_b   9.01998598
_cell_length_c   5.11475400
_cell_angle_alpha   90.00000000
_cell_angle_beta   90.00000000
_cell_angle_gamma   119.99999989
_symmetry_Int_Tables_number   1
_chemical_formula_structural   Na2SiF6
_chemical_formula_sum   'Na6 Si3 F18'
_cell_volume   360.38533350
_cell_formula_units_Z   3
loop_
 _symmetry_equiv_pos_site_id
 _symmetry_equiv_pos_as_xyz
  1  'x, y, z'
loop_
 _atom_site_type_symbol
 _atom_site_label
 _atom_site_symmetry_multiplicity
 _atom_site_fract_x
 _atom_site_fract_y
 _atom_site_fract_z
 _atom_site_occupancy
  Na  Na0  1  0.00000000  0.28836000  0.50000000  1
  Na  Na1  1  0.28836000  0.00000000  0.50000000  1
  Na  Na2  1  0.71164000  0.71164000  0.50000000  1
  Na  Na3  1  0.00000000  0.62275000  0.00000000  1
  Na  Na4  1  0.62275000  0.00000000  0.00000000  1
  Na  Na5  1  0.37725000  0.37725000  0.00000000  1
  Si  Si6  1  0.66666700  0.33333300  0.49348700  1
  Si  Si7  1  0.33333300  0.66666700  0.50651300  1
  Si  Si8  1  0.00000000  0.00000000  0.00000000  1
  F  F9  1  0.73972400  0.22690800  0.68696100  1
  F  F10  1  0.77309200  0.51281600  0.68696100  1
  F  F11  1  0.48718400  0.26027600  0.68696100  1
  F  F12  1  0.51281600  0.77309200  0.31303900  1
  F  F13  1  0.26027600  0.48718400  0.31303900  1
  F  F14  1  0.22690800  0.73972400  0.31303900  1
  F  F15  1  0.59678300  0.44215800  0.29963900  1
  F  F16  1  0.55784200  0.15462500  0.29963900  1
  F  F17  1  0.84537500  0.40321700  0.29963900  1
  F  F18  1  0.08489900  0.90449700  0.80826400  1
  F  F19  1  0.09550300  0.18040200  0.80826400  1
  F  F20  1  0.81959800  0.91510100  0.80826400  1
  F  F21  1  0.18040200  0.09550300  0.19173600  1
  F  F22  1  0.91510100  0.81959800  0.19173600  1
  F  F23  1  0.90449700  0.08489900  0.19173600  1
  F  F24  1  0.44215800  0.59678300  0.70036100  1
  F  F25  1  0.40321700  0.84537500  0.70036100  1
  F  F26  1  0.15462500  0.55784200  0.70036100  1
