# generated using pymatgen
data_RbAuF4
_symmetry_space_group_name_H-M   'P 1'
_cell_length_a   7.51701938
_cell_length_b   7.51701938
_cell_length_c   7.51701938
_cell_angle_alpha   129.55368433
_cell_angle_beta   129.55368433
_cell_angle_gamma   74.12128869
_symmetry_Int_Tables_number   1
_chemical_formula_structural   RbAuF4
_chemical_formula_sum   'Rb2 Au2 F8'
_cell_volume   246.21447346
_cell_formula_units_Z   2
loop_
 _symmetry_equiv_pos_site_id
 _symmetry_equiv_pos_as_xyz
  1  'x, y, z'
loop_
 _atom_site_type_symbol
 _atom_site_label
 _atom_site_symmetry_multiplicity
 _atom_site_fract_x
 _atom_site_fract_y
 _atom_site_fract_z
 _atom_site_occupancy
  Rb  Rb0  1  0.25000000  0.25000000  0.00000000  1
  Rb  Rb1  1  0.75000000  0.75000000  0.00000000  1
  Au  Au2  1  0.50000000  0.00000000  0.50000000  1
  Au  Au3  1  0.00000000  0.50000000  0.50000000  1
  F  F4  1  0.46050700  0.96050700  0.19078700  1
  F  F5  1  0.23027900  0.73027900  0.19078700  1
  F  F6  1  0.53949300  0.03949300  0.80921300  1
  F  F7  1  0.03949300  0.23027900  0.50000000  1
  F  F8  1  0.76972100  0.26972100  0.80921300  1
  F  F9  1  0.26972100  0.46050700  0.50000000  1
  F  F10  1  0.96050700  0.76972100  0.50000000  1
  F  F11  1  0.73027900  0.53949300  0.50000000  1
