# generated using pymatgen
data_ZrGa
_symmetry_space_group_name_H-M   'P 1'
_cell_length_a   10.63232389
_cell_length_b   10.63232389
_cell_length_c   10.63232389
_cell_angle_alpha   158.88327548
_cell_angle_beta   158.88327548
_cell_angle_gamma   30.03763089
_symmetry_Int_Tables_number   1
_chemical_formula_structural   ZrGa
_chemical_formula_sum   'Zr4 Ga4'
_cell_volume   155.91087540
_cell_formula_units_Z   4
loop_
 _symmetry_equiv_pos_site_id
 _symmetry_equiv_pos_as_xyz
  1  'x, y, z'
loop_
 _atom_site_type_symbol
 _atom_site_label
 _atom_site_symmetry_multiplicity
 _atom_site_fract_x
 _atom_site_fract_y
 _atom_site_fract_z
 _atom_site_occupancy
  Zr  Zr0  1  0.44734100  0.94734100  0.50000000  1
  Zr  Zr1  1  0.05265900  0.55265900  0.50000000  1
  Zr  Zr2  1  0.69734100  0.69734100  0.00000000  1
  Zr  Zr3  1  0.30265900  0.30265900  0.00000000  1
  Ga  Ga4  1  0.16495200  0.16495200  0.00000000  1
  Ga  Ga5  1  0.58504800  0.08504800  0.50000000  1
  Ga  Ga6  1  0.91495200  0.41495200  0.50000000  1
  Ga  Ga7  1  0.83504800  0.83504800  0.00000000  1
