# generated using pymatgen
data_P2Pb4O9
_symmetry_space_group_name_H-M   'P 1'
_cell_length_a   7.32000200
_cell_length_b   9.67316600
_cell_length_c   14.83321491
_cell_angle_alpha   75.84570125
_cell_angle_beta   90.00000000
_cell_angle_gamma   90.00000000
_symmetry_Int_Tables_number   1
_chemical_formula_structural   P2Pb4O9
_chemical_formula_sum   'P8 Pb16 O36'
_cell_volume   1018.41777157
_cell_formula_units_Z   4
loop_
 _symmetry_equiv_pos_site_id
 _symmetry_equiv_pos_as_xyz
  1  'x, y, z'
loop_
 _atom_site_type_symbol
 _atom_site_label
 _atom_site_symmetry_multiplicity
 _atom_site_fract_x
 _atom_site_fract_y
 _atom_site_fract_z
 _atom_site_occupancy
  P  P0  1  0.73561400  0.37280200  0.18573100  1
  P  P1  1  0.23561400  0.62719800  0.31426900  1
  P  P2  1  0.26438600  0.62719800  0.81426900  1
  P  P3  1  0.76438600  0.37280200  0.68573100  1
  P  P4  1  0.29228600  0.03218100  0.09460600  1
  P  P5  1  0.79228600  0.96781900  0.40539400  1
  P  P6  1  0.70771400  0.96781900  0.90539400  1
  P  P7  1  0.20771400  0.03218100  0.59460600  1
  Pb  Pb8  1  0.01633300  0.27917400  0.38524200  1
  Pb  Pb9  1  0.51633300  0.72082600  0.11475800  1
  Pb  Pb10  1  0.98366700  0.72082600  0.61475800  1
  Pb  Pb11  1  0.48366700  0.27917400  0.88524200  1
  Pb  Pb12  1  0.49602600  0.31087200  0.41095200  1
  Pb  Pb13  1  0.99602600  0.68912800  0.08904800  1
  Pb  Pb14  1  0.50397400  0.68912800  0.58904800  1
  Pb  Pb15  1  0.00397400  0.31087200  0.91095200  1
  Pb  Pb16  1  0.27143100  0.32093800  0.16699000  1
  Pb  Pb17  1  0.77143100  0.67906200  0.33301000  1
  Pb  Pb18  1  0.72856900  0.67906200  0.83301000  1
  Pb  Pb19  1  0.22856900  0.32093800  0.66699000  1
  Pb  Pb20  1  0.29237200  0.96004200  0.34895600  1
  Pb  Pb21  1  0.79237200  0.03995800  0.15104400  1
  Pb  Pb22  1  0.70762800  0.03995800  0.65104400  1
  Pb  Pb23  1  0.20762800  0.96004200  0.84895600  1
  O  O24  1  0.65096200  0.42733700  0.26786400  1
  O  O25  1  0.15096200  0.57266300  0.23213600  1
  O  O26  1  0.34903800  0.57266300  0.73213600  1
  O  O27  1  0.84903800  0.42733700  0.76786400  1
  O  O28  1  0.92097500  0.29490800  0.21563000  1
  O  O29  1  0.42097500  0.70509200  0.28437000  1
  O  O30  1  0.07902500  0.70509200  0.78437000  1
  O  O31  1  0.57902500  0.29490800  0.71563000  1
  O  O32  1  0.21656600  0.06287200  0.18768000  1
  O  O33  1  0.71656600  0.93712800  0.31232000  1
  O  O34  1  0.78343400  0.93712800  0.81232000  1
  O  O35  1  0.28343400  0.06287200  0.68768000  1
  O  O36  1  0.17544000  0.92098800  0.06290400  1
  O  O37  1  0.67544000  0.07901200  0.43709600  1
  O  O38  1  0.28920900  0.22593500  0.32441600  1
  O  O39  1  0.82456000  0.07901200  0.93709600  1
  O  O40  1  0.76053200  0.50373100  0.10164000  1
  O  O41  1  0.26053200  0.49626900  0.39836000  1
  O  O42  1  0.23946800  0.49626900  0.89836000  1
  O  O43  1  0.73946800  0.50373100  0.60164000  1
  O  O44  1  0.60239400  0.26238700  0.15906400  1
  O  O45  1  0.10239400  0.73761300  0.34093600  1
  O  O46  1  0.39760600  0.73761300  0.84093600  1
  O  O47  1  0.89760600  0.26238700  0.65906400  1
  O  O48  1  0.00805300  0.97371000  0.61123400  1
  O  O49  1  0.50805300  0.02629000  0.88876600  1
  O  O50  1  0.99194700  0.02629000  0.38876600  1
  O  O51  1  0.49194700  0.97371000  0.11123400  1
  O  O52  1  0.21247100  0.18065700  0.52397300  1
  O  O53  1  0.71247100  0.81934300  0.97602700  1
  O  O54  1  0.78752900  0.81934300  0.47602700  1
  O  O55  1  0.28752900  0.18065700  0.02397300  1
  O  O56  1  0.21079100  0.22593500  0.82441600  1
  O  O57  1  0.71079100  0.77406500  0.67558400  1
  O  O58  1  0.78920900  0.77406500  0.17558400  1
  O  O59  1  0.32456000  0.92098800  0.56290400  1
