# generated using pymatgen
data_Pr2Mo2C3
_symmetry_space_group_name_H-M   'P 1'
_cell_length_a   6.70870200
_cell_length_b   6.02829500
_cell_length_c   12.09410162
_cell_angle_alpha   67.89764011
_cell_angle_beta   90.00000000
_cell_angle_gamma   90.00000000
_symmetry_Int_Tables_number   1
_chemical_formula_structural   Pr2Mo2C3
_chemical_formula_sum   'Pr8 Mo8 C12'
_cell_volume   453.16691113
_cell_formula_units_Z   4
loop_
 _symmetry_equiv_pos_site_id
 _symmetry_equiv_pos_as_xyz
  1  'x, y, z'
loop_
 _atom_site_type_symbol
 _atom_site_label
 _atom_site_symmetry_multiplicity
 _atom_site_fract_x
 _atom_site_fract_y
 _atom_site_fract_z
 _atom_site_occupancy
  Pr  Pr0  1  0.78390700  0.68806500  0.90938300  1
  Pr  Pr1  1  0.28390700  0.31193500  0.59061700  1
  Pr  Pr2  1  0.21609300  0.31193500  0.09061700  1
  Pr  Pr3  1  0.71609300  0.68806500  0.40938300  1
  Pr  Pr4  1  0.99888300  0.72924400  0.63731800  1
  Pr  Pr5  1  0.49888300  0.27075600  0.86268200  1
  Pr  Pr6  1  0.00111700  0.27075600  0.36268200  1
  Pr  Pr7  1  0.50111700  0.72924400  0.13731800  1
  Mo  Mo8  1  0.99480300  0.81902400  0.11945400  1
  Mo  Mo9  1  0.49480300  0.18097600  0.38054600  1
  Mo  Mo10  1  0.00519700  0.18097600  0.88054600  1
  Mo  Mo11  1  0.50519700  0.81902400  0.61945400  1
  Mo  Mo12  1  0.75613600  0.17726300  0.65699800  1
  Mo  Mo13  1  0.24386400  0.82273700  0.34300200  1
  Mo  Mo14  1  0.74386400  0.17726300  0.15699800  1
  Mo  Mo15  1  0.25613600  0.82273700  0.84300200  1
  C  C16  1  0.62853100  0.50273300  0.64033300  1
  C  C17  1  0.12853100  0.49726700  0.85966700  1
  C  C18  1  0.37146900  0.49726700  0.35966700  1
  C  C19  1  0.87146900  0.50273300  0.14033300  1
  C  C20  1  0.21834500  0.94278800  0.98938500  1
  C  C21  1  0.71834500  0.05721200  0.51061500  1
  C  C22  1  0.78165500  0.05721200  0.01061500  1
  C  C23  1  0.28165500  0.94278800  0.48938500  1
  C  C24  1  0.48604700  0.03269500  0.24804500  1
  C  C25  1  0.01395300  0.03269500  0.74804500  1
  C  C26  1  0.98604700  0.96730500  0.25195500  1
  C  C27  1  0.51395300  0.96730500  0.75195500  1
