# generated using pymatgen
data_Ba(IO3)2
_symmetry_space_group_name_H-M   'P 1'
_cell_length_a   7.58253646
_cell_length_b   7.58253646
_cell_length_c   8.52064010
_cell_angle_alpha   58.96502953
_cell_angle_beta   58.96502953
_cell_angle_gamma   67.05656565
_symmetry_Int_Tables_number   1
_chemical_formula_structural   Ba(IO3)2
_chemical_formula_sum   'Ba2 I4 O12'
_cell_volume   354.50930831
_cell_formula_units_Z   2
loop_
 _symmetry_equiv_pos_site_id
 _symmetry_equiv_pos_as_xyz
  1  'x, y, z'
loop_
 _atom_site_type_symbol
 _atom_site_label
 _atom_site_symmetry_multiplicity
 _atom_site_fract_x
 _atom_site_fract_y
 _atom_site_fract_z
 _atom_site_occupancy
  Ba  Ba0  1  0.64481100  0.35518900  0.75000000  1
  Ba  Ba1  1  0.35518900  0.64481100  0.25000000  1
  I  I2  1  0.15599600  0.20804700  0.30682500  1
  I  I3  1  0.79195300  0.84400400  0.19317500  1
  I  I4  1  0.84400400  0.79195300  0.69317500  1
  I  I5  1  0.20804700  0.15599600  0.80682500  1
  O  O6  1  0.24070300  0.92663800  0.42389400  1
  O  O7  1  0.07336200  0.75929700  0.07610600  1
  O  O8  1  0.75929700  0.07336200  0.57610600  1
  O  O9  1  0.92663800  0.24070300  0.92389400  1
  O  O10  1  0.40625900  0.30225100  0.14925300  1
  O  O11  1  0.69774900  0.59374100  0.35074700  1
  O  O12  1  0.28365500  0.08474400  0.00829700  1
  O  O13  1  0.91525600  0.71634500  0.49170300  1
  O  O14  1  0.71634500  0.91525600  0.99170300  1
  O  O15  1  0.08474400  0.28365500  0.50829700  1
  O  O16  1  0.30225100  0.40625900  0.64925300  1
  O  O17  1  0.59374100  0.69774900  0.85074700  1
