# generated using pymatgen
data_ErSnPt2
_symmetry_space_group_name_H-M   'P 1'
_cell_length_a   4.55192502
_cell_length_b   4.55192502
_cell_length_c   9.05397800
_cell_angle_alpha   90.00000000
_cell_angle_beta   90.00000000
_cell_angle_gamma   120.00001485
_symmetry_Int_Tables_number   1
_chemical_formula_structural   ErSnPt2
_chemical_formula_sum   'Er2 Sn2 Pt4'
_cell_volume   162.46514455
_cell_formula_units_Z   2
loop_
 _symmetry_equiv_pos_site_id
 _symmetry_equiv_pos_as_xyz
  1  'x, y, z'
loop_
 _atom_site_type_symbol
 _atom_site_label
 _atom_site_symmetry_multiplicity
 _atom_site_fract_x
 _atom_site_fract_y
 _atom_site_fract_z
 _atom_site_occupancy
  Er  Er0  1  0.66666700  0.33333300  0.75000000  1
  Er  Er1  1  0.33333300  0.66666700  0.25000000  1
  Sn  Sn2  1  0.00000000  0.00000000  0.50000000  1
  Sn  Sn3  1  0.00000000  0.00000000  0.00000000  1
  Pt  Pt4  1  0.66666700  0.33333300  0.08993000  1
  Pt  Pt5  1  0.33333300  0.66666700  0.91007000  1
  Pt  Pt6  1  0.33333300  0.66666700  0.58993000  1
  Pt  Pt7  1  0.66666700  0.33333300  0.41007000  1
