# generated using pymatgen
data_Zn2Te3O8
_symmetry_space_group_name_H-M   'P 1'
_cell_length_a   6.94813510
_cell_length_b   6.94813510
_cell_length_c   12.05545873
_cell_angle_alpha   81.07370590
_cell_angle_beta   81.07370590
_cell_angle_gamma   44.84817753
_symmetry_Int_Tables_number   1
_chemical_formula_structural   Zn2Te3O8
_chemical_formula_sum   'Zn4 Te6 O16'
_cell_volume   404.61808257
_cell_formula_units_Z   2
loop_
 _symmetry_equiv_pos_site_id
 _symmetry_equiv_pos_as_xyz
  1  'x, y, z'
loop_
 _atom_site_type_symbol
 _atom_site_label
 _atom_site_symmetry_multiplicity
 _atom_site_fract_x
 _atom_site_fract_y
 _atom_site_fract_z
 _atom_site_occupancy
  Zn  Zn0  1  0.44845100  0.00599300  0.15945400  1
  Zn  Zn1  1  0.99400700  0.55154900  0.34054600  1
  Zn  Zn2  1  0.55154900  0.99400700  0.84054600  1
  Zn  Zn3  1  0.00599300  0.44845100  0.65945400  1
  Te  Te4  1  0.12641200  0.87358800  0.75000000  1
  Te  Te5  1  0.87358800  0.12641200  0.25000000  1
  Te  Te6  1  0.33926700  0.93679800  0.44631100  1
  Te  Te7  1  0.06320200  0.66073300  0.05368900  1
  Te  Te8  1  0.66073300  0.06320200  0.55368900  1
  Te  Te9  1  0.93679800  0.33926700  0.94631100  1
  O  O10  1  0.24669800  0.28641700  0.95997200  1
  O  O11  1  0.71358300  0.75330200  0.54002800  1
  O  O12  1  0.75330200  0.71358300  0.04002800  1
  O  O13  1  0.28641700  0.24669800  0.45997200  1
  O  O14  1  0.80456400  0.58635800  0.81493500  1
  O  O15  1  0.41364200  0.19543600  0.68506500  1
  O  O16  1  0.19543600  0.41364200  0.18506500  1
  O  O17  1  0.58635800  0.80456400  0.31493500  1
  O  O18  1  0.21575000  0.01286000  0.85779300  1
  O  O19  1  0.98714000  0.78425000  0.64220700  1
  O  O20  1  0.17453700  0.98824400  0.14432200  1
  O  O21  1  0.01175600  0.82546300  0.35567800  1
  O  O22  1  0.82546300  0.01175600  0.85567800  1
  O  O23  1  0.98824400  0.17453700  0.64432200  1
  O  O24  1  0.01286000  0.21575000  0.35779300  1
  O  O25  1  0.78425000  0.98714000  0.14220700  1
