# generated using pymatgen
data_SrSiO3
_symmetry_space_group_name_H-M   'P 1'
_cell_length_a   7.21654145
_cell_length_b   7.21654145
_cell_length_c   10.99545132
_cell_angle_alpha   71.38047707
_cell_angle_beta   71.38047707
_cell_angle_gamma   60.19287835
_symmetry_Int_Tables_number   1
_chemical_formula_structural   SrSiO3
_chemical_formula_sum   'Sr6 Si6 O18'
_cell_volume   461.79871335
_cell_formula_units_Z   6
loop_
 _symmetry_equiv_pos_site_id
 _symmetry_equiv_pos_as_xyz
  1  'x, y, z'
loop_
 _atom_site_type_symbol
 _atom_site_label
 _atom_site_symmetry_multiplicity
 _atom_site_fract_x
 _atom_site_fract_y
 _atom_site_fract_z
 _atom_site_occupancy
  Sr  Sr0  1  0.15185800  0.67357500  0.99913800  1
  Sr  Sr1  1  0.32642500  0.84814200  0.50086200  1
  Sr  Sr2  1  0.84814200  0.32642500  0.00086200  1
  Sr  Sr3  1  0.67357500  0.15185800  0.49913800  1
  Sr  Sr4  1  0.00000000  0.50000000  0.50000000  1
  Sr  Sr5  1  0.50000000  0.00000000  0.00000000  1
  Si  Si6  1  0.33424300  0.41827900  0.74628200  1
  Si  Si7  1  0.58172100  0.66575700  0.75371800  1
  Si  Si8  1  0.66575700  0.58172100  0.25371800  1
  Si  Si9  1  0.41827900  0.33424300  0.24628200  1
  Si  Si10  1  0.83086100  0.16913900  0.75000000  1
  Si  Si11  1  0.16913900  0.83086100  0.25000000  1
  O  O12  1  0.28086900  0.46487800  0.60513600  1
  O  O13  1  0.53512200  0.71913100  0.89486400  1
  O  O14  1  0.71913100  0.53512200  0.39486400  1
  O  O15  1  0.46487800  0.28086900  0.10513600  1
  O  O16  1  0.18397000  0.37191900  0.88489800  1
  O  O17  1  0.62808100  0.81603000  0.61510200  1
  O  O18  1  0.81603000  0.62808100  0.11510200  1
  O  O19  1  0.37191900  0.18397000  0.38489800  1
  O  O20  1  0.58258400  0.20388400  0.74828600  1
  O  O21  1  0.79611600  0.41741600  0.75171400  1
  O  O22  1  0.41741600  0.79611600  0.25171400  1
  O  O23  1  0.20388400  0.58258400  0.24828600  1
  O  O24  1  0.88669800  0.01893300  0.88934400  1
  O  O25  1  0.98106700  0.11330200  0.61065600  1
  O  O26  1  0.11330200  0.98106700  0.11065600  1
  O  O27  1  0.01893300  0.88669800  0.38934400  1
  O  O28  1  0.36830300  0.63169700  0.75000000  1
  O  O29  1  0.63169700  0.36830300  0.25000000  1
