# generated using pymatgen
data_Na2PdF4
_symmetry_space_group_name_H-M   'P 1'
_cell_length_a   5.66813900
_cell_length_b   3.49787600
_cell_length_c   10.24658617
_cell_angle_alpha   84.81041842
_cell_angle_beta   90.00000000
_cell_angle_gamma   90.00000000
_symmetry_Int_Tables_number   1
_chemical_formula_structural   Na2PdF4
_chemical_formula_sum   'Na4 Pd2 F8'
_cell_volume   202.32064764
_cell_formula_units_Z   2
loop_
 _symmetry_equiv_pos_site_id
 _symmetry_equiv_pos_as_xyz
  1  'x, y, z'
loop_
 _atom_site_type_symbol
 _atom_site_label
 _atom_site_symmetry_multiplicity
 _atom_site_fract_x
 _atom_site_fract_y
 _atom_site_fract_z
 _atom_site_occupancy
  Na  Na0  1  0.04351600  0.71803200  0.34889300  1
  Na  Na1  1  0.54351600  0.28196800  0.15110700  1
  Na  Na2  1  0.95648400  0.28196800  0.65110700  1
  Na  Na3  1  0.45648400  0.71803200  0.84889300  1
  Pd  Pd4  1  0.50000000  0.00000000  0.50000000  1
  Pd  Pd5  1  0.00000000  0.00000000  0.00000000  1
  F  F6  1  0.67754500  0.79107600  0.66124600  1
  F  F7  1  0.17754500  0.20892400  0.83875400  1
  F  F8  1  0.32245500  0.20892400  0.33875400  1
  F  F9  1  0.82245500  0.79107600  0.16124600  1
  F  F10  1  0.80644500  0.20885500  0.42609400  1
  F  F11  1  0.30644500  0.79114500  0.07390600  1
  F  F12  1  0.69355500  0.20885500  0.92609400  1
  F  F13  1  0.19355500  0.79114500  0.57390600  1
