# generated using pymatgen
data_RbInSe2
_symmetry_space_group_name_H-M   'P 1'
_cell_length_a   8.31518349
_cell_length_b   8.31518349
_cell_length_c   16.57571520
_cell_angle_alpha   82.82389670
_cell_angle_beta   82.82389670
_cell_angle_gamma   89.97558968
_symmetry_Int_Tables_number   1
_chemical_formula_structural   RbInSe2
_chemical_formula_sum   'Rb8 In8 Se16'
_cell_volume   1128.06408994
_cell_formula_units_Z   8
loop_
 _symmetry_equiv_pos_site_id
 _symmetry_equiv_pos_as_xyz
  1  'x, y, z'
loop_
 _atom_site_type_symbol
 _atom_site_label
 _atom_site_symmetry_multiplicity
 _atom_site_fract_x
 _atom_site_fract_y
 _atom_site_fract_z
 _atom_site_occupancy
  Rb  Rb0  1  0.84779400  0.22220100  0.60999800  1
  Rb  Rb1  1  0.22146200  0.34628900  0.11388500  1
  Rb  Rb2  1  0.34628900  0.22146200  0.61388500  1
  Rb  Rb3  1  0.77853800  0.65371100  0.88611500  1
  Rb  Rb4  1  0.22220100  0.84779400  0.10999800  1
  Rb  Rb5  1  0.15220600  0.77779900  0.39000200  1
  Rb  Rb6  1  0.77779900  0.15220600  0.89000200  1
  Rb  Rb7  1  0.65371100  0.77853800  0.38611500  1
  In  In8  1  0.70998200  0.08649800  0.16023100  1
  In  In9  1  0.91350200  0.29001800  0.33976900  1
  In  In10  1  0.29001800  0.91350200  0.83976900  1
  In  In11  1  0.08649800  0.70998200  0.66023100  1
  In  In12  1  0.41648100  0.29015400  0.33946900  1
  In  In13  1  0.70984600  0.58351900  0.16053100  1
  In  In14  1  0.58351900  0.70984600  0.66053100  1
  In  In15  1  0.29015400  0.41648100  0.83946900  1
  Se  Se16  1  0.57618300  0.42381700  0.75000000  1
  Se  Se17  1  0.42381700  0.57618300  0.25000000  1
  Se  Se18  1  0.04895100  0.95104900  0.75000000  1
  Se  Se19  1  0.95104900  0.04895100  0.25000000  1
  Se  Se20  1  0.04874600  0.42392000  0.74990900  1
  Se  Se21  1  0.57608000  0.95125400  0.75009100  1
  Se  Se22  1  0.95125400  0.57608000  0.25009100  1
  Se  Se23  1  0.42392000  0.04874600  0.24990900  1
  Se  Se24  1  0.85944100  0.73490800  0.56139500  1
  Se  Se25  1  0.26509200  0.14055900  0.93860500  1
  Se  Se26  1  0.14055900  0.26509200  0.43860500  1
  Se  Se27  1  0.63979600  0.26524500  0.43943300  1
  Se  Se28  1  0.26524500  0.63979600  0.93943300  1
  Se  Se29  1  0.36020400  0.73475500  0.56056700  1
  Se  Se30  1  0.73475500  0.36020400  0.06056700  1
  Se  Se31  1  0.73490800  0.85944100  0.06139500  1
