# generated using pymatgen
data_Nd2EuSe4
_symmetry_space_group_name_H-M   'P 1'
_cell_length_a   7.79833362
_cell_length_b   7.79833362
_cell_length_c   7.79833362
_cell_angle_alpha   109.44874125
_cell_angle_beta   109.44874125
_cell_angle_gamma   109.51618876
_symmetry_Int_Tables_number   1
_chemical_formula_structural   Nd2EuSe4
_chemical_formula_sum   'Nd4 Eu2 Se8'
_cell_volume   365.07604794
_cell_formula_units_Z   2
loop_
 _symmetry_equiv_pos_site_id
 _symmetry_equiv_pos_as_xyz
  1  'x, y, z'
loop_
 _atom_site_type_symbol
 _atom_site_label
 _atom_site_symmetry_multiplicity
 _atom_site_fract_x
 _atom_site_fract_y
 _atom_site_fract_z
 _atom_site_occupancy
  Nd  Nd0  1  0.74993100  0.37500000  0.87493100  1
  Nd  Nd1  1  0.62500000  0.49993100  0.37493100  1
  Nd  Nd2  1  0.50006900  0.87500000  0.12506900  1
  Nd  Nd3  1  0.12500000  0.25006900  0.62506900  1
  Eu  Eu4  1  0.25000000  0.75000000  0.50000000  1
  Eu  Eu5  1  0.00000000  0.00000000  0.00000000  1
  Se  Se6  1  0.72967300  0.97971900  0.59983600  1
  Se  Se7  1  0.37988300  0.12983700  0.40016400  1
  Se  Se8  1  0.52032700  0.62016300  0.75004600  1
  Se  Se9  1  0.22971900  0.47967300  0.09983600  1
  Se  Se10  1  0.37983700  0.12988300  0.90016400  1
  Se  Se11  1  0.87016300  0.27032700  0.25004600  1
  Se  Se12  1  0.02028100  0.62011700  0.74995400  1
  Se  Se13  1  0.87011700  0.77028100  0.24995400  1
