# generated using pymatgen
data_Rb7(FeO4)2
_symmetry_space_group_name_H-M   'P 1'
_cell_length_a   10.65344300
_cell_length_b   6.52820200
_cell_length_c   21.02570497
_cell_angle_alpha   87.04644106
_cell_angle_beta   90.00000000
_cell_angle_gamma   90.00000000
_symmetry_Int_Tables_number   1
_chemical_formula_structural   Rb7(FeO4)2
_chemical_formula_sum   'Rb28 Fe8 O32'
_cell_volume   1460.34964197
_cell_formula_units_Z   4
loop_
 _symmetry_equiv_pos_site_id
 _symmetry_equiv_pos_as_xyz
  1  'x, y, z'
loop_
 _atom_site_type_symbol
 _atom_site_label
 _atom_site_symmetry_multiplicity
 _atom_site_fract_x
 _atom_site_fract_y
 _atom_site_fract_z
 _atom_site_occupancy
  Rb  Rb0  1  0.54655600  0.58572500  0.86637200  1
  Rb  Rb1  1  0.04655600  0.41427500  0.63362800  1
  Rb  Rb2  1  0.45344400  0.41427500  0.13362800  1
  Rb  Rb3  1  0.95344400  0.58572500  0.36637200  1
  Rb  Rb4  1  0.88986600  0.80269700  0.53377200  1
  Rb  Rb5  1  0.38986600  0.19730300  0.96622800  1
  Rb  Rb6  1  0.11013400  0.19730300  0.46622800  1
  Rb  Rb7  1  0.61013400  0.80269700  0.03377200  1
  Rb  Rb8  1  0.84223700  0.90279700  0.88504100  1
  Rb  Rb9  1  0.34223700  0.09720300  0.61495900  1
  Rb  Rb10  1  0.15776300  0.09720300  0.11495900  1
  Rb  Rb11  1  0.65776300  0.90279700  0.38504100  1
  Rb  Rb12  1  0.83826000  0.40091200  0.80355800  1
  Rb  Rb13  1  0.33826000  0.59908800  0.69644200  1
  Rb  Rb14  1  0.16174000  0.59908800  0.19644200  1
  Rb  Rb15  1  0.66174000  0.40091200  0.30355800  1
  Rb  Rb16  1  0.55682900  0.71150900  0.54759100  1
  Rb  Rb17  1  0.05682900  0.28849100  0.95240900  1
  Rb  Rb18  1  0.44317100  0.28849100  0.45240900  1
  Rb  Rb19  1  0.94317100  0.71150900  0.04759100  1
  Rb  Rb20  1  0.00314200  0.88262100  0.71536600  1
  Rb  Rb21  1  0.50314200  0.11737900  0.78463400  1
  Rb  Rb22  1  0.99685800  0.11737900  0.28463400  1
  Rb  Rb23  1  0.49685800  0.88262100  0.21536600  1
  Rb  Rb24  1  0.70772800  0.21988800  0.63727000  1
  Rb  Rb25  1  0.20772800  0.78011200  0.86273000  1
  Rb  Rb26  1  0.29227200  0.78011200  0.36273000  1
  Rb  Rb27  1  0.79227200  0.21988800  0.13727000  1
  Fe  Fe28  1  0.22220100  0.71877400  0.52553700  1
  Fe  Fe29  1  0.72220100  0.28122600  0.97446300  1
  Fe  Fe30  1  0.77779900  0.28122600  0.47446300  1
  Fe  Fe31  1  0.27779900  0.71877400  0.02553700  1
  Fe  Fe32  1  0.33094600  0.28188700  0.29486800  1
  Fe  Fe33  1  0.16905400  0.28188700  0.79486800  1
  Fe  Fe34  1  0.83094600  0.71811300  0.20513200  1
  Fe  Fe35  1  0.66905400  0.71811300  0.70513200  1
  O  O36  1  0.74146300  0.85994800  0.76595900  1
  O  O37  1  0.24146300  0.14005200  0.73404100  1
  O  O38  1  0.25853700  0.14005200  0.23404100  1
  O  O39  1  0.75853700  0.85994800  0.26595900  1
  O  O40  1  0.80006200  0.64729400  0.65725000  1
  O  O41  1  0.30006200  0.35270600  0.84275000  1
  O  O42  1  0.19993800  0.35270600  0.34275000  1
  O  O43  1  0.69993800  0.64729400  0.15725000  1
  O  O44  1  0.59082500  0.48274400  0.73010700  1
  O  O45  1  0.09082500  0.51725600  0.76989300  1
  O  O46  1  0.40917500  0.51725600  0.26989300  1
  O  O47  1  0.90917500  0.48274400  0.23010700  1
  O  O48  1  0.54145200  0.87296600  0.67307800  1
  O  O49  1  0.04145200  0.12703400  0.82692200  1
  O  O50  1  0.45854800  0.12703400  0.32692200  1
  O  O51  1  0.95854800  0.87296600  0.17307800  1
  O  O52  1  0.79999100  0.51118300  0.94211700  1
  O  O53  1  0.20000900  0.48881700  0.05788300  1
  O  O54  1  0.70000900  0.51118300  0.44211700  1
  O  O55  1  0.34082300  0.89079300  0.49266500  1
  O  O56  1  0.88996700  0.27743700  0.53809600  1
  O  O57  1  0.38996700  0.72256300  0.96190400  1
  O  O58  1  0.11003300  0.72256300  0.46190400  1
  O  O59  1  0.61003300  0.27743700  0.03809600  1
  O  O60  1  0.14093600  0.80697900  0.59429400  1
  O  O61  1  0.64093600  0.19302100  0.90570600  1
  O  O62  1  0.85906400  0.19302100  0.40570600  1
  O  O63  1  0.35906400  0.80697900  0.09429400  1
  O  O64  1  0.15917700  0.89079300  0.99266500  1
  O  O65  1  0.65917700  0.10920700  0.50733500  1
  O  O66  1  0.84082300  0.10920700  0.00733500  1
  O  O67  1  0.29999100  0.48881700  0.55788300  1
