# generated using pymatgen
data_Ni6Mo6C
_symmetry_space_group_name_H-M   'P 1'
_cell_length_a   7.71503703
_cell_length_b   7.71503703
_cell_length_c   7.71503703
_cell_angle_alpha   60.00000000
_cell_angle_beta   60.00000000
_cell_angle_gamma   60.00000000
_symmetry_Int_Tables_number   1
_chemical_formula_structural   Ni6Mo6C
_chemical_formula_sum   'Ni12 Mo12 C2'
_cell_volume   324.71252934
_cell_formula_units_Z   2
loop_
 _symmetry_equiv_pos_site_id
 _symmetry_equiv_pos_as_xyz
  1  'x, y, z'
loop_
 _atom_site_type_symbol
 _atom_site_label
 _atom_site_symmetry_multiplicity
 _atom_site_fract_x
 _atom_site_fract_y
 _atom_site_fract_z
 _atom_site_occupancy
  Ni  Ni0  1  0.33353700  0.33353700  0.99938800  1
  Ni  Ni1  1  0.33353700  0.33353700  0.33353700  1
  Ni  Ni2  1  0.25061200  0.91646300  0.91646300  1
  Ni  Ni3  1  0.91646300  0.91646300  0.91646300  1
  Ni  Ni4  1  0.99938800  0.33353700  0.33353700  1
  Ni  Ni5  1  0.33353700  0.99938800  0.33353700  1
  Ni  Ni6  1  0.12500000  0.62500000  0.12500000  1
  Ni  Ni7  1  0.12500000  0.12500000  0.62500000  1
  Ni  Ni8  1  0.62500000  0.12500000  0.12500000  1
  Ni  Ni9  1  0.12500000  0.12500000  0.12500000  1
  Ni  Ni10  1  0.91646300  0.91646300  0.25061200  1
  Ni  Ni11  1  0.91646300  0.25061200  0.91646300  1
  Mo  Mo12  1  0.30193300  0.69806700  0.69806700  1
  Mo  Mo13  1  0.69806700  0.69806700  0.30193300  1
  Mo  Mo14  1  0.69806700  0.30193300  0.69806700  1
  Mo  Mo15  1  0.30193300  0.69806700  0.30193300  1
  Mo  Mo16  1  0.55193300  0.94806700  0.55193300  1
  Mo  Mo17  1  0.55193300  0.94806700  0.94806700  1
  Mo  Mo18  1  0.94806700  0.55193300  0.55193300  1
  Mo  Mo19  1  0.94806700  0.55193300  0.94806700  1
  Mo  Mo20  1  0.30193300  0.30193300  0.69806700  1
  Mo  Mo21  1  0.55193300  0.55193300  0.94806700  1
  Mo  Mo22  1  0.94806700  0.94806700  0.55193300  1
  Mo  Mo23  1  0.69806700  0.30193300  0.30193300  1
  C  C24  1  0.50000000  0.50000000  0.50000000  1
  C  C25  1  0.75000000  0.75000000  0.75000000  1
