# generated using pymatgen
data_Te(HO)6
_symmetry_space_group_name_H-M   'P 1'
_cell_length_a   9.44044000
_cell_length_b   6.54252100
_cell_length_c   8.38834746
_cell_angle_alpha   79.93962022
_cell_angle_beta   90.00000000
_cell_angle_gamma   90.00000000
_symmetry_Int_Tables_number   1
_chemical_formula_structural   Te(HO)6
_chemical_formula_sum   'Te4 H24 O24'
_cell_volume   510.13401611
_cell_formula_units_Z   4
loop_
 _symmetry_equiv_pos_site_id
 _symmetry_equiv_pos_as_xyz
  1  'x, y, z'
loop_
 _atom_site_type_symbol
 _atom_site_label
 _atom_site_symmetry_multiplicity
 _atom_site_fract_x
 _atom_site_fract_y
 _atom_site_fract_z
 _atom_site_occupancy
  Te  Te0  1  0.50000000  0.50000000  0.00000000  1
  Te  Te1  1  0.00000000  0.50000000  0.50000000  1
  Te  Te2  1  0.50000000  0.00000000  0.50000000  1
  Te  Te3  1  0.00000000  0.00000000  0.00000000  1
  H  H4  1  0.83366400  0.70753700  0.30365000  1
  H  H5  1  0.33366400  0.29246300  0.19635000  1
  H  H6  1  0.16633600  0.29246300  0.69635000  1
  H  H7  1  0.66633600  0.70753700  0.80365000  1
  H  H8  1  0.46376200  0.31425800  0.76269500  1
  H  H9  1  0.96376200  0.68574200  0.73730500  1
  H  H10  1  0.70103700  0.24573800  0.01284700  1
  H  H11  1  0.20103700  0.75426200  0.48715300  1
  H  H12  1  0.29896300  0.75426200  0.98715300  1
  H  H13  1  0.79896300  0.24573800  0.51284700  1
  H  H14  1  0.59327500  0.35074900  0.37259000  1
  H  H15  1  0.09327500  0.64925100  0.12741000  1
  H  H16  1  0.40672500  0.64925100  0.62741000  1
  H  H17  1  0.90672500  0.35074900  0.87259000  1
  H  H18  1  0.56993600  0.04160500  0.20609300  1
  H  H19  1  0.06993600  0.95839500  0.29390700  1
  H  H20  1  0.43006400  0.95839500  0.79390700  1
  H  H21  1  0.93006400  0.04160500  0.70609300  1
  H  H22  1  0.78547300  0.76866700  0.03034300  1
  H  H23  1  0.28547300  0.23133300  0.46965700  1
  H  H24  1  0.21452700  0.23133300  0.96965700  1
  H  H25  1  0.71452700  0.76866700  0.53034300  1
  H  H26  1  0.53623800  0.68574200  0.23730500  1
  H  H27  1  0.03623800  0.31425800  0.26269500  1
  O  O28  1  0.67452400  0.64336500  0.92120500  1
  O  O29  1  0.17452400  0.35663500  0.57879500  1
  O  O30  1  0.32547600  0.35663500  0.07879500  1
  O  O31  1  0.82547600  0.64336500  0.42120500  1
  O  O32  1  0.04893100  0.46072300  0.28189000  1
  O  O33  1  0.54893100  0.53927700  0.21811000  1
  O  O34  1  0.59832100  0.23404600  0.04647900  1
  O  O35  1  0.09832100  0.76595400  0.45352100  1
  O  O36  1  0.40167900  0.76595400  0.95352100  1
  O  O37  1  0.90167900  0.23404600  0.54647900  1
  O  O38  1  0.87259300  0.23862700  0.96190800  1
  O  O39  1  0.37259300  0.76137300  0.53809200  1
  O  O40  1  0.12740700  0.76137300  0.03809200  1
  O  O41  1  0.62740700  0.23862700  0.46190800  1
  O  O42  1  0.54781100  0.91976100  0.29343000  1
  O  O43  1  0.04781100  0.08023900  0.20657000  1
  O  O44  1  0.45218900  0.08023900  0.70657000  1
  O  O45  1  0.95218900  0.91976100  0.79343000  1
  O  O46  1  0.65555700  0.83441000  0.60769000  1
  O  O47  1  0.15555700  0.16559000  0.89231000  1
  O  O48  1  0.34444300  0.16559000  0.39231000  1
  O  O49  1  0.84444300  0.83441000  0.10769000  1
  O  O50  1  0.95106900  0.53927700  0.71811000  1
  O  O51  1  0.45106900  0.46072300  0.78189000  1
