# generated using pymatgen
data_CsSn2Cl5
_symmetry_space_group_name_H-M   'P 1'
_cell_length_a   9.69879282
_cell_length_b   9.69879282
_cell_length_c   9.69879282
_cell_angle_alpha   129.74556559
_cell_angle_beta   129.74556559
_cell_angle_gamma   73.81384862
_symmetry_Int_Tables_number   1
_chemical_formula_structural   CsSn2Cl5
_chemical_formula_sum   'Cs2 Sn4 Cl10'
_cell_volume   526.15392045
_cell_formula_units_Z   2
loop_
 _symmetry_equiv_pos_site_id
 _symmetry_equiv_pos_as_xyz
  1  'x, y, z'
loop_
 _atom_site_type_symbol
 _atom_site_label
 _atom_site_symmetry_multiplicity
 _atom_site_fract_x
 _atom_site_fract_y
 _atom_site_fract_z
 _atom_site_occupancy
  Cs  Cs0  1  0.75000000  0.75000000  0.00000000  1
  Cs  Cs1  1  0.25000000  0.25000000  0.00000000  1
  Sn  Sn2  1  0.68183600  0.18183600  0.86367200  1
  Sn  Sn3  1  0.18183600  0.31816400  0.50000000  1
  Sn  Sn4  1  0.81816400  0.68183600  0.50000000  1
  Sn  Sn5  1  0.31816400  0.81816400  0.13632800  1
  Cl  Cl6  1  0.95701200  0.45701200  0.17058600  1
  Cl  Cl7  1  0.71357400  0.21357400  0.17058600  1
  Cl  Cl8  1  0.04298800  0.54298800  0.82941400  1
  Cl  Cl9  1  0.54298800  0.71357400  0.50000000  1
  Cl  Cl10  1  0.21357400  0.04298800  0.50000000  1
  Cl  Cl11  1  0.45701200  0.28642600  0.50000000  1
  Cl  Cl12  1  0.00000000  0.00000000  0.00000000  1
  Cl  Cl13  1  0.50000000  0.50000000  0.00000000  1
  Cl  Cl14  1  0.28642600  0.78642600  0.82941400  1
  Cl  Cl15  1  0.78642600  0.95701200  0.50000000  1
