# generated using pymatgen
data_SrTm2O4
_symmetry_space_group_name_H-M   'P 1'
_cell_length_a   3.37303000
_cell_length_b   10.07191400
_cell_length_c   11.85069700
_cell_angle_alpha   90.00000000
_cell_angle_beta   90.00000000
_cell_angle_gamma   90.00000000
_symmetry_Int_Tables_number   1
_chemical_formula_structural   SrTm2O4
_chemical_formula_sum   'Sr4 Tm8 O16'
_cell_volume   402.60216583
_cell_formula_units_Z   4
loop_
 _symmetry_equiv_pos_site_id
 _symmetry_equiv_pos_as_xyz
  1  'x, y, z'
loop_
 _atom_site_type_symbol
 _atom_site_label
 _atom_site_symmetry_multiplicity
 _atom_site_fract_x
 _atom_site_fract_y
 _atom_site_fract_z
 _atom_site_occupancy
  Sr  Sr0  1  0.75000000  0.25381300  0.85031200  1
  Sr  Sr1  1  0.25000000  0.74618700  0.14968800  1
  Sr  Sr2  1  0.75000000  0.75381300  0.64968800  1
  Sr  Sr3  1  0.25000000  0.24618700  0.35031200  1
  Tm  Tm4  1  0.25000000  0.57821200  0.89061800  1
  Tm  Tm5  1  0.75000000  0.42178800  0.10938200  1
  Tm  Tm6  1  0.25000000  0.07821200  0.60938200  1
  Tm  Tm7  1  0.75000000  0.92178800  0.39061800  1
  Tm  Tm8  1  0.75000000  0.92602300  0.88777200  1
  Tm  Tm9  1  0.25000000  0.07397700  0.11222800  1
  Tm  Tm10  1  0.75000000  0.42602300  0.61222800  1
  Tm  Tm11  1  0.25000000  0.57397700  0.38777200  1
  O  O12  1  0.25000000  0.57505300  0.57617000  1
  O  O13  1  0.75000000  0.42494700  0.42383000  1
  O  O14  1  0.25000000  0.07505300  0.92383000  1
  O  O15  1  0.75000000  0.92494700  0.07617000  1
  O  O16  1  0.25000000  0.48240700  0.21640900  1
  O  O17  1  0.75000000  0.51759300  0.78359100  1
  O  O18  1  0.25000000  0.98240700  0.28359100  1
  O  O19  1  0.75000000  0.01759300  0.71640900  1
  O  O20  1  0.25000000  0.87785400  0.52052000  1
  O  O21  1  0.75000000  0.12214600  0.47948000  1
  O  O22  1  0.25000000  0.37785400  0.97948000  1
  O  O23  1  0.75000000  0.62214600  0.02052000  1
  O  O24  1  0.75000000  0.70983800  0.33010500  1
  O  O25  1  0.25000000  0.29016200  0.66989500  1
  O  O26  1  0.75000000  0.20983800  0.16989500  1
  O  O27  1  0.25000000  0.79016200  0.83010500  1
