# generated using pymatgen
data_Ho3CrB7
_symmetry_space_group_name_H-M   'P 1'
_cell_length_a   8.06353803
_cell_length_b   8.06353803
_cell_length_c   9.32185700
_cell_angle_alpha   90.00000000
_cell_angle_beta   90.00000000
_cell_angle_gamma   155.45655676
_symmetry_Int_Tables_number   1
_chemical_formula_structural   Ho3CrB7
_chemical_formula_sum   'Ho6 Cr2 B14'
_cell_volume   251.76915203
_cell_formula_units_Z   2
loop_
 _symmetry_equiv_pos_site_id
 _symmetry_equiv_pos_as_xyz
  1  'x, y, z'
loop_
 _atom_site_type_symbol
 _atom_site_label
 _atom_site_symmetry_multiplicity
 _atom_site_fract_x
 _atom_site_fract_y
 _atom_site_fract_z
 _atom_site_occupancy
  Ho  Ho0  1  0.10492300  0.89507700  0.05971500  1
  Ho  Ho1  1  0.89507700  0.10492300  0.94028500  1
  Ho  Ho2  1  0.75851000  0.24149000  0.25000000  1
  Ho  Ho3  1  0.24149000  0.75851000  0.75000000  1
  Ho  Ho4  1  0.10492300  0.89507700  0.44028500  1
  Ho  Ho5  1  0.89507700  0.10492300  0.55971500  1
  Cr  Cr6  1  0.05327100  0.94672900  0.75000000  1
  Cr  Cr7  1  0.94672900  0.05327100  0.25000000  1
  B  B8  1  0.72714900  0.27285100  0.53222900  1
  B  B9  1  0.27285100  0.72714900  0.46777100  1
  B  B10  1  0.27285100  0.72714900  0.03222900  1
  B  B11  1  0.72714900  0.27285100  0.96777100  1
  B  B12  1  0.52117400  0.47882600  0.90369000  1
  B  B13  1  0.47882600  0.52117400  0.09631000  1
  B  B14  1  0.47882600  0.52117400  0.40369000  1
  B  B15  1  0.52117400  0.47882600  0.59631000  1
  B  B16  1  0.45903000  0.54097000  0.75000000  1
  B  B17  1  0.54097000  0.45903000  0.25000000  1
  B  B18  1  0.63113300  0.36886700  0.65131100  1
  B  B19  1  0.36886700  0.63113300  0.34868900  1
  B  B20  1  0.36886700  0.63113300  0.15131100  1
  B  B21  1  0.63113300  0.36886700  0.84868900  1
