# generated using pymatgen
data_AsCl5
_symmetry_space_group_name_H-M   'P 1'
_cell_length_a   6.78945500
_cell_length_b   7.73685300
_cell_length_c   8.06346400
_cell_angle_alpha   90.00000000
_cell_angle_beta   90.00000000
_cell_angle_gamma   90.00000000
_symmetry_Int_Tables_number   1
_chemical_formula_structural   AsCl5
_chemical_formula_sum   'As2 Cl10'
_cell_volume   423.56582371
_cell_formula_units_Z   2
loop_
 _symmetry_equiv_pos_site_id
 _symmetry_equiv_pos_as_xyz
  1  'x, y, z'
loop_
 _atom_site_type_symbol
 _atom_site_label
 _atom_site_symmetry_multiplicity
 _atom_site_fract_x
 _atom_site_fract_y
 _atom_site_fract_z
 _atom_site_occupancy
  As  As0  1  0.82513500  0.00000000  0.50000000  1
  As  As1  1  0.17486500  0.50000000  0.00000000  1
  Cl  Cl2  1  0.82617700  0.00000000  0.22023300  1
  Cl  Cl3  1  0.82617700  0.00000000  0.77976700  1
  Cl  Cl4  1  0.33924700  0.25837600  0.00000000  1
  Cl  Cl5  1  0.33924700  0.74162400  0.00000000  1
  Cl  Cl6  1  0.66075300  0.75837600  0.50000000  1
  Cl  Cl7  1  0.66075300  0.24162400  0.50000000  1
  Cl  Cl8  1  0.85476800  0.50000000  0.00000000  1
  Cl  Cl9  1  0.14523200  0.00000000  0.50000000  1
  Cl  Cl10  1  0.17382300  0.50000000  0.72023300  1
  Cl  Cl11  1  0.17382300  0.50000000  0.27976700  1
