# generated using pymatgen
data_SrSn3Pd
_symmetry_space_group_name_H-M   'P 1'
_cell_length_a   6.65036903
_cell_length_b   6.65036903
_cell_length_c   6.65036903
_cell_angle_alpha   136.89464962
_cell_angle_beta   136.89464962
_cell_angle_gamma   62.60018383
_symmetry_Int_Tables_number   1
_chemical_formula_structural   SrSn3Pd
_chemical_formula_sum   'Sr1 Sn3 Pd1'
_cell_volume   135.66358804
_cell_formula_units_Z   1
loop_
 _symmetry_equiv_pos_site_id
 _symmetry_equiv_pos_as_xyz
  1  'x, y, z'
loop_
 _atom_site_type_symbol
 _atom_site_label
 _atom_site_symmetry_multiplicity
 _atom_site_fract_x
 _atom_site_fract_y
 _atom_site_fract_z
 _atom_site_occupancy
  Sr  Sr0  1  0.00228400  0.00228400  0.00000000  1
  Sn  Sn1  1  0.59041700  0.59041700  0.00000000  1
  Sn  Sn2  1  0.25393600  0.75393600  0.50000000  1
  Sn  Sn3  1  0.75393600  0.25393600  0.50000000  1
  Pd  Pd4  1  0.35842700  0.35842700  0.00000000  1
