# generated using pymatgen
data_HoZn3
_symmetry_space_group_name_H-M   'P 1'
_cell_length_a   4.36731000
_cell_length_b   6.70660200
_cell_length_c   10.05352800
_cell_angle_alpha   90.00000000
_cell_angle_beta   90.00000000
_cell_angle_gamma   90.00000000
_symmetry_Int_Tables_number   1
_chemical_formula_structural   HoZn3
_chemical_formula_sum   'Ho4 Zn12'
_cell_volume   294.46592475
_cell_formula_units_Z   4
loop_
 _symmetry_equiv_pos_site_id
 _symmetry_equiv_pos_as_xyz
  1  'x, y, z'
loop_
 _atom_site_type_symbol
 _atom_site_label
 _atom_site_symmetry_multiplicity
 _atom_site_fract_x
 _atom_site_fract_y
 _atom_site_fract_z
 _atom_site_occupancy
  Ho  Ho0  1  0.25000000  0.28008000  0.66244900  1
  Ho  Ho1  1  0.75000000  0.71992000  0.33755100  1
  Ho  Ho2  1  0.25000000  0.78008000  0.83755100  1
  Ho  Ho3  1  0.75000000  0.21992000  0.16244900  1
  Zn  Zn4  1  0.25000000  0.53666600  0.10383800  1
  Zn  Zn5  1  0.75000000  0.46333400  0.89616200  1
  Zn  Zn6  1  0.25000000  0.03666600  0.39616200  1
  Zn  Zn7  1  0.75000000  0.96333400  0.60383800  1
  Zn  Zn8  1  0.75000000  0.28296700  0.45706600  1
  Zn  Zn9  1  0.25000000  0.71703300  0.54293400  1
  Zn  Zn10  1  0.75000000  0.78296700  0.04293400  1
  Zn  Zn11  1  0.25000000  0.21703300  0.95706600  1
  Zn  Zn12  1  0.75000000  0.58189300  0.64769300  1
  Zn  Zn13  1  0.25000000  0.41810700  0.35230700  1
  Zn  Zn14  1  0.75000000  0.08189300  0.85230700  1
  Zn  Zn15  1  0.25000000  0.91810700  0.14769300  1
