# generated using pymatgen
data_NiGePd
_symmetry_space_group_name_H-M   'P 1'
_cell_length_a   3.63522800
_cell_length_b   3.63522800
_cell_length_c   6.30837200
_cell_angle_alpha   90.00000000
_cell_angle_beta   90.00000000
_cell_angle_gamma   90.00000000
_symmetry_Int_Tables_number   1
_chemical_formula_structural   NiGePd
_chemical_formula_sum   'Ni2 Ge2 Pd2'
_cell_volume   83.36439545
_cell_formula_units_Z   2
loop_
 _symmetry_equiv_pos_site_id
 _symmetry_equiv_pos_as_xyz
  1  'x, y, z'
loop_
 _atom_site_type_symbol
 _atom_site_label
 _atom_site_symmetry_multiplicity
 _atom_site_fract_x
 _atom_site_fract_y
 _atom_site_fract_z
 _atom_site_occupancy
  Ni  Ni0  1  0.50000000  0.50000000  0.00000000  1
  Ni  Ni1  1  0.00000000  0.00000000  0.00000000  1
  Ge  Ge2  1  0.50000000  0.00000000  0.24521700  1
  Ge  Ge3  1  0.00000000  0.50000000  0.75478300  1
  Pd  Pd4  1  0.50000000  0.00000000  0.63941400  1
  Pd  Pd5  1  0.00000000  0.50000000  0.36058600  1
