# generated using pymatgen
data_Rb2SO4
_symmetry_space_group_name_H-M   'P 1'
_cell_length_a   6.07831700
_cell_length_b   7.97611500
_cell_length_c   10.65453700
_cell_angle_alpha   90.00000000
_cell_angle_beta   90.00000000
_cell_angle_gamma   90.00000000
_symmetry_Int_Tables_number   1
_chemical_formula_structural   Rb2SO4
_chemical_formula_sum   'Rb8 S4 O16'
_cell_volume   516.54639490
_cell_formula_units_Z   4
loop_
 _symmetry_equiv_pos_site_id
 _symmetry_equiv_pos_as_xyz
  1  'x, y, z'
loop_
 _atom_site_type_symbol
 _atom_site_label
 _atom_site_symmetry_multiplicity
 _atom_site_fract_x
 _atom_site_fract_y
 _atom_site_fract_z
 _atom_site_occupancy
  Rb  Rb0  1  0.75000000  0.00845200  0.70020700  1
  Rb  Rb1  1  0.25000000  0.99154800  0.29979300  1
  Rb  Rb2  1  0.75000000  0.50845200  0.79979300  1
  Rb  Rb3  1  0.25000000  0.49154800  0.20020700  1
  Rb  Rb4  1  0.25000000  0.67389700  0.58840900  1
  Rb  Rb5  1  0.75000000  0.32610300  0.41159100  1
  Rb  Rb6  1  0.25000000  0.17389700  0.91159100  1
  Rb  Rb7  1  0.75000000  0.82610300  0.08840900  1
  S  S8  1  0.25000000  0.23523800  0.58186300  1
  S  S9  1  0.75000000  0.76476200  0.41813700  1
  S  S10  1  0.25000000  0.73523800  0.91813700  1
  S  S11  1  0.75000000  0.26476200  0.08186300  1
  O  O12  1  0.54863000  0.69996900  0.35285400  1
  O  O13  1  0.04863000  0.30003100  0.64714600  1
  O  O14  1  0.95137000  0.19996900  0.14714600  1
  O  O15  1  0.45137000  0.80003100  0.85285400  1
  O  O16  1  0.45137000  0.30003100  0.64714600  1
  O  O17  1  0.95137000  0.69996900  0.35285400  1
  O  O18  1  0.04863000  0.80003100  0.85285400  1
  O  O19  1  0.54863000  0.19996900  0.14714600  1
  O  O20  1  0.25000000  0.29818600  0.44890400  1
  O  O21  1  0.75000000  0.70181400  0.55109600  1
  O  O22  1  0.25000000  0.79818600  0.05109600  1
  O  O23  1  0.75000000  0.20181400  0.94890400  1
  O  O24  1  0.75000000  0.45156000  0.08396500  1
  O  O25  1  0.25000000  0.54844000  0.91603500  1
  O  O26  1  0.75000000  0.95156000  0.41603500  1
  O  O27  1  0.25000000  0.04844000  0.58396500  1
