# generated using pymatgen
data_Ho12InPt7
_symmetry_space_group_name_H-M   'P 1'
_cell_length_a   10.91414699
_cell_length_b   10.91414699
_cell_length_c   10.91414699
_cell_angle_alpha   116.03078483
_cell_angle_beta   116.03078483
_cell_angle_gamma   97.02439865
_symmetry_Int_Tables_number   1
_chemical_formula_structural   Ho12InPt7
_chemical_formula_sum   'Ho24 In2 Pt14'
_cell_volume   966.57440879
_cell_formula_units_Z   2
loop_
 _symmetry_equiv_pos_site_id
 _symmetry_equiv_pos_as_xyz
  1  'x, y, z'
loop_
 _atom_site_type_symbol
 _atom_site_label
 _atom_site_symmetry_multiplicity
 _atom_site_fract_x
 _atom_site_fract_y
 _atom_site_fract_z
 _atom_site_occupancy
  Ho  Ho0  1  0.85245100  0.57171000  0.13370100  1
  Ho  Ho1  1  0.56199100  0.28124900  0.13370100  1
  Ho  Ho2  1  0.14754900  0.42829000  0.86629900  1
  Ho  Ho3  1  0.93800900  0.07171000  0.71925900  1
  Ho  Ho4  1  0.28124900  0.14754900  0.71925900  1
  Ho  Ho5  1  0.42829000  0.56199100  0.28074100  1
  Ho  Ho6  1  0.64754900  0.78124900  0.71925900  1
  Ho  Ho7  1  0.78124900  0.06199100  0.13370100  1
  Ho  Ho8  1  0.92829000  0.64754900  0.86629900  1
  Ho  Ho9  1  0.43800900  0.71875100  0.86629900  1
  Ho  Ho10  1  0.67711700  0.17711700  0.85423500  1
  Ho  Ho11  1  0.06199100  0.92829000  0.28074100  1
  Ho  Ho12  1  0.71875100  0.85245100  0.28074100  1
  Ho  Ho13  1  0.57171000  0.43800900  0.71925900  1
  Ho  Ho14  1  0.63328100  0.13328100  0.50000000  1
  Ho  Ho15  1  0.13328100  0.63328100  0.50000000  1
  Ho  Ho16  1  0.86671900  0.36671900  0.50000000  1
  Ho  Ho17  1  0.36671900  0.86671900  0.50000000  1
  Ho  Ho18  1  0.17711700  0.32288300  0.50000000  1
  Ho  Ho19  1  0.21875100  0.93800900  0.86629900  1
  Ho  Ho20  1  0.82288300  0.67711700  0.50000000  1
  Ho  Ho21  1  0.32288300  0.82288300  0.14576500  1
  Ho  Ho22  1  0.35245100  0.21875100  0.28074100  1
  Ho  Ho23  1  0.07171000  0.35245100  0.13370100  1
  In  In24  1  0.50000000  0.50000000  0.00000000  1
  In  In25  1  0.00000000  0.00000000  0.00000000  1
  Pt  Pt26  1  0.02078500  0.86378500  0.50000000  1
  Pt  Pt27  1  0.97921500  0.13621500  0.50000000  1
  Pt  Pt28  1  0.63621500  0.47921500  0.50000000  1
  Pt  Pt29  1  0.52078500  0.02078500  0.15700000  1
  Pt  Pt30  1  0.13621500  0.63621500  0.15700000  1
  Pt  Pt31  1  0.47921500  0.97921500  0.84300000  1
  Pt  Pt32  1  0.12832300  0.62832300  0.75664600  1
  Pt  Pt33  1  0.62832300  0.87167700  0.50000000  1
  Pt  Pt34  1  0.37167700  0.12832300  0.50000000  1
  Pt  Pt35  1  0.87167700  0.37167700  0.24335400  1
  Pt  Pt36  1  0.25000000  0.25000000  0.00000000  1
  Pt  Pt37  1  0.75000000  0.75000000  0.00000000  1
  Pt  Pt38  1  0.36378500  0.52078500  0.50000000  1
  Pt  Pt39  1  0.86378500  0.36378500  0.84300000  1
