# generated using pymatgen
data_ScSi3Ni
_symmetry_space_group_name_H-M   'P 1'
_cell_length_a   10.55499671
_cell_length_b   10.55499671
_cell_length_c   3.82000600
_cell_angle_alpha   90.00000000
_cell_angle_beta   90.00000000
_cell_angle_gamma   158.90950128
_symmetry_Int_Tables_number   1
_chemical_formula_structural   ScSi3Ni
_chemical_formula_sum   'Sc2 Si6 Ni2'
_cell_volume   153.14125920
_cell_formula_units_Z   2
loop_
 _symmetry_equiv_pos_site_id
 _symmetry_equiv_pos_as_xyz
  1  'x, y, z'
loop_
 _atom_site_type_symbol
 _atom_site_label
 _atom_site_symmetry_multiplicity
 _atom_site_fract_x
 _atom_site_fract_y
 _atom_site_fract_z
 _atom_site_occupancy
  Sc  Sc0  1  0.16961600  0.83038400  0.00000000  1
  Sc  Sc1  1  0.83038400  0.16961600  0.00000000  1
  Si  Si2  1  0.71828800  0.28171200  0.50000000  1
  Si  Si3  1  0.44292200  0.55707800  0.00000000  1
  Si  Si4  1  0.28171200  0.71828800  0.50000000  1
  Si  Si5  1  0.55707800  0.44292200  0.00000000  1
  Si  Si6  1  0.94258000  0.05742000  0.50000000  1
  Si  Si7  1  0.05742000  0.94258000  0.50000000  1
  Ni  Ni8  1  0.61216100  0.38783900  0.50000000  1
  Ni  Ni9  1  0.38783900  0.61216100  0.50000000  1
