# generated using pymatgen
data_Ba8P5Br
_symmetry_space_group_name_H-M   'P 1'
_cell_length_a   8.59692824
_cell_length_b   8.59692824
_cell_length_c   8.59692824
_cell_angle_alpha   109.34277038
_cell_angle_beta   109.34277038
_cell_angle_gamma   109.72842771
_symmetry_Int_Tables_number   1
_chemical_formula_structural   Ba8P5Br
_chemical_formula_sum   'Ba8 P5 Br1'
_cell_volume   489.10426216
_cell_formula_units_Z   1
loop_
 _symmetry_equiv_pos_site_id
 _symmetry_equiv_pos_as_xyz
  1  'x, y, z'
loop_
 _atom_site_type_symbol
 _atom_site_label
 _atom_site_symmetry_multiplicity
 _atom_site_fract_x
 _atom_site_fract_y
 _atom_site_fract_z
 _atom_site_occupancy
  Ba  Ba0  1  0.73536200  0.36663400  0.24395000  1
  Ba  Ba1  1  0.98575200  0.74000300  0.09868900  1
  Ba  Ba2  1  0.64131500  0.88706300  0.90131100  1
  Ba  Ba3  1  0.12268400  0.49141200  0.75605000  1
  Ba  Ba4  1  0.63336600  0.87731600  0.36872900  1
  Ba  Ba5  1  0.50858800  0.26463800  0.63127100  1
  Ba  Ba6  1  0.25999700  0.35868500  0.24574800  1
  Ba  Ba7  1  0.11293700  0.01424800  0.75425200  1
  P  P8  1  0.74787400  0.63224900  0.62633200  1
  P  P9  1  0.36775100  0.99408300  0.11562500  1
  P  P10  1  0.00591700  0.12154200  0.37366800  1
  P  P11  1  0.50000000  0.50000000  0.00000000  1
  P  P12  1  0.87845800  0.25212600  0.88437500  1
  Br  Br13  1  0.25000000  0.75000000  0.50000000  1
