# generated using pymatgen
data_Sr2In3Rh2
_symmetry_space_group_name_H-M   'P 1'
_cell_length_a   5.98336074
_cell_length_b   5.98336074
_cell_length_c   8.01495426
_cell_angle_alpha   66.56063130
_cell_angle_beta   66.56063130
_cell_angle_gamma   42.42407083
_symmetry_Int_Tables_number   1
_chemical_formula_structural   Sr2In3Rh2
_chemical_formula_sum   'Sr2 In3 Rh2'
_cell_volume   175.06769161
_cell_formula_units_Z   1
loop_
 _symmetry_equiv_pos_site_id
 _symmetry_equiv_pos_as_xyz
  1  'x, y, z'
loop_
 _atom_site_type_symbol
 _atom_site_label
 _atom_site_symmetry_multiplicity
 _atom_site_fract_x
 _atom_site_fract_y
 _atom_site_fract_z
 _atom_site_occupancy
  Sr  Sr0  1  0.14382300  0.14382300  0.22363700  1
  Sr  Sr1  1  0.85617700  0.85617700  0.77636300  1
  In  In2  1  0.50000000  0.50000000  0.00000000  1
  In  In3  1  0.35860200  0.35860200  0.44353000  1
  In  In4  1  0.64139800  0.64139800  0.55647000  1
  Rh  Rh5  1  0.12818700  0.12818700  0.79338700  1
  Rh  Rh6  1  0.87181300  0.87181300  0.20661300  1
