# generated using pymatgen
data_CeTlPd
_symmetry_space_group_name_H-M   'P 1'
_cell_length_a   7.90176096
_cell_length_b   7.90176096
_cell_length_c   3.96655900
_cell_angle_alpha   90.00000000
_cell_angle_beta   90.00000000
_cell_angle_gamma   120.00000802
_symmetry_Int_Tables_number   1
_chemical_formula_structural   CeTlPd
_chemical_formula_sum   'Ce3 Tl3 Pd3'
_cell_volume   214.48271073
_cell_formula_units_Z   3
loop_
 _symmetry_equiv_pos_site_id
 _symmetry_equiv_pos_as_xyz
  1  'x, y, z'
loop_
 _atom_site_type_symbol
 _atom_site_label
 _atom_site_symmetry_multiplicity
 _atom_site_fract_x
 _atom_site_fract_y
 _atom_site_fract_z
 _atom_site_occupancy
  Ce  Ce0  1  0.59166700  0.00000000  0.50000000  1
  Ce  Ce1  1  0.40833300  0.40833300  0.50000000  1
  Ce  Ce2  1  0.00000000  0.59166700  0.50000000  1
  Tl  Tl3  1  0.26105700  0.00000000  0.00000000  1
  Tl  Tl4  1  0.73894300  0.73894300  0.00000000  1
  Tl  Tl5  1  0.00000000  0.26105700  0.00000000  1
  Pd  Pd6  1  0.33333300  0.66666700  0.00000000  1
  Pd  Pd7  1  0.66666700  0.33333300  0.00000000  1
  Pd  Pd8  1  0.00000000  0.00000000  0.50000000  1
