# generated using pymatgen
data_SbKrF7
_symmetry_space_group_name_H-M   'P 1'
_cell_length_a   10.72288800
_cell_length_b   5.49540900
_cell_length_c   11.21158511
_cell_angle_alpha   84.66662190
_cell_angle_beta   90.00000000
_cell_angle_gamma   90.00000000
_symmetry_Int_Tables_number   1
_chemical_formula_structural   SbKrF7
_chemical_formula_sum   'Sb4 Kr4 F28'
_cell_volume   657.80102179
_cell_formula_units_Z   4
loop_
 _symmetry_equiv_pos_site_id
 _symmetry_equiv_pos_as_xyz
  1  'x, y, z'
loop_
 _atom_site_type_symbol
 _atom_site_label
 _atom_site_symmetry_multiplicity
 _atom_site_fract_x
 _atom_site_fract_y
 _atom_site_fract_z
 _atom_site_occupancy
  Sb  Sb0  1  0.98894700  0.59662000  0.72986700  1
  Sb  Sb1  1  0.48894700  0.40338000  0.77013300  1
  Sb  Sb2  1  0.01105300  0.40338000  0.27013300  1
  Sb  Sb3  1  0.51105300  0.59662000  0.22986700  1
  Kr  Kr4  1  0.22921000  0.97520100  0.52990100  1
  Kr  Kr5  1  0.72921000  0.02479900  0.97009900  1
  Kr  Kr6  1  0.77079000  0.02479900  0.47009900  1
  Kr  Kr7  1  0.27079000  0.97520100  0.02990100  1
  F  F8  1  0.87093200  0.49859800  0.61651600  1
  F  F9  1  0.37093200  0.50140200  0.88348400  1
  F  F10  1  0.12906800  0.50140200  0.38348400  1
  F  F11  1  0.62906800  0.49859800  0.11651600  1
  F  F12  1  0.09890100  0.34452700  0.69018700  1
  F  F13  1  0.59890100  0.65547300  0.80981300  1
  F  F14  1  0.90109900  0.65547300  0.30981300  1
  F  F15  1  0.40109900  0.34452700  0.19018700  1
  F  F16  1  0.12649400  0.13641200  0.97973500  1
  F  F17  1  0.62649400  0.86358800  0.52026500  1
  F  F18  1  0.87350600  0.86358800  0.02026500  1
  F  F19  1  0.37350600  0.13641200  0.47973500  1
  F  F20  1  0.44057000  0.80324400  0.07936600  1
  F  F21  1  0.94057000  0.19675600  0.42063400  1
  F  F22  1  0.55943000  0.19675600  0.92063400  1
  F  F23  1  0.05943000  0.80324400  0.57936600  1
  F  F24  1  0.58304200  0.41067200  0.36345800  1
  F  F25  1  0.08304200  0.58932800  0.13654200  1
  F  F26  1  0.41695800  0.58932800  0.63654200  1
  F  F27  1  0.91695800  0.41067200  0.86345800  1
  F  F28  1  0.61278700  0.87625300  0.24705900  1
  F  F29  1  0.11278700  0.12374700  0.25294100  1
  F  F30  1  0.38721300  0.12374700  0.75294100  1
  F  F31  1  0.88721300  0.87625300  0.74705900  1
  F  F32  1  0.38089200  0.73385000  0.31690800  1
  F  F33  1  0.88089200  0.26615000  0.18309200  1
  F  F34  1  0.61910800  0.26615000  0.68309200  1
  F  F35  1  0.11910800  0.73385000  0.81690800  1
