# generated using pymatgen
data_KBi
_symmetry_space_group_name_H-M   'P 1'
_cell_length_a   7.41583100
_cell_length_b   13.72150000
_cell_length_c   14.56611646
_cell_angle_alpha   66.62446835
_cell_angle_beta   90.00000000
_cell_angle_gamma   90.00000000
_symmetry_Int_Tables_number   1
_chemical_formula_structural   KBi
_chemical_formula_sum   'K16 Bi16'
_cell_volume   1360.54210237
_cell_formula_units_Z   16
loop_
 _symmetry_equiv_pos_site_id
 _symmetry_equiv_pos_as_xyz
  1  'x, y, z'
loop_
 _atom_site_type_symbol
 _atom_site_label
 _atom_site_symmetry_multiplicity
 _atom_site_fract_x
 _atom_site_fract_y
 _atom_site_fract_z
 _atom_site_occupancy
  K  K0  1  0.86052500  0.44599900  0.84875500  1
  K  K1  1  0.36052500  0.05400100  0.15124500  1
  K  K2  1  0.13947500  0.55400100  0.15124500  1
  K  K3  1  0.63947500  0.94599900  0.84875500  1
  K  K4  1  0.57218100  0.30823200  0.65384500  1
  K  K5  1  0.07218100  0.19176800  0.34615500  1
  K  K6  1  0.42781900  0.69176800  0.34615500  1
  K  K7  1  0.92781900  0.80823200  0.65384500  1
  K  K8  1  0.80131200  0.46092200  0.39528800  1
  K  K9  1  0.30131200  0.03907800  0.60471200  1
  K  K10  1  0.19868800  0.53907800  0.60471200  1
  K  K11  1  0.69868800  0.96092200  0.39528800  1
  K  K12  1  0.61775000  0.35271000  0.12013300  1
  K  K13  1  0.11775000  0.14729000  0.87986700  1
  K  K14  1  0.38225000  0.64729000  0.87986700  1
  K  K15  1  0.88225000  0.85271000  0.12013300  1
  Bi  Bi16  1  0.79730100  0.11302000  0.57848800  1
  Bi  Bi17  1  0.29730100  0.38698000  0.42151200  1
  Bi  Bi18  1  0.20269900  0.88698000  0.42151200  1
  Bi  Bi19  1  0.70269900  0.61302000  0.57848800  1
  Bi  Bi20  1  0.56429900  0.22669700  0.39295900  1
  Bi  Bi21  1  0.06429900  0.27330300  0.60704100  1
  Bi  Bi22  1  0.43570100  0.77330300  0.60704100  1
  Bi  Bi23  1  0.93570100  0.72669700  0.39295900  1
  Bi  Bi24  1  0.87191000  0.12914600  0.11045800  1
  Bi  Bi25  1  0.37191000  0.37085400  0.88954200  1
  Bi  Bi26  1  0.12809000  0.87085400  0.88954200  1
  Bi  Bi27  1  0.62809000  0.62914600  0.11045800  1
  Bi  Bi28  1  0.12889800  0.31678200  0.07376100  1
  Bi  Bi29  1  0.62889800  0.18321800  0.92623900  1
  Bi  Bi30  1  0.87110200  0.68321800  0.92623900  1
  Bi  Bi31  1  0.37110200  0.81678200  0.07376100  1
