# generated using pymatgen
data_Sc57Rh13
_symmetry_space_group_name_H-M   'P 1'
_cell_length_a   14.44288800
_cell_length_b   14.44288800
_cell_length_c   14.44288800
_cell_angle_alpha   90.00000000
_cell_angle_beta   90.00000000
_cell_angle_gamma   90.00000000
_symmetry_Int_Tables_number   1
_chemical_formula_structural   Sc57Rh13
_chemical_formula_sum   'Sc114 Rh26'
_cell_volume   3012.74330717
_cell_formula_units_Z   2
loop_
 _symmetry_equiv_pos_site_id
 _symmetry_equiv_pos_as_xyz
  1  'x, y, z'
loop_
 _atom_site_type_symbol
 _atom_site_label
 _atom_site_symmetry_multiplicity
 _atom_site_fract_x
 _atom_site_fract_y
 _atom_site_fract_z
 _atom_site_occupancy
  Sc  Sc0  1  0.37538500  0.00000000  0.00000000  1
  Sc  Sc1  1  0.00000000  0.37538500  0.00000000  1
  Sc  Sc2  1  0.00000000  0.00000000  0.37538500  1
  Sc  Sc3  1  0.00000000  0.62461500  0.00000000  1
  Sc  Sc4  1  0.00000000  0.00000000  0.62461500  1
  Sc  Sc5  1  0.62461500  0.00000000  0.00000000  1
  Sc  Sc6  1  0.22964100  0.50000000  0.00000000  1
  Sc  Sc7  1  0.00000000  0.22964100  0.50000000  1
  Sc  Sc8  1  0.50000000  0.00000000  0.22964100  1
  Sc  Sc9  1  0.00000000  0.77035900  0.50000000  1
  Sc  Sc10  1  0.50000000  0.00000000  0.77035900  1
  Sc  Sc11  1  0.77035900  0.50000000  0.00000000  1
  Sc  Sc12  1  0.86194100  0.50000000  0.50000000  1
  Sc  Sc13  1  0.50000000  0.86194100  0.50000000  1
  Sc  Sc14  1  0.50000000  0.50000000  0.86194100  1
  Sc  Sc15  1  0.50000000  0.13805900  0.50000000  1
  Sc  Sc16  1  0.50000000  0.50000000  0.13805900  1
  Sc  Sc17  1  0.13805900  0.50000000  0.50000000  1
  Sc  Sc18  1  0.00000000  0.39327200  0.36795200  1
  Sc  Sc19  1  0.36795200  0.00000000  0.39327200  1
  Sc  Sc20  1  0.39327200  0.36795200  0.00000000  1
  Sc  Sc21  1  0.60672800  0.63204800  0.00000000  1
  Sc  Sc22  1  0.36795200  0.00000000  0.60672800  1
  Sc  Sc23  1  0.60672800  0.36795200  0.00000000  1
  Sc  Sc24  1  0.63204800  0.00000000  0.39327200  1
  Sc  Sc25  1  0.63204800  0.00000000  0.60672800  1
  Sc  Sc26  1  0.39327200  0.63204800  0.00000000  1
  Sc  Sc27  1  0.00000000  0.60672800  0.63204800  1
  Sc  Sc28  1  0.00000000  0.39327200  0.63204800  1
  Sc  Sc29  1  0.00000000  0.60672800  0.36795200  1
  Sc  Sc30  1  0.00000000  0.17849100  0.10717800  1
  Sc  Sc31  1  0.10717800  0.00000000  0.17849100  1
  Sc  Sc32  1  0.17849100  0.10717800  0.00000000  1
  Sc  Sc33  1  0.82150900  0.89282200  0.00000000  1
  Sc  Sc34  1  0.10717800  0.00000000  0.82150900  1
  Sc  Sc35  1  0.82150900  0.10717800  0.00000000  1
  Sc  Sc36  1  0.89282200  0.00000000  0.17849100  1
  Sc  Sc37  1  0.89282200  0.00000000  0.82150900  1
  Sc  Sc38  1  0.17849100  0.89282200  0.00000000  1
  Sc  Sc39  1  0.00000000  0.82150900  0.89282200  1
  Sc  Sc40  1  0.00000000  0.17849100  0.89282200  1
  Sc  Sc41  1  0.00000000  0.82150900  0.10717800  1
  Sc  Sc42  1  0.50000000  0.82565600  0.89687400  1
  Sc  Sc43  1  0.89687400  0.50000000  0.82565600  1
  Sc  Sc44  1  0.82565600  0.89687400  0.50000000  1
  Sc  Sc45  1  0.17434400  0.10312600  0.50000000  1
  Sc  Sc46  1  0.89687400  0.50000000  0.17434400  1
  Sc  Sc47  1  0.17434400  0.89687400  0.50000000  1
  Sc  Sc48  1  0.10312600  0.50000000  0.82565600  1
  Sc  Sc49  1  0.10312600  0.50000000  0.17434400  1
  Sc  Sc50  1  0.82565600  0.10312600  0.50000000  1
  Sc  Sc51  1  0.50000000  0.17434400  0.10312600  1
  Sc  Sc52  1  0.50000000  0.82565600  0.10312600  1
  Sc  Sc53  1  0.50000000  0.17434400  0.89687400  1
  Sc  Sc54  1  0.50000000  0.67485300  0.60879900  1
  Sc  Sc55  1  0.60879900  0.50000000  0.67485300  1
  Sc  Sc56  1  0.67485300  0.60879900  0.50000000  1
  Sc  Sc57  1  0.32514700  0.39120100  0.50000000  1
  Sc  Sc58  1  0.60879900  0.50000000  0.32514700  1
  Sc  Sc59  1  0.32514700  0.60879900  0.50000000  1
  Sc  Sc60  1  0.39120100  0.50000000  0.67485300  1
  Sc  Sc61  1  0.39120100  0.50000000  0.32514700  1
  Sc  Sc62  1  0.67485300  0.39120100  0.50000000  1
  Sc  Sc63  1  0.50000000  0.32514700  0.39120100  1
  Sc  Sc64  1  0.50000000  0.67485300  0.39120100  1
  Sc  Sc65  1  0.50000000  0.32514700  0.60879900  1
  Sc  Sc66  1  0.11098400  0.18952500  0.29678000  1
  Sc  Sc67  1  0.29678000  0.11098400  0.18952500  1
  Sc  Sc68  1  0.18952500  0.29678000  0.11098400  1
  Sc  Sc69  1  0.81047500  0.70322000  0.11098400  1
  Sc  Sc70  1  0.29678000  0.88901600  0.81047500  1
  Sc  Sc71  1  0.81047500  0.29678000  0.88901600  1
  Sc  Sc72  1  0.70322000  0.88901600  0.18952500  1
  Sc  Sc73  1  0.70322000  0.11098400  0.81047500  1
  Sc  Sc74  1  0.18952500  0.70322000  0.88901600  1
  Sc  Sc75  1  0.11098400  0.81047500  0.70322000  1
  Sc  Sc76  1  0.88901600  0.18952500  0.70322000  1
  Sc  Sc77  1  0.88901600  0.81047500  0.29678000  1
  Sc  Sc78  1  0.88901600  0.81047500  0.70322000  1
  Sc  Sc79  1  0.70322000  0.88901600  0.81047500  1
  Sc  Sc80  1  0.81047500  0.70322000  0.88901600  1
  Sc  Sc81  1  0.18952500  0.29678000  0.88901600  1
  Sc  Sc82  1  0.70322000  0.11098400  0.18952500  1
  Sc  Sc83  1  0.18952500  0.70322000  0.11098400  1
  Sc  Sc84  1  0.29678000  0.11098400  0.81047500  1
  Sc  Sc85  1  0.29678000  0.88901600  0.18952500  1
  Sc  Sc86  1  0.81047500  0.29678000  0.11098400  1
  Sc  Sc87  1  0.88901600  0.18952500  0.29678000  1
  Sc  Sc88  1  0.11098400  0.81047500  0.29678000  1
  Sc  Sc89  1  0.11098400  0.18952500  0.70322000  1
  Sc  Sc90  1  0.61466500  0.67893600  0.79191700  1
  Sc  Sc91  1  0.79191700  0.61466500  0.67893600  1
  Sc  Sc92  1  0.67893600  0.79191700  0.61466500  1
  Sc  Sc93  1  0.32106400  0.20808300  0.61466500  1
  Sc  Sc94  1  0.79191700  0.38533500  0.32106400  1
  Sc  Sc95  1  0.32106400  0.79191700  0.38533500  1
  Sc  Sc96  1  0.20808300  0.38533500  0.67893600  1
  Sc  Sc97  1  0.20808300  0.61466500  0.32106400  1
  Sc  Sc98  1  0.67893600  0.20808300  0.38533500  1
  Sc  Sc99  1  0.61466500  0.32106400  0.20808300  1
  Sc  Sc100  1  0.38533500  0.67893600  0.20808300  1
  Sc  Sc101  1  0.38533500  0.32106400  0.79191700  1
  Sc  Sc102  1  0.38533500  0.32106400  0.20808300  1
  Sc  Sc103  1  0.20808300  0.38533500  0.32106400  1
  Sc  Sc104  1  0.32106400  0.20808300  0.38533500  1
  Sc  Sc105  1  0.67893600  0.79191700  0.38533500  1
  Sc  Sc106  1  0.20808300  0.61466500  0.67893600  1
  Sc  Sc107  1  0.67893600  0.20808300  0.61466500  1
  Sc  Sc108  1  0.79191700  0.61466500  0.32106400  1
  Sc  Sc109  1  0.79191700  0.38533500  0.67893600  1
  Sc  Sc110  1  0.32106400  0.79191700  0.61466500  1
  Sc  Sc111  1  0.38533500  0.67893600  0.79191700  1
  Sc  Sc112  1  0.61466500  0.32106400  0.79191700  1
  Sc  Sc113  1  0.61466500  0.67893600  0.20808300  1
  Rh  Rh114  1  0.00000000  0.00000000  0.00000000  1
  Rh  Rh115  1  0.50000000  0.50000000  0.50000000  1
  Rh  Rh116  1  0.00000000  0.33288900  0.20221200  1
  Rh  Rh117  1  0.20221200  0.00000000  0.33288900  1
  Rh  Rh118  1  0.33288900  0.20221200  0.00000000  1
  Rh  Rh119  1  0.66711100  0.79778800  0.00000000  1
  Rh  Rh120  1  0.20221200  0.00000000  0.66711100  1
  Rh  Rh121  1  0.66711100  0.20221200  0.00000000  1
  Rh  Rh122  1  0.79778800  0.00000000  0.33288900  1
  Rh  Rh123  1  0.79778800  0.00000000  0.66711100  1
  Rh  Rh124  1  0.33288900  0.79778800  0.00000000  1
  Rh  Rh125  1  0.00000000  0.66711100  0.79778800  1
  Rh  Rh126  1  0.00000000  0.33288900  0.79778800  1
  Rh  Rh127  1  0.00000000  0.66711100  0.20221200  1
  Rh  Rh128  1  0.50000000  0.83193900  0.70036700  1
  Rh  Rh129  1  0.70036700  0.50000000  0.83193900  1
  Rh  Rh130  1  0.83193900  0.70036700  0.50000000  1
  Rh  Rh131  1  0.16806100  0.29963300  0.50000000  1
  Rh  Rh132  1  0.70036700  0.50000000  0.16806100  1
  Rh  Rh133  1  0.16806100  0.70036700  0.50000000  1
  Rh  Rh134  1  0.29963300  0.50000000  0.83193900  1
  Rh  Rh135  1  0.29963300  0.50000000  0.16806100  1
  Rh  Rh136  1  0.83193900  0.29963300  0.50000000  1
  Rh  Rh137  1  0.50000000  0.16806100  0.29963300  1
  Rh  Rh138  1  0.50000000  0.83193900  0.29963300  1
  Rh  Rh139  1  0.50000000  0.16806100  0.70036700  1
