# generated using pymatgen
data_Cs3As5O9
_symmetry_space_group_name_H-M   'P 1'
_cell_length_a   8.70441207
_cell_length_b   8.70441207
_cell_length_c   6.21080500
_cell_angle_alpha   90.00000000
_cell_angle_beta   90.00000000
_cell_angle_gamma   120.00000055
_symmetry_Int_Tables_number   1
_chemical_formula_structural   Cs3As5O9
_chemical_formula_sum   'Cs3 As5 O9'
_cell_volume   407.52795806
_cell_formula_units_Z   1
loop_
 _symmetry_equiv_pos_site_id
 _symmetry_equiv_pos_as_xyz
  1  'x, y, z'
loop_
 _atom_site_type_symbol
 _atom_site_label
 _atom_site_symmetry_multiplicity
 _atom_site_fract_x
 _atom_site_fract_y
 _atom_site_fract_z
 _atom_site_occupancy
  Cs  Cs0  1  0.62836000  0.62836000  0.99571100  1
  Cs  Cs1  1  0.00000000  0.37164000  0.99571100  1
  Cs  Cs2  1  0.37164000  0.00000000  0.99571100  1
  As  As3  1  0.66666700  0.33333300  0.47257000  1
  As  As4  1  0.33333300  0.66666700  0.47257000  1
  As  As5  1  0.26078300  0.26078300  0.49809000  1
  As  As6  1  0.00000000  0.73921700  0.49809000  1
  As  As7  1  0.73921700  0.00000000  0.49809000  1
  O  O8  1  0.71807000  0.18664100  0.62655600  1
  O  O9  1  0.81335900  0.53142900  0.62655600  1
  O  O10  1  0.46857100  0.28193000  0.62655600  1
  O  O11  1  0.18664100  0.71807000  0.62655600  1
  O  O12  1  0.53142900  0.81335900  0.62655600  1
  O  O13  1  0.28193000  0.46857100  0.62655600  1
  O  O14  1  0.31932600  0.31932600  0.23540700  1
  O  O15  1  0.00000000  0.68067400  0.23540700  1
  O  O16  1  0.68067400  0.00000000  0.23540700  1
