# generated using pymatgen
data_Tm2Zn17
_symmetry_space_group_name_H-M   'P 1'
_cell_length_a   6.77890033
_cell_length_b   6.77890033
_cell_length_c   6.77889997
_cell_angle_alpha   82.45923000
_cell_angle_beta   82.45923000
_cell_angle_gamma   82.45923072
_symmetry_Int_Tables_number   1
_chemical_formula_structural   Tm2Zn17
_chemical_formula_sum   'Tm2 Zn17'
_cell_volume   304.08226818
_cell_formula_units_Z   1
loop_
 _symmetry_equiv_pos_site_id
 _symmetry_equiv_pos_as_xyz
  1  'x, y, z'
loop_
 _atom_site_type_symbol
 _atom_site_label
 _atom_site_symmetry_multiplicity
 _atom_site_fract_x
 _atom_site_fract_y
 _atom_site_fract_z
 _atom_site_occupancy
  Tm  Tm0  1  0.66524100  0.66524100  0.66524100  1
  Tm  Tm1  1  0.33475900  0.33475900  0.33475900  1
  Zn  Zn2  1  0.35257200  0.35257200  0.83778700  1
  Zn  Zn3  1  0.83778700  0.35257200  0.35257200  1
  Zn  Zn4  1  0.10047200  0.10047200  0.10047200  1
  Zn  Zn5  1  0.89952800  0.89952800  0.89952800  1
  Zn  Zn6  1  0.00000000  0.00000000  0.50000000  1
  Zn  Zn7  1  0.00000000  0.50000000  0.00000000  1
  Zn  Zn8  1  0.50000000  0.00000000  0.00000000  1
  Zn  Zn9  1  0.29902900  0.70097100  0.00000000  1
  Zn  Zn10  1  0.70097100  0.00000000  0.29902900  1
  Zn  Zn11  1  0.00000000  0.29902900  0.70097100  1
  Zn  Zn12  1  0.70097100  0.29902900  0.00000000  1
  Zn  Zn13  1  0.29902900  0.00000000  0.70097100  1
  Zn  Zn14  1  0.00000000  0.70097100  0.29902900  1
  Zn  Zn15  1  0.16221300  0.64742800  0.64742800  1
  Zn  Zn16  1  0.64742800  0.64742800  0.16221300  1
  Zn  Zn17  1  0.64742800  0.16221300  0.64742800  1
  Zn  Zn18  1  0.35257200  0.83778700  0.35257200  1
