# generated using pymatgen
data_YOF
_symmetry_space_group_name_H-M   'P 1'
_cell_length_a   6.76075038
_cell_length_b   6.76075038
_cell_length_c   6.76075098
_cell_angle_alpha   32.95981152
_cell_angle_beta   32.95981152
_cell_angle_gamma   32.95980611
_symmetry_Int_Tables_number   1
_chemical_formula_structural   YOF
_chemical_formula_sum   'Y2 O2 F2'
_cell_volume   81.39224571
_cell_formula_units_Z   2
loop_
 _symmetry_equiv_pos_site_id
 _symmetry_equiv_pos_as_xyz
  1  'x, y, z'
loop_
 _atom_site_type_symbol
 _atom_site_label
 _atom_site_symmetry_multiplicity
 _atom_site_fract_x
 _atom_site_fract_y
 _atom_site_fract_z
 _atom_site_occupancy
  Y  Y0  1  0.74096500  0.74096500  0.74096500  1
  Y  Y1  1  0.25903500  0.25903500  0.25903500  1
  O  O2  1  0.62165500  0.62165500  0.62165500  1
  O  O3  1  0.37834500  0.37834500  0.37834500  1
  F  F4  1  0.13006900  0.13006900  0.13006900  1
  F  F5  1  0.86993100  0.86993100  0.86993100  1
