# generated using pymatgen
data_Fe2NiO4
_symmetry_space_group_name_H-M   'P 1'
_cell_length_a   5.96477876
_cell_length_b   5.96973759
_cell_length_c   5.96972718
_cell_angle_alpha   119.85812298
_cell_angle_beta   119.97240825
_cell_angle_gamma   60.02744323
_symmetry_Int_Tables_number   1
_chemical_formula_structural   Fe2NiO4
_chemical_formula_sum   'Fe4 Ni2 O8'
_cell_volume   150.53360725
_cell_formula_units_Z   2
loop_
 _symmetry_equiv_pos_site_id
 _symmetry_equiv_pos_as_xyz
  1  'x, y, z'
loop_
 _atom_site_type_symbol
 _atom_site_label
 _atom_site_symmetry_multiplicity
 _atom_site_fract_x
 _atom_site_fract_y
 _atom_site_fract_z
 _atom_site_occupancy
  Fe  Fe0  1  0.00391600  0.99608300  0.00391700  1
  Fe  Fe1  1  0.74608300  0.75391800  0.24608300  1
  Fe  Fe2  1  0.37500000  0.37500000  0.12500000  1
  Fe  Fe3  1  0.37500000  0.87500000  0.62500000  1
  Ni  Ni4  1  0.87500000  0.37500000  0.62500000  1
  Ni  Ni5  1  0.37500000  0.37500000  0.62500000  1
  O  O6  1  0.61469900  0.14378000  0.37317800  1
  O  O7  1  0.61469800  0.62682200  0.85621800  1
  O  O8  1  0.13530200  0.12317800  0.39378200  1
  O  O9  1  0.13530100  0.60621900  0.87682200  1
  O  O10  1  0.61263500  0.62255000  0.37744900  1
  O  O11  1  0.14226500  0.62255100  0.37744900  1
  O  O12  1  0.60773500  0.12744900  0.87255000  1
  O  O13  1  0.13736600  0.12745000  0.87255100  1
