# generated using pymatgen
data_Mg(AlS2)2
_symmetry_space_group_name_H-M   'P 1'
_cell_length_a   5.95195700
_cell_length_b   7.27308200
_cell_length_c   12.64464100
_cell_angle_alpha   90.00000000
_cell_angle_beta   90.00000000
_cell_angle_gamma   90.00000000
_symmetry_Int_Tables_number   1
_chemical_formula_structural   Mg(AlS2)2
_chemical_formula_sum   'Mg4 Al8 S16'
_cell_volume   547.37476608
_cell_formula_units_Z   4
loop_
 _symmetry_equiv_pos_site_id
 _symmetry_equiv_pos_as_xyz
  1  'x, y, z'
loop_
 _atom_site_type_symbol
 _atom_site_label
 _atom_site_symmetry_multiplicity
 _atom_site_fract_x
 _atom_site_fract_y
 _atom_site_fract_z
 _atom_site_occupancy
  Mg  Mg0  1  0.00180800  0.75000000  0.26517400  1
  Mg  Mg1  1  0.50180800  0.25000000  0.23482600  1
  Mg  Mg2  1  0.99819200  0.25000000  0.73482600  1
  Mg  Mg3  1  0.49819200  0.75000000  0.76517400  1
  Al  Al4  1  0.59073600  0.75000000  0.08478300  1
  Al  Al5  1  0.09073600  0.25000000  0.41521700  1
  Al  Al6  1  0.40926400  0.25000000  0.91521700  1
  Al  Al7  1  0.90926400  0.75000000  0.58478300  1
  Al  Al8  1  0.00000000  0.00000000  0.00000000  1
  Al  Al9  1  0.50000000  0.00000000  0.50000000  1
  Al  Al10  1  0.00000000  0.50000000  0.00000000  1
  Al  Al11  1  0.50000000  0.50000000  0.50000000  1
  S  S12  1  0.21292000  0.75000000  0.08426500  1
  S  S13  1  0.71292000  0.25000000  0.41573500  1
  S  S14  1  0.78708000  0.25000000  0.91573500  1
  S  S15  1  0.28708000  0.75000000  0.58426500  1
  S  S16  1  0.72840600  0.75000000  0.42613100  1
  S  S17  1  0.22840600  0.25000000  0.07386900  1
  S  S18  1  0.27159400  0.25000000  0.57386900  1
  S  S19  1  0.77159400  0.75000000  0.92613100  1
  S  S20  1  0.76117600  0.99515700  0.15791500  1
  S  S21  1  0.26117600  0.00484300  0.34208500  1
  S  S22  1  0.23882400  0.49515700  0.84208500  1
  S  S23  1  0.73882400  0.50484300  0.65791500  1
  S  S24  1  0.23882400  0.00484300  0.84208500  1
  S  S25  1  0.73882400  0.99515700  0.65791500  1
  S  S26  1  0.76117600  0.50484300  0.15791500  1
  S  S27  1  0.26117600  0.49515700  0.34208500  1
