# generated using pymatgen
data_Cs2TiS3
_symmetry_space_group_name_H-M   'P 1'
_cell_length_a   7.86388162
_cell_length_b   7.86388162
_cell_length_c   6.58854700
_cell_angle_alpha   90.00000000
_cell_angle_beta   90.00000000
_cell_angle_gamma   108.85476063
_symmetry_Int_Tables_number   1
_chemical_formula_structural   Cs2TiS3
_chemical_formula_sum   'Cs4 Ti2 S6'
_cell_volume   385.57703304
_cell_formula_units_Z   2
loop_
 _symmetry_equiv_pos_site_id
 _symmetry_equiv_pos_as_xyz
  1  'x, y, z'
loop_
 _atom_site_type_symbol
 _atom_site_label
 _atom_site_symmetry_multiplicity
 _atom_site_fract_x
 _atom_site_fract_y
 _atom_site_fract_z
 _atom_site_occupancy
  Cs  Cs0  1  0.31785900  0.00541800  0.25000000  1
  Cs  Cs1  1  0.68214100  0.99458200  0.75000000  1
  Cs  Cs2  1  0.99458200  0.68214100  0.75000000  1
  Cs  Cs3  1  0.00541800  0.31785900  0.25000000  1
  Ti  Ti4  1  0.42179800  0.42179800  0.75000000  1
  Ti  Ti5  1  0.57820200  0.57820200  0.25000000  1
  S  S6  1  0.62647000  0.37353000  0.50000000  1
  S  S7  1  0.37353000  0.62647000  0.00000000  1
  S  S8  1  0.17689300  0.17689300  0.75000000  1
  S  S9  1  0.82310700  0.82310700  0.25000000  1
  S  S10  1  0.62647000  0.37353000  0.00000000  1
  S  S11  1  0.37353000  0.62647000  0.50000000  1
