# generated using pymatgen
data_Ba3(SbO3)2
_symmetry_space_group_name_H-M   'P 1'
_cell_length_a   6.27341500
_cell_length_b   9.93202425
_cell_length_c   12.37227386
_cell_angle_alpha   104.93016521
_cell_angle_beta   90.39887898
_cell_angle_gamma   108.22225148
_symmetry_Int_Tables_number   1
_chemical_formula_structural   Ba3(SbO3)2
_chemical_formula_sum   'Ba9 Sb6 O18'
_cell_volume   704.28416061
_cell_formula_units_Z   3
loop_
 _symmetry_equiv_pos_site_id
 _symmetry_equiv_pos_as_xyz
  1  'x, y, z'
loop_
 _atom_site_type_symbol
 _atom_site_label
 _atom_site_symmetry_multiplicity
 _atom_site_fract_x
 _atom_site_fract_y
 _atom_site_fract_z
 _atom_site_occupancy
  Ba  Ba0  1  0.61073000  0.21195200  0.06174100  1
  Ba  Ba1  1  0.21769700  0.39973300  0.70252000  1
  Ba  Ba2  1  0.38927000  0.78804800  0.93825900  1
  Ba  Ba3  1  0.78230300  0.60026700  0.29748000  1
  Ba  Ba4  1  0.51588400  0.03697800  0.70240200  1
  Ba  Ba5  1  0.48411600  0.96302200  0.29759800  1
  Ba  Ba6  1  0.84811800  0.72246600  0.71116100  1
  Ba  Ba7  1  0.15188200  0.27753400  0.28883900  1
  Ba  Ba8  1  0.00000000  0.00000000  0.50000000  1
  Sb  Sb9  1  0.76363700  0.50599200  0.91774300  1
  Sb  Sb10  1  0.23636300  0.49400800  0.08225700  1
  Sb  Sb11  1  0.04488300  0.09670000  0.87524500  1
  Sb  Sb12  1  0.95511700  0.90330000  0.12475500  1
  Sb  Sb13  1  0.68298500  0.33351400  0.50794900  1
  Sb  Sb14  1  0.31701500  0.66648600  0.49205100  1
  O  O15  1  0.43818300  0.15744600  0.52046200  1
  O  O16  1  0.56181700  0.84255400  0.47953800  1
  O  O17  1  0.60367900  0.32615300  0.35309400  1
  O  O18  1  0.39632100  0.67384700  0.64690600  1
  O  O19  1  0.93617600  0.25268000  0.48615200  1
  O  O20  1  0.06382400  0.74732100  0.51384800  1
  O  O21  1  0.62887200  0.29172800  0.85138200  1
  O  O22  1  0.37112800  0.70827200  0.14861800  1
  O  O23  1  0.56304900  0.57896600  0.84137900  1
  O  O24  1  0.43695100  0.42103400  0.15862100  1
  O  O25  1  0.01132900  0.56599600  0.82227100  1
  O  O26  1  0.79526300  0.05039400  0.15703100  1
  O  O27  1  0.20473700  0.94960600  0.84296900  1
  O  O28  1  0.26648200  0.04114900  0.14165000  1
  O  O29  1  0.73351800  0.95885100  0.85835000  1
  O  O30  1  0.97035800  0.88624800  0.28075400  1
  O  O31  1  0.02964200  0.11375200  0.71924600  1
  O  O32  1  0.98867100  0.43400400  0.17772900  1
