# generated using pymatgen
data_Y2SiO5
_symmetry_space_group_name_H-M   'P 1'
_cell_length_a   8.04429057
_cell_length_b   8.04429057
_cell_length_c   10.55696847
_cell_angle_alpha   61.21774433
_cell_angle_beta   61.21774433
_cell_angle_gamma   50.28353685
_symmetry_Int_Tables_number   1
_chemical_formula_structural   Y2SiO5
_chemical_formula_sum   'Y8 Si4 O20'
_cell_volume   444.99641026
_cell_formula_units_Z   4
loop_
 _symmetry_equiv_pos_site_id
 _symmetry_equiv_pos_as_xyz
  1  'x, y, z'
loop_
 _atom_site_type_symbol
 _atom_site_label
 _atom_site_symmetry_multiplicity
 _atom_site_fract_x
 _atom_site_fract_y
 _atom_site_fract_z
 _atom_site_occupancy
  Y  Y0  1  0.78125300  0.29266500  0.03240200  1
  Y  Y1  1  0.70733500  0.21874700  0.46759800  1
  Y  Y2  1  0.21874700  0.70733500  0.96759800  1
  Y  Y3  1  0.29266500  0.78125300  0.53240200  1
  Y  Y4  1  0.23931200  0.47540700  0.33748800  1
  Y  Y5  1  0.52459300  0.76068800  0.16251200  1
  Y  Y6  1  0.76068800  0.52459300  0.66251200  1
  Y  Y7  1  0.47540700  0.23931200  0.83748800  1
  Si  Si8  1  0.72811800  0.90833200  0.30567800  1
  Si  Si9  1  0.09166800  0.27188200  0.19432200  1
  Si  Si10  1  0.27188200  0.09166800  0.69432200  1
  Si  Si11  1  0.90833200  0.72811800  0.80567800  1
  O  O12  1  0.42287200  0.61045800  0.10422400  1
  O  O13  1  0.38954200  0.57712800  0.39577600  1
  O  O14  1  0.57712800  0.38954200  0.89577600  1
  O  O15  1  0.61045800  0.42287200  0.60422400  1
  O  O16  1  0.87181100  0.72582700  0.43195800  1
  O  O17  1  0.27417300  0.12818900  0.06804200  1
  O  O18  1  0.12818900  0.27417300  0.56804200  1
  O  O19  1  0.72582700  0.87181100  0.93195800  1
  O  O20  1  0.55494300  0.85099500  0.32369400  1
  O  O21  1  0.14900500  0.44505700  0.17630600  1
  O  O22  1  0.44505700  0.14900500  0.67630600  1
  O  O23  1  0.85099500  0.55494300  0.82369400  1
  O  O24  1  0.16294800  0.59585400  0.82422500  1
  O  O25  1  0.40414600  0.83705200  0.67577500  1
  O  O26  1  0.83705200  0.40414600  0.17577500  1
  O  O27  1  0.59585400  0.16294800  0.32422500  1
  O  O28  1  0.91844100  0.90015500  0.63756500  1
  O  O29  1  0.09984500  0.08155900  0.86243500  1
  O  O30  1  0.08155900  0.09984500  0.36243500  1
  O  O31  1  0.90015500  0.91844100  0.13756500  1
