# generated using pymatgen
data_Li2CO3
_symmetry_space_group_name_H-M   'P 1'
_cell_length_a   4.90692313
_cell_length_b   4.90692313
_cell_length_c   6.34779188
_cell_angle_alpha   69.38285223
_cell_angle_beta   69.38285223
_cell_angle_gamma   61.86175075
_symmetry_Int_Tables_number   1
_chemical_formula_structural   Li2CO3
_chemical_formula_sum   'Li4 C2 O6'
_cell_volume   122.89828155
_cell_formula_units_Z   2
loop_
 _symmetry_equiv_pos_site_id
 _symmetry_equiv_pos_as_xyz
  1  'x, y, z'
loop_
 _atom_site_type_symbol
 _atom_site_label
 _atom_site_symmetry_multiplicity
 _atom_site_fract_x
 _atom_site_fract_y
 _atom_site_fract_z
 _atom_site_occupancy
  Li  Li0  1  0.74975800  0.64794500  0.16104400  1
  Li  Li1  1  0.35205500  0.25024200  0.33895600  1
  Li  Li2  1  0.25024200  0.35205500  0.83895600  1
  Li  Li3  1  0.64794500  0.74975800  0.66104400  1
  C  C4  1  0.93496300  0.06503700  0.75000000  1
  C  C5  1  0.06503700  0.93496300  0.25000000  1
  O  O6  1  0.68014600  0.31985400  0.75000000  1
  O  O7  1  0.31985400  0.68014600  0.25000000  1
  O  O8  1  0.21166800  0.08208200  0.68525300  1
  O  O9  1  0.91791800  0.78833200  0.81474700  1
  O  O10  1  0.78833300  0.91791800  0.31474700  1
  O  O11  1  0.08208200  0.21166700  0.18525300  1
