# generated using pymatgen
data_Rb2PdSe16
_symmetry_space_group_name_H-M   'P 1'
_cell_length_a   12.96650400
_cell_length_b   12.96650400
_cell_length_c   7.07303400
_cell_angle_alpha   90.00000000
_cell_angle_beta   90.00000000
_cell_angle_gamma   90.00000000
_symmetry_Int_Tables_number   1
_chemical_formula_structural   Rb2PdSe16
_chemical_formula_sum   'Rb4 Pd2 Se32'
_cell_volume   1189.19080480
_cell_formula_units_Z   2
loop_
 _symmetry_equiv_pos_site_id
 _symmetry_equiv_pos_as_xyz
  1  'x, y, z'
loop_
 _atom_site_type_symbol
 _atom_site_label
 _atom_site_symmetry_multiplicity
 _atom_site_fract_x
 _atom_site_fract_y
 _atom_site_fract_z
 _atom_site_occupancy
  Rb  Rb0  1  0.50000000  0.00000000  0.00000000  1
  Rb  Rb1  1  0.00000000  0.50000000  0.00000000  1
  Rb  Rb2  1  0.50000000  0.50000000  0.50000000  1
  Rb  Rb3  1  0.00000000  0.00000000  0.50000000  1
  Pd  Pd4  1  0.00000000  0.00000000  0.00000000  1
  Pd  Pd5  1  0.50000000  0.50000000  0.00000000  1
  Se  Se6  1  0.19128200  0.42289500  0.58618300  1
  Se  Se7  1  0.80871800  0.57710500  0.58618300  1
  Se  Se8  1  0.57710500  0.19128200  0.41381700  1
  Se  Se9  1  0.42289500  0.80871800  0.41381700  1
  Se  Se10  1  0.30871800  0.92289500  0.58618300  1
  Se  Se11  1  0.07710500  0.30871800  0.41381700  1
  Se  Se12  1  0.81299800  0.96593900  0.96809000  1
  Se  Se13  1  0.03406100  0.81299800  0.03191000  1
  Se  Se14  1  0.96593900  0.18700200  0.03191000  1
  Se  Se15  1  0.18700200  0.03406100  0.96809000  1
  Se  Se16  1  0.53406100  0.68700200  0.03191000  1
  Se  Se17  1  0.46593900  0.31299800  0.03191000  1
  Se  Se18  1  0.68700200  0.46593900  0.96809000  1
  Se  Se19  1  0.31299800  0.53406100  0.96809000  1
  Se  Se20  1  0.78938100  0.20211900  0.12703600  1
  Se  Se21  1  0.79788100  0.78938100  0.87296400  1
  Se  Se22  1  0.20211900  0.21061900  0.87296400  1
  Se  Se23  1  0.21061900  0.79788100  0.12703600  1
  Se  Se24  1  0.29788100  0.71061900  0.87296400  1
  Se  Se25  1  0.70211900  0.28938100  0.87296400  1
  Se  Se26  1  0.71061900  0.70211900  0.12703600  1
  Se  Se27  1  0.28938100  0.29788100  0.12703600  1
  Se  Se28  1  0.91923300  0.30790700  0.58976300  1
  Se  Se29  1  0.69209300  0.91923300  0.41023700  1
  Se  Se30  1  0.30790700  0.08076700  0.41023700  1
  Se  Se31  1  0.08076700  0.69209300  0.58976300  1
  Se  Se32  1  0.19209300  0.58076700  0.41023700  1
  Se  Se33  1  0.80790700  0.41923300  0.41023700  1
  Se  Se34  1  0.58076700  0.80790700  0.58976300  1
  Se  Se35  1  0.41923300  0.19209300  0.58976300  1
  Se  Se36  1  0.69128200  0.07710500  0.58618300  1
  Se  Se37  1  0.92289500  0.69128200  0.41381700  1
