# generated using pymatgen
data_NbSbO4
_symmetry_space_group_name_H-M   'P 1'
_cell_length_a   5.05535300
_cell_length_b   5.68032800
_cell_length_c   11.99543500
_cell_angle_alpha   90.00000000
_cell_angle_beta   90.00000000
_cell_angle_gamma   90.00000000
_symmetry_Int_Tables_number   1
_chemical_formula_structural   NbSbO4
_chemical_formula_sum   'Nb4 Sb4 O16'
_cell_volume   344.46166952
_cell_formula_units_Z   4
loop_
 _symmetry_equiv_pos_site_id
 _symmetry_equiv_pos_as_xyz
  1  'x, y, z'
loop_
 _atom_site_type_symbol
 _atom_site_label
 _atom_site_symmetry_multiplicity
 _atom_site_fract_x
 _atom_site_fract_y
 _atom_site_fract_z
 _atom_site_occupancy
  Nb  Nb0  1  0.50904500  0.61252500  0.50059100  1
  Nb  Nb1  1  0.49095500  0.38747500  0.00059100  1
  Nb  Nb2  1  0.99095500  0.11252500  0.50059100  1
  Nb  Nb3  1  0.00904500  0.88747500  0.00059100  1
  Sb  Sb4  1  0.44247300  0.97750900  0.74905300  1
  Sb  Sb5  1  0.55752700  0.02249100  0.24905300  1
  Sb  Sb6  1  0.05752700  0.47750900  0.74905300  1
  Sb  Sb7  1  0.94247300  0.52249100  0.24905300  1
  O  O8  1  0.23027000  0.88190500  0.45673600  1
  O  O9  1  0.76973000  0.11809500  0.95673600  1
  O  O10  1  0.26973000  0.38190500  0.45673600  1
  O  O11  1  0.73027000  0.61809500  0.95673600  1
  O  O12  1  0.33537300  0.66026100  0.66027300  1
  O  O13  1  0.66462700  0.33973900  0.16027300  1
  O  O14  1  0.16462700  0.16026100  0.66027300  1
  O  O15  1  0.83537300  0.83973900  0.16027300  1
  O  O16  1  0.16439600  0.81938900  0.84920700  1
  O  O17  1  0.83560400  0.18061100  0.34920700  1
  O  O18  1  0.33560400  0.31938900  0.84920700  1
  O  O19  1  0.66439600  0.68061100  0.34920700  1
  O  O20  1  0.21411600  0.57415900  0.05904000  1
  O  O21  1  0.78588400  0.42584100  0.55904000  1
  O  O22  1  0.28588400  0.07415900  0.05904000  1
  O  O23  1  0.71411600  0.92584100  0.55904000  1
