# generated using pymatgen
data_Ba16Nb5N19
_symmetry_space_group_name_H-M   'P 1'
_cell_length_a   11.14384300
_cell_length_b   11.60298243
_cell_length_c   14.55015343
_cell_angle_alpha   104.08997316
_cell_angle_beta   101.54227750
_cell_angle_gamma   97.78196080
_symmetry_Int_Tables_number   1
_chemical_formula_structural   Ba16Nb5N19
_chemical_formula_sum   'Ba32 Nb10 N38'
_cell_volume   1753.98221521
_cell_formula_units_Z   2
loop_
 _symmetry_equiv_pos_site_id
 _symmetry_equiv_pos_as_xyz
  1  'x, y, z'
loop_
 _atom_site_type_symbol
 _atom_site_label
 _atom_site_symmetry_multiplicity
 _atom_site_fract_x
 _atom_site_fract_y
 _atom_site_fract_z
 _atom_site_occupancy
  Ba  Ba0  1  0.84680900  0.33797500  0.98729200  1
  Ba  Ba1  1  0.15319100  0.66202500  0.01270800  1
  Ba  Ba2  1  0.89716900  0.81203800  0.13829700  1
  Ba  Ba3  1  0.10283100  0.18796200  0.86170300  1
  Ba  Ba4  1  0.01352800  0.12636400  0.38866500  1
  Ba  Ba5  1  0.98647200  0.87363600  0.61133500  1
  Ba  Ba6  1  0.38311300  0.12406500  0.46153500  1
  Ba  Ba7  1  0.61688700  0.87593500  0.53846500  1
  Ba  Ba8  1  0.50772100  0.23325900  0.92343900  1
  Ba  Ba9  1  0.49227900  0.76674100  0.07656100  1
  Ba  Ba10  1  0.34015800  0.00123400  0.69121400  1
  Ba  Ba11  1  0.65984200  0.99876600  0.30878600  1
  Ba  Ba12  1  0.11412500  0.84144300  0.38746100  1
  Ba  Ba13  1  0.88587500  0.15855700  0.61253900  1
  Ba  Ba14  1  0.62923200  0.30793600  0.72074100  1
  Ba  Ba15  1  0.37076800  0.69206400  0.27925900  1
  Ba  Ba16  1  0.21920700  0.38086500  0.35872300  1
  Ba  Ba17  1  0.78079300  0.61913500  0.64127700  1
  Ba  Ba18  1  0.91447200  0.51423600  0.39580600  1
  Ba  Ba19  1  0.08552800  0.48576400  0.60419400  1
  Ba  Ba20  1  0.37052100  0.49010700  0.86631000  1
  Ba  Ba21  1  0.62947900  0.50989300  0.13369000  1
  Ba  Ba22  1  0.68433000  0.00431400  0.00932700  1
  Ba  Ba23  1  0.31567000  0.99568600  0.99067300  1
  Ba  Ba24  1  0.04638500  0.15167000  0.11759400  1
  Ba  Ba25  1  0.95361500  0.84833000  0.88240600  1
  Ba  Ba26  1  0.53120600  0.77500900  0.78462800  1
  Ba  Ba27  1  0.46879400  0.22499100  0.21537200  1
  Ba  Ba28  1  0.43854200  0.46941000  0.60995000  1
  Ba  Ba29  1  0.56145800  0.53059000  0.39005000  1
  Ba  Ba30  1  0.04629300  0.53991500  0.20123000  1
  Ba  Ba31  1  0.95370700  0.46008500  0.79877000  1
  Nb  Nb32  1  0.79580500  0.23857000  0.22091100  1
  Nb  Nb33  1  0.20419500  0.76143000  0.77908900  1
  Nb  Nb34  1  0.31524200  0.71008700  0.52704700  1
  Nb  Nb35  1  0.68475800  0.28991300  0.47295300  1
  Nb  Nb36  1  0.71602100  0.59663000  0.91534900  1
  Nb  Nb37  1  0.28397900  0.40337000  0.08465100  1
  Nb  Nb38  1  0.21576600  0.24605100  0.64519900  1
  Nb  Nb39  1  0.78423400  0.75394900  0.35480100  1
  Nb  Nb40  1  0.77183200  0.05959900  0.80603700  1
  Nb  Nb41  1  0.22816800  0.94040100  0.19396300  1
  N  N42  1  0.28076800  0.72378400  0.66162000  1
  N  N43  1  0.71923200  0.27621600  0.33838000  1
  N  N44  1  0.81917400  0.07149600  0.19266300  1
  N  N45  1  0.18082600  0.92850400  0.80733700  1
  N  N46  1  0.96475900  0.33605100  0.25055500  1
  N  N47  1  0.03524100  0.66394900  0.74944500  1
  N  N48  1  0.67441800  0.25327600  0.10559200  1
  N  N49  1  0.32558200  0.74672400  0.89440800  1
  N  N50  1  0.35166400  0.87070600  0.50999600  1
  N  N51  1  0.64833600  0.12929400  0.49000400  1
  N  N52  1  0.17271700  0.61243100  0.41756800  1
  N  N53  1  0.82728300  0.38756900  0.58243200  1
  N  N54  1  0.47389500  0.65325200  0.52825900  1
  N  N55  1  0.52610500  0.34674800  0.47174100  1
  N  N56  1  0.89748800  0.60651300  0.96103000  1
  N  N57  1  0.10251200  0.39348700  0.03897000  1
  N  N58  1  0.65367200  0.57241400  0.77171500  1
  N  N59  1  0.34632800  0.42758600  0.22828500  1
  N  N60  1  0.63154700  0.45021300  0.94207300  1
  N  N61  1  0.36845300  0.54978700  0.05792700  1
  N  N62  1  0.67959800  0.75186500  0.98698900  1
  N  N63  1  0.32040200  0.24813500  0.01301100  1
  N  N64  1  0.20983800  0.31394600  0.53088900  1
  N  N65  1  0.79016200  0.68605400  0.46911100  1
  N  N66  1  0.86364500  0.65039600  0.26337300  1
  N  N67  1  0.13635500  0.34960400  0.73662700  1
  N  N68  1  0.39050800  0.25374300  0.71239600  1
  N  N69  1  0.60949200  0.74625700  0.28760400  1
  N  N70  1  0.12481600  0.07874200  0.59975700  1
  N  N71  1  0.87518400  0.92125800  0.40024300  1
  N  N72  1  0.17104500  0.77709600  0.21017000  1
  N  N73  1  0.82895500  0.22290400  0.78983000  1
  N  N74  1  0.59597100  0.02989300  0.81627700  1
  N  N75  1  0.40402900  0.97010700  0.18372300  1
  N  N76  1  0.87406500  0.06685500  0.93607600  1
  N  N77  1  0.12593500  0.93314500  0.06392400  1
  N  N78  1  0.18929800  0.07026300  0.29461800  1
  N  N79  1  0.81070200  0.92973700  0.70538200  1
