# generated using pymatgen
data_Mg3TeO6
_symmetry_space_group_name_H-M   'P 1'
_cell_length_a   6.11674984
_cell_length_b   6.11674984
_cell_length_c   6.11675072
_cell_angle_alpha   90.66936184
_cell_angle_beta   90.66936184
_cell_angle_gamma   90.66936051
_symmetry_Int_Tables_number   1
_chemical_formula_structural   Mg3TeO6
_chemical_formula_sum   'Mg6 Te2 O12'
_cell_volume   228.80873635
_cell_formula_units_Z   2
loop_
 _symmetry_equiv_pos_site_id
 _symmetry_equiv_pos_as_xyz
  1  'x, y, z'
loop_
 _atom_site_type_symbol
 _atom_site_label
 _atom_site_symmetry_multiplicity
 _atom_site_fract_x
 _atom_site_fract_y
 _atom_site_fract_z
 _atom_site_occupancy
  Mg  Mg0  1  0.75189700  0.44673100  0.93580800  1
  Mg  Mg1  1  0.44673100  0.93580800  0.75189700  1
  Mg  Mg2  1  0.06419200  0.24810300  0.55326900  1
  Mg  Mg3  1  0.55326900  0.06419200  0.24810300  1
  Mg  Mg4  1  0.24810300  0.55326900  0.06419200  1
  Mg  Mg5  1  0.93580800  0.75189700  0.44673100  1
  Te  Te6  1  0.00000000  0.00000000  0.00000000  1
  Te  Te7  1  0.50000000  0.50000000  0.50000000  1
  O  O8  1  0.54426400  0.40952000  0.19789600  1
  O  O9  1  0.19789600  0.54426400  0.40952000  1
  O  O10  1  0.40952000  0.19789600  0.54426400  1
  O  O11  1  0.45573600  0.59048000  0.80210400  1
  O  O12  1  0.80210400  0.45573600  0.59048000  1
  O  O13  1  0.59048000  0.80210400  0.45573600  1
  O  O14  1  0.07351100  0.93130700  0.69808500  1
  O  O15  1  0.69808500  0.07351100  0.93130700  1
  O  O16  1  0.06869300  0.30191500  0.92648900  1
  O  O17  1  0.30191500  0.92648900  0.06869300  1
  O  O18  1  0.92648900  0.06869300  0.30191500  1
  O  O19  1  0.93130700  0.69808500  0.07351100  1
