# generated using pymatgen
data_Ca4Nb2O9
_symmetry_space_group_name_H-M   'P 1'
_cell_length_a   5.58739700
_cell_length_b   9.94388800
_cell_length_c   17.26754350
_cell_angle_alpha   55.97804328
_cell_angle_beta   90.00000000
_cell_angle_gamma   90.00000000
_symmetry_Int_Tables_number   1
_chemical_formula_structural   Ca4Nb2O9
_chemical_formula_sum   'Ca16 Nb8 O36'
_cell_volume   795.16676995
_cell_formula_units_Z   4
loop_
 _symmetry_equiv_pos_site_id
 _symmetry_equiv_pos_as_xyz
  1  'x, y, z'
loop_
 _atom_site_type_symbol
 _atom_site_label
 _atom_site_symmetry_multiplicity
 _atom_site_fract_x
 _atom_site_fract_y
 _atom_site_fract_z
 _atom_site_occupancy
  Ca  Ca0  1  0.00000000  0.00000000  0.00000000  1
  Ca  Ca1  1  0.47999800  0.54475400  0.60929000  1
  Ca  Ca2  1  0.97999800  0.45524600  0.89071000  1
  Ca  Ca3  1  0.52000200  0.45524600  0.39071000  1
  Ca  Ca4  1  0.02000200  0.54475400  0.10929000  1
  Ca  Ca5  1  0.00190100  0.21364300  0.77010800  1
  Ca  Ca6  1  0.50190100  0.78635700  0.72989200  1
  Ca  Ca7  1  0.99809900  0.78635700  0.22989200  1
  Ca  Ca8  1  0.00000000  0.50000000  0.50000000  1
  Ca  Ca9  1  0.49809900  0.21364300  0.27010800  1
  Ca  Ca10  1  0.50000000  0.50000000  0.00000000  1
  Ca  Ca11  1  0.50000000  0.00000000  0.50000000  1
  Ca  Ca12  1  0.51531400  0.12126000  0.07492800  1
  Ca  Ca13  1  0.01531400  0.87874000  0.42507200  1
  Ca  Ca14  1  0.48468600  0.87874000  0.92507200  1
  Ca  Ca15  1  0.98468600  0.12126000  0.57492800  1
  Nb  Nb16  1  0.49335000  0.17079400  0.66145400  1
  Nb  Nb17  1  0.01110300  0.32277600  0.33767100  1
  Nb  Nb18  1  0.51110300  0.67722400  0.16232900  1
  Nb  Nb19  1  0.98889700  0.67722400  0.66232900  1
  Nb  Nb20  1  0.48889700  0.32277600  0.83767100  1
  Nb  Nb21  1  0.00665000  0.17079400  0.16145400  1
  Nb  Nb22  1  0.50665000  0.82920600  0.33854600  1
  Nb  Nb23  1  0.99335000  0.82920600  0.83854600  1
  O  O24  1  0.61963500  0.94459600  0.39319000  1
  O  O25  1  0.38036500  0.05540400  0.60681000  1
  O  O26  1  0.88036500  0.94459600  0.89319000  1
  O  O27  1  0.11963500  0.05540400  0.10681000  1
  O  O28  1  0.88178400  0.62499200  0.57463300  1
  O  O29  1  0.38178400  0.37500800  0.92536700  1
  O  O30  1  0.11821600  0.37500800  0.42536700  1
  O  O31  1  0.61821600  0.62499200  0.07463300  1
  O  O32  1  0.09434700  0.72246800  0.76625500  1
  O  O33  1  0.59434700  0.27753200  0.73374500  1
  O  O34  1  0.90565300  0.27753200  0.23374500  1
  O  O35  1  0.40565300  0.72246800  0.26625500  1
  O  O36  1  0.20882200  0.76345000  0.09679500  1
  O  O37  1  0.70882200  0.23655000  0.40320500  1
  O  O38  1  0.79117800  0.23655000  0.90320500  1
  O  O39  1  0.67043500  0.32924600  0.55017200  1
  O  O40  1  0.71275200  0.02183200  0.21697700  1
  O  O41  1  0.21275200  0.97816800  0.28302300  1
  O  O42  1  0.28724800  0.97816800  0.78302300  1
  O  O43  1  0.78724800  0.02183200  0.71697700  1
  O  O44  1  0.80052800  0.54811300  0.24971600  1
  O  O45  1  0.30052800  0.45188700  0.25028400  1
  O  O46  1  0.19947200  0.45188700  0.75028400  1
  O  O47  1  0.69947200  0.54811300  0.74971600  1
  O  O48  1  0.29925500  0.30091400  0.12930800  1
  O  O49  1  0.79925500  0.69908600  0.37069200  1
  O  O50  1  0.70074500  0.69908600  0.87069200  1
  O  O51  1  0.20074500  0.30091400  0.62930800  1
  O  O52  1  0.67789400  0.88130500  0.10081200  1
  O  O53  1  0.17789400  0.11869500  0.39918800  1
  O  O54  1  0.32210600  0.11869500  0.89918800  1
  O  O55  1  0.82210600  0.88130500  0.60081200  1
  O  O56  1  0.82956500  0.32924600  0.05017200  1
  O  O57  1  0.32956500  0.67075400  0.44982800  1
  O  O58  1  0.17043500  0.67075400  0.94982800  1
  O  O59  1  0.29117800  0.76345000  0.59679500  1
