# generated using pymatgen
data_YMgAg
_symmetry_space_group_name_H-M   'P 1'
_cell_length_a   7.76728464
_cell_length_b   7.76728464
_cell_length_c   4.10361000
_cell_angle_alpha   90.00000000
_cell_angle_beta   90.00000000
_cell_angle_gamma   120.00000544
_symmetry_Int_Tables_number   1
_chemical_formula_structural   YMgAg
_chemical_formula_sum   'Y3 Mg3 Ag3'
_cell_volume   214.40510831
_cell_formula_units_Z   3
loop_
 _symmetry_equiv_pos_site_id
 _symmetry_equiv_pos_as_xyz
  1  'x, y, z'
loop_
 _atom_site_type_symbol
 _atom_site_label
 _atom_site_symmetry_multiplicity
 _atom_site_fract_x
 _atom_site_fract_y
 _atom_site_fract_z
 _atom_site_occupancy
  Y  Y0  1  0.41161300  0.41161300  0.50000000  1
  Y  Y1  1  0.00000000  0.58838700  0.50000000  1
  Y  Y2  1  0.58838700  0.00000000  0.50000000  1
  Mg  Mg3  1  0.75208300  0.75208300  0.00000000  1
  Mg  Mg4  1  0.24791700  0.00000000  0.00000000  1
  Mg  Mg5  1  0.00000000  0.24791700  0.00000000  1
  Ag  Ag6  1  0.66666700  0.33333300  0.00000000  1
  Ag  Ag7  1  0.33333300  0.66666700  0.00000000  1
  Ag  Ag8  1  0.00000000  0.00000000  0.50000000  1
