# generated using pymatgen
data_BaGe4O9
_symmetry_space_group_name_H-M   'P 1'
_cell_length_a   11.79327907
_cell_length_b   11.79327907
_cell_length_c   4.82575900
_cell_angle_alpha   90.00000000
_cell_angle_beta   90.00000000
_cell_angle_gamma   119.99999478
_symmetry_Int_Tables_number   1
_chemical_formula_structural   BaGe4O9
_chemical_formula_sum   'Ba3 Ge12 O27'
_cell_volume   581.25330458
_cell_formula_units_Z   3
loop_
 _symmetry_equiv_pos_site_id
 _symmetry_equiv_pos_as_xyz
  1  'x, y, z'
loop_
 _atom_site_type_symbol
 _atom_site_label
 _atom_site_symmetry_multiplicity
 _atom_site_fract_x
 _atom_site_fract_y
 _atom_site_fract_z
 _atom_site_occupancy
  Ba  Ba0  1  0.33173100  0.33173100  0.00000000  1
  Ba  Ba1  1  0.00000000  0.66826900  0.00000000  1
  Ba  Ba2  1  0.66826900  0.00000000  0.00000000  1
  Ge  Ge3  1  0.00000000  0.00000000  0.00000000  1
  Ge  Ge4  1  0.66666700  0.33333300  0.09721200  1
  Ge  Ge5  1  0.33333300  0.66666700  0.90278800  1
  Ge  Ge6  1  0.82082200  0.82082200  0.50000000  1
  Ge  Ge7  1  0.00000000  0.17917800  0.50000000  1
  Ge  Ge8  1  0.17917800  0.00000000  0.50000000  1
  Ge  Ge9  1  0.48750900  0.15006100  0.58856500  1
  Ge  Ge10  1  0.84993900  0.33744700  0.58856500  1
  Ge  Ge11  1  0.66255300  0.51249100  0.58856500  1
  Ge  Ge12  1  0.33744700  0.84993900  0.41143500  1
  Ge  Ge13  1  0.51249100  0.66255300  0.41143500  1
  Ge  Ge14  1  0.15006100  0.48750900  0.41143500  1
  O  O15  1  0.51738800  0.51738800  0.50000000  1
  O  O16  1  0.00000000  0.48261200  0.50000000  1
  O  O17  1  0.48261200  0.00000000  0.50000000  1
  O  O18  1  0.59387400  0.18154900  0.87128200  1
  O  O19  1  0.81845100  0.41232500  0.87128200  1
  O  O20  1  0.58767500  0.40612600  0.87128200  1
  O  O21  1  0.41232500  0.81845100  0.12871800  1
  O  O22  1  0.40612600  0.58767500  0.12871800  1
  O  O23  1  0.18154900  0.59387400  0.12871800  1
  O  O24  1  0.51320000  0.26296000  0.32163700  1
  O  O25  1  0.73704000  0.25024000  0.32163700  1
  O  O26  1  0.74976000  0.48680000  0.32163700  1
  O  O27  1  0.25024000  0.73704000  0.67836300  1
  O  O28  1  0.48680000  0.74976000  0.67836300  1
  O  O29  1  0.26296000  0.51320000  0.67836300  1
  O  O30  1  0.08851900  0.15250900  0.76485100  1
  O  O31  1  0.84749100  0.93601000  0.76485100  1
  O  O32  1  0.06399000  0.91148100  0.76485100  1
  O  O33  1  0.93601000  0.84749100  0.23514900  1
  O  O34  1  0.91148100  0.06399000  0.23514900  1
  O  O35  1  0.15250900  0.08851900  0.23514900  1
  O  O36  1  0.11286100  0.32521900  0.31068000  1
  O  O37  1  0.67478100  0.78764200  0.31068000  1
  O  O38  1  0.21235800  0.88713900  0.31068000  1
  O  O39  1  0.78764200  0.67478100  0.68932000  1
  O  O40  1  0.88713900  0.21235800  0.68932000  1
  O  O41  1  0.32521900  0.11286100  0.68932000  1
