# generated using pymatgen
data_Ti(NO3)4
_symmetry_space_group_name_H-M   'P 1'
_cell_length_a   14.04337700
_cell_length_b   8.01883000
_cell_length_c   10.72951334
_cell_angle_alpha   54.90506814
_cell_angle_beta   90.00000000
_cell_angle_gamma   90.00000000
_symmetry_Int_Tables_number   1
_chemical_formula_structural   Ti(NO3)4
_chemical_formula_sum   'Ti4 N16 O48'
_cell_volume   988.60400722
_cell_formula_units_Z   4
loop_
 _symmetry_equiv_pos_site_id
 _symmetry_equiv_pos_as_xyz
  1  'x, y, z'
loop_
 _atom_site_type_symbol
 _atom_site_label
 _atom_site_symmetry_multiplicity
 _atom_site_fract_x
 _atom_site_fract_y
 _atom_site_fract_z
 _atom_site_occupancy
  Ti  Ti0  1  0.67085800  0.18089800  0.53856600  1
  Ti  Ti1  1  0.17085800  0.81910200  0.96143400  1
  Ti  Ti2  1  0.32914200  0.81910200  0.46143400  1
  Ti  Ti3  1  0.82914200  0.18089800  0.03856600  1
  N  N4  1  0.93233400  0.48268600  0.84721700  1
  N  N5  1  0.74066700  0.87341600  0.55948300  1
  N  N6  1  0.24066700  0.12658400  0.94051700  1
  N  N7  1  0.25933300  0.12658400  0.44051700  1
  N  N8  1  0.75933300  0.87341600  0.05948300  1
  N  N9  1  0.43233400  0.51731400  0.65278300  1
  N  N10  1  0.06766600  0.51731400  0.15278300  1
  N  N11  1  0.56766600  0.48268600  0.34721700  1
  N  N12  1  0.67936000  0.39341200  0.97168200  1
  N  N13  1  0.17936000  0.60658800  0.52831800  1
  N  N14  1  0.32064000  0.60658800  0.02831800  1
  N  N15  1  0.82064000  0.39341200  0.47168200  1
  N  N16  1  0.94476400  0.99987600  0.26127000  1
  N  N17  1  0.44476400  0.00012400  0.23873000  1
  N  N18  1  0.05523600  0.00012400  0.73873000  1
  N  N19  1  0.55523600  0.99987600  0.76127000  1
  O  O20  1  0.13402000  0.91401400  0.73919400  1
  O  O21  1  0.72405900  0.72925800  0.06943400  1
  O  O22  1  0.22405900  0.27074200  0.43056600  1
  O  O23  1  0.27594100  0.27074200  0.93056600  1
  O  O24  1  0.91260200  0.33229400  0.83803500  1
  O  O25  1  0.41260200  0.66770600  0.66196500  1
  O  O26  1  0.08739800  0.66770600  0.16196500  1
  O  O27  1  0.58739800  0.33229400  0.33803500  1
  O  O28  1  0.89389000  0.45605600  0.96950700  1
  O  O29  1  0.39389000  0.54394400  0.53049300  1
  O  O30  1  0.10611000  0.54394400  0.03049300  1
  O  O31  1  0.60611000  0.45605600  0.46950700  1
  O  O32  1  0.97940400  0.62905100  0.75626000  1
  O  O33  1  0.47940400  0.37094900  0.74374000  1
  O  O34  1  0.02059600  0.37094900  0.24374000  1
  O  O35  1  0.52059600  0.62905100  0.25626000  1
  O  O36  1  0.72060600  0.35053700  0.88307200  1
  O  O37  1  0.22060600  0.64946300  0.61692800  1
  O  O38  1  0.27939400  0.64946300  0.11692800  1
  O  O39  1  0.77939400  0.35053700  0.38307200  1
  O  O40  1  0.72168100  0.30160300  0.10282400  1
  O  O41  1  0.22168100  0.69839700  0.39717600  1
  O  O42  1  0.27831900  0.69839700  0.89717600  1
  O  O43  1  0.77831900  0.30160300  0.60282400  1
  O  O44  1  0.61198500  0.50560400  0.93380500  1
  O  O45  1  0.11198500  0.49439600  0.56619500  1
  O  O46  1  0.38801500  0.49439600  0.06619500  1
  O  O47  1  0.88801500  0.50560400  0.43380500  1
  O  O48  1  0.86598000  0.08598600  0.26080600  1
  O  O49  1  0.36598000  0.91401400  0.23919400  1
  O  O50  1  0.77594100  0.72925800  0.56943400  1
  O  O51  1  0.63402100  0.08598600  0.76080600  1
  O  O52  1  0.95608900  0.01992900  0.13171100  1
  O  O53  1  0.45608900  0.98007100  0.36828900  1
  O  O54  1  0.04391100  0.98007100  0.86828900  1
  O  O55  1  0.68198200  0.00097600  0.45337800  1
  O  O56  1  0.99978400  0.91367000  0.36595900  1
  O  O57  1  0.49978400  0.08633000  0.13404100  1
  O  O58  1  0.00021600  0.08633000  0.63404100  1
  O  O59  1  0.50021600  0.91367000  0.86595900  1
  O  O60  1  0.74266800  0.92128000  0.15600600  1
  O  O61  1  0.24266800  0.07872000  0.34399400  1
  O  O62  1  0.25733200  0.07872000  0.84399400  1
  O  O63  1  0.75733200  0.92128000  0.65600600  1
  O  O64  1  0.81801800  0.00097600  0.95337800  1
  O  O65  1  0.31801800  0.99902400  0.54662200  1
  O  O66  1  0.18198200  0.99902400  0.04662200  1
  O  O67  1  0.54391100  0.01992900  0.63171100  1
