# generated using pymatgen
data_Ba(RhPb2)3
_symmetry_space_group_name_H-M   'P 1'
_cell_length_a   14.39701919
_cell_length_b   14.39701919
_cell_length_c   4.60179300
_cell_angle_alpha   90.00000000
_cell_angle_beta   90.00000000
_cell_angle_gamma   146.02699111
_symmetry_Int_Tables_number   1
_chemical_formula_structural   Ba(RhPb2)3
_chemical_formula_sum   'Ba2 Rh6 Pb12'
_cell_volume   533.00394978
_cell_formula_units_Z   2
loop_
 _symmetry_equiv_pos_site_id
 _symmetry_equiv_pos_as_xyz
  1  'x, y, z'
loop_
 _atom_site_type_symbol
 _atom_site_label
 _atom_site_symmetry_multiplicity
 _atom_site_fract_x
 _atom_site_fract_y
 _atom_site_fract_z
 _atom_site_occupancy
  Ba  Ba0  1  0.58927200  0.41072800  0.25000000  1
  Ba  Ba1  1  0.41072800  0.58927200  0.75000000  1
  Rh  Rh2  1  0.97144800  0.40627500  0.75000000  1
  Rh  Rh3  1  0.96302500  0.03697500  0.75000000  1
  Rh  Rh4  1  0.02855200  0.59372500  0.25000000  1
  Rh  Rh5  1  0.03697500  0.96302500  0.25000000  1
  Rh  Rh6  1  0.40627500  0.97144800  0.25000000  1
  Rh  Rh7  1  0.59372500  0.02855200  0.75000000  1
  Pb  Pb8  1  0.75297900  0.84517400  0.25000000  1
  Pb  Pb9  1  0.84517400  0.75297900  0.75000000  1
  Pb  Pb10  1  0.15482600  0.24702100  0.25000000  1
  Pb  Pb11  1  0.52606600  0.86976300  0.25000000  1
  Pb  Pb12  1  0.13023700  0.47393400  0.25000000  1
  Pb  Pb13  1  0.86976300  0.52606600  0.75000000  1
  Pb  Pb14  1  0.24702100  0.15482600  0.75000000  1
  Pb  Pb15  1  0.74987100  0.25012900  0.25000000  1
  Pb  Pb16  1  0.25012900  0.74987100  0.75000000  1
  Pb  Pb17  1  0.13476200  0.86523800  0.25000000  1
  Pb  Pb18  1  0.86523800  0.13476200  0.75000000  1
  Pb  Pb19  1  0.47393400  0.13023700  0.75000000  1
