# generated using pymatgen
data_PPdSe
_symmetry_space_group_name_H-M   'P 1'
_cell_length_a   5.86650900
_cell_length_b   5.91682400
_cell_length_c   14.98561400
_cell_angle_alpha   90.00000000
_cell_angle_beta   90.00000000
_cell_angle_gamma   90.00000000
_symmetry_Int_Tables_number   1
_chemical_formula_structural   PPdSe
_chemical_formula_sum   'P8 Pd8 Se8'
_cell_volume   520.16716481
_cell_formula_units_Z   8
loop_
 _symmetry_equiv_pos_site_id
 _symmetry_equiv_pos_as_xyz
  1  'x, y, z'
loop_
 _atom_site_type_symbol
 _atom_site_label
 _atom_site_symmetry_multiplicity
 _atom_site_fract_x
 _atom_site_fract_y
 _atom_site_fract_z
 _atom_site_occupancy
  P  P0  1  0.62415000  0.28519200  0.07275300  1
  P  P1  1  0.62415000  0.21480800  0.92724700  1
  P  P2  1  0.87585000  0.78519200  0.42724700  1
  P  P3  1  0.87585000  0.71480800  0.57275300  1
  P  P4  1  0.37585000  0.71480800  0.92724700  1
  P  P5  1  0.37585000  0.78519200  0.07275300  1
  P  P6  1  0.12415000  0.21480800  0.57275300  1
  P  P7  1  0.12415000  0.28519200  0.42724700  1
  Pd  Pd8  1  0.75790400  0.15363800  0.39940500  1
  Pd  Pd9  1  0.75790400  0.34636200  0.60059500  1
  Pd  Pd10  1  0.74209600  0.65363800  0.10059500  1
  Pd  Pd11  1  0.74209600  0.84636200  0.89940500  1
  Pd  Pd12  1  0.24209600  0.84636200  0.60059500  1
  Pd  Pd13  1  0.24209600  0.65363800  0.39940500  1
  Pd  Pd14  1  0.25790400  0.34636200  0.89940500  1
  Pd  Pd15  1  0.25790400  0.15363800  0.10059500  1
  Se  Se16  1  0.36418300  0.03942000  0.35340500  1
  Se  Se17  1  0.36418300  0.46058000  0.64659500  1
  Se  Se18  1  0.13581700  0.53942000  0.14659500  1
  Se  Se19  1  0.13581700  0.96058000  0.85340500  1
  Se  Se20  1  0.63581700  0.96058000  0.64659500  1
  Se  Se21  1  0.63581700  0.53942000  0.35340500  1
  Se  Se22  1  0.86418300  0.46058000  0.85340500  1
  Se  Se23  1  0.86418300  0.03942000  0.14659500  1
