# generated using pymatgen
data_Sn(NO3)4
_symmetry_space_group_name_H-M   'P 1'
_cell_length_a   14.30038500
_cell_length_b   8.07014000
_cell_length_c   10.69694963
_cell_angle_alpha   55.78278200
_cell_angle_beta   90.00000000
_cell_angle_gamma   90.00000000
_symmetry_Int_Tables_number   1
_chemical_formula_structural   Sn(NO3)4
_chemical_formula_sum   'Sn4 N16 O48'
_cell_volume   1020.81688958
_cell_formula_units_Z   4
loop_
 _symmetry_equiv_pos_site_id
 _symmetry_equiv_pos_as_xyz
  1  'x, y, z'
loop_
 _atom_site_type_symbol
 _atom_site_label
 _atom_site_symmetry_multiplicity
 _atom_site_fract_x
 _atom_site_fract_y
 _atom_site_fract_z
 _atom_site_occupancy
  Sn  Sn0  1  0.67123700  0.18104700  0.53428100  1
  Sn  Sn1  1  0.17123700  0.81895300  0.96571900  1
  Sn  Sn2  1  0.32876300  0.81895300  0.46571900  1
  Sn  Sn3  1  0.82876300  0.18104700  0.03428100  1
  N  N4  1  0.93436900  0.49138600  0.84103400  1
  N  N5  1  0.75786100  0.86504900  0.05227500  1
  N  N6  1  0.25786100  0.13495100  0.44772500  1
  N  N7  1  0.24213900  0.13495100  0.94772500  1
  N  N8  1  0.74213900  0.86504900  0.55227500  1
  N  N9  1  0.43436900  0.50861400  0.65896600  1
  N  N10  1  0.06563100  0.50861400  0.15896600  1
  N  N11  1  0.56563100  0.49138600  0.34103400  1
  N  N12  1  0.67533900  0.39802200  0.96878700  1
  N  N13  1  0.17533900  0.60197800  0.53121300  1
  N  N14  1  0.32466100  0.60197800  0.03121300  1
  N  N15  1  0.82466100  0.39802200  0.46878700  1
  N  N16  1  0.94688500  0.99359600  0.26480200  1
  N  N17  1  0.44688500  0.00640400  0.23519800  1
  N  N18  1  0.05311500  0.00640400  0.73519800  1
  N  N19  1  0.55311500  0.99359600  0.76480200  1
  O  O20  1  0.13037500  0.92438100  0.73002100  1
  O  O21  1  0.72251600  0.72199500  0.06276200  1
  O  O22  1  0.22251600  0.27800500  0.43723800  1
  O  O23  1  0.27748400  0.27800500  0.93723800  1
  O  O24  1  0.91670500  0.34656300  0.82491300  1
  O  O25  1  0.41670500  0.65343700  0.67508700  1
  O  O26  1  0.08329500  0.65343700  0.17508700  1
  O  O27  1  0.58329500  0.34656300  0.32491300  1
  O  O28  1  0.89650000  0.46348300  0.96491900  1
  O  O29  1  0.39650000  0.53651700  0.53508100  1
  O  O30  1  0.10350000  0.53651700  0.03508100  1
  O  O31  1  0.60350000  0.46348300  0.46491900  1
  O  O32  1  0.98019300  0.63764600  0.75381200  1
  O  O33  1  0.48019300  0.36235400  0.74618800  1
  O  O34  1  0.01980700  0.36235400  0.24618800  1
  O  O35  1  0.51980700  0.63764600  0.25381200  1
  O  O36  1  0.71620100  0.35796500  0.87707800  1
  O  O37  1  0.21620100  0.64203500  0.62292200  1
  O  O38  1  0.28379900  0.64203500  0.12292200  1
  O  O39  1  0.78379900  0.35796500  0.37707800  1
  O  O40  1  0.71530900  0.30825400  0.10065500  1
  O  O41  1  0.21530900  0.69174600  0.39934500  1
  O  O42  1  0.28469100  0.69174600  0.89934500  1
  O  O43  1  0.78469100  0.30825400  0.60065500  1
  O  O44  1  0.60875400  0.50788800  0.93072500  1
  O  O45  1  0.10875400  0.49211200  0.56927500  1
  O  O46  1  0.39124600  0.49211200  0.06927500  1
  O  O47  1  0.89124600  0.50788800  0.43072500  1
  O  O48  1  0.86962500  0.07561900  0.26997900  1
  O  O49  1  0.36962500  0.92438100  0.23002100  1
  O  O50  1  0.77748400  0.72199500  0.56276200  1
  O  O51  1  0.63037500  0.07561900  0.76997900  1
  O  O52  1  0.95831200  0.01399100  0.13380700  1
  O  O53  1  0.45831200  0.98600900  0.36619300  1
  O  O54  1  0.04168800  0.98600900  0.86619300  1
  O  O55  1  0.68489400  0.98869200  0.44511400  1
  O  O56  1  0.00230800  0.90855400  0.36678900  1
  O  O57  1  0.50230800  0.09144600  0.13321100  1
  O  O58  1  0.99769200  0.09144600  0.63321100  1
  O  O59  1  0.49769200  0.90855400  0.86678900  1
  O  O60  1  0.74143100  0.91165200  0.15091900  1
  O  O61  1  0.24143100  0.08834800  0.34908100  1
  O  O62  1  0.25856900  0.08834800  0.84908100  1
  O  O63  1  0.75856900  0.91165200  0.65091900  1
  O  O64  1  0.81510600  0.98869200  0.94511400  1
  O  O65  1  0.31510600  0.01130800  0.55488600  1
  O  O66  1  0.18489400  0.01130800  0.05488600  1
  O  O67  1  0.54168800  0.01399100  0.63380700  1
