# generated using pymatgen
data_Na2Sb4O7
_symmetry_space_group_name_H-M   'P 1'
_cell_length_a   10.30880256
_cell_length_b   10.30880256
_cell_length_c   5.76979052
_cell_angle_alpha   75.22877836
_cell_angle_beta   75.22877836
_cell_angle_gamma   113.39584823
_symmetry_Int_Tables_number   1
_chemical_formula_structural   Na2Sb4O7
_chemical_formula_sum   'Na4 Sb8 O14'
_cell_volume   498.39797356
_cell_formula_units_Z   2
loop_
 _symmetry_equiv_pos_site_id
 _symmetry_equiv_pos_as_xyz
  1  'x, y, z'
loop_
 _atom_site_type_symbol
 _atom_site_label
 _atom_site_symmetry_multiplicity
 _atom_site_fract_x
 _atom_site_fract_y
 _atom_site_fract_z
 _atom_site_occupancy
  Na  Na0  1  0.67984900  0.49583900  0.91685200  1
  Na  Na1  1  0.50416100  0.32015100  0.58314800  1
  Na  Na2  1  0.32015100  0.50416100  0.08314800  1
  Na  Na3  1  0.49583900  0.67984900  0.41685200  1
  Sb  Sb4  1  0.11703100  0.59808800  0.68270900  1
  Sb  Sb5  1  0.59808800  0.11703100  0.18270900  1
  Sb  Sb6  1  0.88296900  0.40191200  0.31729100  1
  Sb  Sb7  1  0.40191200  0.88296900  0.81729100  1
  Sb  Sb8  1  0.86414500  0.72671500  0.25728000  1
  Sb  Sb9  1  0.27328500  0.13585500  0.24272000  1
  Sb  Sb10  1  0.13585500  0.27328500  0.74272000  1
  Sb  Sb11  1  0.72671500  0.86414500  0.75728000  1
  O  O12  1  0.22969200  0.49258200  0.50376500  1
  O  O13  1  0.61354300  0.98282000  0.53107600  1
  O  O14  1  0.77030800  0.50741800  0.49623500  1
  O  O15  1  0.49258200  0.22969200  0.00376500  1
  O  O16  1  0.69060400  0.30939600  0.25000000  1
  O  O17  1  0.30939600  0.69060400  0.75000000  1
  O  O18  1  0.98282000  0.61354300  0.03107600  1
  O  O19  1  0.38645700  0.01718000  0.46892400  1
  O  O20  1  0.01718000  0.38645700  0.96892400  1
  O  O21  1  0.30546300  0.27943100  0.42386300  1
  O  O22  1  0.27943100  0.30546300  0.92386300  1
  O  O23  1  0.69453700  0.72056900  0.57613700  1
  O  O24  1  0.50741800  0.77030800  0.99623500  1
  O  O25  1  0.72056900  0.69453700  0.07613700  1
