# generated using pymatgen
data_BaSc2O4
_symmetry_space_group_name_H-M   'P 1'
_cell_length_a   5.76805047
_cell_length_b   5.76805047
_cell_length_c   20.74012916
_cell_angle_alpha   89.96878813
_cell_angle_beta   89.96878813
_cell_angle_gamma   61.25755872
_symmetry_Int_Tables_number   1
_chemical_formula_structural   BaSc2O4
_chemical_formula_sum   'Ba6 Sc12 O24'
_cell_volume   605.01363312
_cell_formula_units_Z   6
loop_
 _symmetry_equiv_pos_site_id
 _symmetry_equiv_pos_as_xyz
  1  'x, y, z'
loop_
 _atom_site_type_symbol
 _atom_site_label
 _atom_site_symmetry_multiplicity
 _atom_site_fract_x
 _atom_site_fract_y
 _atom_site_fract_z
 _atom_site_occupancy
  Ba  Ba0  1  0.94226600  0.72657600  0.13761700  1
  Ba  Ba1  1  0.27342400  0.05773400  0.36238300  1
  Ba  Ba2  1  0.05773400  0.27342400  0.86238300  1
  Ba  Ba3  1  0.72657600  0.94226600  0.63761700  1
  Ba  Ba4  1  0.60738200  0.39261800  0.25000000  1
  Ba  Ba5  1  0.39261800  0.60738200  0.75000000  1
  Sc  Sc6  1  0.95817600  0.71584500  0.44730400  1
  Sc  Sc7  1  0.28415500  0.04182400  0.05269600  1
  Sc  Sc8  1  0.04182400  0.28415500  0.55269600  1
  Sc  Sc9  1  0.71584500  0.95817600  0.94730400  1
  Sc  Sc10  1  0.61659700  0.38696500  0.07059600  1
  Sc  Sc11  1  0.61303500  0.38340300  0.42940400  1
  Sc  Sc12  1  0.38340300  0.61303500  0.92940400  1
  Sc  Sc13  1  0.38696500  0.61659700  0.57059600  1
  Sc  Sc14  1  0.93972000  0.72331100  0.30469600  1
  Sc  Sc15  1  0.27668900  0.06028000  0.19530400  1
  Sc  Sc16  1  0.06028000  0.27668900  0.69530400  1
  Sc  Sc17  1  0.72331100  0.93972000  0.80469600  1
  O  O18  1  0.81741100  0.52222200  0.37537100  1
  O  O19  1  0.47777800  0.18258900  0.12462900  1
  O  O20  1  0.18258900  0.47777800  0.62462900  1
  O  O21  1  0.52222200  0.81741100  0.87537100  1
  O  O22  1  0.07315100  0.92684900  0.25000000  1
  O  O23  1  0.92684900  0.07315100  0.75000000  1
  O  O24  1  0.00000000  0.00000000  0.50000000  1
  O  O25  1  0.00000000  0.00000000  0.00000000  1
  O  O26  1  0.13029800  0.39688800  0.24853700  1
  O  O27  1  0.60311200  0.86970200  0.25146300  1
  O  O28  1  0.86970200  0.60311200  0.75146300  1
  O  O29  1  0.39688800  0.13029800  0.74853700  1
  O  O30  1  0.27043800  0.59426100  0.37639600  1
  O  O31  1  0.40573900  0.72956200  0.12360400  1
  O  O32  1  0.72956200  0.40573900  0.62360400  1
  O  O33  1  0.59426100  0.27043800  0.87639600  1
  O  O34  1  0.29263800  0.40254400  0.49665300  1
  O  O35  1  0.59745600  0.70736200  0.00334700  1
  O  O36  1  0.25014200  0.96411700  0.61893900  1
  O  O37  1  0.03588300  0.74985800  0.88106100  1
  O  O38  1  0.74985800  0.03588300  0.38106100  1
  O  O39  1  0.96411700  0.25014200  0.11893900  1
  O  O40  1  0.40254400  0.29263800  0.99665300  1
  O  O41  1  0.70736200  0.59745600  0.50334700  1
