# generated using pymatgen
data_Eu(AlCl4)2
_symmetry_space_group_name_H-M   'P 1'
_cell_length_a   7.05935900
_cell_length_b   7.59558000
_cell_length_c   12.82768413
_cell_angle_alpha   85.49160146
_cell_angle_beta   90.00000000
_cell_angle_gamma   90.00000000
_symmetry_Int_Tables_number   1
_chemical_formula_structural   Eu(AlCl4)2
_chemical_formula_sum   'Eu2 Al4 Cl16'
_cell_volume   685.69123877
_cell_formula_units_Z   2
loop_
 _symmetry_equiv_pos_site_id
 _symmetry_equiv_pos_as_xyz
  1  'x, y, z'
loop_
 _atom_site_type_symbol
 _atom_site_label
 _atom_site_symmetry_multiplicity
 _atom_site_fract_x
 _atom_site_fract_y
 _atom_site_fract_z
 _atom_site_occupancy
  Eu  Eu0  1  0.84152700  0.50000000  0.75000000  1
  Eu  Eu1  1  0.15847300  0.50000000  0.25000000  1
  Al  Al2  1  0.26046100  0.67755100  0.58028400  1
  Al  Al3  1  0.73953900  0.67755100  0.08028400  1
  Al  Al4  1  0.73953900  0.32244900  0.41971600  1
  Al  Al5  1  0.26046100  0.32244900  0.91971600  1
  Cl  Cl6  1  0.82080700  0.40505000  0.11562100  1
  Cl  Cl7  1  0.82080700  0.59495000  0.38437900  1
  Cl  Cl8  1  0.30278000  0.73646500  0.41408900  1
  Cl  Cl9  1  0.30278000  0.26353500  0.08591100  1
  Cl  Cl10  1  0.69722000  0.26353500  0.58591100  1
  Cl  Cl11  1  0.69722000  0.73646500  0.91408900  1
  Cl  Cl12  1  0.02613600  0.82591800  0.63795000  1
  Cl  Cl13  1  0.02613600  0.17408200  0.86205000  1
  Cl  Cl14  1  0.97386400  0.17408200  0.36205000  1
  Cl  Cl15  1  0.97386400  0.82591800  0.13795000  1
  Cl  Cl16  1  0.52357300  0.73922800  0.65555400  1
  Cl  Cl17  1  0.52357300  0.26077200  0.84444600  1
  Cl  Cl18  1  0.47642700  0.26077200  0.34444600  1
  Cl  Cl19  1  0.47642700  0.73922800  0.15555400  1
  Cl  Cl20  1  0.17919300  0.40505000  0.61562100  1
  Cl  Cl21  1  0.17919300  0.59495000  0.88437900  1
