# generated using pymatgen
data_BeBr2
_symmetry_space_group_name_H-M   'P 1'
_cell_length_a   7.17775292
_cell_length_b   7.17775292
_cell_length_c   7.17775292
_cell_angle_alpha   134.19245354
_cell_angle_beta   128.38321201
_cell_angle_gamma   71.45866050
_symmetry_Int_Tables_number   1
_chemical_formula_structural   BeBr2
_chemical_formula_sum   'Be2 Br4'
_cell_volume   203.45742333
_cell_formula_units_Z   2
loop_
 _symmetry_equiv_pos_site_id
 _symmetry_equiv_pos_as_xyz
  1  'x, y, z'
loop_
 _atom_site_type_symbol
 _atom_site_label
 _atom_site_symmetry_multiplicity
 _atom_site_fract_x
 _atom_site_fract_y
 _atom_site_fract_z
 _atom_site_occupancy
  Be  Be0  1  0.00000000  0.25000000  0.25000000  1
  Be  Be1  1  0.00000000  0.75000000  0.75000000  1
  Br  Br2  1  0.29555500  0.10321300  0.19234200  1
  Br  Br3  1  0.70444500  0.89678700  0.80765800  1
  Br  Br4  1  0.08912900  0.39678700  0.69234200  1
  Br  Br5  1  0.91087100  0.60321300  0.30765800  1
