# generated using pymatgen
data_Bi(IO3)3
_symmetry_space_group_name_H-M   'P 1'
_cell_length_a   6.11417800
_cell_length_b   8.97515800
_cell_length_c   17.01939850
_cell_angle_alpha   65.02001448
_cell_angle_beta   90.00000000
_cell_angle_gamma   90.00000000
_symmetry_Int_Tables_number   1
_chemical_formula_structural   Bi(IO3)3
_chemical_formula_sum   'Bi4 I12 O36'
_cell_volume   846.58546816
_cell_formula_units_Z   4
loop_
 _symmetry_equiv_pos_site_id
 _symmetry_equiv_pos_as_xyz
  1  'x, y, z'
loop_
 _atom_site_type_symbol
 _atom_site_label
 _atom_site_symmetry_multiplicity
 _atom_site_fract_x
 _atom_site_fract_y
 _atom_site_fract_z
 _atom_site_occupancy
  Bi  Bi0  1  0.71785600  0.34774200  0.60535500  1
  Bi  Bi1  1  0.21785600  0.65225800  0.89464500  1
  Bi  Bi2  1  0.28214400  0.65225800  0.39464500  1
  Bi  Bi3  1  0.78214400  0.34774200  0.10535500  1
  I  I4  1  0.90348200  0.91500300  0.69864600  1
  I  I5  1  0.40348200  0.08499700  0.80135400  1
  I  I6  1  0.09651800  0.08499700  0.30135400  1
  I  I7  1  0.59651800  0.91500300  0.19864600  1
  I  I8  1  0.36291600  0.14339800  0.52074500  1
  I  I9  1  0.86291600  0.85660200  0.97925500  1
  I  I10  1  0.63708400  0.85660200  0.47925500  1
  I  I11  1  0.13708400  0.14339800  0.02074500  1
  I  I12  1  0.81593200  0.43238900  0.35410700  1
  I  I13  1  0.31593200  0.56761100  0.14589300  1
  I  I14  1  0.18406800  0.56761100  0.64589300  1
  I  I15  1  0.68406800  0.43238900  0.85410700  1
  O  O16  1  0.17828200  0.84514300  0.74506000  1
  O  O17  1  0.67828200  0.15485700  0.75494000  1
  O  O18  1  0.82171800  0.15485700  0.25494000  1
  O  O19  1  0.32171800  0.84514300  0.24506000  1
  O  O20  1  0.91344200  0.83461800  0.61628000  1
  O  O21  1  0.41344200  0.16538200  0.88372000  1
  O  O22  1  0.08655800  0.16538200  0.38372000  1
  O  O23  1  0.58655800  0.83461800  0.11628000  1
  O  O24  1  0.99321400  0.13001200  0.63391900  1
  O  O25  1  0.49321400  0.86998800  0.86608100  1
  O  O26  1  0.00678600  0.86998800  0.36608100  1
  O  O27  1  0.50678600  0.13001200  0.13391900  1
  O  O28  1  0.52859400  0.09653300  0.61979000  1
  O  O29  1  0.02859400  0.90346700  0.88021000  1
  O  O30  1  0.47140600  0.90346700  0.38021000  1
  O  O31  1  0.97140600  0.09653300  0.11979000  1
  O  O32  1  0.60050400  0.39589500  0.96370900  1
  O  O33  1  0.10050400  0.60410500  0.53629100  1
  O  O34  1  0.39949600  0.60410500  0.03629100  1
  O  O35  1  0.89949600  0.39589500  0.46370900  1
  O  O36  1  0.44600600  0.56291000  0.80142100  1
  O  O37  1  0.94600600  0.43709000  0.69857900  1
  O  O38  1  0.55399400  0.43709000  0.19857900  1
  O  O39  1  0.05399400  0.56291000  0.30142100  1
  O  O40  1  0.88669900  0.60153900  0.82868100  1
  O  O41  1  0.38669900  0.39846100  0.67131900  1
  O  O42  1  0.11330100  0.39846100  0.17131900  1
  O  O43  1  0.61330100  0.60153900  0.32868100  1
  O  O44  1  0.10300300  0.36635100  0.99030200  1
  O  O45  1  0.60300300  0.63364900  0.50969800  1
  O  O46  1  0.89699700  0.63364900  0.00969800  1
  O  O47  1  0.39699700  0.36635100  0.49030200  1
  O  O48  1  0.91776700  0.14238000  0.94497500  1
  O  O49  1  0.41776700  0.85762000  0.55502500  1
  O  O50  1  0.08223300  0.85762000  0.05502500  1
  O  O51  1  0.58223300  0.14238000  0.44497500  1
