# generated using pymatgen
data_K4Ge9O20
_symmetry_space_group_name_H-M   'P 1'
_cell_length_a   11.92853469
_cell_length_b   11.92853469
_cell_length_c   11.92853469
_cell_angle_alpha   95.88611078
_cell_angle_beta   95.88611078
_cell_angle_gamma   142.64554600
_symmetry_Int_Tables_number   1
_chemical_formula_structural   K4Ge9O20
_chemical_formula_sum   'K8 Ge18 O40'
_cell_volume   975.59974631
_cell_formula_units_Z   2
loop_
 _symmetry_equiv_pos_site_id
 _symmetry_equiv_pos_as_xyz
  1  'x, y, z'
loop_
 _atom_site_type_symbol
 _atom_site_label
 _atom_site_symmetry_multiplicity
 _atom_site_fract_x
 _atom_site_fract_y
 _atom_site_fract_z
 _atom_site_occupancy
  K  K0  1  0.41032600  0.80358100  0.77921900  1
  K  K1  1  0.88110700  0.16032600  0.10674500  1
  K  K2  1  0.05358100  0.77436100  0.89325500  1
  K  K3  1  0.02436100  0.63110700  0.22078100  1
  K  K4  1  0.83967400  0.94641900  0.72078100  1
  K  K5  1  0.36889300  0.58967400  0.39325500  1
  K  K6  1  0.19641900  0.97563900  0.60674500  1
  K  K7  1  0.22563900  0.11889300  0.27921900  1
  Ge  Ge8  1  0.66697800  0.50101400  0.55173200  1
  Ge  Ge9  1  0.58302200  0.24898600  0.94826800  1
  Ge  Ge10  1  0.30071700  0.63475400  0.05173200  1
  Ge  Ge11  1  0.88475400  0.33302200  0.83403700  1
  Ge  Ge12  1  0.75101400  0.69928300  0.33403700  1
  Ge  Ge13  1  0.49898600  0.05071700  0.16596300  1
  Ge  Ge14  1  0.94928300  0.11524600  0.44826800  1
  Ge  Ge15  1  0.36524600  0.41697800  0.66596300  1
  Ge  Ge16  1  0.52450700  0.14031500  0.43163300  1
  Ge  Ge17  1  0.34287400  0.27450700  0.88419200  1
  Ge  Ge18  1  0.39031500  0.45868200  0.11580800  1
  Ge  Ge19  1  0.70868200  0.09287400  0.56836700  1
  Ge  Ge20  1  0.72549300  0.60968500  0.06836700  1
  Ge  Ge21  1  0.90712600  0.47549300  0.61580800  1
  Ge  Ge22  1  0.85968500  0.29131800  0.38419200  1
  Ge  Ge23  1  0.54131800  0.65712600  0.93163300  1
  Ge  Ge24  1  0.25000000  0.75000000  0.50000000  1
  Ge  Ge25  1  0.00000000  0.00000000  0.00000000  1
  O  O26  1  0.32662000  0.79643200  0.12274600  1
  O  O27  1  0.67368600  0.20387400  0.87725400  1
  O  O28  1  0.92338000  0.95356800  0.37725400  1
  O  O29  1  0.79612600  0.67338000  0.46981200  1
  O  O30  1  0.20356800  0.32631400  0.53018800  1
  O  O31  1  0.57631400  0.54612600  0.62274600  1
  O  O32  1  0.47207300  0.25095900  0.47584800  1
  O  O33  1  0.24622500  0.22207300  0.72111400  1
  O  O34  1  0.41828900  0.07390600  0.26870400  1
  O  O35  1  0.39958600  0.16828900  0.84438400  1
  O  O36  1  0.32390600  0.55520200  0.15561600  1
  O  O37  1  0.80520200  0.14958600  0.73129600  1
  O  O38  1  0.83171100  0.67609400  0.23129600  1
  O  O39  1  0.85041400  0.58171100  0.65561600  1
  O  O40  1  0.92609400  0.19479800  0.34438400  1
  O  O41  1  0.44479800  0.60041400  0.76870400  1
  O  O42  1  0.15166800  0.21246400  0.11781300  1
  O  O43  1  0.45387400  0.07662000  0.03018800  1
  O  O44  1  0.78753600  0.90535000  0.93920500  1
  O  O45  1  0.09833200  0.53753600  0.38218700  1
  O  O46  1  0.15535000  0.71614500  0.61781300  1
  O  O47  1  0.96614500  0.84833200  0.06079500  1
  O  O48  1  0.46246400  0.84465000  0.56079500  1
  O  O49  1  0.50095900  0.52511200  0.27888600  1
  O  O50  1  0.09465000  0.03385500  0.88218700  1
  O  O51  1  0.28385500  0.90166800  0.43920500  1
  O  O52  1  0.30200600  0.40199300  0.94243200  1
  O  O53  1  0.60957400  0.05200600  0.40001300  1
  O  O54  1  0.65199300  0.20956100  0.59998700  1
  O  O55  1  0.45956100  0.35957400  0.05756800  1
  O  O56  1  0.94799400  0.34800700  0.55756800  1
  O  O57  1  0.64042600  0.69799400  0.09998700  1
  O  O58  1  0.59800700  0.54043900  0.90001300  1
  O  O59  1  0.79043900  0.39042600  0.44243200  1
  O  O60  1  0.47488800  0.75377500  0.97584800  1
  O  O61  1  0.74904100  0.22488800  0.22111400  1
  O  O62  1  0.00377500  0.52792700  0.77888600  1
  O  O63  1  0.77792700  0.49904100  0.02415200  1
  O  O64  1  0.77511200  0.99622500  0.52415200  1
  O  O65  1  0.04643200  0.42368600  0.96981200  1
