# generated using pymatgen
data_SrAl2O4
_symmetry_space_group_name_H-M   'P 1'
_cell_length_a   8.91760600
_cell_length_b   5.21388600
_cell_length_c   8.54738121
_cell_angle_alpha   86.48470213
_cell_angle_beta   90.00000000
_cell_angle_gamma   90.00000000
_symmetry_Int_Tables_number   1
_chemical_formula_structural   SrAl2O4
_chemical_formula_sum   'Sr4 Al8 O16'
_cell_volume   396.66599809
_cell_formula_units_Z   4
loop_
 _symmetry_equiv_pos_site_id
 _symmetry_equiv_pos_as_xyz
  1  'x, y, z'
loop_
 _atom_site_type_symbol
 _atom_site_label
 _atom_site_symmetry_multiplicity
 _atom_site_fract_x
 _atom_site_fract_y
 _atom_site_fract_z
 _atom_site_occupancy
  Sr  Sr0  1  0.49057900  0.20146700  0.97277800  1
  Sr  Sr1  1  0.99057900  0.79853300  0.02722200  1
  Sr  Sr2  1  0.49728000  0.25380100  0.51438300  1
  Sr  Sr3  1  0.99728000  0.74619900  0.48561700  1
  Al  Al4  1  0.66832000  0.79571700  0.31877900  1
  Al  Al5  1  0.16832000  0.20428300  0.68122100  1
  Al  Al6  1  0.16825900  0.22022600  0.29266900  1
  Al  Al7  1  0.66825900  0.77977400  0.70733100  1
  Al  Al8  1  0.33757400  0.72576200  0.20045000  1
  Al  Al9  1  0.83757400  0.27423800  0.79955000  1
  Al  Al10  1  0.33070500  0.71520300  0.81087600  1
  Al  Al11  1  0.83070500  0.28479700  0.18912400  1
  O  O12  1  0.38410900  0.64365700  0.00862500  1
  O  O13  1  0.88410900  0.35634300  0.99137500  1
  O  O14  1  0.71435400  0.88138600  0.51121100  1
  O  O15  1  0.21435400  0.11861400  0.48878900  1
  O  O16  1  0.16724500  0.90988500  0.79828800  1
  O  O17  1  0.66724500  0.09011500  0.20171200  1
  O  O18  1  0.79707600  0.93938400  0.82424500  1
  O  O19  1  0.29707600  0.06061600  0.17575500  1
  O  O20  1  0.48466200  0.90061500  0.73558600  1
  O  O21  1  0.98466200  0.09938500  0.26441400  1
  O  O22  1  0.99012100  0.35160400  0.67381500  1
  O  O23  1  0.49012100  0.64839600  0.32618500  1
  O  O24  1  0.17082300  0.56093700  0.26425200  1
  O  O25  1  0.67082300  0.43906300  0.73574800  1
  O  O26  1  0.31469400  0.41418400  0.72960000  1
  O  O27  1  0.81469400  0.58581600  0.27040000  1
