# generated using pymatgen
data_Rb4SnS4
_symmetry_space_group_name_H-M   'P 1'
_cell_length_a   13.67538600
_cell_length_b   13.67538600
_cell_length_c   13.67538600
_cell_angle_alpha   90.00000000
_cell_angle_beta   90.00000000
_cell_angle_gamma   90.00000000
_symmetry_Int_Tables_number   1
_chemical_formula_structural   Rb4SnS4
_chemical_formula_sum   'Rb32 Sn8 S32'
_cell_volume   2557.51848050
_cell_formula_units_Z   8
loop_
 _symmetry_equiv_pos_site_id
 _symmetry_equiv_pos_as_xyz
  1  'x, y, z'
loop_
 _atom_site_type_symbol
 _atom_site_label
 _atom_site_symmetry_multiplicity
 _atom_site_fract_x
 _atom_site_fract_y
 _atom_site_fract_z
 _atom_site_occupancy
  Rb  Rb0  1  0.91592400  0.86342400  0.65260700  1
  Rb  Rb1  1  0.91592400  0.13657600  0.34739300  1
  Rb  Rb2  1  0.86342400  0.65260700  0.91592400  1
  Rb  Rb3  1  0.13657600  0.65260700  0.08407600  1
  Rb  Rb4  1  0.65260700  0.91592400  0.86342400  1
  Rb  Rb5  1  0.34739300  0.08407600  0.86342400  1
  Rb  Rb6  1  0.58407600  0.84739300  0.36342400  1
  Rb  Rb7  1  0.58407600  0.15260700  0.63657600  1
  Rb  Rb8  1  0.41592400  0.84739300  0.63657600  1
  Rb  Rb9  1  0.15260700  0.63657600  0.58407600  1
  Rb  Rb10  1  0.63657600  0.41592400  0.84739300  1
  Rb  Rb11  1  0.63657600  0.58407600  0.15260700  1
  Rb  Rb12  1  0.84739300  0.36342400  0.58407600  1
  Rb  Rb13  1  0.36342400  0.58407600  0.84739300  1
  Rb  Rb14  1  0.84739300  0.63657600  0.41592400  1
  Rb  Rb15  1  0.15260700  0.36342400  0.41592400  1
  Rb  Rb16  1  0.36342400  0.41592400  0.15260700  1
  Rb  Rb17  1  0.34739300  0.91592400  0.13657600  1
  Rb  Rb18  1  0.65260700  0.08407600  0.13657600  1
  Rb  Rb19  1  0.86342400  0.34739300  0.08407600  1
  Rb  Rb20  1  0.13657600  0.34739300  0.91592400  1
  Rb  Rb21  1  0.08407600  0.13657600  0.65260700  1
  Rb  Rb22  1  0.08407600  0.86342400  0.34739300  1
  Rb  Rb23  1  0.41592400  0.15260700  0.36342400  1
  Rb  Rb24  1  0.15404800  0.15404800  0.15404800  1
  Rb  Rb25  1  0.34595200  0.65404800  0.34595200  1
  Rb  Rb26  1  0.65404800  0.34595200  0.34595200  1
  Rb  Rb27  1  0.34595200  0.34595200  0.65404800  1
  Rb  Rb28  1  0.15404800  0.84595200  0.84595200  1
  Rb  Rb29  1  0.84595200  0.84595200  0.15404800  1
  Rb  Rb30  1  0.84595200  0.15404800  0.84595200  1
  Rb  Rb31  1  0.65404800  0.65404800  0.65404800  1
  Sn  Sn32  1  0.75000000  0.00000000  0.50000000  1
  Sn  Sn33  1  0.50000000  0.75000000  0.00000000  1
  Sn  Sn34  1  0.50000000  0.25000000  0.00000000  1
  Sn  Sn35  1  0.00000000  0.50000000  0.25000000  1
  Sn  Sn36  1  0.00000000  0.50000000  0.75000000  1
  Sn  Sn37  1  0.25000000  0.00000000  0.50000000  1
  Sn  Sn38  1  0.50000000  0.50000000  0.50000000  1
  Sn  Sn39  1  0.00000000  0.00000000  0.00000000  1
  S  S40  1  0.65346700  0.90187500  0.61174700  1
  S  S41  1  0.65346700  0.09812500  0.38825300  1
  S  S42  1  0.90187500  0.61174700  0.65346700  1
  S  S43  1  0.09812500  0.61174700  0.34653300  1
  S  S44  1  0.61174700  0.65346700  0.90187500  1
  S  S45  1  0.38825300  0.34653300  0.90187500  1
  S  S46  1  0.84653300  0.88825300  0.40187500  1
  S  S47  1  0.84653300  0.11174700  0.59812500  1
  S  S48  1  0.15346700  0.88825300  0.59812500  1
  S  S49  1  0.11174700  0.59812500  0.84653300  1
  S  S50  1  0.59812500  0.15346700  0.88825300  1
  S  S51  1  0.59812500  0.84653300  0.11174700  1
  S  S52  1  0.88825300  0.40187500  0.84653300  1
  S  S53  1  0.40187500  0.84653300  0.88825300  1
  S  S54  1  0.88825300  0.59812500  0.15346700  1
  S  S55  1  0.11174700  0.40187500  0.15346700  1
  S  S56  1  0.40187500  0.15346700  0.11174700  1
  S  S57  1  0.38825300  0.65346700  0.09812500  1
  S  S58  1  0.61174700  0.34653300  0.09812500  1
  S  S59  1  0.90187500  0.38825300  0.34653300  1
  S  S60  1  0.09812500  0.38825300  0.65346700  1
  S  S61  1  0.34653300  0.09812500  0.61174700  1
  S  S62  1  0.34653300  0.90187500  0.38825300  1
  S  S63  1  0.15346700  0.11174700  0.40187500  1
  S  S64  1  0.89786700  0.89786700  0.89786700  1
  S  S65  1  0.60213300  0.39786700  0.60213300  1
  S  S66  1  0.39786700  0.60213300  0.60213300  1
  S  S67  1  0.60213300  0.60213300  0.39786700  1
  S  S68  1  0.89786700  0.10213300  0.10213300  1
  S  S69  1  0.10213300  0.10213300  0.89786700  1
  S  S70  1  0.10213300  0.89786700  0.10213300  1
  S  S71  1  0.39786700  0.39786700  0.39786700  1
