# generated using pymatgen
data_Gd3ReO8
_symmetry_space_group_name_H-M   'P 1'
_cell_length_a   6.10584400
_cell_length_b   7.37097100
_cell_length_c   14.73277809
_cell_angle_alpha   68.68424503
_cell_angle_beta   90.00000000
_cell_angle_gamma   90.00000000
_symmetry_Int_Tables_number   1
_chemical_formula_structural   Gd3ReO8
_chemical_formula_sum   'Gd12 Re4 O32'
_cell_volume   617.70409659
_cell_formula_units_Z   4
loop_
 _symmetry_equiv_pos_site_id
 _symmetry_equiv_pos_as_xyz
  1  'x, y, z'
loop_
 _atom_site_type_symbol
 _atom_site_label
 _atom_site_symmetry_multiplicity
 _atom_site_fract_x
 _atom_site_fract_y
 _atom_site_fract_z
 _atom_site_occupancy
  Gd  Gd0  1  0.70088400  0.16027100  0.55467000  1
  Gd  Gd1  1  0.20088400  0.83972900  0.94533000  1
  Gd  Gd2  1  0.29911600  0.83972900  0.44533000  1
  Gd  Gd3  1  0.79911600  0.16027100  0.05467000  1
  Gd  Gd4  1  0.25855500  0.90458400  0.20145600  1
  Gd  Gd5  1  0.75855500  0.09541600  0.29854400  1
  Gd  Gd6  1  0.74144500  0.09541600  0.79854400  1
  Gd  Gd7  1  0.24144500  0.90458400  0.70145600  1
  Gd  Gd8  1  0.80925900  0.60718600  0.33258000  1
  Gd  Gd9  1  0.30925900  0.39281400  0.16742000  1
  Gd  Gd10  1  0.19074100  0.39281400  0.66742000  1
  Gd  Gd11  1  0.69074100  0.60718600  0.83258000  1
  Re  Re12  1  0.25386600  0.32126200  0.40970300  1
  Re  Re13  1  0.75386600  0.67873800  0.09029700  1
  Re  Re14  1  0.74613400  0.67873800  0.59029700  1
  Re  Re15  1  0.24613400  0.32126200  0.90970300  1
  O  O16  1  0.02842700  0.85260700  0.34120900  1
  O  O17  1  0.52842700  0.14739300  0.15879100  1
  O  O18  1  0.97157300  0.14739300  0.65879100  1
  O  O19  1  0.47157300  0.85260700  0.84120900  1
  O  O20  1  0.02815200  0.18577500  0.17302100  1
  O  O21  1  0.52815200  0.81422500  0.32697900  1
  O  O22  1  0.97184800  0.81422500  0.82697900  1
  O  O23  1  0.47184800  0.18577500  0.67302100  1
  O  O24  1  0.30352000  0.47511700  0.97952200  1
  O  O25  1  0.80352000  0.52488300  0.52047800  1
  O  O26  1  0.69648000  0.52488300  0.02047800  1
  O  O27  1  0.19648000  0.47511700  0.47952200  1
  O  O28  1  0.94765900  0.37857700  0.91163200  1
  O  O29  1  0.44765900  0.62142300  0.58836800  1
  O  O30  1  0.05234100  0.62142300  0.08836800  1
  O  O31  1  0.55234100  0.37857700  0.41163200  1
  O  O32  1  0.95664200  0.24867700  0.40363800  1
  O  O33  1  0.45664200  0.75132300  0.09636200  1
  O  O34  1  0.04335800  0.75132300  0.59636200  1
  O  O35  1  0.54335800  0.24867700  0.90363800  1
  O  O36  1  0.20535700  0.53081400  0.28768800  1
  O  O37  1  0.70535700  0.46918600  0.21231200  1
  O  O38  1  0.79464300  0.46918600  0.71231200  1
  O  O39  1  0.29464300  0.53081400  0.78768800  1
  O  O40  1  0.30366300  0.08785400  0.51891400  1
  O  O41  1  0.80366300  0.91214600  0.98108600  1
  O  O42  1  0.69633700  0.91214600  0.48108600  1
  O  O43  1  0.19633700  0.08785400  0.01891400  1
  O  O44  1  0.35191700  0.16846300  0.33045100  1
  O  O45  1  0.85191700  0.83153700  0.16954900  1
  O  O46  1  0.64808300  0.83153700  0.66954900  1
  O  O47  1  0.14808300  0.16846300  0.83045100  1
