# generated using pymatgen
data_KBO2
_symmetry_space_group_name_H-M   'P 1'
_cell_length_a   7.85257558
_cell_length_b   7.85257558
_cell_length_c   7.85257524
_cell_angle_alpha   110.30338169
_cell_angle_beta   110.30338169
_cell_angle_gamma   110.30337457
_symmetry_Int_Tables_number   1
_chemical_formula_structural   KBO2
_chemical_formula_sum   'K6 B6 O12'
_cell_volume   360.80668188
_cell_formula_units_Z   6
loop_
 _symmetry_equiv_pos_site_id
 _symmetry_equiv_pos_as_xyz
  1  'x, y, z'
loop_
 _atom_site_type_symbol
 _atom_site_label
 _atom_site_symmetry_multiplicity
 _atom_site_fract_x
 _atom_site_fract_y
 _atom_site_fract_z
 _atom_site_occupancy
  K  K0  1  0.30995100  0.75000000  0.19004900  1
  K  K1  1  0.19004900  0.30995100  0.75000000  1
  K  K2  1  0.75000000  0.19004900  0.30995100  1
  K  K3  1  0.69004900  0.25000000  0.80995100  1
  K  K4  1  0.80995100  0.69004900  0.25000000  1
  K  K5  1  0.25000000  0.80995100  0.69004900  1
  B  B6  1  0.36293900  0.25000000  0.13706100  1
  B  B7  1  0.63706100  0.75000000  0.86293900  1
  B  B8  1  0.86293900  0.63706100  0.75000000  1
  B  B9  1  0.75000000  0.86293900  0.63706100  1
  B  B10  1  0.13706100  0.36293900  0.25000000  1
  B  B11  1  0.25000000  0.13706100  0.36293900  1
  O  O12  1  0.25000000  0.35812500  0.14187500  1
  O  O13  1  0.35812500  0.14187500  0.25000000  1
  O  O14  1  0.85812500  0.75000000  0.64187500  1
  O  O15  1  0.14187500  0.25000000  0.35812500  1
  O  O16  1  0.75000000  0.64187500  0.85812500  1
  O  O17  1  0.64187500  0.85812500  0.75000000  1
  O  O18  1  0.25000000  0.03431700  0.46568300  1
  O  O19  1  0.03431700  0.46568300  0.25000000  1
  O  O20  1  0.46568300  0.25000000  0.03431700  1
  O  O21  1  0.75000000  0.96568300  0.53431700  1
  O  O22  1  0.96568300  0.53431700  0.75000000  1
  O  O23  1  0.53431700  0.75000000  0.96568300  1
