# generated using pymatgen
data_Rb5Hg19
_symmetry_space_group_name_H-M   'P 1'
_cell_length_a   10.27602596
_cell_length_b   10.27602596
_cell_length_c   10.27602596
_cell_angle_alpha   106.51107963
_cell_angle_beta   106.51107963
_cell_angle_gamma   115.56904754
_symmetry_Int_Tables_number   1
_chemical_formula_structural   Rb5Hg19
_chemical_formula_sum   'Rb5 Hg19'
_cell_volume   828.15079546
_cell_formula_units_Z   1
loop_
 _symmetry_equiv_pos_site_id
 _symmetry_equiv_pos_as_xyz
  1  'x, y, z'
loop_
 _atom_site_type_symbol
 _atom_site_label
 _atom_site_symmetry_multiplicity
 _atom_site_fract_x
 _atom_site_fract_y
 _atom_site_fract_z
 _atom_site_occupancy
  Rb  Rb0  1  0.50000000  0.50000000  0.00000000  1
  Rb  Rb1  1  0.67588800  0.12034000  0.79622900  1
  Rb  Rb2  1  0.87966000  0.67588800  0.55554800  1
  Rb  Rb3  1  0.12034000  0.32411200  0.44445200  1
  Rb  Rb4  1  0.32411200  0.87966000  0.20377100  1
  Hg  Hg5  1  0.47274400  0.65450700  0.40817800  1
  Hg  Hg6  1  0.24632800  0.06456600  0.59182200  1
  Hg  Hg7  1  0.06456600  0.47274400  0.81823700  1
  Hg  Hg8  1  0.75000000  0.25000000  0.50000000  1
  Hg  Hg9  1  0.25000000  0.75000000  0.50000000  1
  Hg  Hg10  1  0.29337300  0.04066200  0.90649200  1
  Hg  Hg11  1  0.38688000  0.29337300  0.25271100  1
  Hg  Hg12  1  0.04066200  0.13417000  0.74728900  1
  Hg  Hg13  1  0.13417000  0.38688000  0.09350800  1
  Hg  Hg14  1  0.70662700  0.95933800  0.09350800  1
  Hg  Hg15  1  0.61312000  0.70662700  0.74728900  1
  Hg  Hg16  1  0.95933800  0.86583000  0.25271100  1
  Hg  Hg17  1  0.86583000  0.61312000  0.90649200  1
  Hg  Hg18  1  0.00000000  0.00000000  0.00000000  1
  Hg  Hg19  1  0.65450700  0.24632800  0.18176300  1
  Hg  Hg20  1  0.93543400  0.52725600  0.18176300  1
  Hg  Hg21  1  0.75367200  0.93543400  0.40817800  1
  Hg  Hg22  1  0.52725600  0.34549300  0.59182200  1
  Hg  Hg23  1  0.34549300  0.75367200  0.81823700  1
