# generated using pymatgen
data_KSb3O5
_symmetry_space_group_name_H-M   'P 1'
_cell_length_a   14.22058100
_cell_length_b   7.16264600
_cell_length_c   8.20666668
_cell_angle_alpha   59.15314794
_cell_angle_beta   90.00000000
_cell_angle_gamma   90.00000000
_symmetry_Int_Tables_number   1
_chemical_formula_structural   KSb3O5
_chemical_formula_sum   'K4 Sb12 O20'
_cell_volume   717.65978722
_cell_formula_units_Z   4
loop_
 _symmetry_equiv_pos_site_id
 _symmetry_equiv_pos_as_xyz
  1  'x, y, z'
loop_
 _atom_site_type_symbol
 _atom_site_label
 _atom_site_symmetry_multiplicity
 _atom_site_fract_x
 _atom_site_fract_y
 _atom_site_fract_z
 _atom_site_occupancy
  K  K0  1  0.24198100  0.94859400  0.94975500  1
  K  K1  1  0.74198100  0.05140600  0.55024500  1
  K  K2  1  0.75801900  0.05140600  0.05024500  1
  K  K3  1  0.25801900  0.94859400  0.44975500  1
  Sb  Sb4  1  0.60327300  0.54020100  0.63881000  1
  Sb  Sb5  1  0.10327300  0.45979900  0.86119000  1
  Sb  Sb6  1  0.39672700  0.45979900  0.36119000  1
  Sb  Sb7  1  0.89672700  0.54020100  0.13881000  1
  Sb  Sb8  1  0.01446100  0.98580200  0.20820300  1
  Sb  Sb9  1  0.51446100  0.01419800  0.29179700  1
  Sb  Sb10  1  0.98553900  0.01419800  0.79179700  1
  Sb  Sb11  1  0.48553900  0.98580200  0.70820300  1
  Sb  Sb12  1  0.64238000  0.50714300  0.07514100  1
  Sb  Sb13  1  0.14238000  0.49285700  0.42485900  1
  Sb  Sb14  1  0.35762000  0.49285700  0.92485900  1
  Sb  Sb15  1  0.85762000  0.50714300  0.57514100  1
  O  O16  1  0.13136000  0.17767400  0.10465500  1
  O  O17  1  0.63136000  0.82232600  0.39534500  1
  O  O18  1  0.86864000  0.82232600  0.89534500  1
  O  O19  1  0.36864000  0.17767400  0.60465500  1
  O  O20  1  0.15555400  0.33267700  0.71106900  1
  O  O21  1  0.65555400  0.66732300  0.78893100  1
  O  O22  1  0.84444600  0.66732300  0.28893100  1
  O  O23  1  0.34444600  0.33267700  0.21106900  1
  O  O24  1  0.09693400  0.74671600  0.43585100  1
  O  O25  1  0.59693400  0.25328400  0.06414900  1
  O  O26  1  0.90306600  0.25328400  0.56414900  1
  O  O27  1  0.40306600  0.74671600  0.93585100  1
  O  O28  1  0.45970900  0.80320200  0.59223900  1
  O  O29  1  0.95970900  0.19679800  0.90776100  1
  O  O30  1  0.54029100  0.19679800  0.40776100  1
  O  O31  1  0.04029100  0.80320200  0.09223900  1
  O  O32  1  0.27381800  0.61011800  0.35865300  1
  O  O33  1  0.77381800  0.38988200  0.14134700  1
  O  O34  1  0.72618200  0.38988200  0.64134700  1
  O  O35  1  0.22618200  0.61011800  0.85865300  1
