# generated using pymatgen
data_Sr3(BS3)2
_symmetry_space_group_name_H-M   'P 1'
_cell_length_a   6.13836563
_cell_length_b   6.13836563
_cell_length_c   15.60156721
_cell_angle_alpha   79.84397213
_cell_angle_beta   79.84397213
_cell_angle_gamma   65.79627858
_symmetry_Int_Tables_number   1
_chemical_formula_structural   Sr3(BS3)2
_chemical_formula_sum   'Sr6 B4 S12'
_cell_volume   524.22616969
_cell_formula_units_Z   2
loop_
 _symmetry_equiv_pos_site_id
 _symmetry_equiv_pos_as_xyz
  1  'x, y, z'
loop_
 _atom_site_type_symbol
 _atom_site_label
 _atom_site_symmetry_multiplicity
 _atom_site_fract_x
 _atom_site_fract_y
 _atom_site_fract_z
 _atom_site_occupancy
  Sr  Sr0  1  0.35215800  0.32258600  0.08692400  1
  Sr  Sr1  1  0.67741400  0.64784200  0.41307600  1
  Sr  Sr2  1  0.64784200  0.67741400  0.91307600  1
  Sr  Sr3  1  0.32258600  0.35215800  0.58692400  1
  Sr  Sr4  1  0.02033800  0.97966200  0.25000000  1
  Sr  Sr5  1  0.97966200  0.02033800  0.75000000  1
  B  B6  1  0.74303200  0.53432100  0.13525500  1
  B  B7  1  0.46567900  0.25696800  0.36474500  1
  B  B8  1  0.25696800  0.46567900  0.86474500  1
  B  B9  1  0.53432100  0.74303200  0.63525500  1
  S  S10  1  0.87250300  0.27730600  0.07076800  1
  S  S11  1  0.72269400  0.12749700  0.42923200  1
  S  S12  1  0.52649000  0.91678800  0.71973800  1
  S  S13  1  0.08321200  0.47351000  0.78026200  1
  S  S14  1  0.47351000  0.08321200  0.28026200  1
  S  S15  1  0.91678800  0.52649000  0.21973800  1
  S  S16  1  0.76764200  0.45395100  0.60763200  1
  S  S17  1  0.54604900  0.23235800  0.89236800  1
  S  S18  1  0.23235800  0.54604900  0.39236800  1
  S  S19  1  0.45395100  0.76764200  0.10763200  1
  S  S20  1  0.27730600  0.87250300  0.57076800  1
  S  S21  1  0.12749700  0.72269400  0.92923200  1
