# generated using pymatgen
data_Er(FeSn)6
_symmetry_space_group_name_H-M   'P 1'
_cell_length_a   19.20399984
_cell_length_b   19.20399984
_cell_length_c   5.41601900
_cell_angle_alpha   90.00000000
_cell_angle_beta   90.00000000
_cell_angle_gamma   153.03453401
_symmetry_Int_Tables_number   1
_chemical_formula_structural   Er(FeSn)6
_chemical_formula_sum   'Er4 Fe24 Sn24'
_cell_volume   905.72469506
_cell_formula_units_Z   4
loop_
 _symmetry_equiv_pos_site_id
 _symmetry_equiv_pos_as_xyz
  1  'x, y, z'
loop_
 _atom_site_type_symbol
 _atom_site_label
 _atom_site_symmetry_multiplicity
 _atom_site_fract_x
 _atom_site_fract_y
 _atom_site_fract_z
 _atom_site_occupancy
  Er  Er0  1  0.18998800  0.81001200  0.25000000  1
  Er  Er1  1  0.81001200  0.18998800  0.75000000  1
  Er  Er2  1  0.93680500  0.06319500  0.25000000  1
  Er  Er3  1  0.06319500  0.93680500  0.75000000  1
  Fe  Fe4  1  0.50000000  0.00000000  0.50000000  1
  Fe  Fe5  1  0.00000000  0.50000000  0.50000000  1
  Fe  Fe6  1  0.50000000  0.00000000  0.00000000  1
  Fe  Fe7  1  0.00000000  0.50000000  0.00000000  1
  Fe  Fe8  1  0.75415000  0.75415000  0.50000000  1
  Fe  Fe9  1  0.75415000  0.75415000  0.00000000  1
  Fe  Fe10  1  0.24585000  0.24585000  0.50000000  1
  Fe  Fe11  1  0.24585000  0.24585000  0.00000000  1
  Fe  Fe12  1  0.56459300  0.93976600  0.25000000  1
  Fe  Fe13  1  0.93976600  0.56459300  0.75000000  1
  Fe  Fe14  1  0.43540700  0.06023400  0.75000000  1
  Fe  Fe15  1  0.06023400  0.43540700  0.25000000  1
  Fe  Fe16  1  0.30796800  0.18267100  0.25000000  1
  Fe  Fe17  1  0.18267100  0.30796800  0.75000000  1
  Fe  Fe18  1  0.69203200  0.81732900  0.75000000  1
  Fe  Fe19  1  0.81732900  0.69203200  0.25000000  1
  Fe  Fe20  1  0.62961400  0.87884200  0.49879200  1
  Fe  Fe21  1  0.87884200  0.62961400  0.50120800  1
  Fe  Fe22  1  0.62961400  0.87884200  0.00120800  1
  Fe  Fe23  1  0.87884200  0.62961400  0.99879200  1
  Fe  Fe24  1  0.37038600  0.12115800  0.50120800  1
  Fe  Fe25  1  0.12115800  0.37038600  0.49879200  1
  Fe  Fe26  1  0.37038600  0.12115800  0.99879200  1
  Fe  Fe27  1  0.12115800  0.37038600  0.00120800  1
  Sn  Sn28  1  0.76898200  0.23101800  0.25000000  1
  Sn  Sn29  1  0.23101800  0.76898200  0.75000000  1
  Sn  Sn30  1  0.27309100  0.72690900  0.25000000  1
  Sn  Sn31  1  0.72690900  0.27309100  0.75000000  1
  Sn  Sn32  1  0.85285500  0.14714500  0.25000000  1
  Sn  Sn33  1  0.14714500  0.85285500  0.75000000  1
  Sn  Sn34  1  0.35538800  0.64461200  0.25000000  1
  Sn  Sn35  1  0.64461200  0.35538800  0.75000000  1
  Sn  Sn36  1  0.10532400  0.89467600  0.25000000  1
  Sn  Sn37  1  0.89467600  0.10532400  0.75000000  1
  Sn  Sn38  1  0.60386900  0.39613100  0.25000000  1
  Sn  Sn39  1  0.39613100  0.60386900  0.75000000  1
  Sn  Sn40  1  0.52068900  0.47931100  0.25000000  1
  Sn  Sn41  1  0.47931100  0.52068900  0.75000000  1
  Sn  Sn42  1  0.02101200  0.97898800  0.25000000  1
  Sn  Sn43  1  0.97898800  0.02101200  0.75000000  1
  Sn  Sn44  1  0.84991900  0.47642800  0.25000000  1
  Sn  Sn45  1  0.47642800  0.84991900  0.75000000  1
  Sn  Sn46  1  0.15008100  0.52357200  0.75000000  1
  Sn  Sn47  1  0.52357200  0.15008100  0.25000000  1
  Sn  Sn48  1  0.60126300  0.72526500  0.25000000  1
  Sn  Sn49  1  0.72526500  0.60126300  0.75000000  1
  Sn  Sn50  1  0.39873700  0.27473500  0.75000000  1
  Sn  Sn51  1  0.27473500  0.39873700  0.25000000  1
