# generated using pymatgen
data_Na3GdCl6
_symmetry_space_group_name_H-M   'P 1'
_cell_length_a   7.56556222
_cell_length_b   7.56556222
_cell_length_c   7.56556190
_cell_angle_alpha   56.23047112
_cell_angle_beta   56.23047112
_cell_angle_gamma   56.23046768
_symmetry_Int_Tables_number   1
_chemical_formula_structural   Na3GdCl6
_chemical_formula_sum   'Na3 Gd1 Cl6'
_cell_volume   279.49020127
_cell_formula_units_Z   1
loop_
 _symmetry_equiv_pos_site_id
 _symmetry_equiv_pos_as_xyz
  1  'x, y, z'
loop_
 _atom_site_type_symbol
 _atom_site_label
 _atom_site_symmetry_multiplicity
 _atom_site_fract_x
 _atom_site_fract_y
 _atom_site_fract_z
 _atom_site_occupancy
  Na  Na0  1  0.19967100  0.19967100  0.19967100  1
  Na  Na1  1  0.50000000  0.50000000  0.50000000  1
  Na  Na2  1  0.80032900  0.80032900  0.80032900  1
  Gd  Gd3  1  0.00000000  0.00000000  0.00000000  1
  Cl  Cl4  1  0.10687200  0.77706400  0.37391700  1
  Cl  Cl5  1  0.37391700  0.10687200  0.77706400  1
  Cl  Cl6  1  0.77706400  0.37391700  0.10687200  1
  Cl  Cl7  1  0.22293600  0.62608300  0.89312800  1
  Cl  Cl8  1  0.62608300  0.89312800  0.22293600  1
  Cl  Cl9  1  0.89312800  0.22293600  0.62608300  1
