# generated using pymatgen
data_Zn13Co
_symmetry_space_group_name_H-M   'P 1'
_cell_length_a   6.61704843
_cell_length_b   6.61704843
_cell_length_c   5.05835356
_cell_angle_alpha   80.65110519
_cell_angle_beta   80.65110519
_cell_angle_gamma   70.18534056
_symmetry_Int_Tables_number   1
_chemical_formula_structural   Zn13Co
_chemical_formula_sum   'Zn13 Co1'
_cell_volume   204.22082402
_cell_formula_units_Z   1
loop_
 _symmetry_equiv_pos_site_id
 _symmetry_equiv_pos_as_xyz
  1  'x, y, z'
loop_
 _atom_site_type_symbol
 _atom_site_label
 _atom_site_symmetry_multiplicity
 _atom_site_fract_x
 _atom_site_fract_y
 _atom_site_fract_z
 _atom_site_occupancy
  Zn  Zn0  1  0.00000000  0.00000000  0.00000000  1
  Zn  Zn1  1  0.38695600  0.38695600  0.92968900  1
  Zn  Zn2  1  0.61304400  0.61304400  0.07031100  1
  Zn  Zn3  1  0.77860800  0.77860800  0.37241400  1
  Zn  Zn4  1  0.22139200  0.22139200  0.62758600  1
  Zn  Zn5  1  0.21619000  0.62902400  0.31709800  1
  Zn  Zn6  1  0.37097600  0.78381000  0.68290200  1
  Zn  Zn7  1  0.78381000  0.37097600  0.68290200  1
  Zn  Zn8  1  0.62902400  0.21619000  0.31709800  1
  Zn  Zn9  1  0.00323000  0.64464500  0.80108700  1
  Zn  Zn10  1  0.35535500  0.99677000  0.19891300  1
  Zn  Zn11  1  0.99677000  0.35535500  0.19891300  1
  Zn  Zn12  1  0.64464500  0.00323000  0.80108700  1
  Co  Co13  1  0.00000000  0.00000000  0.50000000  1
