# generated using pymatgen
data_As(S8I)3
_symmetry_space_group_name_H-M   'P 1'
_cell_length_a   15.15569101
_cell_length_b   15.15569101
_cell_length_c   15.15569002
_cell_angle_alpha   118.77257029
_cell_angle_beta   118.77257029
_cell_angle_gamma   118.77256848
_symmetry_Int_Tables_number   1
_chemical_formula_structural   As(S8I)3
_chemical_formula_sum   'As1 S24 I3'
_cell_volume   996.36811999
_cell_formula_units_Z   1
loop_
 _symmetry_equiv_pos_site_id
 _symmetry_equiv_pos_as_xyz
  1  'x, y, z'
loop_
 _atom_site_type_symbol
 _atom_site_label
 _atom_site_symmetry_multiplicity
 _atom_site_fract_x
 _atom_site_fract_y
 _atom_site_fract_z
 _atom_site_occupancy
  As  As0  1  0.76031700  0.76031700  0.76031700  1
  S  S1  1  0.80549800  0.52263000  0.52263000  1
  S  S2  1  0.52263000  0.52263000  0.80549800  1
  S  S3  1  0.52263000  0.80549800  0.52263000  1
  S  S4  1  0.24314600  0.37179900  0.63243300  1
  S  S5  1  0.35955000  0.95762900  0.35955000  1
  S  S6  1  0.35955000  0.35955000  0.95762900  1
  S  S7  1  0.95762900  0.35955000  0.35955000  1
  S  S8  1  0.12832500  0.74052200  0.25711700  1
  S  S9  1  0.25711700  0.12832500  0.74052200  1
  S  S10  1  0.74052200  0.25711700  0.12832500  1
  S  S11  1  0.74052200  0.12832500  0.25711700  1
  S  S12  1  0.25711700  0.74052200  0.12832500  1
  S  S13  1  0.12832500  0.25711700  0.74052200  1
  S  S14  1  0.34900900  0.88047100  0.53112300  1
  S  S15  1  0.53112300  0.34900900  0.88047100  1
  S  S16  1  0.88047100  0.53112300  0.34900900  1
  S  S17  1  0.88047100  0.34900900  0.53112300  1
  S  S18  1  0.53112300  0.88047100  0.34900900  1
  S  S19  1  0.34900900  0.53112300  0.88047100  1
  S  S20  1  0.24314600  0.63243300  0.37179900  1
  S  S21  1  0.37179900  0.24314600  0.63243300  1
  S  S22  1  0.63243300  0.37179900  0.24314600  1
  S  S23  1  0.63243300  0.24314600  0.37179900  1
  S  S24  1  0.37179900  0.63243300  0.24314600  1
  I  I25  1  0.88688500  0.04135900  0.04135900  1
  I  I26  1  0.04135900  0.04135900  0.88688500  1
  I  I27  1  0.04135900  0.88688500  0.04135900  1
