# generated using pymatgen
data_Mg2Ga5Cu6
_symmetry_space_group_name_H-M   'P 1'
_cell_length_a   8.29813700
_cell_length_b   8.29813700
_cell_length_c   8.29813700
_cell_angle_alpha   90.00000000
_cell_angle_beta   90.00000000
_cell_angle_gamma   90.00000000
_symmetry_Int_Tables_number   1
_chemical_formula_structural   Mg2Ga5Cu6
_chemical_formula_sum   'Mg6 Ga15 Cu18'
_cell_volume   571.40206021
_cell_formula_units_Z   3
loop_
 _symmetry_equiv_pos_site_id
 _symmetry_equiv_pos_as_xyz
  1  'x, y, z'
loop_
 _atom_site_type_symbol
 _atom_site_label
 _atom_site_symmetry_multiplicity
 _atom_site_fract_x
 _atom_site_fract_y
 _atom_site_fract_z
 _atom_site_occupancy
  Mg  Mg0  1  0.81884100  0.00000000  0.50000000  1
  Mg  Mg1  1  0.00000000  0.50000000  0.81884100  1
  Mg  Mg2  1  0.50000000  0.81884100  0.00000000  1
  Mg  Mg3  1  0.00000000  0.50000000  0.18115900  1
  Mg  Mg4  1  0.50000000  0.18115900  0.00000000  1
  Mg  Mg5  1  0.18115900  0.00000000  0.50000000  1
  Ga  Ga6  1  0.28199600  0.71800400  0.28199600  1
  Ga  Ga7  1  0.71800400  0.28199600  0.28199600  1
  Ga  Ga8  1  0.28199600  0.28199600  0.71800400  1
  Ga  Ga9  1  0.71800400  0.71800400  0.71800400  1
  Ga  Ga10  1  0.71800400  0.28199600  0.71800400  1
  Ga  Ga11  1  0.28199600  0.71800400  0.71800400  1
  Ga  Ga12  1  0.71800400  0.71800400  0.28199600  1
  Ga  Ga13  1  0.28199600  0.28199600  0.28199600  1
  Ga  Ga14  1  0.66342000  0.50000000  0.00000000  1
  Ga  Ga15  1  0.50000000  0.00000000  0.66342000  1
  Ga  Ga16  1  0.00000000  0.66342000  0.50000000  1
  Ga  Ga17  1  0.50000000  0.00000000  0.33658000  1
  Ga  Ga18  1  0.00000000  0.33658000  0.50000000  1
  Ga  Ga19  1  0.33658000  0.50000000  0.00000000  1
  Ga  Ga20  1  0.00000000  0.00000000  0.00000000  1
  Cu  Cu21  1  0.00000000  0.83632300  0.25772100  1
  Cu  Cu22  1  0.00000000  0.16367700  0.74227900  1
  Cu  Cu23  1  0.00000000  0.83632300  0.74227900  1
  Cu  Cu24  1  0.16367700  0.74227900  0.00000000  1
  Cu  Cu25  1  0.74227900  0.00000000  0.83632300  1
  Cu  Cu26  1  0.74227900  0.00000000  0.16367700  1
  Cu  Cu27  1  0.83632300  0.25772100  0.00000000  1
  Cu  Cu28  1  0.25772100  0.00000000  0.83632300  1
  Cu  Cu29  1  0.83632300  0.74227900  0.00000000  1
  Cu  Cu30  1  0.27509700  0.50000000  0.50000000  1
  Cu  Cu31  1  0.50000000  0.27509700  0.50000000  1
  Cu  Cu32  1  0.50000000  0.50000000  0.27509700  1
  Cu  Cu33  1  0.50000000  0.72490300  0.50000000  1
  Cu  Cu34  1  0.50000000  0.50000000  0.72490300  1
  Cu  Cu35  1  0.72490300  0.50000000  0.50000000  1
  Cu  Cu36  1  0.00000000  0.16367700  0.25772100  1
  Cu  Cu37  1  0.25772100  0.00000000  0.16367700  1
  Cu  Cu38  1  0.16367700  0.25772100  0.00000000  1
