# generated using pymatgen
data_La2Se3
_symmetry_space_group_name_H-M   'P 1'
_cell_length_a   15.05998573
_cell_length_b   15.05998573
_cell_length_c   15.05998573
_cell_angle_alpha   144.80115941
_cell_angle_beta   144.80115941
_cell_angle_gamma   50.63094117
_symmetry_Int_Tables_number   1
_chemical_formula_structural   La2Se3
_chemical_formula_sum   'La16 Se24'
_cell_volume   1129.10853630
_cell_formula_units_Z   8
loop_
 _symmetry_equiv_pos_site_id
 _symmetry_equiv_pos_as_xyz
  1  'x, y, z'
loop_
 _atom_site_type_symbol
 _atom_site_label
 _atom_site_symmetry_multiplicity
 _atom_site_fract_x
 _atom_site_fract_y
 _atom_site_fract_z
 _atom_site_occupancy
  La  La0  1  0.20330100  0.32410100  0.60619200  1
  La  La1  1  0.41637300  0.91637300  0.50000000  1
  La  La2  1  0.99505400  0.62500000  0.87005400  1
  La  La3  1  0.33362700  0.33362700  0.00000000  1
  La  La4  1  0.03209200  0.92589900  0.37920000  1
  La  La5  1  0.75494600  0.12500000  0.12994600  1
  La  La6  1  0.54669900  0.65289200  0.62080000  1
  La  La7  1  0.34710800  0.96790800  0.89380800  1
  La  La8  1  0.37500000  0.24505400  0.37005400  1
  La  La9  1  0.66637300  0.66637300  0.00000000  1
  La  La10  1  0.87500000  0.00494600  0.62994600  1
  La  La11  1  0.07410100  0.45330100  0.10619200  1
  La  La12  1  0.08362700  0.58362700  0.50000000  1
  La  La13  1  0.67589900  0.28209200  0.87920000  1
  La  La14  1  0.71790800  0.59710800  0.39380800  1
  La  La15  1  0.40289200  0.79669900  0.12080000  1
  Se  Se16  1  0.71557900  0.82241100  0.74608800  1
  Se  Se17  1  0.36039400  0.60728100  0.10189500  1
  Se  Se18  1  0.50538600  0.25849900  0.89810500  1
  Se  Se19  1  0.24461400  0.64271900  0.25311300  1
  Se  Se20  1  0.38960600  0.99150100  0.74688700  1
  Se  Se21  1  0.07632300  0.96949200  0.25391200  1
  Se  Se22  1  0.67367700  0.42758900  0.39316800  1
  Se  Se23  1  0.03442100  0.28050800  0.60683200  1
  Se  Se24  1  0.06400400  0.15330600  0.74970000  1
  Se  Se25  1  0.68569700  0.93599600  0.08930200  1
  Se  Se26  1  0.57241100  0.96557900  0.24608800  1
  Se  Se27  1  0.84669400  0.59639500  0.91069800  1
  Se  Se28  1  0.71949200  0.32632300  0.75391200  1
  Se  Se29  1  0.00849900  0.75538600  0.39810500  1
  Se  Se30  1  0.40360500  0.31430300  0.25030000  1
  Se  Se31  1  0.35728100  0.61039400  0.60189500  1
  Se  Se32  1  0.39271900  0.49461400  0.75311300  1
  Se  Se33  1  0.03050800  0.28442100  0.10683200  1
  Se  Se34  1  0.90330600  0.31400400  0.24970000  1
  Se  Se35  1  0.17758900  0.92367700  0.89316800  1
  Se  Se36  1  0.06430300  0.65360500  0.75030000  1
  Se  Se37  1  0.74150100  0.63960600  0.24688700  1
  Se  Se38  1  0.34639500  0.09669400  0.41069800  1
  Se  Se39  1  0.68599600  0.93569700  0.58930200  1
