# generated using pymatgen
data_Ni4W
_symmetry_space_group_name_H-M   'P 1'
_cell_length_a   4.42852769
_cell_length_b   4.42852769
_cell_length_c   4.42852769
_cell_angle_alpha   99.25761253
_cell_angle_beta   99.25761253
_cell_angle_gamma   132.70724546
_symmetry_Int_Tables_number   1
_chemical_formula_structural   Ni4W
_chemical_formula_sum   'Ni4 W1'
_cell_volume   58.46257621
_cell_formula_units_Z   1
loop_
 _symmetry_equiv_pos_site_id
 _symmetry_equiv_pos_as_xyz
  1  'x, y, z'
loop_
 _atom_site_type_symbol
 _atom_site_label
 _atom_site_symmetry_multiplicity
 _atom_site_fract_x
 _atom_site_fract_y
 _atom_site_fract_z
 _atom_site_occupancy
  Ni  Ni0  1  0.19919300  0.59959500  0.79878900  1
  Ni  Ni1  1  0.59959500  0.80080700  0.40040200  1
  Ni  Ni2  1  0.40040500  0.19919300  0.59959800  1
  Ni  Ni3  1  0.80080700  0.40040500  0.20121100  1
  W  W4  1  0.00000000  0.00000000  0.00000000  1
