# generated using pymatgen
data_Eu2Te4O11
_symmetry_space_group_name_H-M   'P 1'
_cell_length_a   6.85992002
_cell_length_b   6.85992002
_cell_length_c   16.64744272
_cell_angle_alpha   76.82128284
_cell_angle_beta   76.82128284
_cell_angle_gamma   45.45007826
_symmetry_Int_Tables_number   1
_chemical_formula_structural   Eu2Te4O11
_chemical_formula_sum   'Eu4 Te8 O22'
_cell_volume   540.96093866
_cell_formula_units_Z   2
loop_
 _symmetry_equiv_pos_site_id
 _symmetry_equiv_pos_as_xyz
  1  'x, y, z'
loop_
 _atom_site_type_symbol
 _atom_site_label
 _atom_site_symmetry_multiplicity
 _atom_site_fract_x
 _atom_site_fract_y
 _atom_site_fract_z
 _atom_site_occupancy
  Eu  Eu0  1  0.12864900  0.63129500  0.53880700  1
  Eu  Eu1  1  0.36870500  0.87135100  0.96119300  1
  Eu  Eu2  1  0.87135100  0.36870500  0.46119300  1
  Eu  Eu3  1  0.63129500  0.12864900  0.03880700  1
  Te  Te4  1  0.59957500  0.16053900  0.69912800  1
  Te  Te5  1  0.83946100  0.40042500  0.80087200  1
  Te  Te6  1  0.40042500  0.83946100  0.30087200  1
  Te  Te7  1  0.16053900  0.59957500  0.19912800  1
  Te  Te8  1  0.15106100  0.58606500  0.87526100  1
  Te  Te9  1  0.41393500  0.84893900  0.62473900  1
  Te  Te10  1  0.84893900  0.41393500  0.12473900  1
  Te  Te11  1  0.58606500  0.15106100  0.37526100  1
  O  O12  1  0.85025900  0.14974100  0.75000000  1
  O  O13  1  0.14974100  0.85025900  0.25000000  1
  O  O14  1  0.19612100  0.10210400  0.83027900  1
  O  O15  1  0.89789600  0.80387900  0.66972100  1
  O  O16  1  0.80387900  0.89789600  0.16972100  1
  O  O17  1  0.10210400  0.19612100  0.33027900  1
  O  O18  1  0.60181900  0.44584000  0.89757800  1
  O  O19  1  0.55416000  0.39818100  0.60242200  1
  O  O20  1  0.39818100  0.55416000  0.10242200  1
  O  O21  1  0.44584000  0.60181900  0.39757800  1
  O  O22  1  0.03797100  0.82060100  0.95187300  1
  O  O23  1  0.17939900  0.96202900  0.54812700  1
  O  O24  1  0.67747900  0.81439500  0.37175900  1
  O  O25  1  0.18560500  0.32252100  0.12824100  1
  O  O26  1  0.32252100  0.18560500  0.62824100  1
  O  O27  1  0.81439500  0.67747900  0.87175900  1
  O  O28  1  0.25630300  0.32784700  0.44723900  1
  O  O29  1  0.67215300  0.74369700  0.05276100  1
  O  O30  1  0.74369700  0.67215300  0.55276100  1
  O  O31  1  0.32784700  0.25630300  0.94723900  1
  O  O32  1  0.82060100  0.03797100  0.45187300  1
  O  O33  1  0.96202900  0.17939900  0.04812700  1
