# generated using pymatgen
data_Er2Pt
_symmetry_space_group_name_H-M   'P 1'
_cell_length_a   4.74469000
_cell_length_b   7.09391200
_cell_length_c   8.71767200
_cell_angle_alpha   90.00000000
_cell_angle_beta   90.00000000
_cell_angle_gamma   90.00000000
_symmetry_Int_Tables_number   1
_chemical_formula_structural   Er2Pt
_chemical_formula_sum   'Er8 Pt4'
_cell_volume   293.42300743
_cell_formula_units_Z   4
loop_
 _symmetry_equiv_pos_site_id
 _symmetry_equiv_pos_as_xyz
  1  'x, y, z'
loop_
 _atom_site_type_symbol
 _atom_site_label
 _atom_site_symmetry_multiplicity
 _atom_site_fract_x
 _atom_site_fract_y
 _atom_site_fract_z
 _atom_site_occupancy
  Er  Er0  1  0.75000000  0.64404500  0.42037400  1
  Er  Er1  1  0.25000000  0.35595500  0.57962600  1
  Er  Er2  1  0.75000000  0.14404500  0.07962600  1
  Er  Er3  1  0.25000000  0.85595500  0.92037400  1
  Er  Er4  1  0.75000000  0.51042800  0.83235500  1
  Er  Er5  1  0.25000000  0.48957200  0.16764500  1
  Er  Er6  1  0.75000000  0.01042800  0.66764500  1
  Er  Er7  1  0.25000000  0.98957200  0.33235500  1
  Pt  Pt8  1  0.75000000  0.24083800  0.40593900  1
  Pt  Pt9  1  0.25000000  0.75916200  0.59406100  1
  Pt  Pt10  1  0.75000000  0.74083800  0.09406100  1
  Pt  Pt11  1  0.25000000  0.25916200  0.90593900  1
