# generated using pymatgen
data_ErAl2Ni
_symmetry_space_group_name_H-M   'P 1'
_cell_length_a   5.42113539
_cell_length_b   5.42113539
_cell_length_c   6.85229300
_cell_angle_alpha   90.00000000
_cell_angle_beta   90.00000000
_cell_angle_gamma   136.08905918
_symmetry_Int_Tables_number   1
_chemical_formula_structural   ErAl2Ni
_chemical_formula_sum   'Er2 Al4 Ni2'
_cell_volume   139.66499679
_cell_formula_units_Z   2
loop_
 _symmetry_equiv_pos_site_id
 _symmetry_equiv_pos_as_xyz
  1  'x, y, z'
loop_
 _atom_site_type_symbol
 _atom_site_label
 _atom_site_symmetry_multiplicity
 _atom_site_fract_x
 _atom_site_fract_y
 _atom_site_fract_z
 _atom_site_occupancy
  Er  Er0  1  0.93707500  0.06292500  0.75000000  1
  Er  Er1  1  0.06292500  0.93707500  0.25000000  1
  Al  Al2  1  0.65403500  0.34596500  0.94623500  1
  Al  Al3  1  0.34596500  0.65403500  0.05376500  1
  Al  Al4  1  0.34596500  0.65403500  0.44623500  1
  Al  Al5  1  0.65403500  0.34596500  0.55376500  1
  Ni  Ni6  1  0.21466800  0.78533200  0.75000000  1
  Ni  Ni7  1  0.78533200  0.21466800  0.25000000  1
