# generated using pymatgen
data_Hg3(SeBr)2
_symmetry_space_group_name_H-M   'P 1'
_cell_length_a   10.37238775
_cell_length_b   10.37238775
_cell_length_c   10.07436108
_cell_angle_alpha   89.46646089
_cell_angle_beta   89.46646089
_cell_angle_gamma   55.57414785
_symmetry_Int_Tables_number   1
_chemical_formula_structural   Hg3(SeBr)2
_chemical_formula_sum   'Hg12 Se8 Br8'
_cell_volume   893.98533385
_cell_formula_units_Z   4
loop_
 _symmetry_equiv_pos_site_id
 _symmetry_equiv_pos_as_xyz
  1  'x, y, z'
loop_
 _atom_site_type_symbol
 _atom_site_label
 _atom_site_symmetry_multiplicity
 _atom_site_fract_x
 _atom_site_fract_y
 _atom_site_fract_z
 _atom_site_occupancy
  Hg  Hg0  1  0.65042600  0.10328600  0.20203800  1
  Hg  Hg1  1  0.89671400  0.34957400  0.79796200  1
  Hg  Hg2  1  0.34957400  0.89671400  0.79796200  1
  Hg  Hg3  1  0.10328600  0.65042600  0.20203800  1
  Hg  Hg4  1  0.50000000  0.00000000  0.50000000  1
  Hg  Hg5  1  0.00000000  0.50000000  0.50000000  1
  Hg  Hg6  1  0.76409100  0.23590900  0.50000000  1
  Hg  Hg7  1  0.23590900  0.76409100  0.50000000  1
  Hg  Hg8  1  0.47561600  0.47561600  0.77086400  1
  Hg  Hg9  1  0.52438400  0.52438400  0.22913600  1
  Hg  Hg10  1  0.76930800  0.76930800  0.78729300  1
  Hg  Hg11  1  0.23069200  0.23069200  0.21270700  1
  Se  Se12  1  0.74769900  0.22172100  0.75313200  1
  Se  Se13  1  0.22172100  0.74769900  0.75313200  1
  Se  Se14  1  0.25230100  0.77827900  0.24686800  1
  Se  Se15  1  0.97621000  0.49957700  0.24689100  1
  Se  Se16  1  0.50042300  0.02379000  0.75310900  1
  Se  Se17  1  0.02379000  0.50042300  0.75310900  1
  Se  Se18  1  0.49957700  0.97621000  0.24689100  1
  Se  Se19  1  0.77827900  0.25230100  0.24686800  1
  Br  Br20  1  0.62409700  0.62409700  0.51043700  1
  Br  Br21  1  0.12553000  0.12553000  0.52396500  1
  Br  Br22  1  0.87447000  0.87447000  0.47603500  1
  Br  Br23  1  0.12224400  0.12224400  0.99126700  1
  Br  Br24  1  0.87775600  0.87775600  0.00873300  1
  Br  Br25  1  0.37831900  0.37831900  0.02689000  1
  Br  Br26  1  0.62168100  0.62168100  0.97311000  1
  Br  Br27  1  0.37590300  0.37590300  0.48956300  1
