# generated using pymatgen
data_Gd2(MoO4)3
_symmetry_space_group_name_H-M   'P 1'
_cell_length_a   10.63622100
_cell_length_b   10.64307200
_cell_length_c   10.81999500
_cell_angle_alpha   90.00000000
_cell_angle_beta   90.00000000
_cell_angle_gamma   90.00000000
_symmetry_Int_Tables_number   1
_chemical_formula_structural   Gd2(MoO4)3
_chemical_formula_sum   'Gd8 Mo12 O48'
_cell_volume   1224.84578715
_cell_formula_units_Z   4
loop_
 _symmetry_equiv_pos_site_id
 _symmetry_equiv_pos_as_xyz
  1  'x, y, z'
loop_
 _atom_site_type_symbol
 _atom_site_label
 _atom_site_symmetry_multiplicity
 _atom_site_fract_x
 _atom_site_fract_y
 _atom_site_fract_z
 _atom_site_occupancy
  Gd  Gd0  1  0.00323000  0.81149900  0.76159700  1
  Gd  Gd1  1  0.99677000  0.18850100  0.76159700  1
  Gd  Gd2  1  0.50323000  0.68850100  0.76159700  1
  Gd  Gd3  1  0.49677000  0.31149900  0.76159700  1
  Gd  Gd4  1  0.31117100  0.99735900  0.23646000  1
  Gd  Gd5  1  0.68882900  0.00264100  0.23646000  1
  Gd  Gd6  1  0.81117100  0.50264100  0.23646000  1
  Gd  Gd7  1  0.18882900  0.49735900  0.23646000  1
  Mo  Mo8  1  0.75383000  0.75451400  0.49895600  1
  Mo  Mo9  1  0.24617000  0.24548600  0.49895600  1
  Mo  Mo10  1  0.25383000  0.74548600  0.49895600  1
  Mo  Mo11  1  0.74617000  0.25451400  0.49895600  1
  Mo  Mo12  1  0.99757100  0.79255100  0.14291900  1
  Mo  Mo13  1  0.00242900  0.20744900  0.14291900  1
  Mo  Mo14  1  0.49757100  0.70744900  0.14291900  1
  Mo  Mo15  1  0.50242900  0.29255100  0.14291900  1
  Mo  Mo16  1  0.29256800  0.99373500  0.85528200  1
  Mo  Mo17  1  0.70743200  0.00626500  0.85528200  1
  Mo  Mo18  1  0.79256800  0.50626500  0.85528200  1
  Mo  Mo19  1  0.20743200  0.49373600  0.85528200  1
  O  O20  1  0.50389000  0.87273600  0.19086800  1
  O  O21  1  0.49611000  0.12726400  0.19086800  1
  O  O22  1  0.00389000  0.62726400  0.19086800  1
  O  O23  1  0.99611000  0.37273600  0.19086800  1
  O  O24  1  0.37281800  0.50214300  0.80771300  1
  O  O25  1  0.62718200  0.49785700  0.80771300  1
  O  O26  1  0.87281800  0.99785700  0.80771300  1
  O  O27  1  0.12718200  0.00214300  0.80771300  1
  O  O28  1  0.01066900  0.80353000  0.97891200  1
  O  O29  1  0.98933100  0.19647000  0.97891200  1
  O  O30  1  0.51066900  0.69647000  0.97891200  1
  O  O31  1  0.48933100  0.30353000  0.97891200  1
  O  O32  1  0.19646700  0.49194500  0.01971300  1
  O  O33  1  0.80353300  0.50805500  0.01971300  1
  O  O34  1  0.69646700  0.00805500  0.01971300  1
  O  O35  1  0.30353300  0.99194500  0.01971300  1
  O  O36  1  0.32304000  0.86158800  0.40031100  1
  O  O37  1  0.37311500  0.67598800  0.59370500  1
  O  O38  1  0.87311500  0.82401200  0.59370500  1
  O  O39  1  0.12688500  0.17598800  0.59370500  1
  O  O40  1  0.37467400  0.37597700  0.21145900  1
  O  O41  1  0.62532600  0.62402300  0.21145900  1
  O  O42  1  0.87467400  0.12402300  0.21145900  1
  O  O43  1  0.12532600  0.87597700  0.21145900  1
  O  O44  1  0.37396000  0.12696700  0.79550800  1
  O  O45  1  0.62604000  0.87303300  0.79550800  1
  O  O46  1  0.87396000  0.37303300  0.79550800  1
  O  O47  1  0.12604000  0.62696700  0.79550800  1
  O  O48  1  0.15102800  0.14610800  0.18992300  1
  O  O49  1  0.84897200  0.85389200  0.18992300  1
  O  O50  1  0.65102800  0.35389200  0.18992300  1
  O  O51  1  0.34897200  0.64610800  0.18992300  1
  O  O52  1  0.14408200  0.34966300  0.79848600  1
  O  O53  1  0.85591800  0.65033700  0.79848600  1
  O  O54  1  0.64408200  0.15033700  0.79848600  1
  O  O55  1  0.35591800  0.84966300  0.79848600  1
  O  O56  1  0.36172700  0.31633200  0.59733000  1
  O  O57  1  0.63827300  0.68366800  0.59733000  1
  O  O58  1  0.86172700  0.18366800  0.59733000  1
  O  O59  1  0.13827300  0.81633200  0.59733000  1
  O  O60  1  0.31714800  0.12693800  0.40425600  1
  O  O61  1  0.68285200  0.87306200  0.40425600  1
  O  O62  1  0.81714800  0.37306200  0.40425600  1
  O  O63  1  0.18285200  0.62693800  0.40425600  1
  O  O64  1  0.17696000  0.36158800  0.40031100  1
  O  O65  1  0.82304000  0.63841200  0.40031100  1
  O  O66  1  0.67696000  0.13841200  0.40031100  1
  O  O67  1  0.62688500  0.32401200  0.59370500  1
