# generated using pymatgen
data_Tb3GaO6
_symmetry_space_group_name_H-M   'P 1'
_cell_length_a   7.18305751
_cell_length_b   7.18305751
_cell_length_c   5.47361000
_cell_angle_alpha   90.00000000
_cell_angle_beta   90.00000000
_cell_angle_gamma   102.84006526
_symmetry_Int_Tables_number   1
_chemical_formula_structural   Tb3GaO6
_chemical_formula_sum   'Tb6 Ga2 O12'
_cell_volume   275.35601445
_cell_formula_units_Z   2
loop_
 _symmetry_equiv_pos_site_id
 _symmetry_equiv_pos_as_xyz
  1  'x, y, z'
loop_
 _atom_site_type_symbol
 _atom_site_label
 _atom_site_symmetry_multiplicity
 _atom_site_fract_x
 _atom_site_fract_y
 _atom_site_fract_z
 _atom_site_occupancy
  Tb  Tb0  1  0.39795400  0.60204600  0.07767300  1
  Tb  Tb1  1  0.60204600  0.39795400  0.57767300  1
  Tb  Tb2  1  0.91195900  0.70119200  0.03068000  1
  Tb  Tb3  1  0.08804100  0.29880800  0.53068000  1
  Tb  Tb4  1  0.29880800  0.08804100  0.03068000  1
  Tb  Tb5  1  0.70119200  0.91195900  0.53068000  1
  Ga  Ga6  1  0.19336100  0.80663900  0.49987300  1
  Ga  Ga7  1  0.80663900  0.19336100  0.99987300  1
  O  O8  1  0.21562800  0.78437200  0.83600500  1
  O  O9  1  0.78437200  0.21562800  0.33600500  1
  O  O10  1  0.03917400  0.96082600  0.36069900  1
  O  O11  1  0.96082600  0.03917400  0.86069900  1
  O  O12  1  0.67592400  0.64429700  0.30287500  1
  O  O13  1  0.32407600  0.35570300  0.80287500  1
  O  O14  1  0.35570300  0.32407600  0.30287500  1
  O  O15  1  0.64429700  0.67592400  0.80287500  1
  O  O16  1  0.57865400  0.10610400  0.82205000  1
  O  O17  1  0.42134600  0.89389600  0.32205000  1
  O  O18  1  0.89389600  0.42134600  0.82205000  1
  O  O19  1  0.10610400  0.57865400  0.32205000  1
