# generated using pymatgen
data_CeAl4Ni
_symmetry_space_group_name_H-M   'P 1'
_cell_length_a   8.06557407
_cell_length_b   8.06557407
_cell_length_c   6.59465200
_cell_angle_alpha   90.00000000
_cell_angle_beta   90.00000000
_cell_angle_gamma   150.40380133
_symmetry_Int_Tables_number   1
_chemical_formula_structural   CeAl4Ni
_chemical_formula_sum   'Ce2 Al8 Ni2'
_cell_volume   211.87882927
_cell_formula_units_Z   2
loop_
 _symmetry_equiv_pos_site_id
 _symmetry_equiv_pos_as_xyz
  1  'x, y, z'
loop_
 _atom_site_type_symbol
 _atom_site_label
 _atom_site_symmetry_multiplicity
 _atom_site_fract_x
 _atom_site_fract_y
 _atom_site_fract_z
 _atom_site_occupancy
  Ce  Ce0  1  0.88551800  0.11448200  0.25000000  1
  Ce  Ce1  1  0.11448200  0.88551800  0.75000000  1
  Al  Al2  1  0.50000000  0.50000000  0.00000000  1
  Al  Al3  1  0.50000000  0.50000000  0.50000000  1
  Al  Al4  1  0.92261700  0.07738300  0.75000000  1
  Al  Al5  1  0.07738300  0.92261700  0.25000000  1
  Al  Al6  1  0.31080700  0.68919300  0.94753600  1
  Al  Al7  1  0.68919300  0.31080700  0.05246400  1
  Al  Al8  1  0.68919300  0.31080700  0.44753600  1
  Al  Al9  1  0.31080700  0.68919300  0.55246400  1
  Ni  Ni10  1  0.22600700  0.77399300  0.25000000  1
  Ni  Ni11  1  0.77399300  0.22600700  0.75000000  1
