# generated using pymatgen
data_ZrTlF5
_symmetry_space_group_name_H-M   'P 1'
_cell_length_a   8.09064400
_cell_length_b   7.62900300
_cell_length_c   8.08783186
_cell_angle_alpha   63.32915795
_cell_angle_beta   90.00000000
_cell_angle_gamma   90.00000000
_symmetry_Int_Tables_number   1
_chemical_formula_structural   ZrTlF5
_chemical_formula_sum   'Zr4 Tl4 F20'
_cell_volume   446.09372962
_cell_formula_units_Z   4
loop_
 _symmetry_equiv_pos_site_id
 _symmetry_equiv_pos_as_xyz
  1  'x, y, z'
loop_
 _atom_site_type_symbol
 _atom_site_label
 _atom_site_symmetry_multiplicity
 _atom_site_fract_x
 _atom_site_fract_y
 _atom_site_fract_z
 _atom_site_occupancy
  Zr  Zr0  1  0.83801800  0.50796100  0.66044500  1
  Zr  Zr1  1  0.33801800  0.49203900  0.83955500  1
  Zr  Zr2  1  0.16198200  0.49203900  0.33955500  1
  Zr  Zr3  1  0.66198200  0.50796100  0.16044500  1
  Tl  Tl4  1  0.47001400  0.92965500  0.29489800  1
  Tl  Tl5  1  0.97001400  0.07034500  0.20510200  1
  Tl  Tl6  1  0.52998600  0.07034500  0.70510200  1
  Tl  Tl7  1  0.02998600  0.92965500  0.79489800  1
  F  F8  1  0.06406300  0.49543800  0.79103900  1
  F  F9  1  0.56406300  0.50456200  0.70896100  1
  F  F10  1  0.93593700  0.50456200  0.20896100  1
  F  F11  1  0.43593700  0.49543800  0.29103900  1
  F  F12  1  0.79417800  0.79681400  0.58975300  1
  F  F13  1  0.29417800  0.20318600  0.91024700  1
  F  F14  1  0.20582200  0.20318600  0.41024700  1
  F  F15  1  0.70582200  0.79681400  0.08975300  1
  F  F16  1  0.20944700  0.78077900  0.16214900  1
  F  F17  1  0.70944700  0.21922100  0.33785100  1
  F  F18  1  0.79055300  0.21922100  0.83785100  1
  F  F19  1  0.29055300  0.78077900  0.66214900  1
  F  F20  1  0.71041700  0.51281900  0.43377000  1
  F  F21  1  0.21041700  0.48718100  0.06623000  1
  F  F22  1  0.28958300  0.48718100  0.56623000  1
  F  F23  1  0.78958300  0.51281900  0.93377000  1
  F  F24  1  0.49470700  0.67554700  0.92814900  1
  F  F25  1  0.99470700  0.32445300  0.57185100  1
  F  F26  1  0.50529300  0.32445300  0.07185100  1
  F  F27  1  0.00529300  0.67554700  0.42814900  1
