# generated using pymatgen
data_NaYO2
_symmetry_space_group_name_H-M   'P 1'
_cell_length_a   7.45361426
_cell_length_b   7.45361426
_cell_length_c   5.99629741
_cell_angle_alpha   75.96362153
_cell_angle_beta   75.96362153
_cell_angle_gamma   126.67074345
_symmetry_Int_Tables_number   1
_chemical_formula_structural   NaYO2
_chemical_formula_sum   'Na4 Y4 O8'
_cell_volume   224.81437800
_cell_formula_units_Z   4
loop_
 _symmetry_equiv_pos_site_id
 _symmetry_equiv_pos_as_xyz
  1  'x, y, z'
loop_
 _atom_site_type_symbol
 _atom_site_label
 _atom_site_symmetry_multiplicity
 _atom_site_fract_x
 _atom_site_fract_y
 _atom_site_fract_z
 _atom_site_occupancy
  Na  Na0  1  0.18082000  0.81918000  0.25000000  1
  Na  Na1  1  0.94406600  0.05593400  0.25000000  1
  Na  Na2  1  0.81918000  0.18082000  0.75000000  1
  Na  Na3  1  0.05593400  0.94406600  0.75000000  1
  Y  Y4  1  0.56704000  0.43296000  0.75000000  1
  Y  Y5  1  0.43296000  0.56704000  0.25000000  1
  Y  Y6  1  0.30681700  0.69318300  0.75000000  1
  Y  Y7  1  0.69318300  0.30681700  0.25000000  1
  O  O8  1  0.76944100  0.64235000  0.29372000  1
  O  O9  1  0.35765000  0.23055900  0.20628000  1
  O  O10  1  0.23055900  0.35765000  0.70628000  1
  O  O11  1  0.64235000  0.76944100  0.79372000  1
  O  O12  1  0.54071000  0.91676900  0.29200300  1
  O  O13  1  0.91676900  0.54071000  0.79200300  1
  O  O14  1  0.45929000  0.08323100  0.70799700  1
  O  O15  1  0.08323100  0.45929000  0.20799700  1
