# generated using pymatgen
data_Rb2Te5
_symmetry_space_group_name_H-M   'P 1'
_cell_length_a   7.50554060
_cell_length_b   7.50554060
_cell_length_c   5.91587363
_cell_angle_alpha   68.48398691
_cell_angle_beta   68.48398691
_cell_angle_gamma   77.62791237
_symmetry_Int_Tables_number   1
_chemical_formula_structural   Rb2Te5
_chemical_formula_sum   'Rb2 Te5'
_cell_volume   287.20473426
_cell_formula_units_Z   1
loop_
 _symmetry_equiv_pos_site_id
 _symmetry_equiv_pos_as_xyz
  1  'x, y, z'
loop_
 _atom_site_type_symbol
 _atom_site_label
 _atom_site_symmetry_multiplicity
 _atom_site_fract_x
 _atom_site_fract_y
 _atom_site_fract_z
 _atom_site_occupancy
  Rb  Rb0  1  0.31592100  0.31592100  0.35861000  1
  Rb  Rb1  1  0.68407900  0.68407900  0.64139000  1
  Te  Te2  1  0.00000000  0.00000000  0.00000000  1
  Te  Te3  1  0.85691300  0.32830500  0.23578100  1
  Te  Te4  1  0.67169500  0.14308700  0.76421900  1
  Te  Te5  1  0.14308700  0.67169500  0.76421900  1
  Te  Te6  1  0.32830500  0.85691300  0.23578100  1
