# generated using pymatgen
data_K2PtF6
_symmetry_space_group_name_H-M   'P 1'
_cell_length_a   5.90755414
_cell_length_b   5.90755414
_cell_length_c   4.75350300
_cell_angle_alpha   90.00000000
_cell_angle_beta   90.00000000
_cell_angle_gamma   120.00000157
_symmetry_Int_Tables_number   1
_chemical_formula_structural   K2PtF6
_chemical_formula_sum   'K2 Pt1 F6'
_cell_volume   143.66792459
_cell_formula_units_Z   1
loop_
 _symmetry_equiv_pos_site_id
 _symmetry_equiv_pos_as_xyz
  1  'x, y, z'
loop_
 _atom_site_type_symbol
 _atom_site_label
 _atom_site_symmetry_multiplicity
 _atom_site_fract_x
 _atom_site_fract_y
 _atom_site_fract_z
 _atom_site_occupancy
  K  K0  1  0.66666700  0.33333300  0.28530200  1
  K  K1  1  0.33333300  0.66666700  0.71469800  1
  Pt  Pt2  1  0.00000000  0.00000000  0.00000000  1
  F  F3  1  0.83702900  0.16297100  0.77635200  1
  F  F4  1  0.83702900  0.67405800  0.77635200  1
  F  F5  1  0.32594200  0.16297100  0.77635200  1
  F  F6  1  0.16297100  0.83702900  0.22364800  1
  F  F7  1  0.16297100  0.32594200  0.22364800  1
  F  F8  1  0.67405800  0.83702900  0.22364800  1
