# generated using pymatgen
data_YZn3
_symmetry_space_group_name_H-M   'P 1'
_cell_length_a   4.39204100
_cell_length_b   6.71303000
_cell_length_c   10.12188400
_cell_angle_alpha   90.00000000
_cell_angle_beta   90.00000000
_cell_angle_gamma   90.00000000
_symmetry_Int_Tables_number   1
_chemical_formula_structural   YZn3
_chemical_formula_sum   'Y4 Zn12'
_cell_volume   298.43264597
_cell_formula_units_Z   4
loop_
 _symmetry_equiv_pos_site_id
 _symmetry_equiv_pos_as_xyz
  1  'x, y, z'
loop_
 _atom_site_type_symbol
 _atom_site_label
 _atom_site_symmetry_multiplicity
 _atom_site_fract_x
 _atom_site_fract_y
 _atom_site_fract_z
 _atom_site_occupancy
  Y  Y0  1  0.25000000  0.27988000  0.66125000  1
  Y  Y1  1  0.75000000  0.72012000  0.33875000  1
  Y  Y2  1  0.25000000  0.77988000  0.83875000  1
  Y  Y3  1  0.75000000  0.22012000  0.16125000  1
  Zn  Zn4  1  0.25000000  0.53660400  0.10555400  1
  Zn  Zn5  1  0.75000000  0.46339600  0.89444600  1
  Zn  Zn6  1  0.25000000  0.03660400  0.39444600  1
  Zn  Zn7  1  0.75000000  0.96339600  0.60555400  1
  Zn  Zn8  1  0.75000000  0.28024200  0.45620300  1
  Zn  Zn9  1  0.25000000  0.71975800  0.54379700  1
  Zn  Zn10  1  0.75000000  0.78024200  0.04379700  1
  Zn  Zn11  1  0.25000000  0.21975800  0.95620300  1
  Zn  Zn12  1  0.75000000  0.58291500  0.64751400  1
  Zn  Zn13  1  0.25000000  0.41708500  0.35248600  1
  Zn  Zn14  1  0.75000000  0.08291500  0.85248600  1
  Zn  Zn15  1  0.25000000  0.91708500  0.14751400  1
