# generated using pymatgen
data_Sm2GeRh3
_symmetry_space_group_name_H-M   'P 1'
_cell_length_a   5.17698245
_cell_length_b   5.17698245
_cell_length_c   5.17698180
_cell_angle_alpha   66.40802335
_cell_angle_beta   66.40802335
_cell_angle_gamma   66.40801019
_symmetry_Int_Tables_number   1
_chemical_formula_structural   Sm2GeRh3
_chemical_formula_sum   'Sm2 Ge1 Rh3'
_cell_volume   111.66342752
_cell_formula_units_Z   1
loop_
 _symmetry_equiv_pos_site_id
 _symmetry_equiv_pos_as_xyz
  1  'x, y, z'
loop_
 _atom_site_type_symbol
 _atom_site_label
 _atom_site_symmetry_multiplicity
 _atom_site_fract_x
 _atom_site_fract_y
 _atom_site_fract_z
 _atom_site_occupancy
  Sm  Sm0  1  0.87130900  0.87130900  0.87130900  1
  Sm  Sm1  1  0.12869100  0.12869100  0.12869100  1
  Ge  Ge2  1  0.50000000  0.50000000  0.50000000  1
  Rh  Rh3  1  0.00000000  0.50000000  0.50000000  1
  Rh  Rh4  1  0.50000000  0.50000000  0.00000000  1
  Rh  Rh5  1  0.50000000  0.00000000  0.50000000  1
