# generated using pymatgen
data_Sr4Lu3F17
_symmetry_space_group_name_H-M   'P 1'
_cell_length_a   8.96774400
_cell_length_b   8.98430719
_cell_length_c   9.01718751
_cell_angle_alpha   72.80858107
_cell_angle_beta   73.06843462
_cell_angle_gamma   73.02493404
_symmetry_Int_Tables_number   1
_chemical_formula_structural   Sr4Lu3F17
_chemical_formula_sum   'Sr8 Lu6 F34'
_cell_volume   646.89601826
_cell_formula_units_Z   2
loop_
 _symmetry_equiv_pos_site_id
 _symmetry_equiv_pos_as_xyz
  1  'x, y, z'
loop_
 _atom_site_type_symbol
 _atom_site_label
 _atom_site_symmetry_multiplicity
 _atom_site_fract_x
 _atom_site_fract_y
 _atom_site_fract_z
 _atom_site_occupancy
  Sr  Sr0  1  0.10459300  0.69131400  0.95636100  1
  Sr  Sr1  1  0.73301600  0.73811900  0.73610800  1
  Sr  Sr2  1  0.94493700  0.11025800  0.68857600  1
  Sr  Sr3  1  0.30924100  0.04816900  0.89440700  1
  Sr  Sr4  1  0.68959000  0.94679900  0.11166100  1
  Sr  Sr5  1  0.04766500  0.89007900  0.31182700  1
  Sr  Sr6  1  0.26072000  0.26716900  0.26535500  1
  Sr  Sr7  1  0.89175000  0.30892600  0.05317400  1
  Lu  Lu8  1  0.53339300  0.38861500  0.84014500  1
  Lu  Lu9  1  0.38822900  0.84102400  0.53378200  1
  Lu  Lu10  1  0.15783700  0.46705900  0.61144100  1
  Lu  Lu11  1  0.81573200  0.52978300  0.39096900  1
  Lu  Lu12  1  0.60989300  0.17952100  0.46317000  1
  Lu  Lu13  1  0.47146600  0.60591200  0.17564300  1
  F  F14  1  0.00199100  0.99481800  0.00415000  1
  F  F15  1  0.54472800  0.82695200  0.98180600  1
  F  F16  1  0.86193600  0.86383500  0.86280600  1
  F  F17  1  0.64256200  0.51353200  0.95557400  1
  F  F18  1  0.98238600  0.54738000  0.82563300  1
  F  F19  1  0.74181800  0.21279300  0.91948900  1
  F  F20  1  0.82238900  0.98217900  0.54864500  1
  F  F21  1  0.21331600  0.91572000  0.74235100  1
  F  F22  1  0.51026100  0.96226100  0.64381300  1
  F  F23  1  0.45733900  0.65058700  0.73705700  1
  F  F24  1  0.30549300  0.40404700  0.78914500  1
  F  F25  1  0.74333900  0.45159400  0.65523500  1
  F  F26  1  0.95303400  0.64469200  0.51608100  1
  F  F27  1  0.60008000  0.20491900  0.69928400  1
  F  F28  1  0.08177800  0.25768200  0.78681000  1
  F  F29  1  0.64977000  0.74772500  0.45404000  1
  F  F30  1  0.20947300  0.69653200  0.58998200  1
  F  F31  1  0.55632800  0.48252300  0.44620800  1
  F  F32  1  0.82198900  0.28340600  0.39443900  1
  F  F33  1  0.34650600  0.26132400  0.54298800  1
  F  F34  1  0.91409700  0.73726700  0.22144900  1
  F  F35  1  0.40852500  0.79915200  0.30078900  1
  F  F36  1  0.03927000  0.35805800  0.48882800  1
  F  F37  1  0.25824200  0.54271700  0.35044600  1
  F  F38  1  0.71519500  0.60394200  0.17631600  1
  F  F39  1  0.54793900  0.33981900  0.24090300  1
  F  F40  1  0.48451200  0.04692000  0.35734900  1
  F  F41  1  0.78341200  0.08120400  0.26091400  1
  F  F42  1  0.17285900  0.01898000  0.45448900  1
  F  F43  1  0.26141800  0.78090600  0.08937900  1
  F  F44  1  0.01889300  0.45306000  0.17359500  1
  F  F45  1  0.35375000  0.48872700  0.04210400  1
  F  F46  1  0.13853500  0.13590900  0.13771200  1
  F  F47  1  0.45177400  0.17508800  0.01857300  1
