# generated using pymatgen
data_Sn(BiTe2)2
_symmetry_space_group_name_H-M   'P 1'
_cell_length_a   14.32926575
_cell_length_b   14.32926575
_cell_length_c   14.32926592
_cell_angle_alpha   17.96477792
_cell_angle_beta   17.96477792
_cell_angle_gamma   17.96477998
_symmetry_Int_Tables_number   1
_chemical_formula_structural   Sn(BiTe2)2
_chemical_formula_sum   'Sn1 Bi2 Te4'
_cell_volume   244.37961247
_cell_formula_units_Z   1
loop_
 _symmetry_equiv_pos_site_id
 _symmetry_equiv_pos_as_xyz
  1  'x, y, z'
loop_
 _atom_site_type_symbol
 _atom_site_label
 _atom_site_symmetry_multiplicity
 _atom_site_fract_x
 _atom_site_fract_y
 _atom_site_fract_z
 _atom_site_occupancy
  Sn  Sn0  1  0.00000000  0.00000000  0.00000000  1
  Bi  Bi1  1  0.57323800  0.57323800  0.57323800  1
  Bi  Bi2  1  0.42676200  0.42676200  0.42676200  1
  Te  Te3  1  0.86628400  0.86628400  0.86628400  1
  Te  Te4  1  0.71146600  0.71146600  0.71146600  1
  Te  Te5  1  0.28853400  0.28853400  0.28853400  1
  Te  Te6  1  0.13371600  0.13371600  0.13371600  1
