# generated using pymatgen
data_Al5CuS8
_symmetry_space_group_name_H-M   'P 1'
_cell_length_a   7.07660446
_cell_length_b   7.07660446
_cell_length_c   7.07660446
_cell_angle_alpha   60.00000000
_cell_angle_beta   60.00000000
_cell_angle_gamma   60.00000000
_symmetry_Int_Tables_number   1
_chemical_formula_structural   Al5CuS8
_chemical_formula_sum   'Al5 Cu1 S8'
_cell_volume   250.58770994
_cell_formula_units_Z   1
loop_
 _symmetry_equiv_pos_site_id
 _symmetry_equiv_pos_as_xyz
  1  'x, y, z'
loop_
 _atom_site_type_symbol
 _atom_site_label
 _atom_site_symmetry_multiplicity
 _atom_site_fract_x
 _atom_site_fract_y
 _atom_site_fract_z
 _atom_site_occupancy
  Al  Al0  1  0.86813600  0.39559100  0.86813600  1
  Al  Al1  1  0.39559100  0.86813600  0.86813600  1
  Al  Al2  1  0.86813600  0.86813600  0.39559100  1
  Al  Al3  1  0.86813600  0.86813600  0.86813600  1
  Al  Al4  1  0.25000000  0.25000000  0.25000000  1
  Cu  Cu5  1  0.50000000  0.50000000  0.50000000  1
  S  S6  1  0.63188300  0.63188300  0.63188300  1
  S  S7  1  0.63188300  0.63188300  0.10435000  1
  S  S8  1  0.10435000  0.63188300  0.63188300  1
  S  S9  1  0.63188300  0.10435000  0.63188300  1
  S  S10  1  0.11650900  0.65047300  0.11650900  1
  S  S11  1  0.65047300  0.11650900  0.11650900  1
  S  S12  1  0.11650900  0.11650900  0.65047300  1
  S  S13  1  0.11650900  0.11650900  0.11650900  1
