# generated using pymatgen
data_Sm2Zn17
_symmetry_space_group_name_H-M   'P 1'
_cell_length_a   6.83415736
_cell_length_b   6.83415736
_cell_length_c   6.83415766
_cell_angle_alpha   82.60411411
_cell_angle_beta   82.60411411
_cell_angle_gamma   82.60412336
_symmetry_Int_Tables_number   1
_chemical_formula_structural   Sm2Zn17
_chemical_formula_sum   'Sm2 Zn17'
_cell_volume   311.85711671
_cell_formula_units_Z   1
loop_
 _symmetry_equiv_pos_site_id
 _symmetry_equiv_pos_as_xyz
  1  'x, y, z'
loop_
 _atom_site_type_symbol
 _atom_site_label
 _atom_site_symmetry_multiplicity
 _atom_site_fract_x
 _atom_site_fract_y
 _atom_site_fract_z
 _atom_site_occupancy
  Sm  Sm0  1  0.66468100  0.66468100  0.66468100  1
  Sm  Sm1  1  0.33531900  0.33531900  0.33531900  1
  Zn  Zn2  1  0.35081700  0.35081700  0.83854200  1
  Zn  Zn3  1  0.83854200  0.35081700  0.35081700  1
  Zn  Zn4  1  0.09921600  0.09921600  0.09921600  1
  Zn  Zn5  1  0.90078400  0.90078400  0.90078400  1
  Zn  Zn6  1  0.00000000  0.00000000  0.50000000  1
  Zn  Zn7  1  0.00000000  0.50000000  0.00000000  1
  Zn  Zn8  1  0.50000000  0.00000000  0.00000000  1
  Zn  Zn9  1  0.29481700  0.70518300  0.00000000  1
  Zn  Zn10  1  0.70518300  0.00000000  0.29481700  1
  Zn  Zn11  1  0.00000000  0.29481700  0.70518300  1
  Zn  Zn12  1  0.70518300  0.29481700  0.00000000  1
  Zn  Zn13  1  0.29481700  0.00000000  0.70518300  1
  Zn  Zn14  1  0.00000000  0.70518300  0.29481700  1
  Zn  Zn15  1  0.16145800  0.64918300  0.64918300  1
  Zn  Zn16  1  0.64918300  0.64918300  0.16145800  1
  Zn  Zn17  1  0.64918300  0.16145800  0.64918300  1
  Zn  Zn18  1  0.35081700  0.83854200  0.35081700  1
