# generated using pymatgen
data_Sr3SiO
_symmetry_space_group_name_H-M   'P 1'
_cell_length_a   7.15883000
_cell_length_b   7.20019700
_cell_length_c   10.15259800
_cell_angle_alpha   90.00000000
_cell_angle_beta   90.00000000
_cell_angle_gamma   90.00000000
_symmetry_Int_Tables_number   1
_chemical_formula_structural   Sr3SiO
_chemical_formula_sum   'Sr12 Si4 O4'
_cell_volume   523.31552471
_cell_formula_units_Z   4
loop_
 _symmetry_equiv_pos_site_id
 _symmetry_equiv_pos_as_xyz
  1  'x, y, z'
loop_
 _atom_site_type_symbol
 _atom_site_label
 _atom_site_symmetry_multiplicity
 _atom_site_fract_x
 _atom_site_fract_y
 _atom_site_fract_z
 _atom_site_occupancy
  Sr  Sr0  1  0.21796100  0.78153200  0.96596400  1
  Sr  Sr1  1  0.28203900  0.28153200  0.53403600  1
  Sr  Sr2  1  0.71796100  0.71846800  0.03403600  1
  Sr  Sr3  1  0.78203900  0.21846800  0.46596400  1
  Sr  Sr4  1  0.21796100  0.78153200  0.53403600  1
  Sr  Sr5  1  0.28203900  0.28153200  0.96596400  1
  Sr  Sr6  1  0.71796100  0.71846800  0.46596400  1
  Sr  Sr7  1  0.78203900  0.21846800  0.03403600  1
  Sr  Sr8  1  0.93488900  0.48847800  0.75000000  1
  Sr  Sr9  1  0.56511100  0.98847800  0.75000000  1
  Sr  Sr10  1  0.43488900  0.01152200  0.25000000  1
  Sr  Sr11  1  0.06511100  0.51152200  0.25000000  1
  Si  Si12  1  0.00708900  0.02757300  0.75000000  1
  Si  Si13  1  0.49291100  0.52757300  0.75000000  1
  Si  Si14  1  0.50708900  0.47242700  0.25000000  1
  Si  Si15  1  0.99291100  0.97242700  0.25000000  1
  O  O16  1  0.50000000  0.00000000  0.50000000  1
  O  O17  1  0.00000000  0.50000000  0.00000000  1
  O  O18  1  0.00000000  0.50000000  0.50000000  1
  O  O19  1  0.50000000  0.00000000  0.00000000  1
