# generated using pymatgen
data_Zr7Sb4
_symmetry_space_group_name_H-M   'P 1'
_cell_length_a   11.25079300
_cell_length_b   8.55706200
_cell_length_c   11.19419215
_cell_angle_alpha   68.25439830
_cell_angle_beta   90.00000000
_cell_angle_gamma   90.00000000
_symmetry_Int_Tables_number   1
_chemical_formula_structural   Zr7Sb4
_chemical_formula_sum   'Zr28 Sb16'
_cell_volume   1001.01490238
_cell_formula_units_Z   4
loop_
 _symmetry_equiv_pos_site_id
 _symmetry_equiv_pos_as_xyz
  1  'x, y, z'
loop_
 _atom_site_type_symbol
 _atom_site_label
 _atom_site_symmetry_multiplicity
 _atom_site_fract_x
 _atom_site_fract_y
 _atom_site_fract_z
 _atom_site_occupancy
  Zr  Zr0  1  0.94019500  0.60150700  0.84092300  1
  Zr  Zr1  1  0.55980500  0.60150700  0.34092300  1
  Zr  Zr2  1  0.26147800  0.33959900  0.98200300  1
  Zr  Zr3  1  0.29440000  0.98627300  0.93035100  1
  Zr  Zr4  1  0.72320100  0.35397400  0.82788800  1
  Zr  Zr5  1  0.07829500  0.98881600  0.71054000  1
  Zr  Zr6  1  0.94133100  0.36603600  0.63474500  1
  Zr  Zr7  1  0.00007300  0.79714600  0.05526300  1
  Zr  Zr8  1  0.23852200  0.33959900  0.48200300  1
  Zr  Zr9  1  0.20560000  0.98627300  0.43035100  1
  Zr  Zr10  1  0.77679900  0.35397400  0.32788800  1
  Zr  Zr11  1  0.42170500  0.98881600  0.21054000  1
  Zr  Zr12  1  0.55866900  0.36603600  0.13474500  1
  Zr  Zr13  1  0.49992700  0.79714600  0.55526300  1
  Zr  Zr14  1  0.50007300  0.20285400  0.44473700  1
  Zr  Zr15  1  0.44133100  0.63396400  0.86525500  1
  Zr  Zr16  1  0.57829500  0.01118400  0.78946000  1
  Zr  Zr17  1  0.22320100  0.64602600  0.67211200  1
  Zr  Zr18  1  0.79440000  0.01372700  0.56964900  1
  Zr  Zr19  1  0.76147800  0.66040100  0.51799700  1
  Zr  Zr20  1  0.99992700  0.20285400  0.94473700  1
  Zr  Zr21  1  0.05866900  0.63396400  0.36525500  1
  Zr  Zr22  1  0.92170500  0.01118400  0.28946000  1
  Zr  Zr23  1  0.27679900  0.64602600  0.17211200  1
  Zr  Zr24  1  0.70560000  0.01372700  0.06964900  1
  Zr  Zr25  1  0.73852200  0.66040100  0.01799700  1
  Zr  Zr26  1  0.44019500  0.39849300  0.65907700  1
  Zr  Zr27  1  0.05980500  0.39849300  0.15907700  1
  Sb  Sb28  1  0.68324600  0.71444100  0.75198900  1
  Sb  Sb29  1  0.81675400  0.71444100  0.25198900  1
  Sb  Sb30  1  0.34604300  0.98791700  0.66165900  1
  Sb  Sb31  1  0.49235000  0.22664200  0.93841600  1
  Sb  Sb32  1  0.67648600  0.31961300  0.57899400  1
  Sb  Sb33  1  0.15395700  0.98791700  0.16165900  1
  Sb  Sb34  1  0.00765000  0.22664200  0.43841600  1
  Sb  Sb35  1  0.17648600  0.68038700  0.92100600  1
  Sb  Sb36  1  0.82351400  0.31961300  0.07899400  1
  Sb  Sb37  1  0.99235000  0.77335800  0.56158400  1
  Sb  Sb38  1  0.32351400  0.68038700  0.42100600  1
  Sb  Sb39  1  0.50765000  0.77335800  0.06158400  1
  Sb  Sb40  1  0.18324600  0.28555900  0.74801100  1
  Sb  Sb41  1  0.31675400  0.28555900  0.24801100  1
  Sb  Sb42  1  0.84604300  0.01208300  0.83834100  1
  Sb  Sb43  1  0.65395700  0.01208300  0.33834100  1
