# generated using pymatgen
data_Si5P6O25
_symmetry_space_group_name_H-M   'P 1'
_cell_length_a   9.32677762
_cell_length_b   9.32677762
_cell_length_c   9.32677720
_cell_angle_alpha   50.65674825
_cell_angle_beta   50.65674825
_cell_angle_gamma   50.65674734
_symmetry_Int_Tables_number   1
_chemical_formula_structural   Si5P6O25
_chemical_formula_sum   'Si5 P6 O25'
_cell_volume   447.23154248
_cell_formula_units_Z   1
loop_
 _symmetry_equiv_pos_site_id
 _symmetry_equiv_pos_as_xyz
  1  'x, y, z'
loop_
 _atom_site_type_symbol
 _atom_site_label
 _atom_site_symmetry_multiplicity
 _atom_site_fract_x
 _atom_site_fract_y
 _atom_site_fract_z
 _atom_site_occupancy
  Si  Si0  1  0.00000000  0.00000000  0.00000000  1
  Si  Si1  1  0.18078100  0.18078100  0.18078100  1
  Si  Si2  1  0.81921900  0.81921900  0.81921900  1
  Si  Si3  1  0.43397600  0.43397600  0.43397600  1
  Si  Si4  1  0.56602400  0.56602400  0.56602400  1
  P  P5  1  0.07438900  0.37725900  0.82568100  1
  P  P6  1  0.37725900  0.82568100  0.07438900  1
  P  P7  1  0.82568100  0.07438900  0.37725900  1
  P  P8  1  0.92561100  0.62274100  0.17431900  1
  P  P9  1  0.62274100  0.17431900  0.92561100  1
  P  P10  1  0.17431900  0.92561100  0.62274100  1
  O  O11  1  0.14839600  0.09372700  0.42702300  1
  O  O12  1  0.42702300  0.14839600  0.09372700  1
  O  O13  1  0.09372700  0.42702300  0.14839600  1
  O  O14  1  0.85160400  0.90627300  0.57297700  1
  O  O15  1  0.57297700  0.85160400  0.90627300  1
  O  O16  1  0.90627300  0.57297700  0.85160400  1
  O  O17  1  0.40641900  0.78774300  0.57664200  1
  O  O18  1  0.57664200  0.40641900  0.78774300  1
  O  O19  1  0.78774300  0.57664200  0.40641900  1
  O  O20  1  0.59358100  0.21225700  0.42335800  1
  O  O21  1  0.42335800  0.59358100  0.21225700  1
  O  O22  1  0.50000000  0.50000000  0.50000000  1
  O  O23  1  0.21709500  0.27113800  0.92679000  1
  O  O24  1  0.27113800  0.92679000  0.21709500  1
  O  O25  1  0.92679000  0.21709500  0.27113800  1
  O  O26  1  0.78290500  0.72886200  0.07321000  1
  O  O27  1  0.72886200  0.07321000  0.78290500  1
  O  O28  1  0.07321000  0.78290500  0.72886200  1
  O  O29  1  0.97705900  0.24905000  0.89602700  1
  O  O30  1  0.24905000  0.89602700  0.97705900  1
  O  O31  1  0.89602700  0.97705900  0.24905000  1
  O  O32  1  0.02294100  0.75095000  0.10397300  1
  O  O33  1  0.75095000  0.10397300  0.02294100  1
  O  O34  1  0.10397300  0.02294100  0.75095000  1
  O  O35  1  0.21225700  0.42335800  0.59358100  1
