# generated using pymatgen
data_MgAu3
_symmetry_space_group_name_H-M   'P 1'
_cell_length_a   10.52746505
_cell_length_b   10.52746505
_cell_length_c   9.60060800
_cell_angle_alpha   90.00000000
_cell_angle_beta   90.00000000
_cell_angle_gamma   147.43450836
_symmetry_Int_Tables_number   1
_chemical_formula_structural   MgAu3
_chemical_formula_sum   'Mg8 Au24'
_cell_volume   572.71837495
_cell_formula_units_Z   8
loop_
 _symmetry_equiv_pos_site_id
 _symmetry_equiv_pos_as_xyz
  1  'x, y, z'
loop_
 _atom_site_type_symbol
 _atom_site_label
 _atom_site_symmetry_multiplicity
 _atom_site_fract_x
 _atom_site_fract_y
 _atom_site_fract_z
 _atom_site_occupancy
  Mg  Mg0  1  0.87631300  0.12368700  0.50083400  1
  Mg  Mg1  1  0.12368700  0.87631300  0.49916600  1
  Mg  Mg2  1  0.12368700  0.87631300  0.00083400  1
  Mg  Mg3  1  0.87631300  0.12368700  0.99916600  1
  Mg  Mg4  1  0.54056900  0.45943100  0.75000000  1
  Mg  Mg5  1  0.45943100  0.54056900  0.25000000  1
  Mg  Mg6  1  0.29310500  0.70689500  0.75000000  1
  Mg  Mg7  1  0.70689500  0.29310500  0.25000000  1
  Au  Au8  1  0.25159400  0.25159400  0.00000000  1
  Au  Au9  1  0.74840600  0.74840600  0.50000000  1
  Au  Au10  1  0.74840600  0.74840600  0.00000000  1
  Au  Au11  1  0.25159400  0.25159400  0.50000000  1
  Au  Au12  1  0.62577000  0.37423000  0.99850600  1
  Au  Au13  1  0.37423000  0.62577000  0.00149400  1
  Au  Au14  1  0.37423000  0.62577000  0.49850600  1
  Au  Au15  1  0.62577000  0.37423000  0.50149400  1
  Au  Au16  1  0.08081100  0.41456600  0.25000000  1
  Au  Au17  1  0.41456600  0.08081100  0.75000000  1
  Au  Au18  1  0.91918900  0.58543400  0.75000000  1
  Au  Au19  1  0.58543400  0.91918900  0.25000000  1
  Au  Au20  1  0.33372000  0.16643300  0.25000000  1
  Au  Au21  1  0.16643300  0.33372000  0.75000000  1
  Au  Au22  1  0.66628000  0.83356700  0.75000000  1
  Au  Au23  1  0.83356700  0.66628000  0.25000000  1
  Au  Au24  1  0.50000000  0.00000000  0.50000000  1
  Au  Au25  1  0.00000000  0.50000000  0.50000000  1
  Au  Au26  1  0.50000000  0.00000000  0.00000000  1
  Au  Au27  1  0.00000000  0.50000000  0.00000000  1
  Au  Au28  1  0.79219400  0.20780600  0.75000000  1
  Au  Au29  1  0.20780600  0.79219400  0.25000000  1
  Au  Au30  1  0.04414000  0.95586000  0.75000000  1
  Au  Au31  1  0.95586000  0.04414000  0.25000000  1
