# generated using pymatgen
data_SrAg2
_symmetry_space_group_name_H-M   'P 1'
_cell_length_a   6.20861032
_cell_length_b   6.20861032
_cell_length_c   6.20861032
_cell_angle_alpha   133.54149464
_cell_angle_beta   102.26005829
_cell_angle_gamma   95.66840667
_symmetry_Int_Tables_number   1
_chemical_formula_structural   SrAg2
_chemical_formula_sum   'Sr2 Ag4'
_cell_volume   159.05480096
_cell_formula_units_Z   2
loop_
 _symmetry_equiv_pos_site_id
 _symmetry_equiv_pos_as_xyz
  1  'x, y, z'
loop_
 _atom_site_type_symbol
 _atom_site_label
 _atom_site_symmetry_multiplicity
 _atom_site_fract_x
 _atom_site_fract_y
 _atom_site_fract_z
 _atom_site_occupancy
  Sr  Sr0  1  0.20750400  0.95750400  0.25000000  1
  Sr  Sr1  1  0.79249600  0.04249600  0.75000000  1
  Ag  Ag2  1  0.61005000  0.66359300  0.94645700  1
  Ag  Ag3  1  0.38995000  0.33640700  0.05354300  1
  Ag  Ag4  1  0.21713600  0.66359300  0.55354300  1
  Ag  Ag5  1  0.78286400  0.33640700  0.44645700  1
