# generated using pymatgen
data_Mo2P3O11
_symmetry_space_group_name_H-M   'P 1'
_cell_length_a   7.53211528
_cell_length_b   7.53211528
_cell_length_c   9.11986259
_cell_angle_alpha   70.50135001
_cell_angle_beta   70.50135001
_cell_angle_gamma   72.59529005
_symmetry_Int_Tables_number   1
_chemical_formula_structural   Mo2P3O11
_chemical_formula_sum   'Mo4 P6 O22'
_cell_volume   449.37604060
_cell_formula_units_Z   2
loop_
 _symmetry_equiv_pos_site_id
 _symmetry_equiv_pos_as_xyz
  1  'x, y, z'
loop_
 _atom_site_type_symbol
 _atom_site_label
 _atom_site_symmetry_multiplicity
 _atom_site_fract_x
 _atom_site_fract_y
 _atom_site_fract_z
 _atom_site_occupancy
  Mo  Mo0  1  0.35981200  0.88316300  0.70683200  1
  Mo  Mo1  1  0.63136700  0.11456100  0.79416600  1
  Mo  Mo2  1  0.11683700  0.64018800  0.29316800  1
  Mo  Mo3  1  0.88543900  0.36863300  0.20583400  1
  P  P4  1  0.54312700  0.67219300  0.03446800  1
  P  P5  1  0.32780700  0.45687300  0.96553200  1
  P  P6  1  0.67130800  0.54266300  0.53987000  1
  P  P7  1  0.45733700  0.32869200  0.46013000  1
  P  P8  1  0.03810200  0.96189800  0.50000000  1
  P  P9  1  0.96100300  0.03899700  0.00000000  1
  O  O10  1  0.05034700  0.76648300  0.46621000  1
  O  O11  1  0.52262000  0.84110600  0.87805600  1
  O  O12  1  0.15889400  0.47738000  0.12194400  1
  O  O13  1  0.61691900  0.28374400  0.31584600  1
  O  O14  1  0.28207500  0.61778100  0.82007200  1
  O  O15  1  0.84186300  0.53730500  0.38473900  1
  O  O16  1  0.13362000  0.00700100  0.85146100  1
  O  O17  1  0.02230600  0.12424000  0.35030800  1
  O  O18  1  0.60771200  0.74357800  0.56856500  1
  O  O19  1  0.38221900  0.71792500  0.17992800  1
  O  O20  1  0.71625600  0.38308100  0.68415400  1
  O  O21  1  0.25642200  0.39228800  0.43143500  1
  O  O22  1  0.23351700  0.94965300  0.53379000  1
  O  O23  1  0.96008800  0.22768000  0.02752000  1
  O  O24  1  0.77232000  0.03991200  0.97248000  1
  O  O25  1  0.49241800  0.50758200  0.50000000  1
  O  O26  1  0.74321700  0.62165600  0.05566500  1
  O  O27  1  0.99299900  0.86638000  0.14853900  1
  O  O28  1  0.46269500  0.15813600  0.61526100  1
  O  O29  1  0.37834400  0.25678300  0.94433500  1
  O  O30  1  0.87576000  0.97769400  0.64969200  1
  O  O31  1  0.50988100  0.49011900  0.00000000  1
