# generated using pymatgen
data_AuCl
_symmetry_space_group_name_H-M   'P 1'
_cell_length_a   6.72464296
_cell_length_b   6.72464296
_cell_length_c   6.72464296
_cell_angle_alpha   114.88467506
_cell_angle_beta   114.88467506
_cell_angle_gamma   99.11482896
_symmetry_Int_Tables_number   1
_chemical_formula_structural   AuCl
_chemical_formula_sum   'Au4 Cl4'
_cell_volume   228.51025656
_cell_formula_units_Z   4
loop_
 _symmetry_equiv_pos_site_id
 _symmetry_equiv_pos_as_xyz
  1  'x, y, z'
loop_
 _atom_site_type_symbol
 _atom_site_label
 _atom_site_symmetry_multiplicity
 _atom_site_fract_x
 _atom_site_fract_y
 _atom_site_fract_z
 _atom_site_occupancy
  Au  Au0  1  0.87500000  0.62500000  0.75000000  1
  Au  Au1  1  0.37500000  0.12500000  0.25000000  1
  Au  Au2  1  0.87500000  0.12500000  0.75000000  1
  Au  Au3  1  0.87500000  0.12500000  0.25000000  1
  Cl  Cl4  1  0.70685400  0.70685400  0.00000000  1
  Cl  Cl5  1  0.45685400  0.95685400  0.50000000  1
  Cl  Cl6  1  0.04314600  0.54314600  0.50000000  1
  Cl  Cl7  1  0.29314600  0.29314600  0.00000000  1
