# generated using pymatgen
data_Sr3Ga4O9
_symmetry_space_group_name_H-M   'P 1'
_cell_length_a   6.82466600
_cell_length_b   8.13615160
_cell_length_c   9.83518683
_cell_angle_alpha   84.92813581
_cell_angle_beta   72.54022922
_cell_angle_gamma   74.37768734
_symmetry_Int_Tables_number   1
_chemical_formula_structural   Sr3Ga4O9
_chemical_formula_sum   'Sr6 Ga8 O18'
_cell_volume   501.69067254
_cell_formula_units_Z   2
loop_
 _symmetry_equiv_pos_site_id
 _symmetry_equiv_pos_as_xyz
  1  'x, y, z'
loop_
 _atom_site_type_symbol
 _atom_site_label
 _atom_site_symmetry_multiplicity
 _atom_site_fract_x
 _atom_site_fract_y
 _atom_site_fract_z
 _atom_site_occupancy
  Sr  Sr0  1  0.81472700  0.43189500  0.32360600  1
  Sr  Sr1  1  0.18527300  0.56810500  0.67639400  1
  Sr  Sr2  1  0.68788400  0.78706300  0.04080900  1
  Sr  Sr3  1  0.31211600  0.21293700  0.95919100  1
  Sr  Sr4  1  0.05806200  0.05235500  0.68915600  1
  Sr  Sr5  1  0.94193800  0.94764500  0.31084400  1
  Ga  Ga6  1  0.25139800  0.74740100  0.94293000  1
  Ga  Ga7  1  0.74860200  0.25259900  0.05707000  1
  Ga  Ga8  1  0.66514800  0.44770800  0.76563900  1
  Ga  Ga9  1  0.33485200  0.55229200  0.23436100  1
  Ga  Ga10  1  0.39054000  0.17190200  0.30101700  1
  Ga  Ga11  1  0.60946000  0.82809800  0.69898300  1
  Ga  Ga12  1  0.56076500  0.19383300  0.58114500  1
  Ga  Ga13  1  0.43923500  0.80616700  0.41885500  1
  O  O14  1  0.59206100  0.19771400  0.38525600  1
  O  O15  1  0.40793900  0.80228600  0.61474400  1
  O  O16  1  0.78637500  0.25975900  0.86158900  1
  O  O17  1  0.21362500  0.74024100  0.13841100  1
  O  O18  1  0.56108600  0.10519700  0.11434200  1
  O  O19  1  0.43891400  0.89480300  0.88565800  1
  O  O20  1  0.70074700  0.36193800  0.58706600  1
  O  O21  1  0.29925300  0.63806200  0.41293400  1
  O  O22  1  0.24181400  0.01621600  0.39805900  1
  O  O23  1  0.75818600  0.98378400  0.60194100  1
  O  O24  1  0.70870900  0.75773300  0.29767700  1
  O  O25  1  0.29129100  0.24226700  0.70232300  1
  O  O26  1  0.98064500  0.18455300  0.12407800  1
  O  O27  1  0.01935500  0.81544700  0.87592200  1
  O  O28  1  0.37659700  0.52004900  0.86984300  1
  O  O29  1  0.62340300  0.47995100  0.13015700  1
  O  O30  1  0.79609600  0.62515100  0.73329500  1
  O  O31  1  0.20390400  0.37484900  0.26670500  1
