# generated using pymatgen
data_Dy11Sn10
_symmetry_space_group_name_H-M   'P 1'
_cell_length_a   11.86928779
_cell_length_b   11.86928779
_cell_length_c   11.86928779
_cell_angle_alpha   121.17282527
_cell_angle_beta   121.17282527
_cell_angle_gamma   87.98033391
_symmetry_Int_Tables_number   1
_chemical_formula_structural   Dy11Sn10
_chemical_formula_sum   'Dy22 Sn20'
_cell_volume   1160.64174536
_cell_formula_units_Z   2
loop_
 _symmetry_equiv_pos_site_id
 _symmetry_equiv_pos_as_xyz
  1  'x, y, z'
loop_
 _atom_site_type_symbol
 _atom_site_label
 _atom_site_symmetry_multiplicity
 _atom_site_fract_x
 _atom_site_fract_y
 _atom_site_fract_z
 _atom_site_occupancy
  Dy  Dy0  1  0.81143800  0.06345500  0.25201700  1
  Dy  Dy1  1  0.81143800  0.55942000  0.74798300  1
  Dy  Dy2  1  0.06345500  0.81143800  0.25201700  1
  Dy  Dy3  1  0.55942000  0.81143800  0.74798300  1
  Dy  Dy4  1  0.18856200  0.93654500  0.74798300  1
  Dy  Dy5  1  0.18856200  0.44058000  0.25201700  1
  Dy  Dy6  1  0.93654500  0.18856200  0.74798300  1
  Dy  Dy7  1  0.44058000  0.18856200  0.25201700  1
  Dy  Dy8  1  0.17451100  0.17451100  0.34902200  1
  Dy  Dy9  1  0.82548900  0.82548900  0.65097800  1
  Dy  Dy10  1  0.17451100  0.82548900  0.00000000  1
  Dy  Dy11  1  0.82548900  0.17451100  0.00000000  1
  Dy  Dy12  1  0.66416100  0.66416100  0.00000000  1
  Dy  Dy13  1  0.33583900  0.33583900  0.00000000  1
  Dy  Dy14  1  0.60206000  0.93171400  0.32965300  1
  Dy  Dy15  1  0.60206000  0.27240700  0.67034700  1
  Dy  Dy16  1  0.93171400  0.60206000  0.32965300  1
  Dy  Dy17  1  0.27240700  0.60206000  0.67034700  1
  Dy  Dy18  1  0.39794000  0.06828600  0.67034700  1
  Dy  Dy19  1  0.39794000  0.72759300  0.32965300  1
  Dy  Dy20  1  0.06828600  0.39794000  0.67034700  1
  Dy  Dy21  1  0.72759300  0.39794000  0.32965300  1
  Sn  Sn22  1  0.35597400  0.00000000  0.35597400  1
  Sn  Sn23  1  0.64402600  0.00000000  0.64402600  1
  Sn  Sn24  1  0.00000000  0.64402600  0.64402600  1
  Sn  Sn25  1  0.00000000  0.35597400  0.35597400  1
  Sn  Sn26  1  0.88810800  0.88810800  0.00000000  1
  Sn  Sn27  1  0.11189200  0.11189200  0.00000000  1
  Sn  Sn28  1  0.37047100  0.37047100  0.74094200  1
  Sn  Sn29  1  0.62952900  0.62952900  0.25905800  1
  Sn  Sn30  1  0.37047100  0.62952900  0.00000000  1
  Sn  Sn31  1  0.62952900  0.37047100  0.00000000  1
  Sn  Sn32  1  0.75000000  0.25000000  0.50000000  1
  Sn  Sn33  1  0.25000000  0.75000000  0.50000000  1
  Sn  Sn34  1  0.88217700  0.88217700  0.41273700  1
  Sn  Sn35  1  0.46944100  0.46944100  0.58726300  1
  Sn  Sn36  1  0.88217700  0.46944100  0.00000000  1
  Sn  Sn37  1  0.46944100  0.88217700  0.00000000  1
  Sn  Sn38  1  0.11782300  0.11782300  0.58726300  1
  Sn  Sn39  1  0.53055900  0.53055900  0.41273700  1
  Sn  Sn40  1  0.11782300  0.53055900  0.00000000  1
  Sn  Sn41  1  0.53055900  0.11782300  0.00000000  1
