# generated using pymatgen
data_Rb6Te2O9
_symmetry_space_group_name_H-M   'P 1'
_cell_length_a   8.91209116
_cell_length_b   8.91209116
_cell_length_c   11.22966094
_cell_angle_alpha   67.93168388
_cell_angle_beta   67.93168388
_cell_angle_gamma   92.94646855
_symmetry_Int_Tables_number   1
_chemical_formula_structural   Rb6Te2O9
_chemical_formula_sum   'Rb12 Te4 O18'
_cell_volume   746.51460324
_cell_formula_units_Z   2
loop_
 _symmetry_equiv_pos_site_id
 _symmetry_equiv_pos_as_xyz
  1  'x, y, z'
loop_
 _atom_site_type_symbol
 _atom_site_label
 _atom_site_symmetry_multiplicity
 _atom_site_fract_x
 _atom_site_fract_y
 _atom_site_fract_z
 _atom_site_occupancy
  Rb  Rb0  1  0.49910800  0.69677100  0.02297500  1
  Rb  Rb1  1  0.30322900  0.50089200  0.47702500  1
  Rb  Rb2  1  0.50089200  0.30322900  0.97702500  1
  Rb  Rb3  1  0.69677100  0.49910800  0.52297500  1
  Rb  Rb4  1  0.99958000  0.70573200  0.02772600  1
  Rb  Rb5  1  0.29426800  0.00042000  0.47227400  1
  Rb  Rb6  1  0.00042000  0.29426800  0.97227400  1
  Rb  Rb7  1  0.70573200  0.99958000  0.52772600  1
  Rb  Rb8  1  0.09917600  0.32419500  0.26109500  1
  Rb  Rb9  1  0.67580500  0.90082400  0.23890500  1
  Rb  Rb10  1  0.90082400  0.67580500  0.73890500  1
  Rb  Rb11  1  0.32419500  0.09917600  0.76109500  1
  Te  Te12  1  0.37420900  0.62579100  0.75000000  1
  Te  Te13  1  0.62579100  0.37420900  0.25000000  1
  Te  Te14  1  0.14591500  0.85408500  0.25000000  1
  Te  Te15  1  0.85408500  0.14591500  0.75000000  1
  O  O16  1  0.09308100  0.63354500  0.28481100  1
  O  O17  1  0.36645500  0.90691900  0.21518900  1
  O  O18  1  0.90691900  0.36645500  0.71518900  1
  O  O19  1  0.63354500  0.09308100  0.78481100  1
  O  O20  1  0.88545700  0.01340800  0.90703400  1
  O  O21  1  0.98659200  0.11454300  0.59296600  1
  O  O22  1  0.11454300  0.98659200  0.09296600  1
  O  O23  1  0.01340800  0.88545700  0.40703400  1
  O  O24  1  0.66879600  0.58292600  0.25579900  1
  O  O25  1  0.41707400  0.33120400  0.24420100  1
  O  O26  1  0.33120400  0.41707400  0.74420100  1
  O  O27  1  0.58292600  0.66879600  0.75579900  1
  O  O28  1  0.52041100  0.26350900  0.45773500  1
  O  O29  1  0.73649100  0.47958900  0.04226500  1
  O  O30  1  0.47958900  0.73649100  0.54226500  1
  O  O31  1  0.26350900  0.52041100  0.95773500  1
  O  O32  1  0.22572000  0.77428000  0.75000000  1
  O  O33  1  0.77428000  0.22572000  0.25000000  1
