# generated using pymatgen
data_Ca5Au3
_symmetry_space_group_name_H-M   'P 1'
_cell_length_a   9.20085675
_cell_length_b   9.20085675
_cell_length_c   9.20085675
_cell_angle_alpha   129.27202339
_cell_angle_beta   129.27202339
_cell_angle_gamma   74.57326868
_symmetry_Int_Tables_number   1
_chemical_formula_structural   Ca5Au3
_chemical_formula_sum   'Ca10 Au6'
_cell_volume   454.86262103
_cell_formula_units_Z   2
loop_
 _symmetry_equiv_pos_site_id
 _symmetry_equiv_pos_as_xyz
  1  'x, y, z'
loop_
 _atom_site_type_symbol
 _atom_site_label
 _atom_site_symmetry_multiplicity
 _atom_site_fract_x
 _atom_site_fract_y
 _atom_site_fract_z
 _atom_site_occupancy
  Ca  Ca0  1  0.47477400  0.97477400  0.16146700  1
  Ca  Ca1  1  0.18669300  0.68669300  0.16146700  1
  Ca  Ca2  1  0.52522600  0.02522600  0.83853300  1
  Ca  Ca3  1  0.02522600  0.18669300  0.50000000  1
  Ca  Ca4  1  0.68669300  0.52522600  0.50000000  1
  Ca  Ca5  1  0.97477400  0.81330700  0.50000000  1
  Ca  Ca6  1  0.00000000  0.00000000  0.00000000  1
  Ca  Ca7  1  0.50000000  0.50000000  0.00000000  1
  Ca  Ca8  1  0.81330700  0.31330700  0.83853300  1
  Ca  Ca9  1  0.31330700  0.47477400  0.50000000  1
  Au  Au10  1  0.13017600  0.63017600  0.76035100  1
  Au  Au11  1  0.63017600  0.86982400  0.50000000  1
  Au  Au12  1  0.36982400  0.13017600  0.50000000  1
  Au  Au13  1  0.86982400  0.36982400  0.23964900  1
  Au  Au14  1  0.75000000  0.75000000  0.00000000  1
  Au  Au15  1  0.25000000  0.25000000  0.00000000  1
