# generated using pymatgen
data_Ba8Ga7
_symmetry_space_group_name_H-M   'P 1'
_cell_length_a   13.08646500
_cell_length_b   13.08646500
_cell_length_c   13.08646500
_cell_angle_alpha   90.00000000
_cell_angle_beta   90.00000000
_cell_angle_gamma   90.00000000
_symmetry_Int_Tables_number   1
_chemical_formula_structural   Ba8Ga7
_chemical_formula_sum   'Ba32 Ga28'
_cell_volume   2241.12997308
_cell_formula_units_Z   4
loop_
 _symmetry_equiv_pos_site_id
 _symmetry_equiv_pos_as_xyz
  1  'x, y, z'
loop_
 _atom_site_type_symbol
 _atom_site_label
 _atom_site_symmetry_multiplicity
 _atom_site_fract_x
 _atom_site_fract_y
 _atom_site_fract_z
 _atom_site_occupancy
  Ba  Ba0  1  0.81322600  0.81322600  0.81322600  1
  Ba  Ba1  1  0.68677400  0.18677400  0.31322600  1
  Ba  Ba2  1  0.31322600  0.68677400  0.18677400  1
  Ba  Ba3  1  0.18677400  0.31322600  0.68677400  1
  Ba  Ba4  1  0.18761500  0.18761500  0.18761500  1
  Ba  Ba5  1  0.31238500  0.81238500  0.68761500  1
  Ba  Ba6  1  0.68761500  0.31238500  0.81238500  1
  Ba  Ba7  1  0.81238500  0.68761500  0.31238500  1
  Ba  Ba8  1  0.79798000  0.55723700  0.00102200  1
  Ba  Ba9  1  0.00102200  0.79798000  0.55723700  1
  Ba  Ba10  1  0.55723700  0.00102200  0.79798000  1
  Ba  Ba11  1  0.94276300  0.99897800  0.29798000  1
  Ba  Ba12  1  0.50102200  0.70202000  0.44276300  1
  Ba  Ba13  1  0.44276300  0.50102200  0.70202000  1
  Ba  Ba14  1  0.49897800  0.20202000  0.05723700  1
  Ba  Ba15  1  0.99897800  0.29798000  0.94276300  1
  Ba  Ba16  1  0.05723700  0.49897800  0.20202000  1
  Ba  Ba17  1  0.29798000  0.94276300  0.99897800  1
  Ba  Ba18  1  0.20202000  0.05723700  0.49897800  1
  Ba  Ba19  1  0.70202000  0.44276300  0.50102200  1
  Ba  Ba20  1  0.51961500  0.70307700  0.93848600  1
  Ba  Ba21  1  0.93848600  0.51961500  0.70307700  1
  Ba  Ba22  1  0.70307700  0.93848600  0.51961500  1
  Ba  Ba23  1  0.79692300  0.06151400  0.01961500  1
  Ba  Ba24  1  0.43848600  0.98038500  0.29692300  1
  Ba  Ba25  1  0.29692300  0.43848600  0.98038500  1
  Ba  Ba26  1  0.56151400  0.48038500  0.20307700  1
  Ba  Ba27  1  0.06151400  0.01961500  0.79692300  1
  Ba  Ba28  1  0.20307700  0.56151400  0.48038500  1
  Ba  Ba29  1  0.01961500  0.79692300  0.06151400  1
  Ba  Ba30  1  0.48038500  0.20307700  0.56151400  1
  Ba  Ba31  1  0.98038500  0.29692300  0.43848600  1
  Ga  Ga32  1  0.43202400  0.43202400  0.43202400  1
  Ga  Ga33  1  0.06797600  0.56797600  0.93202400  1
  Ga  Ga34  1  0.93202400  0.06797600  0.56797600  1
  Ga  Ga35  1  0.56797600  0.93202400  0.06797600  1
  Ga  Ga36  1  0.76009400  0.19371000  0.57559900  1
  Ga  Ga37  1  0.57559900  0.76009400  0.19371000  1
  Ga  Ga38  1  0.19371000  0.57559900  0.76009400  1
  Ga  Ga39  1  0.30629000  0.42440100  0.26009400  1
  Ga  Ga40  1  0.07559900  0.73990600  0.80629000  1
  Ga  Ga41  1  0.80629000  0.07559900  0.73990600  1
  Ga  Ga42  1  0.92440100  0.23990600  0.69371000  1
  Ga  Ga43  1  0.42440100  0.26009400  0.30629000  1
  Ga  Ga44  1  0.69371000  0.92440100  0.23990600  1
  Ga  Ga45  1  0.26009400  0.30629000  0.42440100  1
  Ga  Ga46  1  0.23990600  0.69371000  0.92440100  1
  Ga  Ga47  1  0.73990600  0.80629000  0.07559900  1
  Ga  Ga48  1  0.74657300  0.68740600  0.58230700  1
  Ga  Ga49  1  0.58230700  0.74657300  0.68740600  1
  Ga  Ga50  1  0.68740600  0.58230700  0.74657300  1
  Ga  Ga51  1  0.81259400  0.41769300  0.24657300  1
  Ga  Ga52  1  0.08230700  0.75342700  0.31259400  1
  Ga  Ga53  1  0.31259400  0.08230700  0.75342700  1
  Ga  Ga54  1  0.91769300  0.25342700  0.18740600  1
  Ga  Ga55  1  0.41769300  0.24657300  0.81259400  1
  Ga  Ga56  1  0.18740600  0.91769300  0.25342700  1
  Ga  Ga57  1  0.24657300  0.81259400  0.41769300  1
  Ga  Ga58  1  0.25342700  0.18740600  0.91769300  1
  Ga  Ga59  1  0.75342700  0.31259400  0.08230700  1
