# generated using pymatgen
data_CuSe2O5
_symmetry_space_group_name_H-M   'P 1'
_cell_length_a   6.77359710
_cell_length_b   6.77359710
_cell_length_c   8.04702327
_cell_angle_alpha   71.39203984
_cell_angle_beta   71.39203984
_cell_angle_gamma   46.08565244
_symmetry_Int_Tables_number   1
_chemical_formula_structural   CuSe2O5
_chemical_formula_sum   'Cu2 Se4 O10'
_cell_volume   249.46862721
_cell_formula_units_Z   2
loop_
 _symmetry_equiv_pos_site_id
 _symmetry_equiv_pos_as_xyz
  1  'x, y, z'
loop_
 _atom_site_type_symbol
 _atom_site_label
 _atom_site_symmetry_multiplicity
 _atom_site_fract_x
 _atom_site_fract_y
 _atom_site_fract_z
 _atom_site_occupancy
  Cu  Cu0  1  0.50000000  0.50000000  0.00000000  1
  Cu  Cu1  1  0.50000000  0.50000000  0.50000000  1
  Se  Se2  1  0.22850900  0.04601600  0.67645600  1
  Se  Se3  1  0.95398400  0.77149100  0.82354400  1
  Se  Se4  1  0.77149100  0.95398400  0.32354400  1
  Se  Se5  1  0.04601600  0.22850900  0.17645600  1
  O  O6  1  0.39930900  0.84571100  0.51232700  1
  O  O7  1  0.15428900  0.60069100  0.98767300  1
  O  O8  1  0.60069100  0.15428900  0.48767300  1
  O  O9  1  0.84571100  0.39930900  0.01232700  1
  O  O10  1  0.40689100  0.83918600  0.85124200  1
  O  O11  1  0.16081400  0.59310900  0.64875800  1
  O  O12  1  0.08557200  0.91442800  0.25000000  1
  O  O13  1  0.91442800  0.08557200  0.75000000  1
  O  O14  1  0.83918600  0.40689100  0.35124200  1
  O  O15  1  0.59310900  0.16081400  0.14875800  1
