# generated using pymatgen
data_Sr2Pb
_symmetry_space_group_name_H-M   'P 1'
_cell_length_a   5.49078300
_cell_length_b   8.49613900
_cell_length_c   10.26853900
_cell_angle_alpha   90.00000000
_cell_angle_beta   90.00000000
_cell_angle_gamma   90.00000000
_symmetry_Int_Tables_number   1
_chemical_formula_structural   Sr2Pb
_chemical_formula_sum   'Sr8 Pb4'
_cell_volume   479.03202256
_cell_formula_units_Z   4
loop_
 _symmetry_equiv_pos_site_id
 _symmetry_equiv_pos_as_xyz
  1  'x, y, z'
loop_
 _atom_site_type_symbol
 _atom_site_label
 _atom_site_symmetry_multiplicity
 _atom_site_fract_x
 _atom_site_fract_y
 _atom_site_fract_z
 _atom_site_occupancy
  Sr  Sr0  1  0.25000000  0.98068300  0.31826000  1
  Sr  Sr1  1  0.75000000  0.01931700  0.68174000  1
  Sr  Sr2  1  0.25000000  0.48068300  0.18174000  1
  Sr  Sr3  1  0.75000000  0.51931700  0.81826000  1
  Sr  Sr4  1  0.75000000  0.65703100  0.42575300  1
  Sr  Sr5  1  0.25000000  0.34296900  0.57424700  1
  Sr  Sr6  1  0.75000000  0.15703100  0.07424700  1
  Sr  Sr7  1  0.25000000  0.84296900  0.92575300  1
  Pb  Pb8  1  0.25000000  0.25076000  0.89471800  1
  Pb  Pb9  1  0.75000000  0.74924000  0.10528200  1
  Pb  Pb10  1  0.25000000  0.75076000  0.60528200  1
  Pb  Pb11  1  0.75000000  0.24924000  0.39471800  1
