# generated using pymatgen
data_K3BiO4
_symmetry_space_group_name_H-M   'P 1'
_cell_length_a   6.55661300
_cell_length_b   6.72305548
_cell_length_c   7.83290690
_cell_angle_alpha   101.40821363
_cell_angle_beta   97.13223675
_cell_angle_gamma   105.83945072
_symmetry_Int_Tables_number   1
_chemical_formula_structural   K3BiO4
_chemical_formula_sum   'K6 Bi2 O8'
_cell_volume   319.74265507
_cell_formula_units_Z   2
loop_
 _symmetry_equiv_pos_site_id
 _symmetry_equiv_pos_as_xyz
  1  'x, y, z'
loop_
 _atom_site_type_symbol
 _atom_site_label
 _atom_site_symmetry_multiplicity
 _atom_site_fract_x
 _atom_site_fract_y
 _atom_site_fract_z
 _atom_site_occupancy
  K  K0  1  0.66855900  0.77790400  0.97752400  1
  K  K1  1  0.83726000  0.23404700  0.83098300  1
  K  K2  1  0.64824400  0.77426200  0.46587600  1
  K  K3  1  0.35175600  0.22573800  0.53412400  1
  K  K4  1  0.33144100  0.22209600  0.02247600  1
  K  K5  1  0.16274000  0.76595300  0.16901700  1
  Bi  Bi6  1  0.84657400  0.30144300  0.31438100  1
  Bi  Bi7  1  0.15342600  0.69855700  0.68561900  1
  O  O8  1  0.98079300  0.90011300  0.76996600  1
  O  O9  1  0.01920700  0.09988700  0.23003400  1
  O  O10  1  0.23606000  0.52572700  0.85794800  1
  O  O11  1  0.76394000  0.47427300  0.14205200  1
  O  O12  1  0.44592200  0.93920100  0.72695100  1
  O  O13  1  0.55407800  0.06079900  0.27304900  1
  O  O14  1  0.18284100  0.55265500  0.42537900  1
  O  O15  1  0.81715900  0.44734500  0.57462100  1
