# generated using pymatgen
data_Ni3Te2
_symmetry_space_group_name_H-M   'P 1'
_cell_length_a   3.80376900
_cell_length_b   6.10262100
_cell_length_c   7.53718846
_cell_angle_alpha   88.40495563
_cell_angle_beta   90.00000000
_cell_angle_gamma   90.00000000
_symmetry_Int_Tables_number   1
_chemical_formula_structural   Ni3Te2
_chemical_formula_sum   'Ni6 Te4'
_cell_volume   174.89266607
_cell_formula_units_Z   2
loop_
 _symmetry_equiv_pos_site_id
 _symmetry_equiv_pos_as_xyz
  1  'x, y, z'
loop_
 _atom_site_type_symbol
 _atom_site_label
 _atom_site_symmetry_multiplicity
 _atom_site_fract_x
 _atom_site_fract_y
 _atom_site_fract_z
 _atom_site_occupancy
  Ni  Ni0  1  0.25000000  0.70969800  0.63520600  1
  Ni  Ni1  1  0.75000000  0.29030200  0.36479400  1
  Ni  Ni2  1  0.25000000  0.99227000  0.37111400  1
  Ni  Ni3  1  0.75000000  0.00773000  0.62888600  1
  Ni  Ni4  1  0.25000000  0.00617600  0.87688800  1
  Ni  Ni5  1  0.75000000  0.99382400  0.12311200  1
  Te  Te6  1  0.25000000  0.28059400  0.11905200  1
  Te  Te7  1  0.75000000  0.71940600  0.88094800  1
  Te  Te8  1  0.25000000  0.28736100  0.61765300  1
  Te  Te9  1  0.75000000  0.71263900  0.38234700  1
