# generated using pymatgen
data_Nd2TeO6
_symmetry_space_group_name_H-M   'P 1'
_cell_length_a   5.48401100
_cell_length_b   9.41829000
_cell_length_c   10.31116700
_cell_angle_alpha   90.00000000
_cell_angle_beta   90.00000000
_cell_angle_gamma   90.00000000
_symmetry_Int_Tables_number   1
_chemical_formula_structural   Nd2TeO6
_chemical_formula_sum   'Nd8 Te4 O24'
_cell_volume   532.57183702
_cell_formula_units_Z   4
loop_
 _symmetry_equiv_pos_site_id
 _symmetry_equiv_pos_as_xyz
  1  'x, y, z'
loop_
 _atom_site_type_symbol
 _atom_site_label
 _atom_site_symmetry_multiplicity
 _atom_site_fract_x
 _atom_site_fract_y
 _atom_site_fract_z
 _atom_site_occupancy
  Nd  Nd0  1  0.02477400  0.10397000  0.45867800  1
  Nd  Nd1  1  0.52477400  0.39603000  0.54132200  1
  Nd  Nd2  1  0.97522600  0.60397000  0.04132200  1
  Nd  Nd3  1  0.47522600  0.89603000  0.95867800  1
  Nd  Nd4  1  0.03374200  0.21706400  0.86242200  1
  Nd  Nd5  1  0.53374200  0.28293600  0.13757800  1
  Nd  Nd6  1  0.96625800  0.71706400  0.63757800  1
  Nd  Nd7  1  0.46625800  0.78293600  0.36242200  1
  Te  Te8  1  0.54128000  0.00479600  0.64340000  1
  Te  Te9  1  0.04128000  0.49520400  0.35660000  1
  Te  Te10  1  0.45872000  0.50479600  0.85660000  1
  Te  Te11  1  0.95872000  0.99520400  0.14340000  1
  O  O12  1  0.25256100  0.41427000  0.99179100  1
  O  O13  1  0.75256100  0.08573000  0.00820900  1
  O  O14  1  0.74743900  0.91427000  0.50820900  1
  O  O15  1  0.24743900  0.58573000  0.49179100  1
  O  O16  1  0.22174000  0.11205600  0.06485700  1
  O  O17  1  0.72174000  0.38794400  0.93514300  1
  O  O18  1  0.77826000  0.61205600  0.43514300  1
  O  O19  1  0.27826000  0.88794400  0.56485700  1
  O  O20  1  0.30828100  0.36077900  0.32420500  1
  O  O21  1  0.80828100  0.13922100  0.67579500  1
  O  O22  1  0.69171900  0.86077900  0.17579500  1
  O  O23  1  0.19171900  0.63922100  0.82420500  1
  O  O24  1  0.16712000  0.94720400  0.28757000  1
  O  O25  1  0.66712000  0.55279600  0.71243000  1
  O  O26  1  0.83288000  0.44720400  0.21243000  1
  O  O27  1  0.33288000  0.05279600  0.78757000  1
  O  O28  1  0.18101600  0.63650900  0.24291800  1
  O  O29  1  0.68101600  0.86349100  0.75708200  1
  O  O30  1  0.81898400  0.13650900  0.25708200  1
  O  O31  1  0.31898400  0.36349100  0.74291800  1
  O  O32  1  0.07351100  0.84971500  0.02361300  1
  O  O33  1  0.57351100  0.65028500  0.97638700  1
  O  O34  1  0.92648900  0.34971500  0.47638700  1
  O  O35  1  0.42648900  0.15028500  0.52361300  1
