# generated using pymatgen
data_CeSi2Pt
_symmetry_space_group_name_H-M   'P 1'
_cell_length_a   8.59967238
_cell_length_b   8.59967238
_cell_length_c   4.24702100
_cell_angle_alpha   90.00000000
_cell_angle_beta   90.00000000
_cell_angle_gamma   151.25503350
_symmetry_Int_Tables_number   1
_chemical_formula_structural   CeSi2Pt
_chemical_formula_sum   'Ce2 Si4 Pt2'
_cell_volume   151.04752210
_cell_formula_units_Z   2
loop_
 _symmetry_equiv_pos_site_id
 _symmetry_equiv_pos_as_xyz
  1  'x, y, z'
loop_
 _atom_site_type_symbol
 _atom_site_label
 _atom_site_symmetry_multiplicity
 _atom_site_fract_x
 _atom_site_fract_y
 _atom_site_fract_z
 _atom_site_occupancy
  Ce  Ce0  1  0.39641700  0.60358300  0.25000000  1
  Ce  Ce1  1  0.60358300  0.39641700  0.75000000  1
  Si  Si2  1  0.03447300  0.96552700  0.25000000  1
  Si  Si3  1  0.96552700  0.03447300  0.75000000  1
  Si  Si4  1  0.25074200  0.74925800  0.75000000  1
  Si  Si5  1  0.74925800  0.25074200  0.25000000  1
  Pt  Pt6  1  0.82102000  0.17898000  0.75000000  1
  Pt  Pt7  1  0.17898000  0.82102000  0.25000000  1
