# generated using pymatgen
data_MgP4
_symmetry_space_group_name_H-M   'P 1'
_cell_length_a   5.11868200
_cell_length_b   5.19037900
_cell_length_c   7.59668713
_cell_angle_alpha   81.43381497
_cell_angle_beta   90.00000000
_cell_angle_gamma   90.00000000
_symmetry_Int_Tables_number   1
_chemical_formula_structural   MgP4
_chemical_formula_sum   'Mg2 P8'
_cell_volume   199.57652056
_cell_formula_units_Z   2
loop_
 _symmetry_equiv_pos_site_id
 _symmetry_equiv_pos_as_xyz
  1  'x, y, z'
loop_
 _atom_site_type_symbol
 _atom_site_label
 _atom_site_symmetry_multiplicity
 _atom_site_fract_x
 _atom_site_fract_y
 _atom_site_fract_z
 _atom_site_occupancy
  Mg  Mg0  1  0.00000000  0.00000000  0.00000000  1
  Mg  Mg1  1  0.50000000  0.00000000  0.50000000  1
  P  P2  1  0.29219700  0.25297500  0.74619500  1
  P  P3  1  0.79219700  0.74702500  0.75380500  1
  P  P4  1  0.70780300  0.74702500  0.25380500  1
  P  P5  1  0.20780300  0.25297500  0.24619500  1
  P  P6  1  0.89131900  0.39677100  0.40049500  1
  P  P7  1  0.39131900  0.60322900  0.09950500  1
  P  P8  1  0.10868100  0.60322900  0.59950500  1
  P  P9  1  0.60868100  0.39677100  0.90049500  1
