# generated using pymatgen
data_Ga2NiO4
_symmetry_space_group_name_H-M   'P 1'
_cell_length_a   5.86275732
_cell_length_b   5.97702936
_cell_length_c   8.33097924
_cell_angle_alpha   90.00026607
_cell_angle_beta   90.00002923
_cell_angle_gamma   90.00000214
_symmetry_Int_Tables_number   1
_chemical_formula_structural   Ga2NiO4
_chemical_formula_sum   'Ga8 Ni4 O16'
_cell_volume   291.93311344
_cell_formula_units_Z   4
loop_
 _symmetry_equiv_pos_site_id
 _symmetry_equiv_pos_as_xyz
  1  'x, y, z'
loop_
 _atom_site_type_symbol
 _atom_site_label
 _atom_site_symmetry_multiplicity
 _atom_site_fract_x
 _atom_site_fract_y
 _atom_site_fract_z
 _atom_site_occupancy
  Ga  Ga0  1  0.00000000  0.00000000  0.99228100  1
  Ga  Ga1  1  0.50000000  0.50000000  0.49228100  1
  Ga  Ga2  1  0.00000000  0.50000000  0.25771900  1
  Ga  Ga3  1  0.50000000  0.00000000  0.75771900  1
  Ga  Ga4  1  0.00000000  0.75000200  0.62500000  1
  Ga  Ga5  1  0.50000000  0.24999800  0.12500000  1
  Ga  Ga6  1  0.00000000  0.24999800  0.62500000  1
  Ga  Ga7  1  0.50000000  0.75000200  0.12500000  1
  Ni  Ni8  1  0.75000000  0.50000000  0.87500000  1
  Ni  Ni9  1  0.25000000  0.50000000  0.87500000  1
  Ni  Ni10  1  0.25000000  0.00000000  0.37500000  1
  Ni  Ni11  1  0.75000000  0.00000000  0.37500000  1
  O  O12  1  0.00000000  0.75789100  0.38692600  1
  O  O13  1  0.50000000  0.25789500  0.88692500  1
  O  O14  1  0.00000000  0.24210900  0.38692600  1
  O  O15  1  0.50000000  0.74210500  0.88692400  1
  O  O16  1  0.00000000  0.25789500  0.86307600  1
  O  O17  1  0.50000000  0.75789100  0.36307400  1
  O  O18  1  0.00000000  0.74210600  0.86307600  1
  O  O19  1  0.50000000  0.24210900  0.36307400  1
  O  O20  1  0.23511700  0.00000000  0.62379900  1
  O  O21  1  0.73511400  0.50000000  0.12379700  1
  O  O22  1  0.76488400  0.00000000  0.62379900  1
  O  O23  1  0.26488600  0.50000000  0.12379600  1
  O  O24  1  0.23511400  0.50000000  0.62620400  1
  O  O25  1  0.73511600  0.00000000  0.12620100  1
  O  O26  1  0.76488600  0.50000000  0.62620300  1
  O  O27  1  0.26488300  0.00000000  0.12620100  1
