# generated using pymatgen
data_MoRh3
_symmetry_space_group_name_H-M   'P 1'
_cell_length_a   5.52119737
_cell_length_b   5.52119737
_cell_length_c   4.38646700
_cell_angle_alpha   90.00000000
_cell_angle_beta   90.00000000
_cell_angle_gamma   119.99999245
_symmetry_Int_Tables_number   1
_chemical_formula_structural   MoRh3
_chemical_formula_sum   'Mo2 Rh6'
_cell_volume   115.80093769
_cell_formula_units_Z   2
loop_
 _symmetry_equiv_pos_site_id
 _symmetry_equiv_pos_as_xyz
  1  'x, y, z'
loop_
 _atom_site_type_symbol
 _atom_site_label
 _atom_site_symmetry_multiplicity
 _atom_site_fract_x
 _atom_site_fract_y
 _atom_site_fract_z
 _atom_site_occupancy
  Mo  Mo0  1  0.33333300  0.66666700  0.25000000  1
  Mo  Mo1  1  0.66666700  0.33333300  0.75000000  1
  Rh  Rh2  1  0.83287300  0.66574600  0.25000000  1
  Rh  Rh3  1  0.16712700  0.83287300  0.75000000  1
  Rh  Rh4  1  0.66574600  0.83287300  0.75000000  1
  Rh  Rh5  1  0.33425400  0.16712700  0.25000000  1
  Rh  Rh6  1  0.83287300  0.16712700  0.25000000  1
  Rh  Rh7  1  0.16712700  0.33425400  0.75000000  1
