# generated using pymatgen
data_Ga2PdI8
_symmetry_space_group_name_H-M   'P 1'
_cell_length_a   8.62953771
_cell_length_b   8.62953771
_cell_length_c   8.09923066
_cell_angle_alpha   82.65723993
_cell_angle_beta   82.65723993
_cell_angle_gamma   65.77807477
_symmetry_Int_Tables_number   1
_chemical_formula_structural   Ga2PdI8
_chemical_formula_sum   'Ga2 Pd1 I8'
_cell_volume   543.63432367
_cell_formula_units_Z   1
loop_
 _symmetry_equiv_pos_site_id
 _symmetry_equiv_pos_as_xyz
  1  'x, y, z'
loop_
 _atom_site_type_symbol
 _atom_site_label
 _atom_site_symmetry_multiplicity
 _atom_site_fract_x
 _atom_site_fract_y
 _atom_site_fract_z
 _atom_site_occupancy
  Ga  Ga0  1  0.79015500  0.79015500  0.33873000  1
  Ga  Ga1  1  0.20984500  0.20984500  0.66127000  1
  Pd  Pd2  1  0.00000000  0.00000000  0.00000000  1
  I  I3  1  0.31177500  0.91340400  0.85151400  1
  I  I4  1  0.08659600  0.68822500  0.14848600  1
  I  I5  1  0.82805700  0.82805700  0.63395100  1
  I  I6  1  0.17194300  0.17194300  0.36604900  1
  I  I7  1  0.91340400  0.31177500  0.85151400  1
  I  I8  1  0.68822500  0.08659600  0.14848600  1
  I  I9  1  0.61929400  0.61929400  0.31125900  1
  I  I10  1  0.38070600  0.38070600  0.68874100  1
