# generated using pymatgen
data_As2Pb8O13
_symmetry_space_group_name_H-M   'P 1'
_cell_length_a   7.70319265
_cell_length_b   7.70319265
_cell_length_c   14.97911673
_cell_angle_alpha   84.36470731
_cell_angle_beta   84.36470731
_cell_angle_gamma   87.84881779
_symmetry_Int_Tables_number   1
_chemical_formula_structural   As2Pb8O13
_chemical_formula_sum   'As4 Pb16 O26'
_cell_volume   879.92856244
_cell_formula_units_Z   2
loop_
 _symmetry_equiv_pos_site_id
 _symmetry_equiv_pos_as_xyz
  1  'x, y, z'
loop_
 _atom_site_type_symbol
 _atom_site_label
 _atom_site_symmetry_multiplicity
 _atom_site_fract_x
 _atom_site_fract_y
 _atom_site_fract_z
 _atom_site_occupancy
  As  As0  1  0.15704500  0.15704500  0.90290800  1
  As  As1  1  0.25225600  0.74774400  0.50000000  1
  As  As2  1  0.74774400  0.25225600  0.50000000  1
  As  As3  1  0.84295500  0.84295500  0.09709200  1
  Pb  Pb4  1  0.26004400  0.26004400  0.48141500  1
  Pb  Pb5  1  0.56550800  0.56550800  0.28409800  1
  Pb  Pb6  1  0.83794200  0.33096800  0.09865600  1
  Pb  Pb7  1  0.66903200  0.16205800  0.90134400  1
  Pb  Pb8  1  0.73995600  0.73995600  0.51858500  1
  Pb  Pb9  1  0.07583100  0.07583100  0.29933200  1
  Pb  Pb10  1  0.07927600  0.54244100  0.29452800  1
  Pb  Pb11  1  0.16205800  0.66903200  0.90134400  1
  Pb  Pb12  1  0.43449200  0.43449200  0.71590200  1
  Pb  Pb13  1  0.45755900  0.92072400  0.70547200  1
  Pb  Pb14  1  0.32562200  0.32562200  0.11654100  1
  Pb  Pb15  1  0.67437800  0.67437800  0.88345900  1
  Pb  Pb16  1  0.54244100  0.07927600  0.29452800  1
  Pb  Pb17  1  0.92072400  0.45755900  0.70547200  1
  Pb  Pb18  1  0.92416900  0.92416900  0.70066800  1
  Pb  Pb19  1  0.33096800  0.83794200  0.09865600  1
  O  O20  1  0.77086000  0.03653800  0.14028800  1
  O  O21  1  0.94209100  0.26449200  0.43169300  1
  O  O22  1  0.85854100  0.85854100  0.98110800  1
  O  O23  1  0.33049200  0.04672900  0.19377900  1
  O  O24  1  0.31121500  0.31121500  0.86367700  1
  O  O25  1  0.73550800  0.05790900  0.56830700  1
  O  O26  1  0.96346200  0.22914000  0.85971200  1
  O  O27  1  0.73050400  0.42278200  0.56836400  1
  O  O28  1  0.72791900  0.72791900  0.66734300  1
  O  O29  1  0.60924400  0.32824000  0.20912000  1
  O  O30  1  0.39075600  0.67176000  0.79088000  1
  O  O31  1  0.67176000  0.39075600  0.79088000  1
  O  O32  1  0.95327100  0.66950800  0.80622100  1
  O  O33  1  0.66950800  0.95327100  0.80622100  1
  O  O34  1  0.42278200  0.73050400  0.56836400  1
  O  O35  1  0.68878500  0.68878500  0.13632300  1
  O  O36  1  0.14145900  0.14145900  0.01889200  1
  O  O37  1  0.04672900  0.33049200  0.19377900  1
  O  O38  1  0.27208100  0.27208100  0.33265700  1
  O  O39  1  0.03653800  0.77086000  0.14028800  1
  O  O40  1  0.22914000  0.96346200  0.85971200  1
  O  O41  1  0.32824000  0.60924400  0.20912000  1
  O  O42  1  0.26949600  0.57721800  0.43163600  1
  O  O43  1  0.05790900  0.73550800  0.56830700  1
  O  O44  1  0.57721800  0.26949600  0.43163600  1
  O  O45  1  0.26449200  0.94209100  0.43169300  1
