# generated using pymatgen
data_Zr3Fe
_symmetry_space_group_name_H-M   'P 1'
_cell_length_a   5.69914623
_cell_length_b   5.69914623
_cell_length_c   9.06765100
_cell_angle_alpha   90.00000000
_cell_angle_beta   90.00000000
_cell_angle_gamma   146.92596716
_symmetry_Int_Tables_number   1
_chemical_formula_structural   Zr3Fe
_chemical_formula_sum   'Zr6 Fe2'
_cell_volume   160.72596831
_cell_formula_units_Z   2
loop_
 _symmetry_equiv_pos_site_id
 _symmetry_equiv_pos_as_xyz
  1  'x, y, z'
loop_
 _atom_site_type_symbol
 _atom_site_label
 _atom_site_symmetry_multiplicity
 _atom_site_fract_x
 _atom_site_fract_y
 _atom_site_fract_z
 _atom_site_occupancy
  Zr  Zr0  1  0.86306700  0.13693300  0.44110700  1
  Zr  Zr1  1  0.13693300  0.86306700  0.55889300  1
  Zr  Zr2  1  0.86306700  0.13693300  0.05889300  1
  Zr  Zr3  1  0.13693300  0.86306700  0.94110700  1
  Zr  Zr4  1  0.57325900  0.42674100  0.25000000  1
  Zr  Zr5  1  0.42674100  0.57325900  0.75000000  1
  Fe  Fe6  1  0.26556800  0.73443200  0.25000000  1
  Fe  Fe7  1  0.73443200  0.26556800  0.75000000  1
