# generated using pymatgen
data_Ho12Co7
_symmetry_space_group_name_H-M   'P 1'
_cell_length_a   11.14863900
_cell_length_b   8.24068600
_cell_length_c   10.97718191
_cell_angle_alpha   54.86965419
_cell_angle_beta   90.00000000
_cell_angle_gamma   90.00000000
_symmetry_Int_Tables_number   1
_chemical_formula_structural   Ho12Co7
_chemical_formula_sum   'Ho24 Co14'
_cell_volume   824.79708109
_cell_formula_units_Z   2
loop_
 _symmetry_equiv_pos_site_id
 _symmetry_equiv_pos_as_xyz
  1  'x, y, z'
loop_
 _atom_site_type_symbol
 _atom_site_label
 _atom_site_symmetry_multiplicity
 _atom_site_fract_x
 _atom_site_fract_y
 _atom_site_fract_z
 _atom_site_occupancy
  Ho  Ho0  1  0.70526200  0.23484900  0.53816500  1
  Ho  Ho1  1  0.20526200  0.76515100  0.96183500  1
  Ho  Ho2  1  0.84153600  0.50185400  0.65819300  1
  Ho  Ho3  1  0.34153600  0.49814600  0.84180700  1
  Ho  Ho4  1  0.15846400  0.49814600  0.34180700  1
  Ho  Ho5  1  0.65846400  0.50185400  0.15819300  1
  Ho  Ho6  1  0.00432500  0.84543200  0.35429000  1
  Ho  Ho7  1  0.50432500  0.15456800  0.14571000  1
  Ho  Ho8  1  0.99567500  0.15456800  0.64571000  1
  Ho  Ho9  1  0.49567500  0.84543200  0.85429000  1
  Ho  Ho10  1  0.79473800  0.23484900  0.03816500  1
  Ho  Ho11  1  0.29473800  0.76515100  0.46183500  1
  Ho  Ho12  1  0.92803600  0.76978600  0.08641200  1
  Ho  Ho13  1  0.42803600  0.23021400  0.41358800  1
  Ho  Ho14  1  0.07196400  0.23021400  0.91358800  1
  Ho  Ho15  1  0.57196400  0.76978600  0.58641200  1
  Ho  Ho16  1  0.30073000  0.24934900  0.67536800  1
  Ho  Ho17  1  0.80073000  0.75065100  0.82463200  1
  Ho  Ho18  1  0.69927000  0.75065100  0.32463200  1
  Ho  Ho19  1  0.19927000  0.24934900  0.17536800  1
  Ho  Ho20  1  0.92960100  0.26671100  0.30539900  1
  Ho  Ho21  1  0.42960100  0.73328900  0.19460100  1
  Ho  Ho22  1  0.07039900  0.73328900  0.69460100  1
  Ho  Ho23  1  0.57039900  0.26671100  0.80539900  1
  Co  Co24  1  0.50000000  0.50000000  0.50000000  1
  Co  Co25  1  0.00000000  0.50000000  0.00000000  1
  Co  Co26  1  0.67399300  0.90880900  0.02958900  1
  Co  Co27  1  0.17399300  0.09119100  0.47041100  1
  Co  Co28  1  0.32600700  0.09119100  0.97041100  1
  Co  Co29  1  0.82600700  0.90880900  0.52958900  1
  Co  Co30  1  0.40128100  0.49345800  0.09975800  1
  Co  Co31  1  0.90128100  0.50654200  0.40024200  1
  Co  Co32  1  0.59871900  0.50654200  0.90024200  1
  Co  Co33  1  0.09871900  0.49345800  0.59975800  1
  Co  Co34  1  0.81097100  0.09812800  0.84266300  1
  Co  Co35  1  0.31097100  0.90187200  0.65733700  1
  Co  Co36  1  0.18902900  0.90187200  0.15733700  1
  Co  Co37  1  0.68902900  0.09812800  0.34266300  1
