# generated using pymatgen
data_Ba5B4O11
_symmetry_space_group_name_H-M   'P 1'
_cell_length_a   9.73823651
_cell_length_b   16.92448432
_cell_length_c   23.20322047
_cell_angle_alpha   90.00000000
_cell_angle_beta   90.00000000
_cell_angle_gamma   90.00000000
_symmetry_Int_Tables_number   1
_chemical_formula_structural   Ba5B4O11
_chemical_formula_sum   'Ba60 B48 O132'
_cell_volume   3824.23022251
_cell_formula_units_Z   12
loop_
 _symmetry_equiv_pos_site_id
 _symmetry_equiv_pos_as_xyz
  1  'x, y, z'
loop_
 _atom_site_type_symbol
 _atom_site_label
 _atom_site_symmetry_multiplicity
 _atom_site_fract_x
 _atom_site_fract_y
 _atom_site_fract_z
 _atom_site_occupancy
  B  B0  1  0.12382048  0.99161448  0.15799968  1
  B  B1  1  0.62382048  0.50838552  0.84200032  1
  B  B2  1  0.87617952  0.49161448  0.34200032  1
  B  B3  1  0.37617952  0.00838552  0.65799968  1
  B  B4  1  0.05897146  0.69059990  0.49137253  1
  B  B5  1  0.55897146  0.80940010  0.50862747  1
  B  B6  1  0.94102854  0.19059990  0.00862747  1
  B  B7  1  0.44102854  0.30940010  0.99137253  1
  B  B8  1  0.07549758  0.30510022  0.50769849  1
  B  B9  1  0.57549758  0.19489978  0.49230151  1
  B  B10  1  0.92450242  0.80510022  0.99230151  1
  B  B11  1  0.42450242  0.69489978  0.00769849  1
  B  B12  1  0.13641089  0.00725699  0.84046626  1
  B  B13  1  0.63641089  0.49274301  0.15953374  1
  B  B14  1  0.86358911  0.50725699  0.65953374  1
  B  B15  1  0.36358911  0.99274301  0.34046626  1
  B  B16  1  0.10994468  0.00460747  0.51508733  1
  B  B17  1  0.60994468  0.49539253  0.48491267  1
  B  B18  1  0.89005532  0.50460747  0.98491267  1
  B  B19  1  0.39005532  0.99539253  0.01508733  1
  B  B20  1  0.22552859  0.57631570  0.76139063  1
  B  B21  1  0.72552859  0.92368430  0.23860937  1
  B  B22  1  0.77447141  0.07631570  0.73860937  1
  B  B23  1  0.27447141  0.42368430  0.26139063  1
  B  B24  1  0.06745502  0.32522625  0.15119912  1
  B  B25  1  0.56745502  0.17477375  0.84880088  1
  B  B26  1  0.93254498  0.82522625  0.34880088  1
  B  B27  1  0.43254498  0.67477375  0.65119912  1
  B  B28  1  0.07238640  0.68514992  0.81535615  1
  B  B29  1  0.57238640  0.81485008  0.18464385  1
  B  B30  1  0.92761360  0.18514992  0.68464385  1
  B  B31  1  0.42761360  0.31485008  0.31535615  1
  B  B32  1  0.05542657  0.31665489  0.82464440  1
  B  B33  1  0.55542657  0.18334511  0.17535560  1
  B  B34  1  0.94457343  0.81665489  0.67535560  1
  B  B35  1  0.44457343  0.68334511  0.32464440  1
  B  B36  1  0.04865795  0.68692511  0.17322073  1
  B  B37  1  0.54865795  0.81307489  0.82677927  1
  B  B38  1  0.95134205  0.18692511  0.32677927  1
  B  B39  1  0.45134205  0.31307489  0.67322073  1
  B  B40  1  0.12817762  0.52943231  0.92865638  1
  B  B41  1  0.62817762  0.97056769  0.07134362  1
  B  B42  1  0.87182238  0.02943231  0.57134362  1
  B  B43  1  0.37182238  0.47056769  0.42865638  1
  B  B44  1  0.15037978  0.45556437  0.09289157  1
  B  B45  1  0.65037978  0.04443563  0.90710843  1
  B  B46  1  0.84962022  0.95556437  0.40710843  1
  B  B47  1  0.34962022  0.54443563  0.59289157  1
  O  O48  1  0.10632343  0.34831213  0.55706780  1
  O  O49  1  0.60632343  0.15168787  0.44293220  1
  O  O50  1  0.89367657  0.84831213  0.94293220  1
  O  O51  1  0.39367657  0.65168787  0.05706780  1
  O  O52  1  0.14054513  0.26649988  0.85725840  1
  O  O53  1  0.64054513  0.23350012  0.14274160  1
  O  O54  1  0.85945487  0.76649988  0.64274160  1
  O  O55  1  0.35945487  0.73350012  0.35725840  1
  O  O56  1  0.09094127  0.65844906  0.43804903  1
  O  O57  1  0.59094127  0.84155094  0.56195097  1
  O  O58  1  0.90905873  0.15844906  0.06195097  1
  O  O59  1  0.40905873  0.34155094  0.93804903  1
  O  O60  1  0.13920895  0.74977381  0.51537836  1
  O  O61  1  0.63920895  0.75022619  0.48462164  1
  O  O62  1  0.86079105  0.24977381  0.98462164  1
  O  O63  1  0.36079105  0.25022619  0.01537836  1
  O  O64  1  0.11206696  0.35436100  0.77682233  1
  O  O65  1  0.61206696  0.14563900  0.22317767  1
  O  O66  1  0.88793304  0.85436100  0.72317767  1
  O  O67  1  0.38793304  0.64563900  0.27682233  1
  O  O68  1  0.08096538  0.82685575  0.66066356  1
  O  O69  1  0.58096538  0.67314425  0.33933644  1
  O  O70  1  0.91903462  0.32685575  0.83933644  1
  O  O71  1  0.41903462  0.17314425  0.16066356  1
  O  O72  1  0.04174387  0.82471422  0.02411598  1
  O  O73  1  0.54174387  0.67528578  0.97588402  1
  O  O74  1  0.95825613  0.32471422  0.47588402  1
  O  O75  1  0.45825613  0.17528578  0.52411598  1
  O  O76  1  0.23485718  0.57770054  0.94386487  1
  O  O77  1  0.73485718  0.92229946  0.05613513  1
  O  O78  1  0.76514282  0.07770054  0.55613513  1
  O  O79  1  0.26514282  0.42229946  0.44386487  1
  O  O80  1  0.05163377  0.00063698  0.88844463  1
  O  O81  1  0.55163377  0.49936302  0.11155537  1
  O  O82  1  0.94836623  0.50063698  0.61155537  1
  O  O83  1  0.44836623  0.99936302  0.38844463  1
  O  O84  1  0.15362906  0.45740614  0.27893810  1
  O  O85  1  0.65362906  0.04259386  0.72106190  1
  O  O86  1  0.84637094  0.95740614  0.22106190  1
  O  O87  1  0.34637094  0.54259386  0.77893810  1
  O  O88  1  0.16088415  0.92108435  0.18444551  1
  O  O89  1  0.66088415  0.57891565  0.81555449  1
  O  O90  1  0.83911585  0.42108435  0.31555449  1
  O  O91  1  0.33911585  0.07891565  0.68444551  1
  O  O92  1  0.15945393  0.72721420  0.14791051  1
  O  O93  1  0.65945393  0.77278580  0.85208949  1
  O  O94  1  0.84054607  0.22721420  0.35208949  1
  O  O95  1  0.34054607  0.27278580  0.64791051  1
  O  O96  1  0.24529007  0.42791609  0.05489160  1
  O  O97  1  0.74529007  0.07208391  0.94510840  1
  O  O98  1  0.75470993  0.92791609  0.44510840  1
  O  O99  1  0.25470993  0.57208391  0.55489160  1
  O  O100  1  0.10224823  0.92435028  0.51312366  1
  O  O101  1  0.60224823  0.57564972  0.48687634  1
  O  O102  1  0.89775177  0.42435028  0.98687634  1
  O  O103  1  0.39775177  0.07564972  0.01312366  1
  O  O104  1  0.06539445  0.64752126  0.22522414  1
  O  O105  1  0.56539445  0.85247874  0.77477586  1
  O  O106  1  0.93460555  0.14752126  0.27477586  1
  O  O107  1  0.43460555  0.35247874  0.72522414  1
  O  O108  1  0.05919981  0.16432081  0.97937568  1
  O  O109  1  0.55919981  0.33567919  0.02062432  1
  O  O110  1  0.94080019  0.66432081  0.52062432  1
  O  O111  1  0.44080019  0.83567919  0.47937568  1
  O  O112  1  0.15839785  0.24243135  0.49073150  1
  O  O113  1  0.65839785  0.25756865  0.50926850  1
  O  O114  1  0.84160215  0.74243135  0.00926850  1
  O  O115  1  0.34160215  0.75756865  0.99073150  1
  O  O116  1  0.07975272  0.18982913  0.35340816  1
  O  O117  1  0.57975272  0.31017087  0.64659184  1
  O  O118  1  0.92024728  0.68982913  0.14659184  1
  O  O119  1  0.42024728  0.81017087  0.85340816  1
  O  O120  1  0.99694179  0.55054363  0.95615283  1
  O  O121  1  0.49694179  0.94945637  0.04384717  1
  O  O122  1  0.00305821  0.05054363  0.54384717  1
  O  O123  1  0.50305821  0.44945637  0.45615283  1
  O  O124  1  0.13279187  0.46645379  0.89224896  1
  O  O125  1  0.63279187  0.03354621  0.10775104  1
  O  O126  1  0.86720813  0.96645379  0.60775104  1
  O  O127  1  0.36720813  0.53354621  0.39224896  1
  O  O128  1  0.14998931  0.06392915  0.18535593  1
  O  O129  1  0.64998931  0.43607085  0.81464407  1
  O  O130  1  0.85001069  0.56392915  0.31464407  1
  O  O131  1  0.35001069  0.93607085  0.68535593  1
  O  O132  1  0.16944146  0.93964908  0.80853372  1
  O  O133  1  0.66944146  0.56035092  0.19146628  1
  O  O134  1  0.83055854  0.43964908  0.69146628  1
  O  O135  1  0.33055854  0.06035092  0.30853372  1
  O  O136  1  0.04160032  0.13934066  0.67863386  1
  O  O137  1  0.54160032  0.36065934  0.32136614  1
  O  O138  1  0.95839968  0.63934066  0.82136614  1
  O  O139  1  0.45839968  0.86065934  0.17863386  1
  O  O140  1  0.19194455  0.07987820  0.82469374  1
  O  O141  1  0.69194455  0.42012180  0.17530626  1
  O  O142  1  0.80805545  0.57987820  0.67530626  1
  O  O143  1  0.30805545  0.92012180  0.32469374  1
  O  O144  1  0.06136670  0.99139932  0.10435042  1
  O  O145  1  0.56136670  0.50860068  0.89564958  1
  O  O146  1  0.93863330  0.49139932  0.39564958  1
  O  O147  1  0.43863330  0.00860068  0.60435042  1
  O  O148  1  0.13503747  0.54648651  0.72250268  1
  O  O149  1  0.63503747  0.95351349  0.27749732  1
  O  O150  1  0.86496253  0.04648651  0.77749732  1
  O  O151  1  0.36496253  0.45351349  0.22250268  1
  O  O152  1  0.13141941  0.53153968  0.11092679  1
  O  O153  1  0.63141941  0.96846032  0.88907321  1
  O  O154  1  0.86858059  0.03153968  0.38907321  1
  O  O155  1  0.36858059  0.46846032  0.61092679  1
  O  O156  1  0.19632820  0.65279052  0.78848788  1
  O  O157  1  0.69632820  0.84720948  0.21151212  1
  O  O158  1  0.80367180  0.15279052  0.71151212  1
  O  O159  1  0.30367180  0.34720948  0.28848788  1
  O  O160  1  0.05421650  0.39915316  0.11933353  1
  O  O161  1  0.55421650  0.10084684  0.88066647  1
  O  O162  1  0.94578350  0.89915316  0.38066647  1
  O  O163  1  0.44578350  0.60084684  0.61933353  1
  O  O164  1  0.08427074  0.76198116  0.83159311  1
  O  O165  1  0.58427074  0.73801884  0.16840689  1
  O  O166  1  0.91572926  0.26198116  0.66840689  1
  O  O167  1  0.41572926  0.23801884  0.33159311  1
  O  O168  1  0.18356668  0.28131820  0.14837795  1
  O  O169  1  0.68356668  0.21868180  0.85162205  1
  O  O170  1  0.81643332  0.78131820  0.35162205  1
  O  O171  1  0.31643332  0.71868180  0.64837795  1
  O  O172  1  0.21423135  0.04896161  0.49349330  1
  O  O173  1  0.71423135  0.45103839  0.50650670  1
  O  O174  1  0.78576865  0.54896161  0.00650670  1
  O  O175  1  0.28576865  0.95103839  0.99349330  1
  O  O176  1  0.04809294  0.80617371  0.31902809  1
  O  O177  1  0.54809294  0.69382629  0.68097191  1
  O  O178  1  0.95190706  0.30617371  0.18097191  1
  O  O179  1  0.45190706  0.19382629  0.81902809  1
  Ba  Ba180  1  0.22426611  0.19287877  0.24947052  1
  Ba  Ba181  1  0.72426611  0.30712123  0.75052948  1
  Ba  Ba182  1  0.77573389  0.69287877  0.25052948  1
  Ba  Ba183  1  0.27573389  0.80712123  0.74947052  1
  Ba  Ba184  1  0.39227657  0.34409924  0.53798281  1
  Ba  Ba185  1  0.89227657  0.15590076  0.46201719  1
  Ba  Ba186  1  0.60772343  0.84409924  0.96201719  1
  Ba  Ba187  1  0.10772343  0.65590076  0.03798281  1
  Ba  Ba188  1  0.30723656  0.14992892  0.41541695  1
  Ba  Ba189  1  0.80723656  0.35007108  0.58458305  1
  Ba  Ba190  1  0.69276344  0.64992892  0.08458305  1
  Ba  Ba191  1  0.19276344  0.85007108  0.91541695  1
  Ba  Ba192  1  0.59053305  0.14509760  0.63049601  1
  Ba  Ba193  1  0.09053305  0.35490240  0.36950399  1
  Ba  Ba194  1  0.40946695  0.64509760  0.86950399  1
  Ba  Ba195  1  0.90946695  0.85490240  0.13049601  1
  Ba  Ba196  1  0.56096480  0.51279998  0.29774386  1
  Ba  Ba197  1  0.06096480  0.98720002  0.70225614  1
  Ba  Ba198  1  0.43903520  0.01279998  0.20225614  1
  Ba  Ba199  1  0.93903520  0.48720002  0.79774386  1
  Ba  Ba200  1  0.71528191  0.34664936  0.41543504  1
  Ba  Ba201  1  0.21528191  0.15335064  0.58456496  1
  Ba  Ba202  1  0.28471809  0.84664936  0.08456496  1
  Ba  Ba203  1  0.78471809  0.65335064  0.91543504  1
  Ba  Ba204  1  0.53868095  0.00512016  0.49798188  1
  Ba  Ba205  1  0.03868095  0.49487984  0.50201812  1
  Ba  Ba206  1  0.46131905  0.50512016  0.00201812  1
  Ba  Ba207  1  0.96131905  0.99487984  0.99798188  1
  Ba  Ba208  1  0.64310528  0.10079668  0.33328995  1
  Ba  Ba209  1  0.14310528  0.39920332  0.66671005  1
  Ba  Ba210  1  0.35689472  0.60079668  0.16671005  1
  Ba  Ba211  1  0.85689472  0.89920332  0.83328995  1
  Ba  Ba212  1  0.74471134  0.29776581  0.25006288  1
  Ba  Ba213  1  0.24471134  0.20223419  0.74993712  1
  Ba  Ba214  1  0.25528866  0.79776581  0.24993712  1
  Ba  Ba215  1  0.75528866  0.70223419  0.75006288  1
  Ba  Ba216  1  0.21053895  0.14905223  0.08318977  1
  Ba  Ba217  1  0.71053895  0.35094777  0.91681023  1
  Ba  Ba218  1  0.78946105  0.64905223  0.41681023  1
  Ba  Ba219  1  0.28946105  0.85094777  0.58318977  1
  Ba  Ba220  1  0.07603425  0.65174370  0.62962479  1
  Ba  Ba221  1  0.57603425  0.84825630  0.37037521  1
  Ba  Ba222  1  0.92396575  0.15174370  0.87037521  1
  Ba  Ba223  1  0.42396575  0.34825630  0.12962479  1
  Ba  Ba224  1  0.11911085  0.34036519  0.96616454  1
  Ba  Ba225  1  0.61911085  0.15963481  0.03383546  1
  Ba  Ba226  1  0.88088915  0.84036519  0.53383546  1
  Ba  Ba227  1  0.38088915  0.65963481  0.46616454  1
  Ba  Ba228  1  0.14787997  0.60301732  0.33320388  1
  Ba  Ba229  1  0.64787997  0.89698268  0.66679612  1
  Ba  Ba230  1  0.85212003  0.10301732  0.16679612  1
  Ba  Ba231  1  0.35212003  0.39698268  0.83320388  1
  Ba  Ba232  1  0.20400589  0.84614843  0.41792650  1
  Ba  Ba233  1  0.70400589  0.65385157  0.58207350  1
  Ba  Ba234  1  0.79599411  0.34614843  0.08207350  1
  Ba  Ba235  1  0.29599411  0.15385157  0.91792650  1
  Ba  Ba236  1  0.05101731  0.99689879  0.29373890  1
  Ba  Ba237  1  0.55101731  0.50310121  0.70626110  1
  Ba  Ba238  1  0.94898269  0.49689879  0.20626110  1
  Ba  Ba239  1  0.44898269  0.00310121  0.79373890  1
