# generated using pymatgen
data_V2Te2O9
_symmetry_space_group_name_H-M   'P 1'
_cell_length_a   9.75361600
_cell_length_b   7.36433800
_cell_length_c   10.25448417
_cell_angle_alpha   84.84023908
_cell_angle_beta   90.00000000
_cell_angle_gamma   90.00000000
_symmetry_Int_Tables_number   1
_chemical_formula_structural   V2Te2O9
_chemical_formula_sum   'V8 Te8 O36'
_cell_volume   733.58385428
_cell_formula_units_Z   4
loop_
 _symmetry_equiv_pos_site_id
 _symmetry_equiv_pos_as_xyz
  1  'x, y, z'
loop_
 _atom_site_type_symbol
 _atom_site_label
 _atom_site_symmetry_multiplicity
 _atom_site_fract_x
 _atom_site_fract_y
 _atom_site_fract_z
 _atom_site_occupancy
  V  V0  1  0.74823600  0.00512200  0.04070400  1
  V  V1  1  0.24823600  0.99487800  0.45929600  1
  V  V2  1  0.25176400  0.99487800  0.95929600  1
  V  V3  1  0.75176400  0.00512200  0.54070400  1
  V  V4  1  0.53324400  0.29215000  0.23192800  1
  V  V5  1  0.03324400  0.70785000  0.26807200  1
  V  V6  1  0.46675600  0.70785000  0.76807200  1
  V  V7  1  0.96675600  0.29215000  0.73192800  1
  Te  Te8  1  0.77827700  0.55249500  0.06306900  1
  Te  Te9  1  0.27827700  0.44750500  0.43693100  1
  Te  Te10  1  0.22172300  0.44750500  0.93693100  1
  Te  Te11  1  0.72172300  0.55249500  0.56306900  1
  Te  Te12  1  0.51865700  0.86369400  0.29089400  1
  Te  Te13  1  0.01865700  0.13630600  0.20910600  1
  Te  Te14  1  0.48134300  0.13630600  0.70910600  1
  Te  Te15  1  0.98134300  0.86369400  0.79089400  1
  O  O16  1  0.45116300  0.35068100  0.09715700  1
  O  O17  1  0.95116300  0.64931900  0.40284300  1
  O  O18  1  0.54883700  0.64931900  0.90284300  1
  O  O19  1  0.04883700  0.35068100  0.59715700  1
  O  O20  1  0.95461100  0.55559900  0.14804300  1
  O  O21  1  0.45461100  0.44440100  0.35195700  1
  O  O22  1  0.04538900  0.44440100  0.85195700  1
  O  O23  1  0.54538900  0.55559900  0.64804300  1
  O  O24  1  0.64078800  0.08098800  0.92523800  1
  O  O25  1  0.14078800  0.91901200  0.57476200  1
  O  O26  1  0.35921200  0.91901200  0.07476200  1
  O  O27  1  0.85921200  0.08098800  0.42523800  1
  O  O28  1  0.85874700  0.19482100  0.05273200  1
  O  O29  1  0.35874700  0.80517900  0.44726800  1
  O  O30  1  0.14125300  0.80517900  0.94726800  1
  O  O31  1  0.64125300  0.19482100  0.55273200  1
  O  O32  1  0.86521800  0.06520300  0.69117400  1
  O  O33  1  0.36521800  0.93479700  0.80882600  1
  O  O34  1  0.13478200  0.93479700  0.30882600  1
  O  O35  1  0.63478200  0.06520300  0.19117400  1
  O  O36  1  0.84853600  0.83431600  0.93075700  1
  O  O37  1  0.34853600  0.16568400  0.56924300  1
  O  O38  1  0.15146400  0.16568400  0.06924300  1
  O  O39  1  0.65146400  0.83431600  0.43075700  1
  O  O40  1  0.06169200  0.09472200  0.82662900  1
  O  O41  1  0.56169200  0.90527800  0.67337100  1
  O  O42  1  0.69671500  0.41266000  0.21740200  1
  O  O43  1  0.43830800  0.09472200  0.32662900  1
  O  O44  1  0.80555800  0.76217400  0.62590200  1
  O  O45  1  0.30555800  0.23782600  0.87409800  1
  O  O46  1  0.19444200  0.23782600  0.37409800  1
  O  O47  1  0.69444200  0.76217400  0.12590200  1
  O  O48  1  0.80328500  0.41266000  0.71740200  1
  O  O49  1  0.30328500  0.58734000  0.78259800  1
  O  O50  1  0.19671500  0.58734000  0.28259800  1
  O  O51  1  0.93830800  0.90527800  0.17337100  1
