# generated using pymatgen
data_CrSiTe3
_symmetry_space_group_name_H-M   'P 1'
_cell_length_a   8.56467899
_cell_length_b   8.56467899
_cell_length_c   8.56467877
_cell_angle_alpha   47.05597223
_cell_angle_beta   47.05597223
_cell_angle_gamma   47.05597500
_symmetry_Int_Tables_number   1
_chemical_formula_structural   CrSiTe3
_chemical_formula_sum   'Cr2 Si2 Te6'
_cell_volume   307.77248981
_cell_formula_units_Z   2
loop_
 _symmetry_equiv_pos_site_id
 _symmetry_equiv_pos_as_xyz
  1  'x, y, z'
loop_
 _atom_site_type_symbol
 _atom_site_label
 _atom_site_symmetry_multiplicity
 _atom_site_fract_x
 _atom_site_fract_y
 _atom_site_fract_z
 _atom_site_occupancy
  Cr  Cr0  1  0.66629900  0.66629900  0.66629900  1
  Cr  Cr1  1  0.33370100  0.33370100  0.33370100  1
  Si  Si2  1  0.05009700  0.05009700  0.05009700  1
  Si  Si3  1  0.94990300  0.94990300  0.94990300  1
  Te  Te4  1  0.43881000  0.71306500  0.07480600  1
  Te  Te5  1  0.07480600  0.43881000  0.71306500  1
  Te  Te6  1  0.71306500  0.07480600  0.43881000  1
  Te  Te7  1  0.28693500  0.92519400  0.56119000  1
  Te  Te8  1  0.92519400  0.56119000  0.28693500  1
  Te  Te9  1  0.56119000  0.28693500  0.92519400  1
