# generated using pymatgen
data_K2PSe3
_symmetry_space_group_name_H-M   'P 1'
_cell_length_a   12.61524100
_cell_length_b   8.95022800
_cell_length_c   14.05898715
_cell_angle_alpha   88.75458666
_cell_angle_beta   90.00000000
_cell_angle_gamma   90.00000000
_symmetry_Int_Tables_number   1
_chemical_formula_structural   K2PSe3
_chemical_formula_sum   'K16 P8 Se24'
_cell_volume   1587.01517331
_cell_formula_units_Z   8
loop_
 _symmetry_equiv_pos_site_id
 _symmetry_equiv_pos_as_xyz
  1  'x, y, z'
loop_
 _atom_site_type_symbol
 _atom_site_label
 _atom_site_symmetry_multiplicity
 _atom_site_fract_x
 _atom_site_fract_y
 _atom_site_fract_z
 _atom_site_occupancy
  K  K0  1  0.26477000  0.72532100  0.07824800  1
  K  K1  1  0.56488000  0.32188400  0.18703000  1
  K  K2  1  0.93512000  0.82188400  0.18703000  1
  K  K3  1  0.78954700  0.66828600  0.56127400  1
  K  K4  1  0.06488000  0.17811600  0.81297000  1
  K  K5  1  0.76477000  0.77467900  0.92175200  1
  K  K6  1  0.73523000  0.27467900  0.92175200  1
  K  K7  1  0.23523000  0.22532100  0.07824800  1
  K  K8  1  0.28954700  0.83171400  0.43872600  1
  K  K9  1  0.21045300  0.33171400  0.43872600  1
  K  K10  1  0.71045300  0.16828600  0.56127400  1
  K  K11  1  0.89715800  0.28433200  0.29438400  1
  K  K12  1  0.39715800  0.21566800  0.70561600  1
  K  K13  1  0.10284200  0.71566800  0.70561600  1
  K  K14  1  0.43512000  0.67811600  0.81297000  1
  K  K15  1  0.60284200  0.78433200  0.29438400  1
  P  P16  1  0.99235200  0.92886700  0.43214800  1
  P  P17  1  0.00764800  0.07113300  0.56785200  1
  P  P18  1  0.50764800  0.42886700  0.43214800  1
  P  P19  1  0.52853800  0.93741100  0.06869700  1
  P  P20  1  0.02853800  0.56258900  0.93130300  1
  P  P21  1  0.47146200  0.06258900  0.93130300  1
  P  P22  1  0.97146200  0.43741100  0.06869700  1
  P  P23  1  0.49235200  0.57113300  0.56785200  1
  Se  Se24  1  0.67603100  0.45291500  0.38965700  1
  Se  Se25  1  0.17603100  0.04708500  0.61034300  1
  Se  Se26  1  0.32396900  0.54708500  0.61034300  1
  Se  Se27  1  0.82396900  0.95291500  0.38965700  1
  Se  Se28  1  0.46516100  0.19650500  0.46867600  1
  Se  Se29  1  0.96516100  0.30349500  0.53132400  1
  Se  Se30  1  0.53483900  0.80349500  0.53132400  1
  Se  Se31  1  0.03483900  0.69650500  0.46867600  1
  Se  Se32  1  0.40087700  0.53134600  0.32404100  1
  Se  Se33  1  0.90087700  0.96865400  0.67595900  1
  Se  Se34  1  0.59912300  0.46865400  0.67595900  1
  Se  Se35  1  0.09912300  0.03134600  0.32404100  1
  Se  Se36  1  0.08393200  0.49746700  0.18250700  1
  Se  Se37  1  0.58393200  0.00253300  0.81749300  1
  Se  Se38  1  0.91606800  0.50253300  0.81749300  1
  Se  Se39  1  0.41606800  0.99746700  0.18250700  1
  Se  Se40  1  0.97063300  0.19541100  0.03991100  1
  Se  Se41  1  0.47063300  0.30458900  0.96008900  1
  Se  Se42  1  0.02936700  0.80458900  0.96008900  1
  Se  Se43  1  0.52936700  0.69541100  0.03991100  1
  Se  Se44  1  0.80940700  0.51973600  0.09786100  1
  Se  Se45  1  0.30940700  0.98026400  0.90213900  1
  Se  Se46  1  0.19059300  0.48026400  0.90213900  1
  Se  Se47  1  0.69059300  0.01973600  0.09786100  1
