# generated using pymatgen
data_W6CCl18
_symmetry_space_group_name_H-M   'P 1'
_cell_length_a   9.40841131
_cell_length_b   9.40841131
_cell_length_c   18.33670100
_cell_angle_alpha   90.00000000
_cell_angle_beta   90.00000000
_cell_angle_gamma   119.99999512
_symmetry_Int_Tables_number   1
_chemical_formula_structural   W6CCl18
_chemical_formula_sum   'W12 C2 Cl36'
_cell_volume   1405.67346503
_cell_formula_units_Z   2
loop_
 _symmetry_equiv_pos_site_id
 _symmetry_equiv_pos_as_xyz
  1  'x, y, z'
loop_
 _atom_site_type_symbol
 _atom_site_label
 _atom_site_symmetry_multiplicity
 _atom_site_fract_x
 _atom_site_fract_y
 _atom_site_fract_z
 _atom_site_occupancy
  W  W0  1  0.51066500  0.15327300  0.83027900  1
  W  W1  1  0.84672700  0.35739100  0.83027900  1
  W  W2  1  0.64260900  0.48933500  0.83027900  1
  W  W3  1  0.48933500  0.64260900  0.16972100  1
  W  W4  1  0.64260900  0.48933500  0.66972100  1
  W  W5  1  0.51066500  0.15327300  0.66972100  1
  W  W6  1  0.84672700  0.35739100  0.66972100  1
  W  W7  1  0.15327300  0.51066500  0.33027900  1
  W  W8  1  0.35739100  0.84672700  0.33027900  1
  W  W9  1  0.35739100  0.84672700  0.16972100  1
  W  W10  1  0.15327300  0.51066500  0.16972100  1
  W  W11  1  0.48933500  0.64260900  0.33027900  1
  C  C12  1  0.66666700  0.33333300  0.75000000  1
  C  C13  1  0.33333300  0.66666700  0.25000000  1
  Cl  Cl14  1  0.69600200  0.14203700  0.91682300  1
  Cl  Cl15  1  0.85796300  0.55396400  0.91682300  1
  Cl  Cl16  1  0.44603600  0.30399800  0.91682300  1
  Cl  Cl17  1  0.30399800  0.44603600  0.08317700  1
  Cl  Cl18  1  0.44603600  0.30399800  0.58317700  1
  Cl  Cl19  1  0.69600200  0.14203700  0.58317700  1
  Cl  Cl20  1  0.85796300  0.55396400  0.58317700  1
  Cl  Cl21  1  0.14203700  0.69600200  0.41682300  1
  Cl  Cl22  1  0.55396400  0.85796300  0.41682300  1
  Cl  Cl23  1  0.55396400  0.85796300  0.08317700  1
  Cl  Cl24  1  0.47366800  0.42852600  0.25000000  1
  Cl  Cl25  1  0.95485900  0.52633200  0.25000000  1
  Cl  Cl26  1  0.57147400  0.04514100  0.25000000  1
  Cl  Cl27  1  0.04514100  0.57147400  0.75000000  1
  Cl  Cl28  1  0.52633200  0.95485900  0.75000000  1
  Cl  Cl29  1  0.42852600  0.47366800  0.75000000  1
  Cl  Cl30  1  0.71445100  0.82578000  0.25000000  1
  Cl  Cl31  1  0.11132900  0.28554900  0.25000000  1
  Cl  Cl32  1  0.17422000  0.88867100  0.25000000  1
  Cl  Cl33  1  0.88867100  0.17422000  0.75000000  1
  Cl  Cl34  1  0.28554900  0.11132900  0.75000000  1
  Cl  Cl35  1  0.82578000  0.71445100  0.75000000  1
  Cl  Cl36  1  0.69680600  0.61151300  0.39206400  1
  Cl  Cl37  1  0.91470700  0.30319400  0.10793600  1
  Cl  Cl38  1  0.38848700  0.08529300  0.10793600  1
  Cl  Cl39  1  0.38848700  0.08529300  0.39206400  1
  Cl  Cl40  1  0.91470700  0.30319400  0.39206400  1
  Cl  Cl41  1  0.08529300  0.38848700  0.60793600  1
  Cl  Cl42  1  0.30319400  0.91470700  0.60793600  1
  Cl  Cl43  1  0.61151300  0.69680600  0.60793600  1
  Cl  Cl44  1  0.69680600  0.61151300  0.10793600  1
  Cl  Cl45  1  0.61151300  0.69680600  0.89206400  1
  Cl  Cl46  1  0.08529300  0.38848700  0.89206400  1
  Cl  Cl47  1  0.30319400  0.91470700  0.89206400  1
  Cl  Cl48  1  0.30399800  0.44603600  0.41682300  1
  Cl  Cl49  1  0.14203700  0.69600200  0.08317700  1
