# generated using pymatgen
data_Ni3S2
_symmetry_space_group_name_H-M   'P 1'
_cell_length_a   4.05990325
_cell_length_b   4.05990325
_cell_length_c   4.05990369
_cell_angle_alpha   89.36469638
_cell_angle_beta   89.36469638
_cell_angle_gamma   89.36468648
_symmetry_Int_Tables_number   1
_chemical_formula_structural   Ni3S2
_chemical_formula_sum   'Ni3 S2'
_cell_volume   66.90638837
_cell_formula_units_Z   1
loop_
 _symmetry_equiv_pos_site_id
 _symmetry_equiv_pos_as_xyz
  1  'x, y, z'
loop_
 _atom_site_type_symbol
 _atom_site_label
 _atom_site_symmetry_multiplicity
 _atom_site_fract_x
 _atom_site_fract_y
 _atom_site_fract_z
 _atom_site_occupancy
  Ni  Ni0  1  0.75609000  0.24391000  0.50000000  1
  Ni  Ni1  1  0.24391000  0.50000000  0.75609000  1
  Ni  Ni2  1  0.50000000  0.75609000  0.24391000  1
  S  S3  1  0.25462600  0.25462600  0.25462600  1
  S  S4  1  0.74537400  0.74537400  0.74537400  1
