# generated using pymatgen
data_BaIn
_symmetry_space_group_name_H-M   'P 1'
_cell_length_a   7.59213415
_cell_length_b   7.59213415
_cell_length_c   5.70094700
_cell_angle_alpha   90.00000000
_cell_angle_beta   90.00000000
_cell_angle_gamma   113.67796847
_symmetry_Int_Tables_number   1
_chemical_formula_structural   BaIn
_chemical_formula_sum   'Ba4 In4'
_cell_volume   300.94247632
_cell_formula_units_Z   4
loop_
 _symmetry_equiv_pos_site_id
 _symmetry_equiv_pos_as_xyz
  1  'x, y, z'
loop_
 _atom_site_type_symbol
 _atom_site_label
 _atom_site_symmetry_multiplicity
 _atom_site_fract_x
 _atom_site_fract_y
 _atom_site_fract_z
 _atom_site_occupancy
  Ba  Ba0  1  0.67600300  0.32399700  0.75000000  1
  Ba  Ba1  1  0.32399700  0.67600300  0.25000000  1
  Ba  Ba2  1  0.12524300  0.87475700  0.75000000  1
  Ba  Ba3  1  0.87475700  0.12524300  0.25000000  1
  In  In4  1  0.37876500  0.21989100  0.25000000  1
  In  In5  1  0.62123500  0.78010900  0.75000000  1
  In  In6  1  0.21989100  0.37876500  0.75000000  1
  In  In7  1  0.78010900  0.62123500  0.25000000  1
