# generated using pymatgen
data_AuSO4
_symmetry_space_group_name_H-M   'P 1'
_cell_length_a   8.53191000
_cell_length_b   8.79132100
_cell_length_c   10.59780800
_cell_angle_alpha   90.00000000
_cell_angle_beta   90.00000000
_cell_angle_gamma   90.00000000
_symmetry_Int_Tables_number   1
_chemical_formula_structural   AuSO4
_chemical_formula_sum   'Au8 S8 O32'
_cell_volume   794.90723645
_cell_formula_units_Z   8
loop_
 _symmetry_equiv_pos_site_id
 _symmetry_equiv_pos_as_xyz
  1  'x, y, z'
loop_
 _atom_site_type_symbol
 _atom_site_label
 _atom_site_symmetry_multiplicity
 _atom_site_fract_x
 _atom_site_fract_y
 _atom_site_fract_z
 _atom_site_occupancy
  Au  Au0  1  0.94643700  0.36619900  0.01590000  1
  Au  Au1  1  0.44643700  0.63380100  0.48410000  1
  Au  Au2  1  0.55356300  0.86619900  0.98410000  1
  Au  Au3  1  0.05356300  0.13380100  0.51590000  1
  Au  Au4  1  0.05356300  0.63380100  0.98410000  1
  Au  Au5  1  0.55356300  0.36619900  0.51590000  1
  Au  Au6  1  0.44643700  0.13380100  0.01590000  1
  Au  Au7  1  0.94643700  0.86619900  0.48410000  1
  S  S8  1  0.23039600  0.42120600  0.63833800  1
  S  S9  1  0.73039500  0.57879400  0.86166200  1
  S  S10  1  0.26960500  0.92120600  0.36166200  1
  S  S11  1  0.76960500  0.07879400  0.13833800  1
  S  S12  1  0.76960500  0.57879400  0.36166200  1
  S  S13  1  0.26960500  0.42120600  0.13833800  1
  S  S14  1  0.73039500  0.07879400  0.63833800  1
  S  S15  1  0.23039600  0.92120600  0.86166200  1
  O  O16  1  0.36371000  0.36716000  0.02729100  1
  O  O17  1  0.86371000  0.63284000  0.47270900  1
  O  O18  1  0.13629000  0.86716000  0.97270900  1
  O  O19  1  0.63629000  0.13284000  0.52729100  1
  O  O20  1  0.63629000  0.63284000  0.97270900  1
  O  O21  1  0.13629000  0.36716000  0.52729100  1
  O  O22  1  0.86371000  0.13284000  0.02729100  1
  O  O23  1  0.36371000  0.86716000  0.47270900  1
  O  O24  1  0.77178200  0.41242000  0.89011900  1
  O  O25  1  0.27178200  0.58758000  0.60988100  1
  O  O26  1  0.72821800  0.91242000  0.10988100  1
  O  O27  1  0.22821800  0.08758000  0.39011900  1
  O  O28  1  0.22821800  0.58758000  0.10988100  1
  O  O29  1  0.72821800  0.41242000  0.39011900  1
  O  O30  1  0.27178200  0.08758000  0.89011900  1
  O  O31  1  0.77178200  0.91242000  0.60988100  1
  O  O32  1  0.15198800  0.91291800  0.74216100  1
  O  O33  1  0.65198800  0.08708200  0.75783900  1
  O  O34  1  0.34801200  0.41291800  0.25783900  1
  O  O35  1  0.84801200  0.58708200  0.24216100  1
  O  O36  1  0.84801200  0.08708200  0.25783900  1
  O  O37  1  0.34801200  0.91291800  0.24216100  1
  O  O38  1  0.65198800  0.58708200  0.74216100  1
  O  O39  1  0.15198800  0.41291800  0.75783900  1
  O  O40  1  0.11728800  0.82761700  0.35350700  1
  O  O41  1  0.61728800  0.17238300  0.14649300  1
  O  O42  1  0.38271200  0.32761700  0.64649300  1
  O  O43  1  0.88271200  0.67238300  0.85350700  1
  O  O44  1  0.88271200  0.17238300  0.64649300  1
  O  O45  1  0.38271200  0.82761700  0.85350700  1
  O  O46  1  0.61728800  0.67238300  0.35350700  1
  O  O47  1  0.11728800  0.32761700  0.14649300  1
