# generated using pymatgen
data_NdSi2Ni
_symmetry_space_group_name_H-M   'P 1'
_cell_length_a   8.47092999
_cell_length_b   8.47092999
_cell_length_c   4.06844000
_cell_angle_alpha   90.00000000
_cell_angle_beta   90.00000000
_cell_angle_gamma   151.67013695
_symmetry_Int_Tables_number   1
_chemical_formula_structural   NdSi2Ni
_chemical_formula_sum   'Nd2 Si4 Ni2'
_cell_volume   138.53815028
_cell_formula_units_Z   2
loop_
 _symmetry_equiv_pos_site_id
 _symmetry_equiv_pos_as_xyz
  1  'x, y, z'
loop_
 _atom_site_type_symbol
 _atom_site_label
 _atom_site_symmetry_multiplicity
 _atom_site_fract_x
 _atom_site_fract_y
 _atom_site_fract_z
 _atom_site_occupancy
  Nd  Nd0  1  0.10656800  0.89343200  0.25000000  1
  Nd  Nd1  1  0.89343200  0.10656800  0.75000000  1
  Si  Si2  1  0.75000600  0.24999400  0.25000000  1
  Si  Si3  1  0.24999400  0.75000600  0.75000000  1
  Si  Si4  1  0.54054700  0.45945300  0.75000000  1
  Si  Si5  1  0.45945300  0.54054700  0.25000000  1
  Ni  Ni6  1  0.68120300  0.31879700  0.75000000  1
  Ni  Ni7  1  0.31879700  0.68120300  0.25000000  1
