# generated using pymatgen
data_TbNiC2
_symmetry_space_group_name_H-M   'P 1'
_cell_length_a   3.76355959
_cell_length_b   3.76355959
_cell_length_c   3.62559600
_cell_angle_alpha   90.00000000
_cell_angle_beta   90.00000000
_cell_angle_gamma   106.16912968
_symmetry_Int_Tables_number   1
_chemical_formula_structural   TbNiC2
_chemical_formula_sum   'Tb1 Ni1 C2'
_cell_volume   49.32294371
_cell_formula_units_Z   1
loop_
 _symmetry_equiv_pos_site_id
 _symmetry_equiv_pos_as_xyz
  1  'x, y, z'
loop_
 _atom_site_type_symbol
 _atom_site_label
 _atom_site_symmetry_multiplicity
 _atom_site_fract_x
 _atom_site_fract_y
 _atom_site_fract_z
 _atom_site_occupancy
  Tb  Tb0  1  0.99989100  0.00010900  0.00000000  1
  Ni  Ni1  1  0.38836600  0.61163400  0.50000000  1
  C  C2  1  0.85167600  0.45193400  0.50000000  1
  C  C3  1  0.54806600  0.14832400  0.50000000  1
