# generated using pymatgen
data_Nd2Zn17
_symmetry_space_group_name_H-M   'P 1'
_cell_length_a   6.85813125
_cell_length_b   6.85813125
_cell_length_c   6.85813199
_cell_angle_alpha   82.65474357
_cell_angle_beta   82.65474357
_cell_angle_gamma   82.65474520
_symmetry_Int_Tables_number   1
_chemical_formula_structural   Nd2Zn17
_chemical_formula_sum   'Nd2 Zn17'
_cell_volume   315.24764817
_cell_formula_units_Z   1
loop_
 _symmetry_equiv_pos_site_id
 _symmetry_equiv_pos_as_xyz
  1  'x, y, z'
loop_
 _atom_site_type_symbol
 _atom_site_label
 _atom_site_symmetry_multiplicity
 _atom_site_fract_x
 _atom_site_fract_y
 _atom_site_fract_z
 _atom_site_occupancy
  Nd  Nd0  1  0.66436900  0.66436900  0.66436900  1
  Nd  Nd1  1  0.33563100  0.33563100  0.33563100  1
  Zn  Zn2  1  0.35006000  0.35006000  0.83884900  1
  Zn  Zn3  1  0.83884900  0.35006000  0.35006000  1
  Zn  Zn4  1  0.09879400  0.09879400  0.09879400  1
  Zn  Zn5  1  0.90120600  0.90120600  0.90120600  1
  Zn  Zn6  1  0.00000000  0.00000000  0.50000000  1
  Zn  Zn7  1  0.00000000  0.50000000  0.00000000  1
  Zn  Zn8  1  0.50000000  0.00000000  0.00000000  1
  Zn  Zn9  1  0.29320400  0.70679600  0.00000000  1
  Zn  Zn10  1  0.70679600  0.00000000  0.29320400  1
  Zn  Zn11  1  0.00000000  0.29320400  0.70679600  1
  Zn  Zn12  1  0.70679600  0.29320400  0.00000000  1
  Zn  Zn13  1  0.29320400  0.00000000  0.70679600  1
  Zn  Zn14  1  0.00000000  0.70679600  0.29320400  1
  Zn  Zn15  1  0.16115100  0.64994000  0.64994000  1
  Zn  Zn16  1  0.64994000  0.64994000  0.16115100  1
  Zn  Zn17  1  0.64994000  0.16115100  0.64994000  1
  Zn  Zn18  1  0.35006000  0.83884900  0.35006000  1
