# generated using pymatgen
data_Nd2Se3
_symmetry_space_group_name_H-M   'P 1'
_cell_length_a   14.82367055
_cell_length_b   14.82367055
_cell_length_c   14.82367055
_cell_angle_alpha   144.86453017
_cell_angle_beta   144.86453017
_cell_angle_gamma   50.53645115
_symmetry_Int_Tables_number   1
_chemical_formula_structural   Nd2Se3
_chemical_formula_sum   'Nd16 Se24'
_cell_volume   1073.45229957
_cell_formula_units_Z   8
loop_
 _symmetry_equiv_pos_site_id
 _symmetry_equiv_pos_as_xyz
  1  'x, y, z'
loop_
 _atom_site_type_symbol
 _atom_site_label
 _atom_site_symmetry_multiplicity
 _atom_site_fract_x
 _atom_site_fract_y
 _atom_site_fract_z
 _atom_site_occupancy
  Nd  Nd0  1  0.34427600  0.45264400  0.37664300  1
  Nd  Nd1  1  0.07600100  0.96763300  0.62335700  1
  Nd  Nd2  1  0.66668300  0.66668300  0.00000000  1
  Nd  Nd3  1  0.37500000  0.00532900  0.13032900  1
  Nd  Nd4  1  0.08331700  0.58331700  0.50000000  1
  Nd  Nd5  1  0.67399900  0.79735600  0.39163200  1
  Nd  Nd6  1  0.87500000  0.24467100  0.86967100  1
  Nd  Nd7  1  0.40572400  0.28236700  0.60836800  1
  Nd  Nd8  1  0.71763300  0.32600100  0.12335700  1
  Nd  Nd9  1  0.41668300  0.91668300  0.50000000  1
  Nd  Nd10  1  0.99467100  0.12500000  0.36967100  1
  Nd  Nd11  1  0.75532900  0.62500000  0.63032900  1
  Nd  Nd12  1  0.20264400  0.59427600  0.87664300  1
  Nd  Nd13  1  0.33331700  0.33331700  0.00000000  1
  Nd  Nd14  1  0.03236700  0.65572400  0.10836800  1
  Nd  Nd15  1  0.54735600  0.92399900  0.89163200  1
  Se  Se16  1  0.57280100  0.32608300  0.60614500  1
  Se  Se17  1  0.35763100  0.75543600  0.74708800  1
  Se  Se18  1  0.39236900  0.63945700  0.89780500  1
  Se  Se19  1  0.00834800  0.61054300  0.25291200  1
  Se  Se20  1  0.74165200  0.49456400  0.10219500  1
  Se  Se21  1  0.17719900  0.28334400  0.25328300  1
  Se  Se22  1  0.71993900  0.96665600  0.39385500  1
  Se  Se23  1  0.03006100  0.92391700  0.74671700  1
  Se  Se24  1  0.90348200  0.65580900  0.59145700  1
  Se  Se25  1  0.68797500  0.09651800  0.75232700  1
  Se  Se26  1  0.71665600  0.96993900  0.89385500  1
  Se  Se27  1  0.34419100  0.93564800  0.24767300  1
  Se  Se28  1  0.07608300  0.82280100  0.10614500  1
  Se  Se29  1  0.06435200  0.31202500  0.40854300  1
  Se  Se30  1  0.50543600  0.60763100  0.24708800  1
  Se  Se31  1  0.36054300  0.25834800  0.75291200  1
  Se  Se32  1  0.24456400  0.99165200  0.60219500  1
  Se  Se33  1  0.03334400  0.42719900  0.75328300  1
  Se  Se34  1  0.06202500  0.31435200  0.90854300  1
  Se  Se35  1  0.67391700  0.28006100  0.24671700  1
  Se  Se36  1  0.40580900  0.15348200  0.09145700  1
  Se  Se37  1  0.84651800  0.93797500  0.25232700  1
  Se  Se38  1  0.38945700  0.64236900  0.39780500  1
  Se  Se39  1  0.68564800  0.59419100  0.74767300  1
