# generated using pymatgen
data_Sr(PO3)2
_symmetry_space_group_name_H-M   'P 1'
_cell_length_a   8.05507700
_cell_length_b   7.31251600
_cell_length_c   17.71561424
_cell_angle_alpha   89.44295907
_cell_angle_beta   90.00000000
_cell_angle_gamma   90.00000000
_symmetry_Int_Tables_number   1
_chemical_formula_structural   Sr(PO3)2
_chemical_formula_sum   'Sr8 P16 O48'
_cell_volume   1043.45137400
_cell_formula_units_Z   8
loop_
 _symmetry_equiv_pos_site_id
 _symmetry_equiv_pos_as_xyz
  1  'x, y, z'
loop_
 _atom_site_type_symbol
 _atom_site_label
 _atom_site_symmetry_multiplicity
 _atom_site_fract_x
 _atom_site_fract_y
 _atom_site_fract_z
 _atom_site_occupancy
  Sr  Sr0  1  0.65588200  0.48342600  0.32754300  1
  Sr  Sr1  1  0.15588200  0.51657400  0.17245700  1
  Sr  Sr2  1  0.34411800  0.51657400  0.67245700  1
  Sr  Sr3  1  0.84411800  0.48342600  0.82754300  1
  Sr  Sr4  1  0.11775500  0.01918900  0.10262800  1
  Sr  Sr5  1  0.61775500  0.98081100  0.39737200  1
  Sr  Sr6  1  0.88224500  0.98081100  0.89737200  1
  Sr  Sr7  1  0.38224500  0.01918900  0.60262800  1
  P  P8  1  0.79054400  0.75733800  0.08965700  1
  P  P9  1  0.29054400  0.24266200  0.41034300  1
  P  P10  1  0.20945600  0.24266200  0.91034300  1
  P  P11  1  0.70945600  0.75733800  0.58965700  1
  P  P12  1  0.80218500  0.36154200  0.04073200  1
  P  P13  1  0.30218500  0.63845800  0.45926800  1
  P  P14  1  0.19781500  0.63845800  0.95926800  1
  P  P15  1  0.69781500  0.36154200  0.54073200  1
  P  P16  1  0.51437400  0.86955800  0.19274300  1
  P  P17  1  0.01437400  0.13044200  0.30725700  1
  P  P18  1  0.48562600  0.13044200  0.80725700  1
  P  P19  1  0.98562600  0.86955800  0.69274300  1
  P  P20  1  0.51758500  0.26972100  0.14456000  1
  P  P21  1  0.01758500  0.73027900  0.35544000  1
  P  P22  1  0.48241500  0.73027900  0.85544000  1
  P  P23  1  0.98241500  0.26972100  0.64456000  1
  O  O24  1  0.34058900  0.26099100  0.11738300  1
  O  O25  1  0.84058900  0.73900900  0.38261700  1
  O  O26  1  0.65941100  0.73900900  0.88261700  1
  O  O27  1  0.15941100  0.26099100  0.61738300  1
  O  O28  1  0.56665900  0.08292800  0.18777600  1
  O  O29  1  0.06665900  0.91707200  0.31222400  1
  O  O30  1  0.43334100  0.91707200  0.81222400  1
  O  O31  1  0.93334100  0.08292800  0.68777600  1
  O  O32  1  0.56332500  0.42446400  0.19520900  1
  O  O33  1  0.06332500  0.57553600  0.30479100  1
  O  O34  1  0.43667500  0.57553600  0.80479100  1
  O  O35  1  0.93667500  0.42446400  0.69520900  1
  O  O36  1  0.33702100  0.09031600  0.46426600  1
  O  O37  1  0.83702100  0.90968400  0.03573400  1
  O  O38  1  0.66297900  0.90968400  0.53573400  1
  O  O39  1  0.16297900  0.09031600  0.96426600  1
  O  O40  1  0.91117300  0.73019600  0.15385700  1
  O  O41  1  0.94410700  0.32247000  0.09388200  1
  O  O42  1  0.41117300  0.26980400  0.34614300  1
  O  O43  1  0.58882700  0.73019600  0.65385700  1
  O  O44  1  0.63315600  0.26604400  0.07034800  1
  O  O45  1  0.13315600  0.73395600  0.42965200  1
  O  O46  1  0.36684400  0.73395600  0.92965200  1
  O  O47  1  0.86684400  0.26604400  0.57034800  1
  O  O48  1  0.16818500  0.84037700  0.67933800  1
  O  O49  1  0.66818500  0.15962300  0.82066200  1
  O  O50  1  0.83181500  0.15962300  0.32066200  1
  O  O51  1  0.33181500  0.84037700  0.17933800  1
  O  O52  1  0.91076600  0.80182600  0.76521700  1
  O  O53  1  0.41076600  0.19817400  0.73478300  1
  O  O54  1  0.08923400  0.19817400  0.23478300  1
  O  O55  1  0.58923400  0.80182600  0.26521700  1
  O  O56  1  0.89550600  0.78880400  0.61904400  1
  O  O57  1  0.39550600  0.21119600  0.88095600  1
  O  O58  1  0.10449400  0.21119600  0.38095600  1
  O  O59  1  0.60449400  0.78880400  0.11904400  1
  O  O60  1  0.68178300  0.30975900  0.45930700  1
  O  O61  1  0.18178300  0.69024100  0.04069300  1
  O  O62  1  0.31821700  0.69024100  0.54069300  1
  O  O63  1  0.81821700  0.30975900  0.95930700  1
  O  O64  1  0.74188400  0.57639800  0.54147600  1
  O  O65  1  0.24188400  0.42360200  0.95852400  1
  O  O66  1  0.25811600  0.42360200  0.45852400  1
  O  O67  1  0.75811600  0.57639800  0.04147600  1
  O  O68  1  0.55589300  0.32247000  0.59388200  1
  O  O69  1  0.05589300  0.67753000  0.90611800  1
  O  O70  1  0.44410700  0.67753000  0.40611800  1
  O  O71  1  0.08882700  0.26980400  0.84614300  1
