# generated using pymatgen
data_Ba4Si3Br2
_symmetry_space_group_name_H-M   'P 1'
_cell_length_a   8.97138900
_cell_length_b   8.90485300
_cell_length_c   15.25587006
_cell_angle_alpha   78.05881846
_cell_angle_beta   90.00000000
_cell_angle_gamma   90.00000000
_symmetry_Int_Tables_number   1
_chemical_formula_structural   Ba4Si3Br2
_chemical_formula_sum   'Ba16 Si12 Br8'
_cell_volume   1192.40103392
_cell_formula_units_Z   4
loop_
 _symmetry_equiv_pos_site_id
 _symmetry_equiv_pos_as_xyz
  1  'x, y, z'
loop_
 _atom_site_type_symbol
 _atom_site_label
 _atom_site_symmetry_multiplicity
 _atom_site_fract_x
 _atom_site_fract_y
 _atom_site_fract_z
 _atom_site_occupancy
  Ba  Ba0  1  0.71111800  0.52119700  0.95543100  1
  Ba  Ba1  1  0.21111800  0.97880300  0.04456900  1
  Ba  Ba2  1  0.28888200  0.47880300  0.04456900  1
  Ba  Ba3  1  0.78888200  0.02119700  0.95543100  1
  Ba  Ba4  1  0.66171600  0.73427900  0.33069200  1
  Ba  Ba5  1  0.16171600  0.76572100  0.66930800  1
  Ba  Ba6  1  0.33828400  0.26572100  0.66930800  1
  Ba  Ba7  1  0.83828400  0.23427900  0.33069200  1
  Ba  Ba8  1  0.06195700  0.37066200  0.85429000  1
  Ba  Ba9  1  0.56195700  0.12933800  0.14571000  1
  Ba  Ba10  1  0.93804300  0.62933800  0.14571000  1
  Ba  Ba11  1  0.43804300  0.87066200  0.85429000  1
  Ba  Ba12  1  0.67802900  0.61847000  0.65382900  1
  Ba  Ba13  1  0.17802900  0.88153000  0.34617100  1
  Ba  Ba14  1  0.32197100  0.38153000  0.34617100  1
  Ba  Ba15  1  0.82197100  0.11847000  0.65382900  1
  Si  Si16  1  0.06489300  0.73927900  0.91233600  1
  Si  Si17  1  0.56489300  0.76072100  0.08766400  1
  Si  Si18  1  0.93510700  0.26072100  0.08766400  1
  Si  Si19  1  0.43510700  0.23927900  0.91233600  1
  Si  Si20  1  0.43243000  0.49212700  0.81534000  1
  Si  Si21  1  0.93243000  0.00787300  0.18466000  1
  Si  Si22  1  0.56757000  0.50787300  0.18466000  1
  Si  Si23  1  0.06757000  0.99212700  0.81534000  1
  Si  Si24  1  0.63003000  0.30251900  0.80221100  1
  Si  Si25  1  0.13003000  0.19748100  0.19778900  1
  Si  Si26  1  0.36997000  0.69748100  0.19778900  1
  Si  Si27  1  0.86997000  0.80251900  0.80221100  1
  Br  Br28  1  0.35929000  0.63422000  0.50748200  1
  Br  Br29  1  0.85929000  0.86578000  0.49251800  1
  Br  Br30  1  0.64071000  0.36578000  0.49251800  1
  Br  Br31  1  0.14071000  0.13422000  0.50748200  1
  Br  Br32  1  0.49340100  0.94644700  0.63698500  1
  Br  Br33  1  0.99340100  0.55355300  0.36301500  1
  Br  Br34  1  0.50659900  0.05355300  0.36301500  1
  Br  Br35  1  0.00659900  0.44644700  0.63698500  1
