# generated using pymatgen
data_Sr2TaFeO6
_symmetry_space_group_name_H-M   'P 1'
_cell_length_a   5.66717500
_cell_length_b   9.81577371
_cell_length_c   9.81532669
_cell_angle_alpha   70.70136550
_cell_angle_beta   90.00000000
_cell_angle_gamma   90.00000000
_symmetry_Int_Tables_number   1
_chemical_formula_structural   Sr2TaFeO6
_chemical_formula_sum   'Sr8 Ta4 Fe4 O24'
_cell_volume   515.32350955
_cell_formula_units_Z   4
loop_
 _symmetry_equiv_pos_site_id
 _symmetry_equiv_pos_as_xyz
  1  'x, y, z'
loop_
 _atom_site_type_symbol
 _atom_site_label
 _atom_site_symmetry_multiplicity
 _atom_site_fract_x
 _atom_site_fract_y
 _atom_site_fract_z
 _atom_site_occupancy
  Sr  Sr0  1  0.48739800  0.12345700  0.62621200  1
  Sr  Sr1  1  0.48739800  0.62345700  0.12621200  1
  Sr  Sr2  1  0.98739800  0.87654300  0.87378800  1
  Sr  Sr3  1  0.98739800  0.37654300  0.37378800  1
  Sr  Sr4  1  0.01260200  0.12345700  0.12621200  1
  Sr  Sr5  1  0.01260200  0.62345700  0.62621200  1
  Sr  Sr6  1  0.51260200  0.87654300  0.37378800  1
  Sr  Sr7  1  0.51260200  0.37654300  0.87378800  1
  Ta  Ta8  1  0.00000000  0.75000000  0.25000000  1
  Ta  Ta9  1  0.00000000  0.25000000  0.75000000  1
  Ta  Ta10  1  0.50000000  0.25000000  0.25000000  1
  Ta  Ta11  1  0.50000000  0.75000000  0.75000000  1
  Fe  Fe12  1  0.00000000  0.50000000  0.00000000  1
  Fe  Fe13  1  0.50000000  0.50000000  0.50000000  1
  Fe  Fe14  1  0.00000000  0.00000000  0.50000000  1
  Fe  Fe15  1  0.50000000  0.00000000  0.00000000  1
  O  O16  1  0.49492600  0.65131100  0.60123900  1
  O  O17  1  0.49492600  0.15131100  0.10123900  1
  O  O18  1  0.99492600  0.84868900  0.39876100  1
  O  O19  1  0.99492600  0.34868900  0.89876100  1
  O  O20  1  0.50507400  0.34868900  0.39876100  1
  O  O21  1  0.50507400  0.84868900  0.89876100  1
  O  O22  1  0.00507400  0.15131100  0.60123900  1
  O  O23  1  0.00507400  0.65131100  0.10123900  1
  O  O24  1  0.23382700  0.87752900  0.64861300  1
  O  O25  1  0.23382700  0.37752900  0.14861300  1
  O  O26  1  0.73382700  0.12247100  0.85138700  1
  O  O27  1  0.73382700  0.62247100  0.35138700  1
  O  O28  1  0.76617300  0.12247100  0.35138700  1
  O  O29  1  0.76617300  0.62247100  0.85138700  1
  O  O30  1  0.26617300  0.87752900  0.14861300  1
  O  O31  1  0.26617300  0.37752900  0.64861300  1
  O  O32  1  0.77069600  0.89569100  0.13010500  1
  O  O33  1  0.77069600  0.39569100  0.63010500  1
  O  O34  1  0.27069600  0.10430900  0.36989500  1
  O  O35  1  0.27069600  0.60430900  0.86989500  1
  O  O36  1  0.22930400  0.10430900  0.86989500  1
  O  O37  1  0.22930400  0.60430900  0.36989500  1
  O  O38  1  0.72930400  0.89569100  0.63010500  1
  O  O39  1  0.72930400  0.39569100  0.13010500  1
