# generated using pymatgen
data_SmPS4
_symmetry_space_group_name_H-M   'P 1'
_cell_length_a   12.37685850
_cell_length_b   12.37685850
_cell_length_c   12.37685850
_cell_angle_alpha   127.49203593
_cell_angle_beta   127.49203593
_cell_angle_gamma   77.44936695
_symmetry_Int_Tables_number   1
_chemical_formula_structural   SmPS4
_chemical_formula_sum   'Sm8 P8 S32'
_cell_volume   1157.73605979
_cell_formula_units_Z   8
loop_
 _symmetry_equiv_pos_site_id
 _symmetry_equiv_pos_as_xyz
  1  'x, y, z'
loop_
 _atom_site_type_symbol
 _atom_site_label
 _atom_site_symmetry_multiplicity
 _atom_site_fract_x
 _atom_site_fract_y
 _atom_site_fract_z
 _atom_site_occupancy
  Sm  Sm0  1  0.00000000  0.00000000  0.00000000  1
  Sm  Sm1  1  0.75000000  0.25000000  0.50000000  1
  Sm  Sm2  1  0.25000000  0.75000000  0.50000000  1
  Sm  Sm3  1  0.50000000  0.50000000  0.00000000  1
  Sm  Sm4  1  0.75000000  0.75000000  0.00000000  1
  Sm  Sm5  1  0.50000000  0.00000000  0.50000000  1
  Sm  Sm6  1  0.00000000  0.50000000  0.50000000  1
  Sm  Sm7  1  0.25000000  0.25000000  0.00000000  1
  P  P8  1  0.12500000  0.41267500  0.78767500  1
  P  P9  1  0.12500000  0.91267500  0.28767500  1
  P  P10  1  0.66267500  0.87500000  0.28767500  1
  P  P11  1  0.58732500  0.37500000  0.71232500  1
  P  P12  1  0.62500000  0.83732500  0.71232500  1
  P  P13  1  0.62500000  0.33732500  0.21232500  1
  P  P14  1  0.08732500  0.37500000  0.21232500  1
  P  P15  1  0.16267500  0.87500000  0.78767500  1
  S  S16  1  0.48723600  0.21351200  0.45456900  1
  S  S17  1  0.75894300  0.03266700  0.54543100  1
  S  S18  1  0.78266700  0.73723600  0.77372400  1
  S  S19  1  0.96351200  0.00894300  0.22627600  1
  S  S20  1  0.49105700  0.53648800  0.77372400  1
  S  S21  1  0.76276400  0.71733300  0.22627600  1
  S  S22  1  0.28648800  0.01276400  0.54543100  1
  S  S23  1  0.46733300  0.74105700  0.45456900  1
  S  S24  1  0.27866700  0.46576100  0.31742000  1
  S  S25  1  0.21576100  0.39834100  0.68709400  1
  S  S26  1  0.71124700  0.52866700  0.31290600  1
  S  S27  1  0.97133300  0.78875300  0.68709400  1
  S  S28  1  0.10165900  0.28423900  0.31290600  1
  S  S29  1  0.53875300  0.35165900  0.31742000  1
  S  S30  1  0.03423900  0.22133300  0.68258000  1
  S  S31  1  0.14834100  0.96124700  0.68258000  1
  S  S32  1  0.47133300  0.78423900  0.18258000  1
  S  S33  1  0.53423900  0.85165900  0.81290600  1
  S  S34  1  0.03875300  0.72133300  0.18709400  1
  S  S35  1  0.77866700  0.46124700  0.81290600  1
  S  S36  1  0.64834100  0.96576100  0.18709400  1
  S  S37  1  0.21124700  0.89834100  0.18258000  1
  S  S38  1  0.71576100  0.02866700  0.81742000  1
  S  S39  1  0.60165900  0.28875300  0.81742000  1
  S  S40  1  0.99105700  0.21733300  0.95456900  1
  S  S41  1  0.96733300  0.51276400  0.72627600  1
  S  S42  1  0.78648800  0.24105700  0.27372400  1
  S  S43  1  0.25894300  0.71351200  0.72627600  1
  S  S44  1  0.98723600  0.53266700  0.27372400  1
  S  S45  1  0.46351200  0.23723600  0.95456900  1
  S  S46  1  0.28266700  0.50894300  0.04543100  1
  S  S47  1  0.26276400  0.03648800  0.04543100  1
