# generated using pymatgen
data_Ba(GaTe2)2
_symmetry_space_group_name_H-M   'P 1'
_cell_length_a   6.99506741
_cell_length_b   6.99506741
_cell_length_c   6.99506741
_cell_angle_alpha   103.68968023
_cell_angle_beta   103.68968023
_cell_angle_gamma   121.78098403
_symmetry_Int_Tables_number   1
_chemical_formula_structural   Ba(GaTe2)2
_chemical_formula_sum   'Ba1 Ga2 Te4'
_cell_volume   254.20685523
_cell_formula_units_Z   1
loop_
 _symmetry_equiv_pos_site_id
 _symmetry_equiv_pos_as_xyz
  1  'x, y, z'
loop_
 _atom_site_type_symbol
 _atom_site_label
 _atom_site_symmetry_multiplicity
 _atom_site_fract_x
 _atom_site_fract_y
 _atom_site_fract_z
 _atom_site_occupancy
  Ba  Ba0  1  0.00000000  0.00000000  0.00000000  1
  Ga  Ga1  1  0.50000000  0.00000000  0.50000000  1
  Ga  Ga2  1  0.00000000  0.50000000  0.50000000  1
  Te  Te3  1  0.91873800  0.08126200  0.50000000  1
  Te  Te4  1  0.08126200  0.58126200  0.16252500  1
  Te  Te5  1  0.41873800  0.91873800  0.83747500  1
  Te  Te6  1  0.58126200  0.41873800  0.50000000  1
