# generated using pymatgen
data_Pd16S7
_symmetry_space_group_name_H-M   'P 1'
_cell_length_a   7.84901167
_cell_length_b   7.84901167
_cell_length_c   7.84901167
_cell_angle_alpha   109.47122063
_cell_angle_beta   109.47122063
_cell_angle_gamma   109.47122063
_symmetry_Int_Tables_number   1
_chemical_formula_structural   Pd16S7
_chemical_formula_sum   'Pd16 S7'
_cell_volume   372.23999482
_cell_formula_units_Z   1
loop_
 _symmetry_equiv_pos_site_id
 _symmetry_equiv_pos_as_xyz
  1  'x, y, z'
loop_
 _atom_site_type_symbol
 _atom_site_label
 _atom_site_symmetry_multiplicity
 _atom_site_fract_x
 _atom_site_fract_y
 _atom_site_fract_z
 _atom_site_occupancy
  Pd  Pd0  1  0.00000000  0.24762600  0.58545900  1
  Pd  Pd1  1  0.58545900  0.24762600  0.00000000  1
  Pd  Pd2  1  0.41454100  0.41454100  0.66216700  1
  Pd  Pd3  1  0.66216700  0.41454100  0.41454100  1
  Pd  Pd4  1  0.75237400  0.33783300  0.75237400  1
  Pd  Pd5  1  0.77063700  0.77063700  0.77063700  1
  Pd  Pd6  1  0.00000000  0.00000000  0.22936300  1
  Pd  Pd7  1  0.22936300  0.00000000  0.00000000  1
  Pd  Pd8  1  0.00000000  0.22936300  0.00000000  1
  Pd  Pd9  1  0.00000000  0.58545900  0.24762600  1
  Pd  Pd10  1  0.33783300  0.75237400  0.75237400  1
  Pd  Pd11  1  0.75237400  0.75237400  0.33783300  1
  Pd  Pd12  1  0.24762600  0.58545900  0.00000000  1
  Pd  Pd13  1  0.58545900  0.00000000  0.24762600  1
  Pd  Pd14  1  0.24762600  0.00000000  0.58545900  1
  Pd  Pd15  1  0.41454100  0.66216700  0.41454100  1
  S  S16  1  0.50000000  0.00000000  0.50000000  1
  S  S17  1  0.00000000  0.50000000  0.50000000  1
  S  S18  1  0.50000000  0.50000000  0.00000000  1
  S  S19  1  0.00000000  0.68797500  0.00000000  1
  S  S20  1  0.68797500  0.00000000  0.00000000  1
  S  S21  1  0.00000000  0.00000000  0.68797500  1
  S  S22  1  0.31202500  0.31202500  0.31202500  1
