# generated using pymatgen
data_Ac2S3
_symmetry_space_group_name_H-M   'P 1'
_cell_length_a   14.98082363
_cell_length_b   14.98082363
_cell_length_c   14.98082363
_cell_angle_alpha   144.73079509
_cell_angle_beta   144.73079509
_cell_angle_gamma   50.73588280
_symmetry_Int_Tables_number   1
_chemical_formula_structural   Ac2S3
_chemical_formula_sum   'Ac16 S24'
_cell_volume   1115.21945195
_cell_formula_units_Z   8
loop_
 _symmetry_equiv_pos_site_id
 _symmetry_equiv_pos_as_xyz
  1  'x, y, z'
loop_
 _atom_site_type_symbol
 _atom_site_label
 _atom_site_symmetry_multiplicity
 _atom_site_fract_x
 _atom_site_fract_y
 _atom_site_fract_z
 _atom_site_occupancy
  Ac  Ac0  1  0.85478600  0.95221200  0.38358500  1
  Ac  Ac1  1  0.16440900  0.16440900  0.00000000  1
  Ac  Ac2  1  0.87500000  0.50430100  0.12930100  1
  Ac  Ac3  1  0.18137200  0.29778800  0.40257300  1
  Ac  Ac4  1  0.58559100  0.08559100  0.50000000  1
  Ac  Ac5  1  0.89521400  0.77879900  0.59742700  1
  Ac  Ac6  1  0.37500000  0.74569900  0.87069900  1
  Ac  Ac7  1  0.22120100  0.81862800  0.11641500  1
  Ac  Ac8  1  0.91440900  0.41440900  0.50000000  1
  Ac  Ac9  1  0.49569900  0.62500000  0.37069900  1
  Ac  Ac10  1  0.70221200  0.10478600  0.88358500  1
  Ac  Ac11  1  0.25430100  0.12500000  0.62930100  1
  Ac  Ac12  1  0.83559100  0.83559100  0.00000000  1
  Ac  Ac13  1  0.52879900  0.14521400  0.09742700  1
  Ac  Ac14  1  0.04778800  0.43137200  0.90257300  1
  Ac  Ac15  1  0.56862800  0.47120100  0.61641500  1
  S  S16  1  0.50656800  0.11228200  0.25278500  1
  S  S17  1  0.07111000  0.82703100  0.60953700  1
  S  S18  1  0.85949600  0.25378200  0.74721500  1
  S  S19  1  0.89050400  0.13771800  0.89428600  1
  S  S20  1  0.24343200  0.99621800  0.10571400  1
  S  S21  1  0.21749400  0.46157300  0.39046300  1
  S  S22  1  0.85237900  0.43497800  0.25376500  1
  S  S23  1  0.53250600  0.42296900  0.74407900  1
  S  S24  1  0.40138600  0.14762100  0.58259900  1
  S  S25  1  0.18121300  0.59861400  0.74623500  1
  S  S26  1  0.67889000  0.78842700  0.25592100  1
  S  S27  1  0.21157300  0.46749400  0.89046300  1
  S  S28  1  0.57703100  0.32111000  0.10953700  1
  S  S29  1  0.56502200  0.81878700  0.41740100  1
  S  S30  1  0.17296900  0.78250600  0.24407900  1
  S  S31  1  0.86228200  0.75656800  0.75278500  1
  S  S32  1  0.74621800  0.49343200  0.60571400  1
  S  S33  1  0.53842700  0.92889000  0.75592100  1
  S  S34  1  0.00378200  0.10949600  0.24721500  1
  S  S35  1  0.56878700  0.81502200  0.91740100  1
  S  S36  1  0.89762100  0.65138600  0.08259900  1
  S  S37  1  0.88771800  0.14050400  0.39428600  1
  S  S38  1  0.18497800  0.10237900  0.75376500  1
  S  S39  1  0.34861400  0.43121300  0.24623500  1
