# generated using pymatgen
data_Tl2S5
_symmetry_space_group_name_H-M   'P 1'
_cell_length_a   6.85989000
_cell_length_b   6.98707700
_cell_length_c   17.07764900
_cell_angle_alpha   90.00000000
_cell_angle_beta   90.00000000
_cell_angle_gamma   90.00000000
_symmetry_Int_Tables_number   1
_chemical_formula_structural   Tl2S5
_chemical_formula_sum   'Tl8 S20'
_cell_volume   818.54161548
_cell_formula_units_Z   4
loop_
 _symmetry_equiv_pos_site_id
 _symmetry_equiv_pos_as_xyz
  1  'x, y, z'
loop_
 _atom_site_type_symbol
 _atom_site_label
 _atom_site_symmetry_multiplicity
 _atom_site_fract_x
 _atom_site_fract_y
 _atom_site_fract_z
 _atom_site_occupancy
  Tl  Tl0  1  0.43070100  0.19164400  0.14766400  1
  Tl  Tl1  1  0.93070100  0.30835600  0.85233600  1
  Tl  Tl2  1  0.56929900  0.69164400  0.35233600  1
  Tl  Tl3  1  0.06929900  0.80835600  0.64766400  1
  Tl  Tl4  1  0.20190000  0.61019200  0.03199300  1
  Tl  Tl5  1  0.70190000  0.88980800  0.96800700  1
  Tl  Tl6  1  0.79810000  0.11019200  0.46800700  1
  Tl  Tl7  1  0.29810000  0.38980800  0.53199300  1
  S  S8  1  0.95527200  0.74743700  0.83024300  1
  S  S9  1  0.45527200  0.75256300  0.16975700  1
  S  S10  1  0.04472800  0.24743700  0.66975700  1
  S  S11  1  0.54472800  0.25256300  0.33024300  1
  S  S12  1  0.24031800  0.81759500  0.85562700  1
  S  S13  1  0.74031800  0.68240500  0.14437300  1
  S  S14  1  0.75968200  0.31759500  0.64437300  1
  S  S15  1  0.25968200  0.18240500  0.35562700  1
  S  S16  1  0.92363500  0.57805600  0.47462400  1
  S  S17  1  0.42363500  0.92194400  0.52537600  1
  S  S18  1  0.07636500  0.07805600  0.02537600  1
  S  S19  1  0.57636500  0.42194400  0.97462400  1
  S  S20  1  0.07718100  0.62817500  0.37343900  1
  S  S21  1  0.57718100  0.87182500  0.62656100  1
  S  S22  1  0.92281900  0.12817500  0.12656100  1
  S  S23  1  0.42281900  0.37182500  0.87343900  1
  S  S24  1  0.07424300  0.37972900  0.30462000  1
  S  S25  1  0.57424300  0.12027100  0.69538000  1
  S  S26  1  0.92575700  0.87972900  0.19538000  1
  S  S27  1  0.42575700  0.62027100  0.80462000  1
