# generated using pymatgen
data_Pr3MoO7
_symmetry_space_group_name_H-M   'P 1'
_cell_length_a   7.69390400
_cell_length_b   7.78143100
_cell_length_c   11.05669900
_cell_angle_alpha   90.00000000
_cell_angle_beta   90.00000000
_cell_angle_gamma   90.00000000
_symmetry_Int_Tables_number   1
_chemical_formula_structural   Pr3MoO7
_chemical_formula_sum   'Pr12 Mo4 O28'
_cell_volume   661.95995955
_cell_formula_units_Z   4
loop_
 _symmetry_equiv_pos_site_id
 _symmetry_equiv_pos_as_xyz
  1  'x, y, z'
loop_
 _atom_site_type_symbol
 _atom_site_label
 _atom_site_symmetry_multiplicity
 _atom_site_fract_x
 _atom_site_fract_y
 _atom_site_fract_z
 _atom_site_occupancy
  Pr  Pr0  1  0.76163600  0.20722100  0.49649300  1
  Pr  Pr1  1  0.49925000  0.45809700  0.77632200  1
  Pr  Pr2  1  0.00075000  0.54190300  0.27632200  1
  Pr  Pr3  1  0.99925000  0.04190300  0.22367800  1
  Pr  Pr4  1  0.50075000  0.95809700  0.72367800  1
  Pr  Pr5  1  0.23836400  0.70722100  0.00350700  1
  Pr  Pr6  1  0.26163600  0.29277900  0.50350700  1
  Pr  Pr7  1  0.73836400  0.79277900  0.99649300  1
  Pr  Pr8  1  0.00115900  0.04979000  0.77136500  1
  Pr  Pr9  1  0.99884100  0.54979000  0.72863500  1
  Pr  Pr10  1  0.50115900  0.45021000  0.22863500  1
  Pr  Pr11  1  0.49884100  0.95021000  0.27136500  1
  Mo  Mo12  1  0.75402200  0.25167700  0.00084200  1
  Mo  Mo13  1  0.24597800  0.75167700  0.49915800  1
  Mo  Mo14  1  0.25402200  0.24832300  0.99915800  1
  Mo  Mo15  1  0.74597800  0.74832300  0.50084200  1
  O  O16  1  0.51054500  0.23559000  0.63217200  1
  O  O17  1  0.48945500  0.73559000  0.86782800  1
  O  O18  1  0.01054500  0.26441000  0.36782800  1
  O  O19  1  0.98945500  0.76441000  0.13217200  1
  O  O20  1  0.71728500  0.05869500  0.87540800  1
  O  O21  1  0.28271500  0.55869500  0.62459200  1
  O  O22  1  0.21728500  0.44130500  0.12459200  1
  O  O23  1  0.78271500  0.94130500  0.37540800  1
  O  O24  1  0.49623700  0.81353600  0.49549800  1
  O  O25  1  0.50376300  0.31353600  0.00450200  1
  O  O26  1  0.99623700  0.68646400  0.50450200  1
  O  O27  1  0.00376300  0.18646400  0.99549800  1
  O  O28  1  0.71726000  0.04632100  0.12042400  1
  O  O29  1  0.28274000  0.54632100  0.37957600  1
  O  O30  1  0.21726000  0.45367900  0.87957600  1
  O  O31  1  0.78274000  0.95367900  0.62042400  1
  O  O32  1  0.71420000  0.57468800  0.37505000  1
  O  O33  1  0.28580000  0.07468800  0.12495000  1
  O  O34  1  0.21420000  0.92531200  0.62495000  1
  O  O35  1  0.78580000  0.42531200  0.87505000  1
  O  O36  1  0.70807900  0.60547900  0.64238600  1
  O  O37  1  0.29192100  0.10547900  0.85761400  1
  O  O38  1  0.49978300  0.22034100  0.36707300  1
  O  O39  1  0.79192100  0.39452100  0.14238600  1
  O  O40  1  0.00021700  0.77965900  0.86707300  1
  O  O41  1  0.99978300  0.27965900  0.63292700  1
  O  O42  1  0.50021700  0.72034100  0.13292700  1
  O  O43  1  0.20807900  0.89452100  0.35761400  1
