# generated using pymatgen
data_RbNbO3
_symmetry_space_group_name_H-M   'P 1'
_cell_length_a   5.18070600
_cell_length_b   8.62019934
_cell_length_c   9.16663868
_cell_angle_alpha   115.04157406
_cell_angle_beta   93.48353130
_cell_angle_gamma   94.48014492
_symmetry_Int_Tables_number   1
_chemical_formula_structural   RbNbO3
_chemical_formula_sum   'Rb4 Nb4 O12'
_cell_volume   367.75628886
_cell_formula_units_Z   4
loop_
 _symmetry_equiv_pos_site_id
 _symmetry_equiv_pos_as_xyz
  1  'x, y, z'
loop_
 _atom_site_type_symbol
 _atom_site_label
 _atom_site_symmetry_multiplicity
 _atom_site_fract_x
 _atom_site_fract_y
 _atom_site_fract_z
 _atom_site_occupancy
  Rb  Rb0  1  0.50000000  0.50000000  0.00000000  1
  Rb  Rb1  1  0.50000000  0.50000000  0.50000000  1
  Rb  Rb2  1  0.90965000  0.20249900  0.59659400  1
  Rb  Rb3  1  0.09035000  0.79750100  0.40340600  1
  Nb  Nb4  1  0.99783000  0.78345900  0.85505300  1
  Nb  Nb5  1  0.00217000  0.21654100  0.14494700  1
  Nb  Nb6  1  0.47444000  0.98851800  0.18524100  1
  Nb  Nb7  1  0.52556000  0.01148200  0.81475900  1
  O  O8  1  0.14975500  0.43934200  0.23197700  1
  O  O9  1  0.85024500  0.56065800  0.76802300  1
  O  O10  1  0.59686700  0.89147900  0.31315000  1
  O  O11  1  0.40313300  0.10852100  0.68685000  1
  O  O12  1  0.21983600  0.78356600  0.03908000  1
  O  O13  1  0.78016400  0.21643400  0.96092000  1
  O  O14  1  0.71812000  0.21854600  0.27447500  1
  O  O15  1  0.28188000  0.78145400  0.72552500  1
  O  O16  1  0.79407500  0.87451000  0.70487300  1
  O  O17  1  0.20592500  0.12549000  0.29512700  1
  O  O18  1  0.73735400  0.92422100  0.00832900  1
  O  O19  1  0.26264600  0.07577900  0.99167100  1
