# generated using pymatgen
data_Tb2Se2O7
_symmetry_space_group_name_H-M   'P 1'
_cell_length_a   10.70874300
_cell_length_b   10.70874300
_cell_length_c   5.28585800
_cell_angle_alpha   90.00000000
_cell_angle_beta   90.00000000
_cell_angle_gamma   90.00000000
_symmetry_Int_Tables_number   1
_chemical_formula_structural   Tb2Se2O7
_chemical_formula_sum   'Tb8 Se8 O28'
_cell_volume   606.16727156
_cell_formula_units_Z   4
loop_
 _symmetry_equiv_pos_site_id
 _symmetry_equiv_pos_as_xyz
  1  'x, y, z'
loop_
 _atom_site_type_symbol
 _atom_site_label
 _atom_site_symmetry_multiplicity
 _atom_site_fract_x
 _atom_site_fract_y
 _atom_site_fract_z
 _atom_site_occupancy
  Tb  Tb0  1  0.12177700  0.87822300  0.75000000  1
  Tb  Tb1  1  0.37822300  0.37822300  0.25000000  1
  Tb  Tb2  1  0.62177700  0.62177700  0.25000000  1
  Tb  Tb3  1  0.87822300  0.12177700  0.75000000  1
  Tb  Tb4  1  0.37822300  0.62177700  0.75000000  1
  Tb  Tb5  1  0.12177700  0.12177700  0.25000000  1
  Tb  Tb6  1  0.87822300  0.87822300  0.25000000  1
  Tb  Tb7  1  0.62177700  0.37822300  0.75000000  1
  Se  Se8  1  0.62227500  0.12227500  0.21395800  1
  Se  Se9  1  0.37772500  0.87772500  0.21395800  1
  Se  Se10  1  0.37772500  0.12227500  0.71395800  1
  Se  Se11  1  0.62227500  0.87772500  0.71395800  1
  Se  Se12  1  0.12227500  0.62227500  0.28604200  1
  Se  Se13  1  0.12227500  0.37772500  0.78604200  1
  Se  Se14  1  0.87772500  0.62227500  0.78604200  1
  Se  Se15  1  0.87772500  0.37772500  0.28604200  1
  O  O16  1  0.75276900  0.93030500  0.87809800  1
  O  O17  1  0.24723100  0.06969500  0.87809800  1
  O  O18  1  0.56969500  0.25276900  0.37809800  1
  O  O19  1  0.43030500  0.74723100  0.37809800  1
  O  O20  1  0.93030500  0.75276900  0.62190200  1
  O  O21  1  0.25276900  0.56969500  0.12190200  1
  O  O22  1  0.74723100  0.43030500  0.12190200  1
  O  O23  1  0.06969500  0.24723100  0.62190200  1
  O  O24  1  0.74723100  0.56969500  0.62190200  1
  O  O25  1  0.25276900  0.43030500  0.62190200  1
  O  O26  1  0.93030500  0.24723100  0.12190200  1
  O  O27  1  0.06969500  0.75276900  0.12190200  1
  O  O28  1  0.56969500  0.74723100  0.87809800  1
  O  O29  1  0.24723100  0.93030500  0.37809800  1
  O  O30  1  0.75276900  0.06969500  0.37809800  1
  O  O31  1  0.43030500  0.25276900  0.87809800  1
  O  O32  1  0.00000000  0.00000000  0.50000000  1
  O  O33  1  0.50000000  0.50000000  0.00000000  1
  O  O34  1  0.50000000  0.50000000  0.50000000  1
  O  O35  1  0.00000000  0.00000000  0.00000000  1
  O  O36  1  0.81418500  0.31418500  0.55976200  1
  O  O37  1  0.81418500  0.68581500  0.05976200  1
  O  O38  1  0.18581500  0.31418500  0.05976200  1
  O  O39  1  0.18581500  0.68581500  0.55976200  1
  O  O40  1  0.68581500  0.81418500  0.44023800  1
  O  O41  1  0.31418500  0.18581500  0.44023800  1
  O  O42  1  0.31418500  0.81418500  0.94023800  1
  O  O43  1  0.68581500  0.18581500  0.94023800  1
