# generated using pymatgen
data_Ce3(Al3Ru)4
_symmetry_space_group_name_H-M   'P 1'
_cell_length_a   8.89440553
_cell_length_b   8.89440553
_cell_length_c   9.55046300
_cell_angle_alpha   90.00000000
_cell_angle_beta   90.00000000
_cell_angle_gamma   119.99999647
_symmetry_Int_Tables_number   1
_chemical_formula_structural   Ce3(Al3Ru)4
_chemical_formula_sum   'Ce6 Al24 Ru8'
_cell_volume   654.31808864
_cell_formula_units_Z   2
loop_
 _symmetry_equiv_pos_site_id
 _symmetry_equiv_pos_as_xyz
  1  'x, y, z'
loop_
 _atom_site_type_symbol
 _atom_site_label
 _atom_site_symmetry_multiplicity
 _atom_site_fract_x
 _atom_site_fract_y
 _atom_site_fract_z
 _atom_site_occupancy
  Ce  Ce0  1  0.80619800  0.61239600  0.75000000  1
  Ce  Ce1  1  0.19380200  0.80619800  0.25000000  1
  Ce  Ce2  1  0.61239600  0.80619800  0.25000000  1
  Ce  Ce3  1  0.38760400  0.19380200  0.75000000  1
  Ce  Ce4  1  0.80619800  0.19380200  0.75000000  1
  Ce  Ce5  1  0.19380200  0.38760400  0.25000000  1
  Al  Al6  1  0.33333300  0.66666700  0.48449000  1
  Al  Al7  1  0.66666700  0.33333300  0.98449000  1
  Al  Al8  1  0.66666700  0.33333300  0.51551000  1
  Al  Al9  1  0.33333300  0.66666700  0.01551000  1
  Al  Al10  1  0.16232200  0.32464400  0.57748000  1
  Al  Al11  1  0.67535600  0.83767800  0.57748000  1
  Al  Al12  1  0.16232200  0.83767800  0.57748000  1
  Al  Al13  1  0.83767800  0.16232200  0.07748000  1
  Al  Al14  1  0.83767800  0.16232200  0.42252000  1
  Al  Al15  1  0.83767800  0.67535600  0.07748000  1
  Al  Al16  1  0.32464400  0.16232200  0.07748000  1
  Al  Al17  1  0.67535600  0.83767800  0.92252000  1
  Al  Al18  1  0.16232200  0.32464400  0.92252000  1
  Al  Al19  1  0.83767800  0.67535600  0.42252000  1
  Al  Al20  1  0.00000000  0.00000000  0.25000000  1
  Al  Al21  1  0.00000000  0.00000000  0.75000000  1
  Al  Al22  1  0.56208100  0.12416200  0.25000000  1
  Al  Al23  1  0.43791900  0.56208100  0.75000000  1
  Al  Al24  1  0.12416200  0.56208100  0.75000000  1
  Al  Al25  1  0.87583800  0.43791900  0.25000000  1
  Al  Al26  1  0.56208100  0.43791900  0.25000000  1
  Al  Al27  1  0.43791900  0.87583800  0.75000000  1
  Al  Al28  1  0.16232200  0.83767800  0.92252000  1
  Al  Al29  1  0.32464400  0.16232200  0.42252000  1
  Ru  Ru30  1  0.00000000  0.00000000  0.50000000  1
  Ru  Ru31  1  0.00000000  0.00000000  0.00000000  1
  Ru  Ru32  1  0.50000000  0.00000000  0.50000000  1
  Ru  Ru33  1  0.50000000  0.50000000  0.00000000  1
  Ru  Ru34  1  0.00000000  0.50000000  0.00000000  1
  Ru  Ru35  1  0.00000000  0.50000000  0.50000000  1
  Ru  Ru36  1  0.50000000  0.50000000  0.50000000  1
  Ru  Ru37  1  0.50000000  0.00000000  0.00000000  1
