# generated using pymatgen
data_K4GaAu8
_symmetry_space_group_name_H-M   'P 1'
_cell_length_a   11.02078030
_cell_length_b   11.02078030
_cell_length_c   11.07958706
_cell_angle_alpha   82.55524265
_cell_angle_beta   82.55524265
_cell_angle_gamma   31.14644446
_symmetry_Int_Tables_number   1
_chemical_formula_structural   K4GaAu8
_chemical_formula_sum   'K8 Ga2 Au16'
_cell_volume   689.70752043
_cell_formula_units_Z   2
loop_
 _symmetry_equiv_pos_site_id
 _symmetry_equiv_pos_as_xyz
  1  'x, y, z'
loop_
 _atom_site_type_symbol
 _atom_site_label
 _atom_site_symmetry_multiplicity
 _atom_site_fract_x
 _atom_site_fract_y
 _atom_site_fract_z
 _atom_site_occupancy
  K  K0  1  0.48440800  0.48440800  0.83691200  1
  K  K1  1  0.51559200  0.51559200  0.16308800  1
  K  K2  1  0.28499000  0.28499000  0.89863400  1
  K  K3  1  0.71501000  0.71501000  0.10136600  1
  K  K4  1  0.22345600  0.22345600  0.59475200  1
  K  K5  1  0.77654400  0.77654400  0.40524800  1
  K  K6  1  0.04604400  0.04604400  0.65609100  1
  K  K7  1  0.95395600  0.95395600  0.34390900  1
  Ga  Ga8  1  0.67299300  0.67299300  0.76562500  1
  Ga  Ga9  1  0.32700700  0.32700700  0.23437500  1
  Au  Au10  1  0.79035100  0.79035100  0.73266100  1
  Au  Au11  1  0.20964900  0.20964900  0.26733900  1
  Au  Au12  1  0.62395200  0.62395200  0.57441200  1
  Au  Au13  1  0.37604800  0.37604800  0.42558800  1
  Au  Au14  1  0.50000000  0.50000000  0.50000000  1
  Au  Au15  1  0.00000000  0.00000000  0.00000000  1
  Au  Au16  1  0.09907500  0.09907500  0.14883400  1
  Au  Au17  1  0.90092500  0.90092500  0.85116600  1
  Au  Au18  1  0.85246700  0.35304300  0.36810800  1
  Au  Au19  1  0.64695700  0.14753300  0.63189200  1
  Au  Au20  1  0.14753300  0.64695700  0.63189200  1
  Au  Au21  1  0.35304300  0.85246700  0.36810800  1
  Au  Au22  1  0.11486700  0.64922900  0.08018500  1
  Au  Au23  1  0.35077100  0.88513300  0.91981500  1
  Au  Au24  1  0.88513300  0.35077100  0.91981500  1
  Au  Au25  1  0.64922900  0.11486700  0.08018500  1
