# generated using pymatgen
data_Na(La2Se3)4
_symmetry_space_group_name_H-M   'P 1'
_cell_length_a   15.10799458
_cell_length_b   15.10799458
_cell_length_c   15.10799458
_cell_angle_alpha   144.95717571
_cell_angle_beta   144.95717571
_cell_angle_gamma   50.39834689
_symmetry_Int_Tables_number   1
_chemical_formula_structural   Na(La2Se3)4
_chemical_formula_sum   'Na2 La16 Se24'
_cell_volume   1131.25737229
_cell_formula_units_Z   2
loop_
 _symmetry_equiv_pos_site_id
 _symmetry_equiv_pos_as_xyz
  1  'x, y, z'
loop_
 _atom_site_type_symbol
 _atom_site_label
 _atom_site_symmetry_multiplicity
 _atom_site_fract_x
 _atom_site_fract_y
 _atom_site_fract_z
 _atom_site_occupancy
  Na  Na0  1  0.00000000  0.00000000  0.00000000  1
  Na  Na1  1  0.75000000  0.25000000  0.50000000  1
  La  La2  1  0.34091200  0.45620500  0.37756900  1
  La  La3  1  0.07863700  0.96334300  0.62243100  1
  La  La4  1  0.66682600  0.66682600  0.00000000  1
  La  La5  1  0.37500000  0.00489400  0.12989400  1
  La  La6  1  0.67136300  0.79379500  0.38470700  1
  La  La7  1  0.08317400  0.58317400  0.50000000  1
  La  La8  1  0.40908800  0.28665700  0.61529400  1
  La  La9  1  0.87500000  0.24510600  0.87010600  1
  La  La10  1  0.71334300  0.32863700  0.12243100  1
  La  La11  1  0.99510600  0.12500000  0.37010600  1
  La  La12  1  0.41682600  0.91682600  0.50000000  1
  La  La13  1  0.75489400  0.62500000  0.62989400  1
  La  La14  1  0.20620500  0.59091200  0.87756900  1
  La  La15  1  0.33317400  0.33317400  0.00000000  1
  La  La16  1  0.03665700  0.65908800  0.11529400  1
  La  La17  1  0.54379500  0.92136300  0.88470600  1
  Se  Se18  1  0.00867300  0.60898100  0.25133300  1
  Se  Se19  1  0.57342500  0.32632100  0.60555100  1
  Se  Se20  1  0.35764800  0.75734000  0.74866700  1
  Se  Se21  1  0.39235200  0.64101900  0.89969100  1
  Se  Se22  1  0.74132700  0.49266000  0.10030900  1
  Se  Se23  1  0.72077100  0.96787400  0.39444900  1
  Se  Se24  1  0.34236500  0.93891200  0.24911400  1
  Se  Se25  1  0.02922900  0.92367900  0.74710400  1
  Se  Se26  1  0.90674900  0.65763500  0.59654700  1
  Se  Se27  1  0.68979800  0.09325100  0.75088600  1
  Se  Se28  1  0.17657500  0.28212600  0.25289600  1
  Se  Se29  1  0.71787400  0.97077100  0.89444900  1
  Se  Se30  1  0.07632100  0.82342500  0.10555100  1
  Se  Se31  1  0.06108800  0.31020200  0.40345300  1
  Se  Se32  1  0.67367900  0.27922900  0.24710400  1
  Se  Se33  1  0.35898100  0.25867300  0.75133300  1
  Se  Se34  1  0.24266000  0.99132700  0.60030900  1
  Se  Se35  1  0.03212600  0.42657500  0.75289600  1
  Se  Se36  1  0.50734000  0.60764800  0.24866700  1
  Se  Se37  1  0.06020200  0.31108800  0.90345300  1
  Se  Se38  1  0.40763500  0.15674900  0.09654700  1
  Se  Se39  1  0.39101900  0.64235200  0.39969100  1
  Se  Se40  1  0.68891200  0.59236500  0.74911400  1
  Se  Se41  1  0.84325100  0.93979800  0.25088600  1
