# generated using pymatgen
data_Ba4Bi3F17
_symmetry_space_group_name_H-M   'P 1'
_cell_length_a   9.56042600
_cell_length_b   9.60352636
_cell_length_c   9.67029761
_cell_angle_alpha   72.63622968
_cell_angle_beta   72.75237787
_cell_angle_gamma   72.92338138
_symmetry_Int_Tables_number   1
_chemical_formula_structural   Ba4Bi3F17
_chemical_formula_sum   'Ba8 Bi6 F34'
_cell_volume   788.53363902
_cell_formula_units_Z   2
loop_
 _symmetry_equiv_pos_site_id
 _symmetry_equiv_pos_as_xyz
  1  'x, y, z'
loop_
 _atom_site_type_symbol
 _atom_site_label
 _atom_site_symmetry_multiplicity
 _atom_site_fract_x
 _atom_site_fract_y
 _atom_site_fract_z
 _atom_site_occupancy
  Ba  Ba0  1  0.30777700  0.89475600  0.05089400  1
  Ba  Ba1  1  0.26114500  0.26914100  0.26949500  1
  Ba  Ba2  1  0.88829700  0.06038600  0.31034900  1
  Ba  Ba3  1  0.94075000  0.69013000  0.11260400  1
  Ba  Ba4  1  0.05668300  0.31103900  0.88278000  1
  Ba  Ba5  1  0.10985200  0.95005900  0.68766900  1
  Ba  Ba6  1  0.73083000  0.73745300  0.73296400  1
  Ba  Ba7  1  0.69235000  0.10985100  0.94454900  1
  Bi  Bi8  1  0.61468200  0.46602400  0.16007700  1
  Bi  Bi9  1  0.15352700  0.61536700  0.46544900  1
  Bi  Bi10  1  0.53096700  0.84565800  0.38578000  1
  Bi  Bi11  1  0.47400100  0.17975500  0.61207700  1
  Bi  Bi12  1  0.81039700  0.38482400  0.53862700  1
  Bi  Bi13  1  0.38416800  0.53341700  0.83887600  1
  F  F14  1  0.00303400  0.00036300  0.99612800  1
  F  F15  1  0.17567800  0.45559700  0.01801300  1
  F  F16  1  0.13869800  0.14230300  0.13608100  1
  F  F17  1  0.48822200  0.35701700  0.04790700  1
  F  F18  1  0.45187800  0.02051900  0.17700400  1
  F  F19  1  0.78815100  0.26351600  0.07702500  1
  F  F20  1  0.01836500  0.17685400  0.45101500  1
  F  F21  1  0.04332100  0.49681100  0.35489600  1
  F  F22  1  0.07736400  0.79059400  0.26121500  1
  F  F23  1  0.34637400  0.54872300  0.26165400  1
  F  F24  1  0.59663600  0.70573400  0.19928900  1
  F  F25  1  0.55640600  0.25116100  0.34055200  1
  F  F26  1  0.35632200  0.04611200  0.48645700  1
  F  F27  1  0.80818300  0.40278600  0.28750600  1
  F  F28  1  0.73843500  0.92303400  0.21198900  1
  F  F29  1  0.29365000  0.80173100  0.40728200  1
  F  F30  1  0.25850200  0.34882000  0.55146400  1
  F  F31  1  0.55423200  0.41772000  0.53884800  1
  F  F32  1  0.73781200  0.65266800  0.45144000  1
  F  F33  1  0.73118700  0.15868300  0.60596300  1
  F  F34  1  0.26479800  0.08389800  0.78096300  1
  F  F35  1  0.19987600  0.58864800  0.70698600  1
  F  F36  1  0.64392300  0.95464200  0.50655500  1
  F  F37  1  0.45045600  0.73963600  0.65320200  1
  F  F38  1  0.40254500  0.28482500  0.81768500  1
  F  F39  1  0.66206000  0.44579700  0.75968700  1
  F  F40  1  0.91923000  0.21501200  0.73674800  1
  F  F41  1  0.95386900  0.51568100  0.64211700  1
  F  F42  1  0.98030400  0.82499000  0.54559200  1
  F  F43  1  0.21382100  0.73717500  0.91797000  1
  F  F44  1  0.54630500  0.98241600  0.82611900  1
  F  F45  1  0.50661300  0.64579000  0.95705400  1
  F  F46  1  0.86248400  0.85865900  0.86206300  1
  F  F47  1  0.82183700  0.54822300  0.98034400  1
