# generated using pymatgen
data_YZrSb
_symmetry_space_group_name_H-M   'P 1'
_cell_length_a   8.86816708
_cell_length_b   8.86816708
_cell_length_c   8.86816708
_cell_angle_alpha   152.05480775
_cell_angle_beta   152.05480775
_cell_angle_gamma   39.93327031
_symmetry_Int_Tables_number   1
_chemical_formula_structural   YZrSb
_chemical_formula_sum   'Y2 Zr2 Sb2'
_cell_volume   152.86983822
_cell_formula_units_Z   2
loop_
 _symmetry_equiv_pos_site_id
 _symmetry_equiv_pos_as_xyz
  1  'x, y, z'
loop_
 _atom_site_type_symbol
 _atom_site_label
 _atom_site_symmetry_multiplicity
 _atom_site_fract_x
 _atom_site_fract_y
 _atom_site_fract_z
 _atom_site_occupancy
  Y  Y0  1  0.32338100  0.32338100  0.00000000  1
  Y  Y1  1  0.67661900  0.67661900  0.00000000  1
  Zr  Zr2  1  0.00000000  0.50000000  0.50000000  1
  Zr  Zr3  1  0.50000000  0.00000000  0.50000000  1
  Sb  Sb4  1  0.13310900  0.13310900  0.00000000  1
  Sb  Sb5  1  0.86689100  0.86689100  0.00000000  1
