# generated using pymatgen
data_Ir3W
_symmetry_space_group_name_H-M   'P 1'
_cell_length_a   5.55253443
_cell_length_b   5.55253443
_cell_length_c   4.43467900
_cell_angle_alpha   90.00000000
_cell_angle_beta   90.00000000
_cell_angle_gamma   120.00000517
_symmetry_Int_Tables_number   1
_chemical_formula_structural   Ir3W
_chemical_formula_sum   'Ir6 W2'
_cell_volume   118.40643877
_cell_formula_units_Z   2
loop_
 _symmetry_equiv_pos_site_id
 _symmetry_equiv_pos_as_xyz
  1  'x, y, z'
loop_
 _atom_site_type_symbol
 _atom_site_label
 _atom_site_symmetry_multiplicity
 _atom_site_fract_x
 _atom_site_fract_y
 _atom_site_fract_z
 _atom_site_occupancy
  Ir  Ir0  1  0.66694000  0.83347000  0.75000000  1
  Ir  Ir1  1  0.33306000  0.16653000  0.25000000  1
  Ir  Ir2  1  0.83347000  0.16653000  0.25000000  1
  Ir  Ir3  1  0.16653000  0.33306000  0.75000000  1
  Ir  Ir4  1  0.16653000  0.83347000  0.75000000  1
  Ir  Ir5  1  0.83347000  0.66694000  0.25000000  1
  W  W6  1  0.66666700  0.33333300  0.75000000  1
  W  W7  1  0.33333300  0.66666700  0.25000000  1
