# generated using pymatgen
data_Y3Pb4F17
_symmetry_space_group_name_H-M   'P 1'
_cell_length_a   9.19949400
_cell_length_b   9.22692140
_cell_length_c   9.27612284
_cell_angle_alpha   72.90485397
_cell_angle_beta   72.93654877
_cell_angle_gamma   73.09776286
_symmetry_Int_Tables_number   1
_chemical_formula_structural   Y3Pb4F17
_chemical_formula_sum   'Y6 Pb8 F34'
_cell_volume   701.22095440
_cell_formula_units_Z   2
loop_
 _symmetry_equiv_pos_site_id
 _symmetry_equiv_pos_as_xyz
  1  'x, y, z'
loop_
 _atom_site_type_symbol
 _atom_site_label
 _atom_site_symmetry_multiplicity
 _atom_site_fract_x
 _atom_site_fract_y
 _atom_site_fract_z
 _atom_site_occupancy
  Y  Y0  1  0.47039300  0.15959300  0.60864600  1
  Y  Y1  1  0.60641700  0.47165300  0.16761500  1
  Y  Y2  1  0.84111300  0.39104200  0.53096100  1
  Y  Y3  1  0.18720900  0.60597600  0.46826100  1
  Y  Y4  1  0.39177200  0.53109500  0.83414700  1
  Y  Y5  1  0.52341300  0.81675600  0.39684200  1
  Pb  Pb6  1  0.89992100  0.03211100  0.30869700  1
  Pb  Pb7  1  0.26575900  0.25942100  0.26241600  1
  Pb  Pb8  1  0.04000000  0.31110700  0.89843800  1
  Pb  Pb9  1  0.69435800  0.09570500  0.96775700  1
  Pb  Pb10  1  0.31177200  0.89690500  0.04091900  1
  Pb  Pb11  1  0.96180100  0.68998100  0.10600500  1
  Pb  Pb12  1  0.74272800  0.73552200  0.73495400  1
  Pb  Pb13  1  0.10495400  0.95571800  0.68503300  1
  F  F14  1  0.99156900  0.99730400  0.01115700  1
  F  F15  1  0.45372300  0.02187400  0.17694200  1
  F  F16  1  0.13804000  0.13725000  0.13566300  1
  F  F17  1  0.35725900  0.04167100  0.49094200  1
  F  F18  1  0.02343900  0.17524300  0.45365600  1
  F  F19  1  0.25522400  0.07826500  0.79241800  1
  F  F20  1  0.54308800  0.26230700  0.34859800  1
  F  F21  1  0.78906400  0.25700600  0.08594900  1
  F  F22  1  0.49366900  0.35346200  0.04108600  1
  F  F23  1  0.17854000  0.44967000  0.02265000  1
  F  F24  1  0.26093800  0.34329200  0.54688700  1
  F  F25  1  0.69964000  0.21156200  0.58372300  1
  F  F26  1  0.04914600  0.48837600  0.35744200  1
  F  F27  1  0.40883800  0.30149500  0.78872100  1
  F  F28  1  0.34232900  0.54821900  0.24303300  1
  F  F29  1  0.91920800  0.20780400  0.74512100  1
  F  F30  1  0.79264500  0.41984200  0.29909300  1
  F  F31  1  0.19507600  0.59550800  0.71111400  1
  F  F32  1  0.45698400  0.56354500  0.47184500  1
  F  F33  1  0.08241400  0.78594000  0.25921700  1
  F  F34  1  0.65237800  0.45663000  0.73527000  1
  F  F35  1  0.58762500  0.71330100  0.18672600  1
  F  F36  1  0.96222000  0.50827000  0.64418600  1
  F  F37  1  0.27311200  0.83041300  0.40339600  1
  F  F38  1  0.74275700  0.65075000  0.45569900  1
  F  F39  1  0.82483600  0.54491600  0.97739100  1
  F  F40  1  0.51220300  0.64266000  0.95288800  1
  F  F41  1  0.20898000  0.74345800  0.92299400  1
  F  F42  1  0.44659600  0.74853800  0.65998900  1
  F  F43  1  0.74046400  0.91214900  0.21692900  1
  F  F44  1  0.97783900  0.82116300  0.54976300  1
  F  F45  1  0.64531100  0.95180600  0.51067900  1
  F  F46  1  0.86452000  0.86088900  0.86332800  1
  F  F47  1  0.54971300  0.97783900  0.82281800  1
