# generated using pymatgen
data_K2TaF7
_symmetry_space_group_name_H-M   'P 1'
_cell_length_a   12.90102100
_cell_length_b   5.95223700
_cell_length_c   8.71027775
_cell_angle_alpha   89.69955729
_cell_angle_beta   90.00000000
_cell_angle_gamma   90.00000000
_symmetry_Int_Tables_number   1
_chemical_formula_structural   K2TaF7
_chemical_formula_sum   'K8 Ta4 F28'
_cell_volume   668.85246260
_cell_formula_units_Z   4
loop_
 _symmetry_equiv_pos_site_id
 _symmetry_equiv_pos_as_xyz
  1  'x, y, z'
loop_
 _atom_site_type_symbol
 _atom_site_label
 _atom_site_symmetry_multiplicity
 _atom_site_fract_x
 _atom_site_fract_y
 _atom_site_fract_z
 _atom_site_occupancy
  K  K0  1  0.21518300  0.76363500  0.05428100  1
  K  K1  1  0.71518300  0.23636500  0.44571900  1
  K  K2  1  0.78481700  0.23636500  0.94571900  1
  K  K3  1  0.28481700  0.76363500  0.55428100  1
  K  K4  1  0.05863300  0.23665500  0.31924100  1
  K  K5  1  0.55863300  0.76334500  0.18075900  1
  K  K6  1  0.94136700  0.76334500  0.68075900  1
  K  K7  1  0.44136700  0.23665500  0.81924100  1
  Ta  Ta8  1  0.37061100  0.27127800  0.27641400  1
  Ta  Ta9  1  0.87061100  0.72872200  0.22358600  1
  Ta  Ta10  1  0.62938900  0.72872200  0.72358600  1
  Ta  Ta11  1  0.12938900  0.27127800  0.77641400  1
  F  F12  1  0.42088500  0.55713900  0.36663700  1
  F  F13  1  0.92088500  0.44286100  0.13336300  1
  F  F14  1  0.57911500  0.44286100  0.63336300  1
  F  F15  1  0.07911500  0.55713900  0.86663700  1
  F  F16  1  0.37710200  0.18475700  0.49355900  1
  F  F17  1  0.87710200  0.81524300  0.00644100  1
  F  F18  1  0.62289800  0.81524300  0.50644100  1
  F  F19  1  0.12289800  0.18475700  0.99355900  1
  F  F20  1  0.52059700  0.20914400  0.28562700  1
  F  F21  1  0.02059700  0.79085600  0.21437300  1
  F  F22  1  0.47940300  0.79085600  0.71437300  1
  F  F23  1  0.97940300  0.20914400  0.78562700  1
  F  F24  1  0.24363400  0.04465500  0.79893000  1
  F  F25  1  0.74363400  0.95534500  0.70107000  1
  F  F26  1  0.75636600  0.95534500  0.20107000  1
  F  F27  1  0.25636600  0.04465500  0.29893000  1
  F  F28  1  0.25789500  0.45567900  0.78699300  1
  F  F29  1  0.75789500  0.54432100  0.71300700  1
  F  F30  1  0.74210500  0.54432100  0.21300700  1
  F  F31  1  0.24210500  0.45567900  0.28699300  1
  F  F32  1  0.10818100  0.04429800  0.61108800  1
  F  F33  1  0.60818100  0.95570200  0.88891200  1
  F  F34  1  0.89181900  0.95570200  0.38891200  1
  F  F35  1  0.39181900  0.04429800  0.11108800  1
  F  F36  1  0.11035000  0.46047200  0.58975900  1
  F  F37  1  0.61035000  0.53952800  0.91024100  1
  F  F38  1  0.88965000  0.53952800  0.41024100  1
  F  F39  1  0.38965000  0.46047200  0.08975900  1
