# generated using pymatgen
data_Ce2Se3
_symmetry_space_group_name_H-M   'P 1'
_cell_length_a   14.74698255
_cell_length_b   14.74698255
_cell_length_c   14.74698255
_cell_angle_alpha   144.85681979
_cell_angle_beta   144.85681979
_cell_angle_gamma   50.54794676
_symmetry_Int_Tables_number   1
_chemical_formula_structural   Ce2Se3
_chemical_formula_sum   'Ce16 Se24'
_cell_volume   1057.27751484
_cell_formula_units_Z   8
loop_
 _symmetry_equiv_pos_site_id
 _symmetry_equiv_pos_as_xyz
  1  'x, y, z'
loop_
 _atom_site_type_symbol
 _atom_site_label
 _atom_site_symmetry_multiplicity
 _atom_site_fract_x
 _atom_site_fract_y
 _atom_site_fract_z
 _atom_site_occupancy
  Ce  Ce0  1  0.07673100  0.96565700  0.62214100  1
  Ce  Ce1  1  0.66648100  0.66648100  0.00000000  1
  Ce  Ce2  1  0.37500000  0.00466300  0.12966300  1
  Ce  Ce3  1  0.08351900  0.58351900  0.50000000  1
  Ce  Ce4  1  0.67326900  0.79540900  0.38892600  1
  Ce  Ce5  1  0.87500000  0.24533700  0.87033700  1
  Ce  Ce6  1  0.40648300  0.28434300  0.61107400  1
  Ce  Ce7  1  0.71565700  0.32673100  0.12214100  1
  Ce  Ce8  1  0.99533700  0.12500000  0.37033700  1
  Ce  Ce9  1  0.41648100  0.91648100  0.50000000  1
  Ce  Ce10  1  0.75466300  0.62500000  0.62966300  1
  Ce  Ce11  1  0.20459100  0.59351700  0.87785900  1
  Ce  Ce12  1  0.33351900  0.33351900  0.00000000  1
  Ce  Ce13  1  0.03434300  0.65648300  0.11107400  1
  Ce  Ce14  1  0.34351700  0.45459100  0.37785900  1
  Ce  Ce15  1  0.54540900  0.92326900  0.88892600  1
  Se  Se16  1  0.57249500  0.32622800  0.60508900  1
  Se  Se17  1  0.35685500  0.75676200  0.74767800  1
  Se  Se18  1  0.00908400  0.60917700  0.25232200  1
  Se  Se19  1  0.39314500  0.64082300  0.89990700  1
  Se  Se20  1  0.74091600  0.49323800  0.10009300  1
  Se  Se21  1  0.72113900  0.96740600  0.39491100  1
  Se  Se22  1  0.02886100  0.92377200  0.74626700  1
  Se  Se23  1  0.90481400  0.65583700  0.59270400  1
  Se  Se24  1  0.68789000  0.09518600  0.75102200  1
  Se  Se25  1  0.17750500  0.28259400  0.25373300  1
  Se  Se26  1  0.34416300  0.93686700  0.24897800  1
  Se  Se27  1  0.71740600  0.97113900  0.89491100  1
  Se  Se28  1  0.07622800  0.82249500  0.10508900  1
  Se  Se29  1  0.06313300  0.31211000  0.40729600  1
  Se  Se30  1  0.35917700  0.25908400  0.75232200  1
  Se  Se31  1  0.24323800  0.99091600  0.60009300  1
  Se  Se32  1  0.03259400  0.42750500  0.75373300  1
  Se  Se33  1  0.50676200  0.60685500  0.24767800  1
  Se  Se34  1  0.06211000  0.31313300  0.90729600  1
  Se  Se35  1  0.67377200  0.27886100  0.24626700  1
  Se  Se36  1  0.40583700  0.15481400  0.09270400  1
  Se  Se37  1  0.39082300  0.64314500  0.39990700  1
  Se  Se38  1  0.68686700  0.59416300  0.74897800  1
  Se  Se39  1  0.84518600  0.93789000  0.25102200  1
