# generated using pymatgen
data_Bi2Te7Cl8
_symmetry_space_group_name_H-M   'P 1'
_cell_length_a   5.59870800
_cell_length_b   13.55310458
_cell_length_c   15.51883624
_cell_angle_alpha   103.82341231
_cell_angle_beta   95.23459659
_cell_angle_gamma   96.45966563
_symmetry_Int_Tables_number   1
_chemical_formula_structural   Bi2Te7Cl8
_chemical_formula_sum   'Bi4 Te14 Cl16'
_cell_volume   1127.65633992
_cell_formula_units_Z   2
loop_
 _symmetry_equiv_pos_site_id
 _symmetry_equiv_pos_as_xyz
  1  'x, y, z'
loop_
 _atom_site_type_symbol
 _atom_site_label
 _atom_site_symmetry_multiplicity
 _atom_site_fract_x
 _atom_site_fract_y
 _atom_site_fract_z
 _atom_site_occupancy
  Bi  Bi0  1  0.79160400  0.25940400  0.27426200  1
  Bi  Bi1  1  0.20839600  0.74059600  0.72573800  1
  Bi  Bi2  1  0.90575200  0.59181100  0.38978900  1
  Bi  Bi3  1  0.09424800  0.40818900  0.61021100  1
  Te  Te4  1  0.81171000  0.98237200  0.56286100  1
  Te  Te5  1  0.18829000  0.01762800  0.43713900  1
  Te  Te6  1  0.46732700  0.80926500  0.16628200  1
  Te  Te7  1  0.53267300  0.19073500  0.83371800  1
  Te  Te8  1  0.16981900  0.95675200  0.15111200  1
  Te  Te9  1  0.83018100  0.04324800  0.84888800  1
  Te  Te10  1  0.77858700  0.83643000  0.03564400  1
  Te  Te11  1  0.22141300  0.16357000  0.96435600  1
  Te  Te12  1  0.05834200  0.65033900  0.04655200  1
  Te  Te13  1  0.94165800  0.34966100  0.95344800  1
  Te  Te14  1  0.35430500  0.49133900  0.06834200  1
  Te  Te15  1  0.64569500  0.50866100  0.93165800  1
  Te  Te16  1  0.55944900  0.14710700  0.56386500  1
  Te  Te17  1  0.44055100  0.85289300  0.43613500  1
  Cl  Cl18  1  0.80283800  0.15281500  0.11134300  1
  Cl  Cl19  1  0.19716200  0.84718500  0.88865700  1
  Cl  Cl20  1  0.35400700  0.27535800  0.22945600  1
  Cl  Cl21  1  0.64599300  0.72464200  0.77054400  1
  Cl  Cl22  1  0.90308100  0.44950300  0.22529700  1
  Cl  Cl23  1  0.09691900  0.55049700  0.77470300  1
  Cl  Cl24  1  0.84574100  0.73850700  0.53519900  1
  Cl  Cl25  1  0.15425900  0.26149300  0.46480100  1
  Cl  Cl26  1  0.72732300  0.42328000  0.44112600  1
  Cl  Cl27  1  0.27267700  0.57672000  0.55887400  1
  Cl  Cl28  1  0.47122000  0.60328400  0.33036900  1
  Cl  Cl29  1  0.52878000  0.39671600  0.66963100  1
  Cl  Cl30  1  0.01250500  0.75721400  0.31312600  1
  Cl  Cl31  1  0.98749500  0.24278600  0.68687400  1
  Cl  Cl32  1  0.35471400  0.91859900  0.69167100  1
  Cl  Cl33  1  0.64528600  0.08140100  0.30832900  1
