# generated using pymatgen
data_GaAu
_symmetry_space_group_name_H-M   'P 1'
_cell_length_a   3.59269400
_cell_length_b   6.38795300
_cell_length_c   6.45392300
_cell_angle_alpha   90.00000000
_cell_angle_beta   90.00000000
_cell_angle_gamma   90.00000000
_symmetry_Int_Tables_number   1
_chemical_formula_structural   GaAu
_chemical_formula_sum   'Ga4 Au4'
_cell_volume   148.11727737
_cell_formula_units_Z   4
loop_
 _symmetry_equiv_pos_site_id
 _symmetry_equiv_pos_as_xyz
  1  'x, y, z'
loop_
 _atom_site_type_symbol
 _atom_site_label
 _atom_site_symmetry_multiplicity
 _atom_site_fract_x
 _atom_site_fract_y
 _atom_site_fract_z
 _atom_site_occupancy
  Ga  Ga0  1  0.75000000  0.31665200  0.92975900  1
  Ga  Ga1  1  0.75000000  0.81665200  0.57024100  1
  Ga  Ga2  1  0.25000000  0.18334800  0.42975900  1
  Ga  Ga3  1  0.25000000  0.68334800  0.07024100  1
  Au  Au4  1  0.25000000  0.00640900  0.80918700  1
  Au  Au5  1  0.75000000  0.49359100  0.30918700  1
  Au  Au6  1  0.75000000  0.99359100  0.19081300  1
  Au  Au7  1  0.25000000  0.50640900  0.69081300  1
