# generated using pymatgen
data_ThGa
_symmetry_space_group_name_H-M   'P 1'
_cell_length_a   4.13426500
_cell_length_b   6.07172000
_cell_length_c   16.46233000
_cell_angle_alpha   90.00000000
_cell_angle_beta   90.00000000
_cell_angle_gamma   90.00000000
_symmetry_Int_Tables_number   1
_chemical_formula_structural   ThGa
_chemical_formula_sum   'Th8 Ga8'
_cell_volume   413.23904543
_cell_formula_units_Z   8
loop_
 _symmetry_equiv_pos_site_id
 _symmetry_equiv_pos_as_xyz
  1  'x, y, z'
loop_
 _atom_site_type_symbol
 _atom_site_label
 _atom_site_symmetry_multiplicity
 _atom_site_fract_x
 _atom_site_fract_y
 _atom_site_fract_z
 _atom_site_occupancy
  Th  Th0  1  0.25000000  0.48711300  0.28619600  1
  Th  Th1  1  0.75000000  0.51288700  0.71380400  1
  Th  Th2  1  0.75000000  0.98711300  0.21380400  1
  Th  Th3  1  0.25000000  0.01288700  0.78619600  1
  Th  Th4  1  0.25000000  0.75002600  0.03642800  1
  Th  Th5  1  0.75000000  0.24997400  0.96357200  1
  Th  Th6  1  0.75000000  0.25002600  0.46357200  1
  Th  Th7  1  0.25000000  0.74997400  0.53642800  1
  Ga  Ga8  1  0.25000000  0.99548200  0.35661800  1
  Ga  Ga9  1  0.75000000  0.00451800  0.64338200  1
  Ga  Ga10  1  0.75000000  0.49548200  0.14338200  1
  Ga  Ga11  1  0.25000000  0.50451800  0.85661800  1
  Ga  Ga12  1  0.25000000  0.24240600  0.10645400  1
  Ga  Ga13  1  0.75000000  0.75759400  0.89354600  1
  Ga  Ga14  1  0.75000000  0.74240600  0.39354600  1
  Ga  Ga15  1  0.25000000  0.25759400  0.60645400  1
