# generated using pymatgen
data_Ga17Rh10
_symmetry_space_group_name_H-M   'P 1'
_cell_length_a   5.87987600
_cell_length_b   5.87987600
_cell_length_c   48.23391200
_cell_angle_alpha   90.00000000
_cell_angle_beta   90.00000000
_cell_angle_gamma   90.00000000
_symmetry_Int_Tables_number   1
_chemical_formula_structural   Ga17Rh10
_chemical_formula_sum   'Ga68 Rh40'
_cell_volume   1667.58823117
_cell_formula_units_Z   4
loop_
 _symmetry_equiv_pos_site_id
 _symmetry_equiv_pos_as_xyz
  1  'x, y, z'
loop_
 _atom_site_type_symbol
 _atom_site_label
 _atom_site_symmetry_multiplicity
 _atom_site_fract_x
 _atom_site_fract_y
 _atom_site_fract_z
 _atom_site_occupancy
  Ga  Ga0  1  0.17166800  0.17166800  0.25000000  1
  Ga  Ga1  1  0.17166800  0.82833200  0.75000000  1
  Ga  Ga2  1  0.82833200  0.17166800  0.75000000  1
  Ga  Ga3  1  0.82833200  0.82833200  0.25000000  1
  Ga  Ga4  1  0.34709900  0.23306900  0.01515900  1
  Ga  Ga5  1  0.23306900  0.65290100  0.98484100  1
  Ga  Ga6  1  0.76693100  0.34709900  0.98484100  1
  Ga  Ga7  1  0.65290100  0.76693100  0.01515900  1
  Ga  Ga8  1  0.23306900  0.34709900  0.48484100  1
  Ga  Ga9  1  0.76693100  0.65290100  0.48484100  1
  Ga  Ga10  1  0.65290100  0.23306900  0.51515900  1
  Ga  Ga11  1  0.34709900  0.76693100  0.51515900  1
  Ga  Ga12  1  0.79890400  0.15627200  0.04498900  1
  Ga  Ga13  1  0.15627200  0.20109600  0.95501100  1
  Ga  Ga14  1  0.84372800  0.79890400  0.95501100  1
  Ga  Ga15  1  0.20109600  0.84372800  0.04498900  1
  Ga  Ga16  1  0.15627200  0.79890400  0.45501100  1
  Ga  Ga17  1  0.84372800  0.20109600  0.45501100  1
  Ga  Ga18  1  0.20109600  0.15627200  0.54498900  1
  Ga  Ga19  1  0.79890400  0.84372800  0.54498900  1
  Ga  Ga20  1  0.16693500  0.32271600  0.07378200  1
  Ga  Ga21  1  0.32271600  0.83306500  0.92621800  1
  Ga  Ga22  1  0.67728400  0.16693500  0.92621800  1
  Ga  Ga23  1  0.83306500  0.67728400  0.07378200  1
  Ga  Ga24  1  0.32271600  0.16693500  0.42621800  1
  Ga  Ga25  1  0.67728400  0.83306500  0.42621800  1
  Ga  Ga26  1  0.83306500  0.32271600  0.57378200  1
  Ga  Ga27  1  0.16693500  0.67728400  0.57378200  1
  Ga  Ga28  1  0.66256500  0.31547900  0.10252500  1
  Ga  Ga29  1  0.31547900  0.33743500  0.89747500  1
  Ga  Ga30  1  0.68452100  0.66256500  0.89747500  1
  Ga  Ga31  1  0.33743500  0.68452100  0.10252500  1
  Ga  Ga32  1  0.31547900  0.66256500  0.39747500  1
  Ga  Ga33  1  0.68452100  0.33743500  0.39747500  1
  Ga  Ga34  1  0.33743500  0.31547900  0.60252500  1
  Ga  Ga35  1  0.66256500  0.68452100  0.60252500  1
  Ga  Ga36  1  0.28867100  0.15441000  0.13154100  1
  Ga  Ga37  1  0.15441000  0.71132900  0.86845900  1
  Ga  Ga38  1  0.84559000  0.28867100  0.86845900  1
  Ga  Ga39  1  0.71132900  0.84559000  0.13154100  1
  Ga  Ga40  1  0.15441000  0.28867100  0.36845900  1
  Ga  Ga41  1  0.84559000  0.71132900  0.36845900  1
  Ga  Ga42  1  0.71132900  0.15441000  0.63154100  1
  Ga  Ga43  1  0.28867100  0.84559000  0.63154100  1
  Ga  Ga44  1  0.84772900  0.24466600  0.16163400  1
  Ga  Ga45  1  0.24466600  0.15227100  0.83836600  1
  Ga  Ga46  1  0.75533400  0.84772900  0.83836600  1
  Ga  Ga47  1  0.15227100  0.75533400  0.16163400  1
  Ga  Ga48  1  0.24466600  0.84772900  0.33836600  1
  Ga  Ga49  1  0.75533400  0.15227100  0.33836600  1
  Ga  Ga50  1  0.15227100  0.24466600  0.66163400  1
  Ga  Ga51  1  0.84772900  0.75533400  0.66163400  1
  Ga  Ga52  1  0.27861500  0.34648900  0.19197200  1
  Ga  Ga53  1  0.34648900  0.72138500  0.80802800  1
  Ga  Ga54  1  0.65351100  0.27861500  0.80802800  1
  Ga  Ga55  1  0.72138500  0.65351100  0.19197200  1
  Ga  Ga56  1  0.34648900  0.27861500  0.30802800  1
  Ga  Ga57  1  0.65351100  0.72138500  0.30802800  1
  Ga  Ga58  1  0.72138500  0.34648900  0.69197200  1
  Ga  Ga59  1  0.27861500  0.65351100  0.69197200  1
  Ga  Ga60  1  0.65924900  0.19203900  0.22130100  1
  Ga  Ga61  1  0.19203900  0.34075100  0.77869900  1
  Ga  Ga62  1  0.80796100  0.65924900  0.77869900  1
  Ga  Ga63  1  0.34075100  0.80796100  0.22130100  1
  Ga  Ga64  1  0.19203900  0.65924900  0.27869900  1
  Ga  Ga65  1  0.80796100  0.34075100  0.27869900  1
  Ga  Ga66  1  0.34075100  0.19203900  0.72130100  1
  Ga  Ga67  1  0.65924900  0.80796100  0.72130100  1
  Rh  Rh68  1  0.50000000  0.50000000  0.25000000  1
  Rh  Rh69  1  0.50000000  0.50000000  0.75000000  1
  Rh  Rh70  1  0.00000000  0.00000000  0.00000000  1
  Rh  Rh71  1  0.00000000  0.00000000  0.50000000  1
  Rh  Rh72  1  0.00000000  0.00000000  0.09874200  1
  Rh  Rh73  1  0.00000000  0.00000000  0.90125800  1
  Rh  Rh74  1  0.00000000  0.00000000  0.40125800  1
  Rh  Rh75  1  0.00000000  0.00000000  0.59874200  1
  Rh  Rh76  1  0.00000000  0.00000000  0.20125500  1
  Rh  Rh77  1  0.00000000  0.00000000  0.79874500  1
  Rh  Rh78  1  0.00000000  0.00000000  0.29874500  1
  Rh  Rh79  1  0.00000000  0.00000000  0.70125500  1
  Rh  Rh80  1  0.50000000  0.50000000  0.05158700  1
  Rh  Rh81  1  0.50000000  0.50000000  0.94841300  1
  Rh  Rh82  1  0.50000000  0.50000000  0.44841300  1
  Rh  Rh83  1  0.50000000  0.50000000  0.55158700  1
  Rh  Rh84  1  0.50000000  0.50000000  0.14940500  1
  Rh  Rh85  1  0.50000000  0.50000000  0.85059500  1
  Rh  Rh86  1  0.50000000  0.50000000  0.35059500  1
  Rh  Rh87  1  0.50000000  0.50000000  0.64940500  1
  Rh  Rh88  1  0.00000000  0.50000000  0.02597400  1
  Rh  Rh89  1  0.50000000  0.00000000  0.97402600  1
  Rh  Rh90  1  0.50000000  0.00000000  0.47402600  1
  Rh  Rh91  1  0.00000000  0.50000000  0.52597400  1
  Rh  Rh92  1  0.00000000  0.50000000  0.12350900  1
  Rh  Rh93  1  0.50000000  0.00000000  0.87649100  1
  Rh  Rh94  1  0.50000000  0.00000000  0.37649100  1
  Rh  Rh95  1  0.00000000  0.50000000  0.62350900  1
  Rh  Rh96  1  0.00000000  0.50000000  0.22655700  1
  Rh  Rh97  1  0.50000000  0.00000000  0.77344300  1
  Rh  Rh98  1  0.50000000  0.00000000  0.27344300  1
  Rh  Rh99  1  0.00000000  0.50000000  0.72655700  1
  Rh  Rh100  1  0.00000000  0.50000000  0.32469300  1
  Rh  Rh101  1  0.50000000  0.00000000  0.67530700  1
  Rh  Rh102  1  0.50000000  0.00000000  0.17530700  1
  Rh  Rh103  1  0.00000000  0.50000000  0.82469300  1
  Rh  Rh104  1  0.00000000  0.50000000  0.42427200  1
  Rh  Rh105  1  0.50000000  0.00000000  0.57572800  1
  Rh  Rh106  1  0.50000000  0.00000000  0.07572800  1
  Rh  Rh107  1  0.00000000  0.50000000  0.92427200  1
