# generated using pymatgen
data_BaNi9P5
_symmetry_space_group_name_H-M   'P 1'
_cell_length_a   6.52187215
_cell_length_b   6.52187215
_cell_length_c   10.87539400
_cell_angle_alpha   90.00000000
_cell_angle_beta   90.00000000
_cell_angle_gamma   120.00000147
_symmetry_Int_Tables_number   1
_chemical_formula_structural   BaNi9P5
_chemical_formula_sum   'Ba2 Ni18 P10'
_cell_volume   400.60852447
_cell_formula_units_Z   2
loop_
 _symmetry_equiv_pos_site_id
 _symmetry_equiv_pos_as_xyz
  1  'x, y, z'
loop_
 _atom_site_type_symbol
 _atom_site_label
 _atom_site_symmetry_multiplicity
 _atom_site_fract_x
 _atom_site_fract_y
 _atom_site_fract_z
 _atom_site_occupancy
  Ba  Ba0  1  0.00000000  0.00000000  0.50000000  1
  Ba  Ba1  1  0.00000000  0.00000000  0.00000000  1
  Ni  Ni2  1  0.46425400  0.92850800  0.89258900  1
  Ni  Ni3  1  0.92850800  0.46425400  0.10741100  1
  Ni  Ni4  1  0.53574600  0.07149200  0.10741100  1
  Ni  Ni5  1  0.07149200  0.53574600  0.60741100  1
  Ni  Ni6  1  0.20287000  0.40573900  0.25000000  1
  Ni  Ni7  1  0.79713000  0.20287000  0.75000000  1
  Ni  Ni8  1  0.40573900  0.20287000  0.75000000  1
  Ni  Ni9  1  0.59426100  0.79713000  0.25000000  1
  Ni  Ni10  1  0.20287000  0.79713000  0.25000000  1
  Ni  Ni11  1  0.79713000  0.59426100  0.75000000  1
  Ni  Ni12  1  0.46425400  0.92850800  0.60741100  1
  Ni  Ni13  1  0.53574600  0.46425400  0.39258900  1
  Ni  Ni14  1  0.92850800  0.46425400  0.39258900  1
  Ni  Ni15  1  0.07149200  0.53574600  0.89258900  1
  Ni  Ni16  1  0.46425400  0.53574600  0.89258900  1
  Ni  Ni17  1  0.53574600  0.07149200  0.39258900  1
  Ni  Ni18  1  0.53574600  0.46425400  0.10741100  1
  Ni  Ni19  1  0.46425400  0.53574600  0.60741100  1
  P  P20  1  0.17586300  0.35172600  0.75000000  1
  P  P21  1  0.82413700  0.17586300  0.25000000  1
  P  P22  1  0.17586300  0.82413700  0.75000000  1
  P  P23  1  0.82413700  0.64827400  0.25000000  1
  P  P24  1  0.33333300  0.66666700  0.43837100  1
  P  P25  1  0.66666700  0.33333300  0.93837100  1
  P  P26  1  0.66666700  0.33333300  0.56162900  1
  P  P27  1  0.33333300  0.66666700  0.06162900  1
  P  P28  1  0.35172600  0.17586300  0.25000000  1
  P  P29  1  0.64827400  0.82413700  0.75000000  1
