# generated using pymatgen
data_TiZn2
_symmetry_space_group_name_H-M   'P 1'
_cell_length_a   5.08309081
_cell_length_b   5.08309081
_cell_length_c   8.17131100
_cell_angle_alpha   90.00000000
_cell_angle_beta   90.00000000
_cell_angle_gamma   120.00001049
_symmetry_Int_Tables_number   1
_chemical_formula_structural   TiZn2
_chemical_formula_sum   'Ti4 Zn8'
_cell_volume   182.84288369
_cell_formula_units_Z   4
loop_
 _symmetry_equiv_pos_site_id
 _symmetry_equiv_pos_as_xyz
  1  'x, y, z'
loop_
 _atom_site_type_symbol
 _atom_site_label
 _atom_site_symmetry_multiplicity
 _atom_site_fract_x
 _atom_site_fract_y
 _atom_site_fract_z
 _atom_site_occupancy
  Ti  Ti0  1  0.33333300  0.66666700  0.06708500  1
  Ti  Ti1  1  0.66666700  0.33333300  0.56708500  1
  Ti  Ti2  1  0.66666700  0.33333300  0.93291500  1
  Ti  Ti3  1  0.33333300  0.66666700  0.43291500  1
  Zn  Zn4  1  0.00000000  0.00000000  0.00000000  1
  Zn  Zn5  1  0.00000000  0.00000000  0.50000000  1
  Zn  Zn6  1  0.82815100  0.65630300  0.25000000  1
  Zn  Zn7  1  0.17184900  0.82815100  0.75000000  1
  Zn  Zn8  1  0.65630300  0.82815100  0.75000000  1
  Zn  Zn9  1  0.34369700  0.17184900  0.25000000  1
  Zn  Zn10  1  0.82815100  0.17184900  0.25000000  1
  Zn  Zn11  1  0.17184900  0.34369700  0.75000000  1
