# generated using pymatgen
data_H3ClO
_symmetry_space_group_name_H-M   'P 1'
_cell_length_a   4.19998313
_cell_length_b   4.19998313
_cell_length_c   4.19998367
_cell_angle_alpha   70.49398898
_cell_angle_beta   70.49398898
_cell_angle_gamma   70.49398433
_symmetry_Int_Tables_number   1
_chemical_formula_structural   H3ClO
_chemical_formula_sum   'H3 Cl1 O1'
_cell_volume   63.73116376
_cell_formula_units_Z   1
loop_
 _symmetry_equiv_pos_site_id
 _symmetry_equiv_pos_as_xyz
  1  'x, y, z'
loop_
 _atom_site_type_symbol
 _atom_site_label
 _atom_site_symmetry_multiplicity
 _atom_site_fract_x
 _atom_site_fract_y
 _atom_site_fract_z
 _atom_site_occupancy
  H  H0  1  0.29628300  0.64543600  0.29628300  1
  H  H1  1  0.29628300  0.29628300  0.64543600  1
  H  H2  1  0.64543600  0.29628300  0.29628300  1
  Cl  Cl3  1  0.01844800  0.01844800  0.01844800  1
  O  O4  1  0.44755100  0.44755100  0.44755100  1
