# generated using pymatgen
data_Hf23Se25
_symmetry_space_group_name_H-M   'P 1'
_cell_length_a   7.94003500
_cell_length_b   8.01664638
_cell_length_c   15.84982937
_cell_angle_alpha   98.13338911
_cell_angle_beta   90.20832799
_cell_angle_gamma   102.07899412
_symmetry_Int_Tables_number   1
_chemical_formula_structural   Hf23Se25
_chemical_formula_sum   'Hf23 Se25'
_cell_volume   976.04465698
_cell_formula_units_Z   1
loop_
 _symmetry_equiv_pos_site_id
 _symmetry_equiv_pos_as_xyz
  1  'x, y, z'
loop_
 _atom_site_type_symbol
 _atom_site_label
 _atom_site_symmetry_multiplicity
 _atom_site_fract_x
 _atom_site_fract_y
 _atom_site_fract_z
 _atom_site_occupancy
  Hf  Hf0  1  0.28332700  0.93154800  0.91977500  1
  Hf  Hf1  1  0.84979200  0.73420400  0.88116300  1
  Hf  Hf2  1  0.09424400  0.94145700  0.72142000  1
  Hf  Hf3  1  0.40572100  0.53440300  0.83655400  1
  Hf  Hf4  1  0.71907900  0.12920400  0.96461900  1
  Hf  Hf5  1  0.64051700  0.72989600  0.68044800  1
  Hf  Hf6  1  0.97252600  0.33689500  0.79481600  1
  Hf  Hf7  1  0.20722900  0.53342300  0.64013700  1
  Hf  Hf8  1  0.52238300  0.13209800  0.75842900  1
  Hf  Hf9  1  0.43870100  0.72909600  0.48434300  1
  Hf  Hf10  1  0.76553900  0.33365600  0.59888400  1
  Hf  Hf11  1  0.69243300  0.93797200  0.31703900  1
  Hf  Hf12  1  0.00391900  0.53149200  0.43959200  1
  Hf  Hf13  1  0.33137600  0.12978500  0.56293700  1
  Hf  Hf14  1  0.57017400  0.33470900  0.40199400  1
  Hf  Hf15  1  0.24682200  0.73461800  0.27885100  1
  Hf  Hf16  1  0.80636500  0.53503600  0.23842500  1
  Hf  Hf17  1  0.12449500  0.13339300  0.35629300  1
  Hf  Hf18  1  0.48825100  0.93386700  0.11968700  1
  Hf  Hf19  1  0.04620200  0.73305700  0.07772600  1
  Hf  Hf20  1  0.37084800  0.33716000  0.20135100  1
  Hf  Hf21  1  0.92192800  0.12982200  0.16135200  1
  Hf  Hf22  1  0.61070900  0.52894400  0.04429100  1
  Se  Se23  1  0.55808300  0.79263400  0.95994300  1
  Se  Se24  1  0.12051400  0.59712200  0.92068900  1
  Se  Se25  1  0.35933900  0.80119200  0.76022300  1
  Se  Se26  1  0.68112400  0.39808400  0.88094600  1
  Se  Se27  1  0.00181500  0.00357400  0.99969000  1
  Se  Se28  1  0.91928300  0.60617000  0.71921600  1
  Se  Se29  1  0.24067600  0.20196700  0.84348300  1
  Se  Se30  1  0.15241800  0.79868600  0.55924500  1
  Se  Se31  1  0.48033800  0.39893700  0.67933900  1
  Se  Se32  1  0.80179700  0.00312400  0.80062900  1
  Se  Se33  1  0.03670000  0.19766700  0.63676000  1
  Se  Se34  1  0.72247000  0.60402100  0.52006400  1
  Se  Se35  1  0.96056000  0.79910000  0.36156900  1
  Se  Se36  1  0.60649500  0.00058200  0.59946700  1
  Se  Se37  1  0.27740300  0.39304700  0.47947300  1
  Se  Se38  1  0.84106800  0.19703400  0.44166600  1
  Se  Se39  1  0.52171100  0.60554700  0.32269600  1
  Se  Se40  1  0.76083400  0.79891800  0.15927800  1
  Se  Se41  1  0.08093000  0.40061500  0.27825400  1
  Se  Se42  1  0.40089300  0.99904900  0.40073900  1
  Se  Se43  1  0.63910400  0.20266600  0.24092400  1
  Se  Se44  1  0.31745100  0.59948600  0.11892900  1
  Se  Se45  1  0.88716200  0.40029700  0.07919800  1
  Se  Se46  1  0.20048400  0.00290600  0.19812900  1
  Se  Se47  1  0.43208500  0.19849800  0.03932400  1
