# generated using pymatgen
data_TbGe2Pd
_symmetry_space_group_name_H-M   'P 1'
_cell_length_a   9.61454037
_cell_length_b   9.61454037
_cell_length_c   9.61454037
_cell_angle_alpha   153.90509439
_cell_angle_beta   125.39747386
_cell_angle_gamma   61.49001391
_symmetry_Int_Tables_number   1
_chemical_formula_structural   TbGe2Pd
_chemical_formula_sum   'Tb4 Ge8 Pd4'
_cell_volume   316.38018057
_cell_formula_units_Z   4
loop_
 _symmetry_equiv_pos_site_id
 _symmetry_equiv_pos_as_xyz
  1  'x, y, z'
loop_
 _atom_site_type_symbol
 _atom_site_label
 _atom_site_symmetry_multiplicity
 _atom_site_fract_x
 _atom_site_fract_y
 _atom_site_fract_z
 _atom_site_occupancy
  Tb  Tb0  1  0.74001700  0.50000000  0.24001700  1
  Tb  Tb1  1  0.25998300  0.50000000  0.75998300  1
  Tb  Tb2  1  0.70182100  0.70182100  0.00000000  1
  Tb  Tb3  1  0.29817900  0.29817900  0.00000000  1
  Ge  Ge4  1  0.34755200  0.69778800  0.64976400  1
  Ge  Ge5  1  0.65244800  0.30221200  0.35023600  1
  Ge  Ge6  1  0.95197700  0.30221200  0.64976400  1
  Ge  Ge7  1  0.04802300  0.69778800  0.35023600  1
  Ge  Ge8  1  0.57402400  0.07402400  0.50000000  1
  Ge  Ge9  1  0.92539500  0.92539500  0.00000000  1
  Ge  Ge10  1  0.07460500  0.07460500  0.00000000  1
  Ge  Ge11  1  0.42597600  0.92597600  0.50000000  1
  Pd  Pd12  1  0.60209800  0.85234600  0.74975200  1
  Pd  Pd13  1  0.89740600  0.14765400  0.74975200  1
  Pd  Pd14  1  0.39790200  0.14765400  0.25024800  1
  Pd  Pd15  1  0.10259400  0.85234600  0.25024800  1
