# generated using pymatgen
data_Na10Zn4O9
_symmetry_space_group_name_H-M   'P 1'
_cell_length_a   8.75605409
_cell_length_b   8.75605409
_cell_length_c   8.74267119
_cell_angle_alpha   77.51135877
_cell_angle_beta   77.51135877
_cell_angle_gamma   76.91751789
_symmetry_Int_Tables_number   1
_chemical_formula_structural   Na10Zn4O9
_chemical_formula_sum   'Na20 Zn8 O18'
_cell_volume   627.50101895
_cell_formula_units_Z   2
loop_
 _symmetry_equiv_pos_site_id
 _symmetry_equiv_pos_as_xyz
  1  'x, y, z'
loop_
 _atom_site_type_symbol
 _atom_site_label
 _atom_site_symmetry_multiplicity
 _atom_site_fract_x
 _atom_site_fract_y
 _atom_site_fract_z
 _atom_site_occupancy
  Na  Na0  1  0.99987300  0.00012700  0.00000000  1
  Na  Na1  1  0.94830200  0.64380500  0.63181400  1
  Na  Na2  1  0.91479600  0.32811800  0.70832800  1
  Na  Na3  1  0.80143600  0.75078100  0.36100700  1
  Na  Na4  1  0.69967600  0.30032400  0.00000000  1
  Na  Na5  1  0.60953200  0.94070200  0.62542600  1
  Na  Na6  1  0.61777700  0.63072500  0.93840100  1
  Na  Na7  1  0.77223700  0.22776300  0.50000000  1
  Na  Na8  1  0.76844000  0.48506900  0.22547400  1
  Na  Na9  1  0.67188200  0.08520400  0.29167200  1
  Na  Na10  1  0.51493100  0.23156000  0.77452600  1
  Na  Na11  1  0.50764900  0.77149200  0.22764700  1
  Na  Na12  1  0.34719900  0.77970000  0.78909300  1
  Na  Na13  1  0.22850800  0.49235100  0.77235300  1
  Na  Na14  1  0.23715600  0.76284400  0.50000000  1
  Na  Na15  1  0.36927500  0.38222300  0.06159900  1
  Na  Na16  1  0.35619500  0.05169800  0.36818600  1
  Na  Na17  1  0.22030000  0.65280100  0.21090700  1
  Na  Na18  1  0.24921900  0.19856400  0.63899300  1
  Na  Na19  1  0.05929800  0.39046800  0.37457400  1
  Zn  Zn20  1  0.96383900  0.97322700  0.66863000  1
  Zn  Zn21  1  0.96383100  0.66389000  0.96963400  1
  Zn  Zn22  1  0.67147900  0.96803100  0.96856600  1
  Zn  Zn23  1  0.58958100  0.57711000  0.59547700  1
  Zn  Zn24  1  0.42289000  0.41041900  0.40452300  1
  Zn  Zn25  1  0.33611000  0.03616900  0.03036600  1
  Zn  Zn26  1  0.03196900  0.32852100  0.03143400  1
  Zn  Zn27  1  0.02677300  0.03616100  0.33137000  1
  O  O28  1  0.88251500  0.49167000  0.89382500  1
  O  O29  1  0.87303700  0.91216500  0.49466400  1
  O  O30  1  0.80015500  0.49055100  0.49190100  1
  O  O31  1  0.89022200  0.20033200  0.19280700  1
  O  O32  1  0.79966800  0.10977800  0.80719300  1
  O  O33  1  0.79071700  0.79093300  0.10233100  1
  O  O34  1  0.50065400  0.89818700  0.89093200  1
  O  O35  1  0.49872700  0.79399000  0.49618700  1
  O  O36  1  0.48629100  0.49747300  0.80522200  1
  O  O37  1  0.50252700  0.51370900  0.19477800  1
  O  O38  1  0.50944900  0.19984500  0.50809900  1
  O  O39  1  0.50833000  0.11748500  0.10617500  1
  O  O40  1  0.20906700  0.20928300  0.89766900  1
  O  O41  1  0.22127100  0.91024400  0.22230100  1
  O  O42  1  0.08975600  0.77872900  0.77769900  1
  O  O43  1  0.20601000  0.50127300  0.50381300  1
  O  O44  1  0.08783500  0.12696300  0.50533600  1
  O  O45  1  0.10181300  0.49934600  0.10906800  1
