# generated using pymatgen
data_TiGaNi
_symmetry_space_group_name_H-M   'P 1'
_cell_length_a   6.81172844
_cell_length_b   6.81172844
_cell_length_c   3.12565800
_cell_angle_alpha   90.00000000
_cell_angle_beta   90.00000000
_cell_angle_gamma   120.00000428
_symmetry_Int_Tables_number   1
_chemical_formula_structural   TiGaNi
_chemical_formula_sum   'Ti3 Ga3 Ni3'
_cell_volume   125.59915621
_cell_formula_units_Z   3
loop_
 _symmetry_equiv_pos_site_id
 _symmetry_equiv_pos_as_xyz
  1  'x, y, z'
loop_
 _atom_site_type_symbol
 _atom_site_label
 _atom_site_symmetry_multiplicity
 _atom_site_fract_x
 _atom_site_fract_y
 _atom_site_fract_z
 _atom_site_occupancy
  Ti  Ti0  1  0.00000000  0.60780000  0.50000000  1
  Ti  Ti1  1  0.39220000  0.39220000  0.50000000  1
  Ti  Ti2  1  0.60780000  0.00000000  0.50000000  1
  Ga  Ga3  1  0.00000000  0.27413700  0.00000000  1
  Ga  Ga4  1  0.72586300  0.72586300  0.00000000  1
  Ga  Ga5  1  0.27413700  0.00000000  0.00000000  1
  Ni  Ni6  1  0.00000000  0.00000000  0.50000000  1
  Ni  Ni7  1  0.33333300  0.66666700  0.00000000  1
  Ni  Ni8  1  0.66666700  0.33333300  0.00000000  1
