# generated using pymatgen
data_Ca(AlSe2)2
_symmetry_space_group_name_H-M   'P 1'
_cell_length_a   6.22520408
_cell_length_b   6.22520408
_cell_length_c   10.75129300
_cell_angle_alpha   90.00000000
_cell_angle_beta   90.00000000
_cell_angle_gamma   119.56297609
_symmetry_Int_Tables_number   1
_chemical_formula_structural   Ca(AlSe2)2
_chemical_formula_sum   'Ca2 Al4 Se8'
_cell_volume   362.40505048
_cell_formula_units_Z   2
loop_
 _symmetry_equiv_pos_site_id
 _symmetry_equiv_pos_as_xyz
  1  'x, y, z'
loop_
 _atom_site_type_symbol
 _atom_site_label
 _atom_site_symmetry_multiplicity
 _atom_site_fract_x
 _atom_site_fract_y
 _atom_site_fract_z
 _atom_site_occupancy
  Ca  Ca0  1  0.50000000  0.50000000  0.75000000  1
  Ca  Ca1  1  0.50000000  0.50000000  0.25000000  1
  Al  Al2  1  0.23621100  0.76003200  0.50000000  1
  Al  Al3  1  0.23996800  0.76378900  0.00000000  1
  Al  Al4  1  0.76003200  0.23621100  0.00000000  1
  Al  Al5  1  0.76378900  0.23996800  0.50000000  1
  Se  Se6  1  0.00000000  0.50000000  0.67207300  1
  Se  Se7  1  0.19018900  0.34910800  0.00000000  1
  Se  Se8  1  0.34910800  0.19018900  0.50000000  1
  Se  Se9  1  0.65089200  0.80981100  0.50000000  1
  Se  Se10  1  0.50000000  0.00000000  0.82792700  1
  Se  Se11  1  0.50000000  0.00000000  0.17207300  1
  Se  Se12  1  0.80981100  0.65089200  0.00000000  1
  Se  Se13  1  0.00000000  0.50000000  0.32792700  1
