# generated using pymatgen
data_Sr8Ga7
_symmetry_space_group_name_H-M   'P 1'
_cell_length_a   12.52798100
_cell_length_b   12.52798100
_cell_length_c   12.52798100
_cell_angle_alpha   90.00000000
_cell_angle_beta   90.00000000
_cell_angle_gamma   90.00000000
_symmetry_Int_Tables_number   1
_chemical_formula_structural   Sr8Ga7
_chemical_formula_sum   'Sr32 Ga28'
_cell_volume   1966.27047577
_cell_formula_units_Z   4
loop_
 _symmetry_equiv_pos_site_id
 _symmetry_equiv_pos_as_xyz
  1  'x, y, z'
loop_
 _atom_site_type_symbol
 _atom_site_label
 _atom_site_symmetry_multiplicity
 _atom_site_fract_x
 _atom_site_fract_y
 _atom_site_fract_z
 _atom_site_occupancy
  Sr  Sr0  1  0.18605500  0.18605500  0.18605500  1
  Sr  Sr1  1  0.31394500  0.81394500  0.68605500  1
  Sr  Sr2  1  0.68605500  0.31394500  0.81394500  1
  Sr  Sr3  1  0.81394500  0.68605500  0.31394500  1
  Sr  Sr4  1  0.81166100  0.81166100  0.81166100  1
  Sr  Sr5  1  0.68833900  0.18833900  0.31166100  1
  Sr  Sr6  1  0.31166100  0.68833900  0.18833900  1
  Sr  Sr7  1  0.18833900  0.31166100  0.68833900  1
  Sr  Sr8  1  0.52216200  0.70507400  0.93708800  1
  Sr  Sr9  1  0.93708800  0.52216200  0.70507400  1
  Sr  Sr10  1  0.70507400  0.93708800  0.52216200  1
  Sr  Sr11  1  0.79492600  0.06291200  0.02216200  1
  Sr  Sr12  1  0.43708800  0.97783800  0.29492600  1
  Sr  Sr13  1  0.29492600  0.43708800  0.97783800  1
  Sr  Sr14  1  0.56291200  0.47783800  0.20507400  1
  Sr  Sr15  1  0.06291200  0.02216200  0.79492600  1
  Sr  Sr16  1  0.20507400  0.56291200  0.47783800  1
  Sr  Sr17  1  0.02216200  0.79492600  0.06291200  1
  Sr  Sr18  1  0.47783800  0.20507400  0.56291200  1
  Sr  Sr19  1  0.97783800  0.29492600  0.43708800  1
  Sr  Sr20  1  0.80224800  0.55816800  0.00403800  1
  Sr  Sr21  1  0.00403800  0.80224800  0.55816800  1
  Sr  Sr22  1  0.55816800  0.00403800  0.80224800  1
  Sr  Sr23  1  0.94183200  0.99596200  0.30224800  1
  Sr  Sr24  1  0.50403800  0.69775200  0.44183200  1
  Sr  Sr25  1  0.44183200  0.50403800  0.69775200  1
  Sr  Sr26  1  0.49596200  0.19775200  0.05816800  1
  Sr  Sr27  1  0.99596200  0.30224800  0.94183200  1
  Sr  Sr28  1  0.05816800  0.49596200  0.19775200  1
  Sr  Sr29  1  0.30224800  0.94183200  0.99596200  1
  Sr  Sr30  1  0.19775200  0.05816800  0.49596200  1
  Sr  Sr31  1  0.69775200  0.44183200  0.50403800  1
  Ga  Ga32  1  0.43351000  0.43351000  0.43351000  1
  Ga  Ga33  1  0.06649000  0.56649000  0.93351000  1
  Ga  Ga34  1  0.93351000  0.06649000  0.56649000  1
  Ga  Ga35  1  0.56649000  0.93351000  0.06649000  1
  Ga  Ga36  1  0.75224500  0.68568700  0.57827100  1
  Ga  Ga37  1  0.57827100  0.75224500  0.68568700  1
  Ga  Ga38  1  0.68568700  0.57827100  0.75224500  1
  Ga  Ga39  1  0.81431300  0.42172900  0.25224500  1
  Ga  Ga40  1  0.07827100  0.74775500  0.31431300  1
  Ga  Ga41  1  0.31431300  0.07827100  0.74775500  1
  Ga  Ga42  1  0.92172900  0.24775500  0.18568700  1
  Ga  Ga43  1  0.42172900  0.25224500  0.81431300  1
  Ga  Ga44  1  0.18568700  0.92172900  0.24775500  1
  Ga  Ga45  1  0.25224500  0.81431300  0.42172900  1
  Ga  Ga46  1  0.24775500  0.18568700  0.92172900  1
  Ga  Ga47  1  0.74775500  0.31431300  0.07827100  1
  Ga  Ga48  1  0.75350600  0.19351100  0.57369700  1
  Ga  Ga49  1  0.57369700  0.75350600  0.19351100  1
  Ga  Ga50  1  0.19351100  0.57369700  0.75350600  1
  Ga  Ga51  1  0.30648900  0.42630300  0.25350600  1
  Ga  Ga52  1  0.07369700  0.74649400  0.80648900  1
  Ga  Ga53  1  0.80648900  0.07369700  0.74649400  1
  Ga  Ga54  1  0.92630300  0.24649400  0.69351100  1
  Ga  Ga55  1  0.42630300  0.25350600  0.30648900  1
  Ga  Ga56  1  0.69351100  0.92630300  0.24649400  1
  Ga  Ga57  1  0.25350600  0.30648900  0.42630300  1
  Ga  Ga58  1  0.24649400  0.69351100  0.92630300  1
  Ga  Ga59  1  0.74649400  0.80648900  0.07369700  1
