# generated using pymatgen
data_YAl4Ni
_symmetry_space_group_name_H-M   'P 1'
_cell_length_a   7.98330516
_cell_length_b   7.98330516
_cell_length_c   6.62757700
_cell_angle_alpha   90.00000000
_cell_angle_beta   90.00000000
_cell_angle_gamma   150.53899161
_symmetry_Int_Tables_number   1
_chemical_formula_structural   YAl4Ni
_chemical_formula_sum   'Y2 Al8 Ni2'
_cell_volume   207.74772011
_cell_formula_units_Z   2
loop_
 _symmetry_equiv_pos_site_id
 _symmetry_equiv_pos_as_xyz
  1  'x, y, z'
loop_
 _atom_site_type_symbol
 _atom_site_label
 _atom_site_symmetry_multiplicity
 _atom_site_fract_x
 _atom_site_fract_y
 _atom_site_fract_z
 _atom_site_occupancy
  Y  Y0  1  0.61710100  0.38289900  0.25000000  1
  Y  Y1  1  0.38289900  0.61710100  0.75000000  1
  Al  Al2  1  0.18878900  0.81121100  0.94705900  1
  Al  Al3  1  0.81121100  0.18878900  0.05294100  1
  Al  Al4  1  0.81121100  0.18878900  0.44705900  1
  Al  Al5  1  0.18878900  0.81121100  0.55294100  1
  Al  Al6  1  0.00000000  0.00000000  0.50000000  1
  Al  Al7  1  0.00000000  0.00000000  0.00000000  1
  Al  Al8  1  0.57644100  0.42355900  0.75000000  1
  Al  Al9  1  0.42355900  0.57644100  0.25000000  1
  Ni  Ni10  1  0.72643000  0.27357000  0.75000000  1
  Ni  Ni11  1  0.27357000  0.72643000  0.25000000  1
