# generated using pymatgen
data_Sb2BrF15
_symmetry_space_group_name_H-M   'P 1'
_cell_length_a   14.87229700
_cell_length_b   5.37698000
_cell_length_c   14.58872317
_cell_angle_alpha   88.00212640
_cell_angle_beta   90.00000000
_cell_angle_gamma   90.00000000
_symmetry_Int_Tables_number   1
_chemical_formula_structural   Sb2BrF15
_chemical_formula_sum   'Sb8 Br4 F60'
_cell_volume   1165.92247920
_cell_formula_units_Z   4
loop_
 _symmetry_equiv_pos_site_id
 _symmetry_equiv_pos_as_xyz
  1  'x, y, z'
loop_
 _atom_site_type_symbol
 _atom_site_label
 _atom_site_symmetry_multiplicity
 _atom_site_fract_x
 _atom_site_fract_y
 _atom_site_fract_z
 _atom_site_occupancy
  Sb  Sb0  1  0.64653400  0.25165300  0.01385200  1
  Sb  Sb1  1  0.14653400  0.74834700  0.48614800  1
  Sb  Sb2  1  0.35346600  0.74834700  0.98614800  1
  Sb  Sb3  1  0.85346600  0.25165300  0.51385200  1
  Sb  Sb4  1  0.85330900  0.53464700  0.85062100  1
  Sb  Sb5  1  0.35330900  0.46535300  0.64937900  1
  Sb  Sb6  1  0.14669100  0.46535300  0.14937900  1
  Sb  Sb7  1  0.64669100  0.53464700  0.35062100  1
  Br  Br8  1  0.65135600  0.91525400  0.68534700  1
  Br  Br9  1  0.15135600  0.08474600  0.81465300  1
  Br  Br10  1  0.34864400  0.08474600  0.31465300  1
  Br  Br11  1  0.84864400  0.91525400  0.18534700  1
  F  F12  1  0.57505900  0.04558200  0.60727700  1
  F  F13  1  0.07505900  0.95441800  0.89272300  1
  F  F14  1  0.42494100  0.95441800  0.39272300  1
  F  F15  1  0.92494100  0.04558200  0.10727700  1
  F  F16  1  0.56963200  0.78971200  0.75850400  1
  F  F17  1  0.06963200  0.21028800  0.74149600  1
  F  F18  1  0.43036800  0.21028800  0.24149600  1
  F  F19  1  0.93036800  0.78971200  0.25850400  1
  F  F20  1  0.64454300  0.63584800  0.62173700  1
  F  F21  1  0.14454300  0.36415200  0.87826300  1
  F  F22  1  0.35545700  0.36415200  0.37826300  1
  F  F23  1  0.85545700  0.63584800  0.12173700  1
  F  F24  1  0.55954900  0.66814600  0.26877400  1
  F  F25  1  0.05954900  0.33185400  0.23122600  1
  F  F26  1  0.44045100  0.33185400  0.73122600  1
  F  F27  1  0.94045100  0.66814600  0.76877400  1
  F  F28  1  0.74653900  0.69798200  0.28367400  1
  F  F29  1  0.24653900  0.30201800  0.21632600  1
  F  F30  1  0.25346100  0.30201800  0.71632600  1
  F  F31  1  0.75346100  0.69798200  0.78367400  1
  F  F32  1  0.64439600  0.81038100  0.42741400  1
  F  F33  1  0.14439600  0.18961900  0.07258600  1
  F  F34  1  0.35560400  0.18961900  0.57258600  1
  F  F35  1  0.85560400  0.81038100  0.92741400  1
  F  F36  1  0.56440100  0.35569100  0.42674700  1
  F  F37  1  0.06440100  0.64430900  0.07325300  1
  F  F38  1  0.43559900  0.64430900  0.57325300  1
  F  F39  1  0.93559900  0.35569100  0.92674700  1
  F  F40  1  0.66900500  0.25070600  0.28079800  1
  F  F41  1  0.16900500  0.74929400  0.21920200  1
  F  F42  1  0.33099500  0.74929400  0.71920200  1
  F  F43  1  0.83099500  0.25070600  0.78079800  1
  F  F44  1  0.74622500  0.39845200  0.43727800  1
  F  F45  1  0.24622500  0.60154800  0.06272200  1
  F  F46  1  0.25377500  0.60154800  0.56272200  1
  F  F47  1  0.75377500  0.39845200  0.93727800  1
  F  F48  1  0.94221500  0.10534600  0.59029800  1
  F  F49  1  0.44221500  0.89465400  0.90970200  1
  F  F50  1  0.05778500  0.89465400  0.40970200  1
  F  F51  1  0.55778500  0.10534600  0.09029800  1
  F  F52  1  0.83717200  0.53493000  0.58515200  1
  F  F53  1  0.33717200  0.46507000  0.91484800  1
  F  F54  1  0.16282800  0.46507000  0.41484800  1
  F  F55  1  0.66282800  0.53493000  0.08515200  1
  F  F56  1  0.92940800  0.42202100  0.42931500  1
  F  F57  1  0.42940800  0.57797900  0.07068500  1
  F  F58  1  0.07059200  0.57797900  0.57068500  1
  F  F59  1  0.57059200  0.42202100  0.92931500  1
  F  F60  1  0.84201700  0.97671100  0.43764100  1
  F  F61  1  0.34201700  0.02328900  0.06235900  1
  F  F62  1  0.15798300  0.02328900  0.56235900  1
  F  F63  1  0.65798300  0.97671100  0.93764100  1
  F  F64  1  0.75551000  0.09611200  0.58872500  1
  F  F65  1  0.25551000  0.90388800  0.91127500  1
  F  F66  1  0.24449000  0.90388800  0.41127500  1
  F  F67  1  0.74449000  0.09611200  0.08872500  1
  F  F68  1  0.85758000  0.19734700  0.24700100  1
  F  F69  1  0.35758000  0.80265300  0.25299900  1
  F  F70  1  0.14242000  0.80265300  0.75299900  1
  F  F71  1  0.64242000  0.19734700  0.74700100  1
