# generated using pymatgen
data_Mg5Rh2
_symmetry_space_group_name_H-M   'P 1'
_cell_length_a   8.58912796
_cell_length_b   8.58912796
_cell_length_c   8.12930300
_cell_angle_alpha   90.00000000
_cell_angle_beta   90.00000000
_cell_angle_gamma   119.99999970
_symmetry_Int_Tables_number   1
_chemical_formula_structural   Mg5Rh2
_chemical_formula_sum   'Mg20 Rh8'
_cell_volume   519.37625436
_cell_formula_units_Z   4
loop_
 _symmetry_equiv_pos_site_id
 _symmetry_equiv_pos_as_xyz
  1  'x, y, z'
loop_
 _atom_site_type_symbol
 _atom_site_label
 _atom_site_symmetry_multiplicity
 _atom_site_fract_x
 _atom_site_fract_y
 _atom_site_fract_z
 _atom_site_occupancy
  Mg  Mg0  1  0.00000000  0.00000000  0.00000000  1
  Mg  Mg1  1  0.00000000  0.00000000  0.50000000  1
  Mg  Mg2  1  0.45992800  0.91985600  0.25000000  1
  Mg  Mg3  1  0.54007200  0.45992800  0.75000000  1
  Mg  Mg4  1  0.91985600  0.45992800  0.75000000  1
  Mg  Mg5  1  0.08014400  0.54007200  0.25000000  1
  Mg  Mg6  1  0.45992800  0.54007200  0.25000000  1
  Mg  Mg7  1  0.54007200  0.08014400  0.75000000  1
  Mg  Mg8  1  0.19182200  0.38364300  0.93720500  1
  Mg  Mg9  1  0.80817800  0.19182200  0.43720500  1
  Mg  Mg10  1  0.38364300  0.19182200  0.43720500  1
  Mg  Mg11  1  0.61635700  0.80817800  0.93720500  1
  Mg  Mg12  1  0.19182200  0.80817800  0.93720500  1
  Mg  Mg13  1  0.80817800  0.61635700  0.06279500  1
  Mg  Mg14  1  0.80817800  0.19182200  0.06279500  1
  Mg  Mg15  1  0.80817800  0.61635700  0.43720500  1
  Mg  Mg16  1  0.38364300  0.19182200  0.06279500  1
  Mg  Mg17  1  0.61635700  0.80817800  0.56279500  1
  Mg  Mg18  1  0.19182200  0.38364300  0.56279500  1
  Mg  Mg19  1  0.19182200  0.80817800  0.56279500  1
  Rh  Rh20  1  0.33333300  0.66666700  0.75000000  1
  Rh  Rh21  1  0.66666700  0.33333300  0.25000000  1
  Rh  Rh22  1  0.12160400  0.24320800  0.25000000  1
  Rh  Rh23  1  0.87839600  0.12160400  0.75000000  1
  Rh  Rh24  1  0.24320800  0.12160400  0.75000000  1
  Rh  Rh25  1  0.75679200  0.87839600  0.25000000  1
  Rh  Rh26  1  0.12160400  0.87839600  0.25000000  1
  Rh  Rh27  1  0.87839600  0.75679200  0.75000000  1
