# generated using pymatgen
data_LaCo13
_symmetry_space_group_name_H-M   'P 1'
_cell_length_a   7.97271947
_cell_length_b   7.97271947
_cell_length_c   7.97271947
_cell_angle_alpha   60.00000000
_cell_angle_beta   60.00000000
_cell_angle_gamma   60.00000000
_symmetry_Int_Tables_number   1
_chemical_formula_structural   LaCo13
_chemical_formula_sum   'La2 Co26'
_cell_volume   358.34755967
_cell_formula_units_Z   2
loop_
 _symmetry_equiv_pos_site_id
 _symmetry_equiv_pos_as_xyz
  1  'x, y, z'
loop_
 _atom_site_type_symbol
 _atom_site_label
 _atom_site_symmetry_multiplicity
 _atom_site_fract_x
 _atom_site_fract_y
 _atom_site_fract_z
 _atom_site_occupancy
  La  La0  1  0.25000000  0.25000000  0.25000000  1
  La  La1  1  0.75000000  0.75000000  0.75000000  1
  Co  Co2  1  0.50000000  0.50000000  0.50000000  1
  Co  Co3  1  0.00000000  0.00000000  0.00000000  1
  Co  Co4  1  0.20460900  0.79539100  0.44044000  1
  Co  Co5  1  0.94044000  0.29539100  0.70460900  1
  Co  Co6  1  0.70460900  0.05956000  0.94044000  1
  Co  Co7  1  0.94044000  0.05956000  0.29539100  1
  Co  Co8  1  0.05956000  0.94044000  0.70460900  1
  Co  Co9  1  0.05956000  0.29539100  0.94044000  1
  Co  Co10  1  0.70460900  0.94044000  0.29539100  1
  Co  Co11  1  0.44044000  0.79539100  0.55956000  1
  Co  Co12  1  0.55956000  0.79539100  0.20460900  1
  Co  Co13  1  0.79539100  0.55956000  0.44044000  1
  Co  Co14  1  0.55956000  0.20460900  0.44044000  1
  Co  Co15  1  0.79539100  0.44044000  0.20460900  1
  Co  Co16  1  0.44044000  0.20460900  0.79539100  1
  Co  Co17  1  0.20460900  0.55956000  0.79539100  1
  Co  Co18  1  0.20460900  0.44044000  0.55956000  1
  Co  Co19  1  0.70460900  0.29539100  0.05956000  1
  Co  Co20  1  0.29539100  0.94044000  0.05956000  1
  Co  Co21  1  0.29539100  0.05956000  0.70460900  1
  Co  Co22  1  0.94044000  0.70460900  0.05956000  1
  Co  Co23  1  0.05956000  0.70460900  0.29539100  1
  Co  Co24  1  0.29539100  0.70460900  0.94044000  1
  Co  Co25  1  0.44044000  0.55956000  0.20460900  1
  Co  Co26  1  0.79539100  0.20460900  0.55956000  1
  Co  Co27  1  0.55956000  0.44044000  0.79539100  1
