# generated using pymatgen
data_Ho2Ni2Pb
_symmetry_space_group_name_H-M   'P 1'
_cell_length_a   7.40085293
_cell_length_b   7.40085293
_cell_length_c   3.71657200
_cell_angle_alpha   90.00000000
_cell_angle_beta   90.00000000
_cell_angle_gamma   149.29458014
_symmetry_Int_Tables_number   1
_chemical_formula_structural   Ho2Ni2Pb
_chemical_formula_sum   'Ho2 Ni2 Pb1'
_cell_volume   103.94594156
_cell_formula_units_Z   1
loop_
 _symmetry_equiv_pos_site_id
 _symmetry_equiv_pos_as_xyz
  1  'x, y, z'
loop_
 _atom_site_type_symbol
 _atom_site_label
 _atom_site_symmetry_multiplicity
 _atom_site_fract_x
 _atom_site_fract_y
 _atom_site_fract_z
 _atom_site_occupancy
  Ho  Ho0  1  0.35944100  0.64055900  0.50000000  1
  Ho  Ho1  1  0.64055900  0.35944100  0.50000000  1
  Ni  Ni2  1  0.79922800  0.20077200  0.00000000  1
  Ni  Ni3  1  0.20077200  0.79922800  0.00000000  1
  Pb  Pb4  1  0.00000000  0.00000000  0.00000000  1
