# generated using pymatgen
data_Si2CN4
_symmetry_space_group_name_H-M   'P 1'
_cell_length_a   7.41905997
_cell_length_b   7.41905997
_cell_length_c   5.52074500
_cell_angle_alpha   90.00000000
_cell_angle_beta   90.00000000
_cell_angle_gamma   141.52741325
_symmetry_Int_Tables_number   1
_chemical_formula_structural   Si2CN4
_chemical_formula_sum   'Si4 C2 N8'
_cell_volume   189.05303898
_cell_formula_units_Z   2
loop_
 _symmetry_equiv_pos_site_id
 _symmetry_equiv_pos_as_xyz
  1  'x, y, z'
loop_
 _atom_site_type_symbol
 _atom_site_label
 _atom_site_symmetry_multiplicity
 _atom_site_fract_x
 _atom_site_fract_y
 _atom_site_fract_z
 _atom_site_occupancy
  Si  Si0  1  0.63747800  0.23269300  0.59740100  1
  Si  Si1  1  0.23269300  0.63747800  0.40259900  1
  Si  Si2  1  0.13747800  0.73269300  0.90259900  1
  Si  Si3  1  0.73269300  0.13747800  0.09740100  1
  C  C4  1  0.48364100  0.48364100  0.50000000  1
  C  C5  1  0.98364100  0.98364100  0.00000000  1
  N  N6  1  0.57510100  0.40395200  0.53078800  1
  N  N7  1  0.40395200  0.57510100  0.46921200  1
  N  N8  1  0.81798800  0.36114800  0.87393600  1
  N  N9  1  0.36114800  0.81798800  0.12606400  1
  N  N10  1  0.31798800  0.86114800  0.62606400  1
  N  N11  1  0.86114800  0.31798800  0.37393600  1
  N  N12  1  0.90395200  0.07510100  0.03078800  1
  N  N13  1  0.07510100  0.90395200  0.96921200  1
