# generated using pymatgen
data_Na2S2O7
_symmetry_space_group_name_H-M   'P 1'
_cell_length_a   6.88532700
_cell_length_b   6.92737473
_cell_length_c   6.97503093
_cell_angle_alpha   83.85994389
_cell_angle_beta   63.62070704
_cell_angle_gamma   83.60001718
_symmetry_Int_Tables_number   1
_chemical_formula_structural   Na2S2O7
_chemical_formula_sum   'Na4 S4 O14'
_cell_volume   295.57315289
_cell_formula_units_Z   2
loop_
 _symmetry_equiv_pos_site_id
 _symmetry_equiv_pos_as_xyz
  1  'x, y, z'
loop_
 _atom_site_type_symbol
 _atom_site_label
 _atom_site_symmetry_multiplicity
 _atom_site_fract_x
 _atom_site_fract_y
 _atom_site_fract_z
 _atom_site_occupancy
  Na  Na0  1  0.77510700  0.86422400  0.17603100  1
  Na  Na1  1  0.22489300  0.13577600  0.82396900  1
  Na  Na2  1  0.38468700  0.33589800  0.24308600  1
  Na  Na3  1  0.61531300  0.66410200  0.75691400  1
  S  S4  1  0.26972600  0.84063400  0.25224800  1
  S  S5  1  0.73027400  0.15936600  0.74775200  1
  S  S6  1  0.14243900  0.63970100  0.68511400  1
  S  S7  1  0.85756100  0.36029900  0.31488600  1
  O  O8  1  0.23530800  0.44710700  0.60881700  1
  O  O9  1  0.76469200  0.55289300  0.39118300  1
  O  O10  1  0.71051900  0.24329300  0.28687400  1
  O  O11  1  0.28948100  0.75670700  0.71312600  1
  O  O12  1  0.92158000  0.64339800  0.85548500  1
  O  O13  1  0.07842000  0.35660200  0.14451500  1
  O  O14  1  0.08892300  0.75889100  0.48684000  1
  O  O15  1  0.91107700  0.24110900  0.51316000  1
  O  O16  1  0.38303600  0.98806200  0.29028800  1
  O  O17  1  0.61696400  0.01193800  0.70971200  1
  O  O18  1  0.58200100  0.32613400  0.84861600  1
  O  O19  1  0.41799900  0.67386600  0.15138400  1
  O  O20  1  0.87187700  0.08366800  0.84723700  1
  O  O21  1  0.12812300  0.91633200  0.15276300  1
