# generated using pymatgen
data_PrAu2
_symmetry_space_group_name_H-M   'P 1'
_cell_length_a   6.01498882
_cell_length_b   6.01498882
_cell_length_c   6.01498882
_cell_angle_alpha   133.73581463
_cell_angle_beta   106.10868097
_cell_angle_gamma   91.78823892
_symmetry_Int_Tables_number   1
_chemical_formula_structural   PrAu2
_chemical_formula_sum   'Pr2 Au4'
_cell_volume   143.05743267
_cell_formula_units_Z   2
loop_
 _symmetry_equiv_pos_site_id
 _symmetry_equiv_pos_as_xyz
  1  'x, y, z'
loop_
 _atom_site_type_symbol
 _atom_site_label
 _atom_site_symmetry_multiplicity
 _atom_site_fract_x
 _atom_site_fract_y
 _atom_site_fract_z
 _atom_site_occupancy
  Pr  Pr0  1  0.71540100  0.46540100  0.25000000  1
  Pr  Pr1  1  0.28459900  0.53459900  0.75000000  1
  Au  Au2  1  0.30344100  0.83647900  0.46696300  1
  Au  Au3  1  0.69655900  0.16352100  0.53303700  1
  Au  Au4  1  0.86951600  0.83647900  0.03303700  1
  Au  Au5  1  0.13048400  0.16352100  0.96696300  1
