# generated using pymatgen
data_KPb2Br5
_symmetry_space_group_name_H-M   'P 1'
_cell_length_a   8.63404700
_cell_length_b   9.38486000
_cell_length_c   13.33691526
_cell_angle_alpha   89.76387237
_cell_angle_beta   90.00000000
_cell_angle_gamma   90.00000000
_symmetry_Int_Tables_number   1
_chemical_formula_structural   KPb2Br5
_chemical_formula_sum   'K4 Pb8 Br20'
_cell_volume   1080.67202809
_cell_formula_units_Z   4
loop_
 _symmetry_equiv_pos_site_id
 _symmetry_equiv_pos_as_xyz
  1  'x, y, z'
loop_
 _atom_site_type_symbol
 _atom_site_label
 _atom_site_symmetry_multiplicity
 _atom_site_fract_x
 _atom_site_fract_y
 _atom_site_fract_z
 _atom_site_occupancy
  K  K0  1  0.55091800  0.49032500  0.32728000  1
  K  K1  1  0.05091800  0.50967500  0.17272000  1
  K  K2  1  0.44908200  0.50967500  0.67272000  1
  K  K3  1  0.94908200  0.49032500  0.82728000  1
  Pb  Pb4  1  0.49097000  0.98632900  0.32470600  1
  Pb  Pb5  1  0.56536900  0.74407500  0.00411800  1
  Pb  Pb6  1  0.06536900  0.25592500  0.49588200  1
  Pb  Pb7  1  0.43463100  0.25592500  0.99588200  1
  Pb  Pb8  1  0.93463100  0.74407500  0.50411800  1
  Pb  Pb9  1  0.00903000  0.98632900  0.82470600  1
  Pb  Pb10  1  0.50903000  0.01367100  0.67529400  1
  Pb  Pb11  1  0.99097000  0.01367100  0.17529400  1
  Br  Br12  1  0.31497800  0.23524600  0.21654000  1
  Br  Br13  1  0.64794200  0.23690600  0.81165800  1
  Br  Br14  1  0.14794200  0.76309400  0.68834200  1
  Br  Br15  1  0.35205800  0.76309400  0.18834200  1
  Br  Br16  1  0.85205800  0.23690600  0.31165800  1
  Br  Br17  1  0.68502200  0.76475400  0.78346000  1
  Br  Br18  1  0.18502200  0.23524600  0.71654000  1
  Br  Br19  1  0.54226000  0.78045800  0.50290900  1
  Br  Br20  1  0.66206600  0.03986200  0.10210500  1
  Br  Br21  1  0.16206600  0.96013800  0.39789500  1
  Br  Br22  1  0.33793400  0.96013800  0.89789500  1
  Br  Br23  1  0.83793400  0.03986200  0.60210500  1
  Br  Br24  1  0.45774000  0.21954200  0.49709100  1
  Br  Br25  1  0.04226000  0.21954200  0.99709100  1
  Br  Br26  1  0.82077200  0.46068700  0.57927500  1
  Br  Br27  1  0.95774000  0.78045800  0.00290900  1
  Br  Br28  1  0.67922800  0.46068700  0.07927500  1
  Br  Br29  1  0.17922800  0.53931300  0.42072500  1
  Br  Br30  1  0.32077200  0.53931300  0.92072500  1
  Br  Br31  1  0.81497800  0.76475400  0.28346000  1
