# generated using pymatgen
data_KSnAs
_symmetry_space_group_name_H-M   'P 1'
_cell_length_a   4.18031749
_cell_length_b   4.18031749
_cell_length_c   12.96153900
_cell_angle_alpha   90.00000000
_cell_angle_beta   90.00000000
_cell_angle_gamma   119.99999200
_symmetry_Int_Tables_number   1
_chemical_formula_structural   KSnAs
_chemical_formula_sum   'K2 Sn2 As2'
_cell_volume   196.15788619
_cell_formula_units_Z   2
loop_
 _symmetry_equiv_pos_site_id
 _symmetry_equiv_pos_as_xyz
  1  'x, y, z'
loop_
 _atom_site_type_symbol
 _atom_site_label
 _atom_site_symmetry_multiplicity
 _atom_site_fract_x
 _atom_site_fract_y
 _atom_site_fract_z
 _atom_site_occupancy
  K  K0  1  0.33333300  0.66666700  0.99574600  1
  K  K1  1  0.66666700  0.33333300  0.49574600  1
  Sn  Sn2  1  0.00000000  0.00000000  0.27626600  1
  Sn  Sn3  1  0.00000000  0.00000000  0.77626600  1
  As  As4  1  0.33333300  0.66666700  0.67308800  1
  As  As5  1  0.66666700  0.33333300  0.17308800  1
