# generated using pymatgen
data_CdPbF6
_symmetry_space_group_name_H-M   'P 1'
_cell_length_a   6.04250785
_cell_length_b   6.04250785
_cell_length_c   6.04250772
_cell_angle_alpha   55.96664408
_cell_angle_beta   55.96664408
_cell_angle_gamma   55.96665530
_symmetry_Int_Tables_number   1
_chemical_formula_structural   CdPbF6
_chemical_formula_sum   'Cd1 Pb1 F6'
_cell_volume   141.42495074
_cell_formula_units_Z   1
loop_
 _symmetry_equiv_pos_site_id
 _symmetry_equiv_pos_as_xyz
  1  'x, y, z'
loop_
 _atom_site_type_symbol
 _atom_site_label
 _atom_site_symmetry_multiplicity
 _atom_site_fract_x
 _atom_site_fract_y
 _atom_site_fract_z
 _atom_site_occupancy
  Cd  Cd0  1  0.50000000  0.50000000  0.50000000  1
  Pb  Pb1  1  0.00000000  0.00000000  0.00000000  1
  F  F2  1  0.36028000  0.12165800  0.75706400  1
  F  F3  1  0.75706400  0.36028000  0.12165800  1
  F  F4  1  0.12165800  0.75706400  0.36028000  1
  F  F5  1  0.87834200  0.24293600  0.63972000  1
  F  F6  1  0.24293600  0.63972000  0.87834200  1
  F  F7  1  0.63972000  0.87834200  0.24293600  1
