# generated using pymatgen
data_SnP7Au3
_symmetry_space_group_name_H-M   'P 1'
_cell_length_a   11.14628900
_cell_length_b   6.39088000
_cell_length_c   6.52046982
_cell_angle_alpha   71.17408874
_cell_angle_beta   90.00000000
_cell_angle_gamma   90.00000000
_symmetry_Int_Tables_number   1
_chemical_formula_structural   SnP7Au3
_chemical_formula_sum   'Sn2 P14 Au6'
_cell_volume   439.63477727
_cell_formula_units_Z   2
loop_
 _symmetry_equiv_pos_site_id
 _symmetry_equiv_pos_as_xyz
  1  'x, y, z'
loop_
 _atom_site_type_symbol
 _atom_site_label
 _atom_site_symmetry_multiplicity
 _atom_site_fract_x
 _atom_site_fract_y
 _atom_site_fract_z
 _atom_site_occupancy
  Sn  Sn0  1  0.25000000  0.68865200  0.04041300  1
  Sn  Sn1  1  0.75000000  0.31134800  0.95958700  1
  P  P2  1  0.25000000  0.26127400  0.28318900  1
  P  P3  1  0.75000000  0.73872600  0.71681100  1
  P  P4  1  0.58843100  0.20021600  0.71049800  1
  P  P5  1  0.08843100  0.79978400  0.28950200  1
  P  P6  1  0.41156900  0.79978400  0.28950200  1
  P  P7  1  0.91156900  0.20021600  0.71049800  1
  P  P8  1  0.40842200  0.27979400  0.80485800  1
  P  P9  1  0.90842200  0.72020600  0.19514200  1
  P  P10  1  0.92125500  0.83557900  0.83523100  1
  P  P11  1  0.42125500  0.16442100  0.16476900  1
  P  P12  1  0.07874500  0.16442100  0.16476900  1
  P  P13  1  0.57874500  0.83557900  0.83523100  1
  P  P14  1  0.09157800  0.27979400  0.80485800  1
  P  P15  1  0.59157800  0.72020600  0.19514200  1
  Au  Au16  1  0.59788600  0.31546900  0.31313900  1
  Au  Au17  1  0.09788600  0.68453100  0.68686100  1
  Au  Au18  1  0.40211400  0.68453100  0.68686100  1
  Au  Au19  1  0.90211400  0.31546900  0.31313900  1
  Au  Au20  1  0.25000000  0.07327400  0.68113800  1
  Au  Au21  1  0.75000000  0.92672600  0.31886200  1
