# generated using pymatgen
data_Th7Co3
_symmetry_space_group_name_H-M   'P 1'
_cell_length_a   9.75158136
_cell_length_b   9.75158136
_cell_length_c   6.18422500
_cell_angle_alpha   90.00000000
_cell_angle_beta   90.00000000
_cell_angle_gamma   119.99999566
_symmetry_Int_Tables_number   1
_chemical_formula_structural   Th7Co3
_chemical_formula_sum   'Th14 Co6'
_cell_volume   509.29103320
_cell_formula_units_Z   2
loop_
 _symmetry_equiv_pos_site_id
 _symmetry_equiv_pos_as_xyz
  1  'x, y, z'
loop_
 _atom_site_type_symbol
 _atom_site_label
 _atom_site_symmetry_multiplicity
 _atom_site_fract_x
 _atom_site_fract_y
 _atom_site_fract_z
 _atom_site_occupancy
  Th  Th0  1  0.33333300  0.66666700  0.04903200  1
  Th  Th1  1  0.66666700  0.33333300  0.54903200  1
  Th  Th2  1  0.12619600  0.87380400  0.24450700  1
  Th  Th3  1  0.25239300  0.12619600  0.74450700  1
  Th  Th4  1  0.87380400  0.74760700  0.74450700  1
  Th  Th5  1  0.12619600  0.25239300  0.24450700  1
  Th  Th6  1  0.74760700  0.87380400  0.24450700  1
  Th  Th7  1  0.87380400  0.12619600  0.74450700  1
  Th  Th8  1  0.54414500  0.45585500  0.04962700  1
  Th  Th9  1  0.08828900  0.54414500  0.54962700  1
  Th  Th10  1  0.45585500  0.91171100  0.54962700  1
  Th  Th11  1  0.54414500  0.08828900  0.04962700  1
  Th  Th12  1  0.91171100  0.45585500  0.04962700  1
  Th  Th13  1  0.45585500  0.54414500  0.54962700  1
  Co  Co14  1  0.81474600  0.18525400  0.29952200  1
  Co  Co15  1  0.62949300  0.81474600  0.79952200  1
  Co  Co16  1  0.18525400  0.37050700  0.79952200  1
  Co  Co17  1  0.81474600  0.62949300  0.29952200  1
  Co  Co18  1  0.37050700  0.18525400  0.29952200  1
  Co  Co19  1  0.18525400  0.81474600  0.79952200  1
