# generated using pymatgen
data_CsClO4
_symmetry_space_group_name_H-M   'P 1'
_cell_length_a   6.14667600
_cell_length_b   8.01869700
_cell_length_c   10.04956500
_cell_angle_alpha   90.00000000
_cell_angle_beta   90.00000000
_cell_angle_gamma   90.00000000
_symmetry_Int_Tables_number   1
_chemical_formula_structural   CsClO4
_chemical_formula_sum   'Cs4 Cl4 O16'
_cell_volume   495.32630021
_cell_formula_units_Z   4
loop_
 _symmetry_equiv_pos_site_id
 _symmetry_equiv_pos_as_xyz
  1  'x, y, z'
loop_
 _atom_site_type_symbol
 _atom_site_label
 _atom_site_symmetry_multiplicity
 _atom_site_fract_x
 _atom_site_fract_y
 _atom_site_fract_z
 _atom_site_occupancy
  Cs  Cs0  1  0.25000000  0.33770700  0.68861500  1
  Cs  Cs1  1  0.75000000  0.66229300  0.31138500  1
  Cs  Cs2  1  0.75000000  0.83770700  0.81138500  1
  Cs  Cs3  1  0.25000000  0.16229300  0.18861500  1
  Cl  Cl4  1  0.25000000  0.69686900  0.05656300  1
  Cl  Cl5  1  0.75000000  0.30313100  0.94343700  1
  Cl  Cl6  1  0.75000000  0.19686900  0.44343700  1
  Cl  Cl7  1  0.25000000  0.80313100  0.55656300  1
  O  O8  1  0.75000000  0.12564600  0.57666000  1
  O  O9  1  0.55574700  0.30159900  0.42598300  1
  O  O10  1  0.05574700  0.80159900  0.07401700  1
  O  O11  1  0.25000000  0.93463300  0.65715600  1
  O  O12  1  0.25000000  0.56536700  0.15715600  1
  O  O13  1  0.75000000  0.37435400  0.07666000  1
  O  O14  1  0.44425300  0.80159900  0.07401700  1
  O  O15  1  0.55574700  0.19840100  0.92598300  1
  O  O16  1  0.25000000  0.62564600  0.92334000  1
  O  O17  1  0.44425300  0.69840100  0.57401700  1
  O  O18  1  0.94425300  0.19840100  0.92598300  1
  O  O19  1  0.05574700  0.69840100  0.57401700  1
  O  O20  1  0.75000000  0.06536700  0.34284400  1
  O  O21  1  0.75000000  0.43463300  0.84284400  1
  O  O22  1  0.25000000  0.87435400  0.42334000  1
  O  O23  1  0.94425300  0.30159900  0.42598300  1
