# generated using pymatgen
data_K2Re3CS5N
_symmetry_space_group_name_H-M   'P 1'
_cell_length_a   9.34913800
_cell_length_b   10.33102500
_cell_length_c   11.47753000
_cell_angle_alpha   90.00000000
_cell_angle_beta   90.00000000
_cell_angle_gamma   90.00000000
_symmetry_Int_Tables_number   1
_chemical_formula_structural   K2Re3CS5N
_chemical_formula_sum   'K8 Re12 C4 S20 N4'
_cell_volume   1108.57076025
_cell_formula_units_Z   4
loop_
 _symmetry_equiv_pos_site_id
 _symmetry_equiv_pos_as_xyz
  1  'x, y, z'
loop_
 _atom_site_type_symbol
 _atom_site_label
 _atom_site_symmetry_multiplicity
 _atom_site_fract_x
 _atom_site_fract_y
 _atom_site_fract_z
 _atom_site_occupancy
  K  K0  1  0.04750800  0.75000000  0.25000000  1
  K  K1  1  0.04750800  0.75000000  0.75000000  1
  K  K2  1  0.22130100  0.07423000  0.00000000  1
  K  K3  1  0.22130100  0.42577000  0.50000000  1
  K  K4  1  0.77869900  0.57423000  0.50000000  1
  K  K5  1  0.77869900  0.92577000  0.00000000  1
  K  K6  1  0.95249200  0.25000000  0.25000000  1
  K  K7  1  0.95249200  0.25000000  0.75000000  1
  Re  Re8  1  0.33792900  0.60468400  0.00000000  1
  Re  Re9  1  0.33792900  0.89531600  0.50000000  1
  Re  Re10  1  0.41770200  0.10585600  0.38528000  1
  Re  Re11  1  0.41770200  0.10585600  0.61472000  1
  Re  Re12  1  0.41770200  0.39414400  0.11472000  1
  Re  Re13  1  0.41770200  0.39414400  0.88528000  1
  Re  Re14  1  0.58229800  0.60585600  0.11472000  1
  Re  Re15  1  0.58229800  0.60585600  0.88528000  1
  Re  Re16  1  0.58229800  0.89414400  0.38528000  1
  Re  Re17  1  0.58229800  0.89414400  0.61472000  1
  Re  Re18  1  0.66207100  0.10468400  0.50000000  1
  Re  Re19  1  0.66207100  0.39531600  0.00000000  1
  C  C20  1  0.16939800  0.76119600  0.50000000  1
  C  C21  1  0.16939800  0.73880400  0.00000000  1
  C  C22  1  0.83060200  0.23880400  0.50000000  1
  C  C23  1  0.83060200  0.26119600  0.00000000  1
  S  S24  1  0.19853600  0.09154800  0.50000000  1
  S  S25  1  0.19853600  0.40845200  0.00000000  1
  S  S26  1  0.28781800  0.25000000  0.25000000  1
  S  S27  1  0.28781800  0.25000000  0.75000000  1
  S  S28  1  0.35189900  0.59322900  0.78829700  1
  S  S29  1  0.35189900  0.90677100  0.71170300  1
  S  S30  1  0.35189900  0.59322900  0.21170300  1
  S  S31  1  0.35189900  0.90677100  0.28829700  1
  S  S32  1  0.49473800  0.71225600  0.50000000  1
  S  S33  1  0.49473800  0.78774400  0.00000000  1
  S  S34  1  0.50526200  0.21225600  0.00000000  1
  S  S35  1  0.50526200  0.28774400  0.50000000  1
  S  S36  1  0.64810100  0.09322900  0.28829700  1
  S  S37  1  0.64810100  0.09322900  0.71170300  1
  S  S38  1  0.64810100  0.40677100  0.78829700  1
  S  S39  1  0.64810100  0.40677100  0.21170300  1
  S  S40  1  0.71218200  0.75000000  0.25000000  1
  S  S41  1  0.71218200  0.75000000  0.75000000  1
  S  S42  1  0.80146400  0.59154800  0.00000000  1
  S  S43  1  0.80146400  0.90845200  0.50000000  1
  N  N44  1  0.08247200  0.82229100  0.00000000  1
  N  N45  1  0.08247200  0.67770900  0.50000000  1
  N  N46  1  0.91752800  0.17770900  0.00000000  1
  N  N47  1  0.91752800  0.32229100  0.50000000  1
