# generated using pymatgen
data_Nb3S5
_symmetry_space_group_name_H-M   'P 1'
_cell_length_a   7.93508700
_cell_length_b   8.91958845
_cell_length_c   9.26178417
_cell_angle_alpha   93.96839276
_cell_angle_beta   94.85254602
_cell_angle_gamma   113.55439742
_symmetry_Int_Tables_number   1
_chemical_formula_structural   Nb3S5
_chemical_formula_sum   'Nb12 S20'
_cell_volume   594.93624311
_cell_formula_units_Z   4
loop_
 _symmetry_equiv_pos_site_id
 _symmetry_equiv_pos_as_xyz
  1  'x, y, z'
loop_
 _atom_site_type_symbol
 _atom_site_label
 _atom_site_symmetry_multiplicity
 _atom_site_fract_x
 _atom_site_fract_y
 _atom_site_fract_z
 _atom_site_occupancy
  Nb  Nb0  1  0.00870000  0.00559000  0.99984500  1
  Nb  Nb1  1  0.60528300  0.40238600  0.59791700  1
  Nb  Nb2  1  0.50228700  0.99960800  0.50361200  1
  Nb  Nb3  1  0.20448500  0.80080600  0.19753900  1
  Nb  Nb4  1  0.09810400  0.40146500  0.09933800  1
  Nb  Nb5  1  0.79911600  0.19992100  0.80035200  1
  Nb  Nb6  1  0.70489600  0.79920800  0.69603000  1
  Nb  Nb7  1  0.40851000  0.60508800  0.39903100  1
  Nb  Nb8  1  0.29967500  0.19842000  0.29093400  1
  Nb  Nb9  1  0.89611800  0.59264800  0.89914100  1
  Nb  Nb10  1  0.86019600  0.69553300  0.39784400  1
  Nb  Nb11  1  0.45534800  0.09085200  0.99583400  1
  S  S12  1  0.07241300  0.55131700  0.33020600  1
  S  S13  1  0.39691400  0.65190600  0.13762700  1
  S  S14  1  0.67146300  0.94844300  0.92684200  1
  S  S15  1  0.56954600  0.54832700  0.82352100  1
  S  S16  1  0.99754200  0.05394300  0.73850700  1
  S  S17  1  0.91174800  0.64926200  0.64596700  1
  S  S18  1  0.27796900  0.35286600  0.52278400  1
  S  S19  1  0.16730900  0.94872300  0.42720100  1
  S  S20  1  0.59425300  0.44211500  0.32873400  1
  S  S21  1  0.50744400  0.05096700  0.24677000  1
  S  S22  1  0.86977700  0.75017800  0.12950300  1
  S  S23  1  0.76404300  0.34560100  0.03106800  1
  S  S24  1  0.19025400  0.83751700  0.93101700  1
  S  S25  1  0.09502400  0.44920400  0.83940200  1
  S  S26  1  0.46621100  0.14898200  0.72887900  1
  S  S27  1  0.37466800  0.74601900  0.62908600  1
  S  S28  1  0.79850400  0.25164800  0.54123300  1
  S  S29  1  0.70273500  0.86823400  0.43648900  1
  S  S30  1  0.97203800  0.14835000  0.22730800  1
  S  S31  1  0.29582600  0.26647600  0.03083800  1
