# generated using pymatgen
data_Lu2Pd2Pb
_symmetry_space_group_name_H-M   'P 1'
_cell_length_a   7.88371800
_cell_length_b   7.88371800
_cell_length_c   3.50799900
_cell_angle_alpha   90.00000000
_cell_angle_beta   90.00000000
_cell_angle_gamma   90.00000000
_symmetry_Int_Tables_number   1
_chemical_formula_structural   Lu2Pd2Pb
_chemical_formula_sum   'Lu4 Pd4 Pb2'
_cell_volume   218.03269519
_cell_formula_units_Z   2
loop_
 _symmetry_equiv_pos_site_id
 _symmetry_equiv_pos_as_xyz
  1  'x, y, z'
loop_
 _atom_site_type_symbol
 _atom_site_label
 _atom_site_symmetry_multiplicity
 _atom_site_fract_x
 _atom_site_fract_y
 _atom_site_fract_z
 _atom_site_occupancy
  Lu  Lu0  1  0.66734000  0.16734000  0.50000000  1
  Lu  Lu1  1  0.16734000  0.33266000  0.50000000  1
  Lu  Lu2  1  0.83266000  0.66734000  0.50000000  1
  Lu  Lu3  1  0.33266000  0.83266000  0.50000000  1
  Pd  Pd4  1  0.37257700  0.12742300  0.00000000  1
  Pd  Pd5  1  0.12742300  0.62742300  0.00000000  1
  Pd  Pd6  1  0.62742300  0.87257700  0.00000000  1
  Pd  Pd7  1  0.87257700  0.37257700  0.00000000  1
  Pb  Pb8  1  0.00000000  0.00000000  0.00000000  1
  Pb  Pb9  1  0.50000000  0.50000000  0.00000000  1
