# generated using pymatgen
data_CaTa4O11
_symmetry_space_group_name_H-M   'P 1'
_cell_length_a   6.28091170
_cell_length_b   6.28091170
_cell_length_c   12.39228400
_cell_angle_alpha   90.00000000
_cell_angle_beta   90.00000000
_cell_angle_gamma   119.99999680
_symmetry_Int_Tables_number   1
_chemical_formula_structural   CaTa4O11
_chemical_formula_sum   'Ca2 Ta8 O22'
_cell_volume   423.37711464
_cell_formula_units_Z   2
loop_
 _symmetry_equiv_pos_site_id
 _symmetry_equiv_pos_as_xyz
  1  'x, y, z'
loop_
 _atom_site_type_symbol
 _atom_site_label
 _atom_site_symmetry_multiplicity
 _atom_site_fract_x
 _atom_site_fract_y
 _atom_site_fract_z
 _atom_site_occupancy
  Ca  Ca0  1  0.33333300  0.66666700  0.75000000  1
  Ca  Ca1  1  0.66666700  0.33333300  0.25000000  1
  Ta  Ta2  1  0.66666700  0.33333300  0.75000000  1
  Ta  Ta3  1  0.33333300  0.66666700  0.25000000  1
  Ta  Ta4  1  0.64209400  0.00000000  0.50000000  1
  Ta  Ta5  1  0.64209400  0.64209400  0.00000000  1
  Ta  Ta6  1  0.00000000  0.35790600  0.00000000  1
  Ta  Ta7  1  0.00000000  0.64209400  0.50000000  1
  Ta  Ta8  1  0.35790600  0.35790600  0.50000000  1
  Ta  Ta9  1  0.35790600  0.00000000  0.00000000  1
  O  O10  1  0.33333300  0.66666700  0.53395600  1
  O  O11  1  0.66666700  0.33333300  0.03395600  1
  O  O12  1  0.66666700  0.33333300  0.46604400  1
  O  O13  1  0.33333300  0.66666700  0.96604400  1
  O  O14  1  0.24472800  0.00000000  0.50000000  1
  O  O15  1  0.24472800  0.24472800  0.00000000  1
  O  O16  1  0.00000000  0.75527200  0.00000000  1
  O  O17  1  0.00000000  0.24472800  0.50000000  1
  O  O18  1  0.75527200  0.75527200  0.50000000  1
  O  O19  1  0.75527200  0.00000000  0.00000000  1
  O  O20  1  0.37928000  0.94517400  0.15572800  1
  O  O21  1  0.43410600  0.37928000  0.65572800  1
  O  O22  1  0.94517400  0.56589400  0.65572800  1
  O  O23  1  0.05482600  0.43410600  0.15572800  1
  O  O24  1  0.56589400  0.62072000  0.15572800  1
  O  O25  1  0.43410600  0.05482600  0.84427200  1
  O  O26  1  0.62072000  0.56589400  0.84427200  1
  O  O27  1  0.62072000  0.05482600  0.65572800  1
  O  O28  1  0.94517400  0.37928000  0.84427200  1
  O  O29  1  0.05482600  0.62072000  0.34427200  1
  O  O30  1  0.56589400  0.94517400  0.34427200  1
  O  O31  1  0.37928000  0.43410600  0.34427200  1
