# generated using pymatgen
data_RbGaCl4
_symmetry_space_group_name_H-M   'P 1'
_cell_length_a   7.27930000
_cell_length_b   9.58869900
_cell_length_c   11.43947900
_cell_angle_alpha   90.00000000
_cell_angle_beta   90.00000000
_cell_angle_gamma   90.00000000
_symmetry_Int_Tables_number   1
_chemical_formula_structural   RbGaCl4
_chemical_formula_sum   'Rb4 Ga4 Cl16'
_cell_volume   798.46438497
_cell_formula_units_Z   4
loop_
 _symmetry_equiv_pos_site_id
 _symmetry_equiv_pos_as_xyz
  1  'x, y, z'
loop_
 _atom_site_type_symbol
 _atom_site_label
 _atom_site_symmetry_multiplicity
 _atom_site_fract_x
 _atom_site_fract_y
 _atom_site_fract_z
 _atom_site_occupancy
  Rb  Rb0  1  0.75000000  0.82707900  0.68226200  1
  Rb  Rb1  1  0.25000000  0.17292100  0.31773800  1
  Rb  Rb2  1  0.25000000  0.32707900  0.81773800  1
  Rb  Rb3  1  0.75000000  0.67292100  0.18226200  1
  Ga  Ga4  1  0.25000000  0.81121500  0.93268100  1
  Ga  Ga5  1  0.75000000  0.18878500  0.06731900  1
  Ga  Ga6  1  0.75000000  0.31121500  0.56731900  1
  Ga  Ga7  1  0.25000000  0.68878500  0.43268100  1
  Cl  Cl8  1  0.25000000  0.92131300  0.10048200  1
  Cl  Cl9  1  0.75000000  0.07868700  0.89951800  1
  Cl  Cl10  1  0.75000000  0.42131300  0.39951800  1
  Cl  Cl11  1  0.25000000  0.57868700  0.60048200  1
  Cl  Cl12  1  0.25000000  0.95375100  0.78234700  1
  Cl  Cl13  1  0.75000000  0.04624900  0.21765300  1
  Cl  Cl14  1  0.75000000  0.45375100  0.71765300  1
  Cl  Cl15  1  0.25000000  0.54624900  0.28234700  1
  Cl  Cl16  1  0.49518100  0.82441800  0.42118600  1
  Cl  Cl17  1  0.99518100  0.17558200  0.57881400  1
  Cl  Cl18  1  0.50481900  0.32441800  0.07881400  1
  Cl  Cl19  1  0.00481900  0.67558200  0.92118600  1
  Cl  Cl20  1  0.50481900  0.17558200  0.57881400  1
  Cl  Cl21  1  0.00481900  0.82441800  0.42118600  1
  Cl  Cl22  1  0.49518100  0.67558200  0.92118600  1
  Cl  Cl23  1  0.99518100  0.32441800  0.07881400  1
