# generated using pymatgen
data_LaSiIr
_symmetry_space_group_name_H-M   'P 1'
_cell_length_a   6.43190600
_cell_length_b   6.43190600
_cell_length_c   6.43190600
_cell_angle_alpha   90.00000000
_cell_angle_beta   90.00000000
_cell_angle_gamma   90.00000000
_symmetry_Int_Tables_number   1
_chemical_formula_structural   LaSiIr
_chemical_formula_sum   'La4 Si4 Ir4'
_cell_volume   266.08418722
_cell_formula_units_Z   4
loop_
 _symmetry_equiv_pos_site_id
 _symmetry_equiv_pos_as_xyz
  1  'x, y, z'
loop_
 _atom_site_type_symbol
 _atom_site_label
 _atom_site_symmetry_multiplicity
 _atom_site_fract_x
 _atom_site_fract_y
 _atom_site_fract_z
 _atom_site_occupancy
  La  La0  1  0.13475900  0.86524100  0.36524100  1
  La  La1  1  0.86524100  0.36524100  0.13475900  1
  La  La2  1  0.63475900  0.63475900  0.63475900  1
  La  La3  1  0.36524100  0.13475900  0.86524100  1
  Si  Si4  1  0.65961900  0.84038100  0.15961900  1
  Si  Si5  1  0.15961900  0.65961900  0.84038100  1
  Si  Si6  1  0.84038100  0.15961900  0.65961900  1
  Si  Si7  1  0.34038100  0.34038100  0.34038100  1
  Ir  Ir8  1  0.07336000  0.42664000  0.57336000  1
  Ir  Ir9  1  0.57336000  0.07336000  0.42664000  1
  Ir  Ir10  1  0.92664000  0.92664000  0.92664000  1
  Ir  Ir11  1  0.42664000  0.57336000  0.07336000  1
