# generated using pymatgen
data_KGaCl4
_symmetry_space_group_name_H-M   'P 1'
_cell_length_a   10.67196200
_cell_length_b   7.39083600
_cell_length_c   11.76921444
_cell_angle_alpha   54.53193559
_cell_angle_beta   90.00000000
_cell_angle_gamma   90.00000000
_symmetry_Int_Tables_number   1
_chemical_formula_structural   KGaCl4
_chemical_formula_sum   'K4 Ga4 Cl16'
_cell_volume   756.03849363
_cell_formula_units_Z   4
loop_
 _symmetry_equiv_pos_site_id
 _symmetry_equiv_pos_as_xyz
  1  'x, y, z'
loop_
 _atom_site_type_symbol
 _atom_site_label
 _atom_site_symmetry_multiplicity
 _atom_site_fract_x
 _atom_site_fract_y
 _atom_site_fract_z
 _atom_site_occupancy
  K  K0  1  0.30327000  0.98536800  0.20122000  1
  K  K1  1  0.80327000  0.01463200  0.29878000  1
  K  K2  1  0.69673000  0.01463200  0.79878000  1
  K  K3  1  0.19673000  0.98536800  0.70122000  1
  Ga  Ga4  1  0.55094500  0.42757000  0.31612400  1
  Ga  Ga5  1  0.05094500  0.57243000  0.18387600  1
  Ga  Ga6  1  0.44905500  0.57243000  0.68387600  1
  Ga  Ga7  1  0.94905500  0.42757000  0.81612400  1
  Cl  Cl8  1  0.87895000  0.62739300  0.06559000  1
  Cl  Cl9  1  0.37895000  0.37260700  0.43441000  1
  Cl  Cl10  1  0.12105000  0.37260700  0.93441000  1
  Cl  Cl11  1  0.62105000  0.62739300  0.56559000  1
  Cl  Cl12  1  0.46541800  0.71205300  0.80643200  1
  Cl  Cl13  1  0.96541800  0.28794700  0.69356800  1
  Cl  Cl14  1  0.53458200  0.28794700  0.19356800  1
  Cl  Cl15  1  0.03458200  0.71205300  0.30643200  1
  Cl  Cl16  1  0.92059200  0.79073900  0.67359300  1
  Cl  Cl17  1  0.42059200  0.20926100  0.82640700  1
  Cl  Cl18  1  0.07940800  0.20926100  0.32640700  1
  Cl  Cl19  1  0.57940800  0.79073900  0.17359300  1
  Cl  Cl20  1  0.71613000  0.26487500  0.45133400  1
  Cl  Cl21  1  0.21613000  0.73512500  0.04866600  1
  Cl  Cl22  1  0.28387000  0.73512500  0.54866600  1
  Cl  Cl23  1  0.78387000  0.26487500  0.95133400  1
