# generated using pymatgen
data_Pr(PO3)3
_symmetry_space_group_name_H-M   'P 1'
_cell_length_a   7.14768985
_cell_length_b   7.14768985
_cell_length_c   7.43230600
_cell_angle_alpha   90.00000000
_cell_angle_beta   90.00000000
_cell_angle_gamma   105.30706416
_symmetry_Int_Tables_number   1
_chemical_formula_structural   Pr(PO3)3
_chemical_formula_sum   'Pr2 P6 O18'
_cell_volume   366.24222601
_cell_formula_units_Z   2
loop_
 _symmetry_equiv_pos_site_id
 _symmetry_equiv_pos_as_xyz
  1  'x, y, z'
loop_
 _atom_site_type_symbol
 _atom_site_label
 _atom_site_symmetry_multiplicity
 _atom_site_fract_x
 _atom_site_fract_y
 _atom_site_fract_z
 _atom_site_occupancy
  Pr  Pr0  1  0.62661400  0.62661400  0.50000000  1
  Pr  Pr1  1  0.37338600  0.37338600  0.00000000  1
  P  P2  1  0.16699700  0.81618800  0.45303900  1
  P  P3  1  0.83300300  0.18381200  0.95303900  1
  P  P4  1  0.81618800  0.16699700  0.54696100  1
  P  P5  1  0.18381200  0.83300300  0.04696100  1
  P  P6  1  0.24875100  0.24875100  0.50000000  1
  P  P7  1  0.75124900  0.75124900  0.00000000  1
  O  O8  1  0.24811000  0.03038500  0.54093500  1
  O  O9  1  0.75189000  0.96961500  0.04093500  1
  O  O10  1  0.03038500  0.24811000  0.45906500  1
  O  O11  1  0.96961500  0.75189000  0.95906500  1
  O  O12  1  0.32796400  0.36454600  0.66713900  1
  O  O13  1  0.67203600  0.63545400  0.16713900  1
  O  O14  1  0.36454600  0.32796400  0.33286100  1
  O  O15  1  0.63545400  0.67203600  0.83286100  1
  O  O16  1  0.28129600  0.67297800  0.03722300  1
  O  O17  1  0.71870400  0.32702200  0.53722300  1
  O  O18  1  0.67297800  0.28129600  0.96277700  1
  O  O19  1  0.32702200  0.71870400  0.46277700  1
  O  O20  1  0.27950100  0.02495400  0.96439000  1
  O  O21  1  0.72049900  0.97504600  0.46439000  1
  O  O22  1  0.02495400  0.27950100  0.03561000  1
  O  O23  1  0.97504600  0.72049900  0.53561000  1
  O  O24  1  0.12672100  0.87327900  0.25000000  1
  O  O25  1  0.87327900  0.12672100  0.75000000  1
