# generated using pymatgen
data_Sr3(PO4)2
_symmetry_space_group_name_H-M   'P 1'
_cell_length_a   7.38666327
_cell_length_b   7.38666327
_cell_length_c   7.38666310
_cell_angle_alpha   43.38465395
_cell_angle_beta   43.38465395
_cell_angle_gamma   43.38465977
_symmetry_Int_Tables_number   1
_chemical_formula_structural   Sr3(PO4)2
_chemical_formula_sum   'Sr3 P2 O8'
_cell_volume   172.49872087
_cell_formula_units_Z   1
loop_
 _symmetry_equiv_pos_site_id
 _symmetry_equiv_pos_as_xyz
  1  'x, y, z'
loop_
 _atom_site_type_symbol
 _atom_site_label
 _atom_site_symmetry_multiplicity
 _atom_site_fract_x
 _atom_site_fract_y
 _atom_site_fract_z
 _atom_site_occupancy
  Sr  Sr0  1  0.00000000  0.00000000  0.00000000  1
  Sr  Sr1  1  0.20782200  0.20782200  0.20782200  1
  Sr  Sr2  1  0.79217800  0.79217800  0.79217800  1
  P  P3  1  0.40632300  0.40632300  0.40632300  1
  P  P4  1  0.59367700  0.59367700  0.59367700  1
  O  O5  1  0.32919900  0.32919900  0.32919900  1
  O  O6  1  0.67080100  0.67080100  0.67080100  1
  O  O7  1  0.27703300  0.74402700  0.27703300  1
  O  O8  1  0.27703300  0.27703300  0.74402700  1
  O  O9  1  0.74402700  0.27703300  0.27703300  1
  O  O10  1  0.72296700  0.25597300  0.72296700  1
  O  O11  1  0.72296700  0.72296700  0.25597300  1
  O  O12  1  0.25597300  0.72296700  0.72296700  1
