# generated using pymatgen
data_K3Sn2S3ClO12
_symmetry_space_group_name_H-M   'P 1'
_cell_length_a   7.67659500
_cell_length_b   10.28750700
_cell_length_c   10.40440316
_cell_angle_alpha   60.78365689
_cell_angle_beta   90.00000000
_cell_angle_gamma   90.00000000
_symmetry_Int_Tables_number   1
_chemical_formula_structural   K3Sn2S3ClO12
_chemical_formula_sum   'K6 Sn4 S6 Cl2 O24'
_cell_volume   717.13705900
_cell_formula_units_Z   2
loop_
 _symmetry_equiv_pos_site_id
 _symmetry_equiv_pos_as_xyz
  1  'x, y, z'
loop_
 _atom_site_type_symbol
 _atom_site_label
 _atom_site_symmetry_multiplicity
 _atom_site_fract_x
 _atom_site_fract_y
 _atom_site_fract_z
 _atom_site_occupancy
  K  K0  1  0.97566900  0.32132000  0.33157900  1
  K  K1  1  0.49108300  0.32839300  0.33814300  1
  K  K2  1  0.71948700  0.00784600  0.74943900  1
  K  K3  1  0.21948700  0.99215400  0.25056100  1
  K  K4  1  0.47566900  0.67868000  0.66842100  1
  K  K5  1  0.99108300  0.67160700  0.66185700  1
  Sn  Sn6  1  0.18567500  0.72953800  0.01333300  1
  Sn  Sn7  1  0.18497200  0.23341300  0.74476900  1
  Sn  Sn8  1  0.68497200  0.76658700  0.25523100  1
  Sn  Sn9  1  0.68567500  0.27046200  0.98666700  1
  S  S10  1  0.24446400  0.59326200  0.37309900  1
  S  S11  1  0.24559700  0.38956400  0.02241400  1
  S  S12  1  0.23031100  0.04302500  0.59630800  1
  S  S13  1  0.73031100  0.95697500  0.40369200  1
  S  S14  1  0.74559700  0.61043600  0.97758600  1
  S  S15  1  0.74446400  0.40673800  0.62690100  1
  Cl  Cl16  1  0.00256900  0.00322900  0.97925100  1
  Cl  Cl17  1  0.50256900  0.99677100  0.02074900  1
  O  O18  1  0.10329300  0.64556700  0.25507800  1
  O  O19  1  0.41677300  0.62960600  0.29290000  1
  O  O20  1  0.22859900  0.42856200  0.46557300  1
  O  O21  1  0.72679300  0.32986800  0.54015300  1
  O  O22  1  0.74025300  0.50582900  0.13693400  1
  O  O23  1  0.23774600  0.47491500  0.10787600  1
  O  O24  1  0.07043000  0.10838200  0.63523700  1
  O  O25  1  0.38290400  0.09571400  0.64826400  1
  O  O26  1  0.41839600  0.30608900  0.06446900  1
  O  O27  1  0.23426800  0.10627700  0.43485300  1
  O  O28  1  0.10255700  0.28082700  0.07319800  1
  O  O29  1  0.71846300  0.12088800  0.32711800  1
  O  O30  1  0.21846300  0.87911200  0.67288200  1
  O  O31  1  0.60255700  0.71917300  0.92680200  1
  O  O32  1  0.73426800  0.89372300  0.56514700  1
  O  O33  1  0.91839600  0.69391100  0.93553100  1
  O  O34  1  0.88290400  0.90428600  0.35173600  1
  O  O35  1  0.57043000  0.89161800  0.36476300  1
  O  O36  1  0.73774600  0.52508500  0.89212400  1
  O  O37  1  0.24025300  0.49417100  0.86306600  1
  O  O38  1  0.22679300  0.67013200  0.45984700  1
  O  O39  1  0.72859900  0.57143800  0.53442700  1
  O  O40  1  0.91677300  0.37039400  0.70710000  1
  O  O41  1  0.60329300  0.35443300  0.74492200  1
