# generated using pymatgen
data_Dy2Fe14B
_symmetry_space_group_name_H-M   'P 1'
_cell_length_a   8.73004800
_cell_length_b   8.73004800
_cell_length_c   11.89953800
_cell_angle_alpha   90.00000000
_cell_angle_beta   90.00000000
_cell_angle_gamma   90.00000000
_symmetry_Int_Tables_number   1
_chemical_formula_structural   Dy2Fe14B
_chemical_formula_sum   'Dy8 Fe56 B4'
_cell_volume   906.90827243
_cell_formula_units_Z   4
loop_
 _symmetry_equiv_pos_site_id
 _symmetry_equiv_pos_as_xyz
  1  'x, y, z'
loop_
 _atom_site_type_symbol
 _atom_site_label
 _atom_site_symmetry_multiplicity
 _atom_site_fract_x
 _atom_site_fract_y
 _atom_site_fract_z
 _atom_site_occupancy
  Dy  Dy0  1  0.85643100  0.14356900  0.00000000  1
  Dy  Dy1  1  0.35643100  0.35643100  0.50000000  1
  Dy  Dy2  1  0.64356900  0.64356900  0.50000000  1
  Dy  Dy3  1  0.14356900  0.85643100  0.00000000  1
  Dy  Dy4  1  0.73280500  0.73280500  0.00000000  1
  Dy  Dy5  1  0.76719500  0.23280500  0.50000000  1
  Dy  Dy6  1  0.23280500  0.76719500  0.50000000  1
  Dy  Dy7  1  0.26719500  0.26719500  0.00000000  1
  Fe  Fe8  1  0.50000000  0.00000000  0.00000000  1
  Fe  Fe9  1  0.50000000  0.00000000  0.50000000  1
  Fe  Fe10  1  0.00000000  0.50000000  0.50000000  1
  Fe  Fe11  1  0.00000000  0.50000000  0.00000000  1
  Fe  Fe12  1  0.50000000  0.50000000  0.88410400  1
  Fe  Fe13  1  0.00000000  0.00000000  0.38410400  1
  Fe  Fe14  1  0.00000000  0.00000000  0.61589600  1
  Fe  Fe15  1  0.50000000  0.50000000  0.11589600  1
  Fe  Fe16  1  0.68285500  0.68285500  0.75414100  1
  Fe  Fe17  1  0.31714500  0.31714500  0.75414100  1
  Fe  Fe18  1  0.68285500  0.68285500  0.24585900  1
  Fe  Fe19  1  0.18285500  0.81714500  0.25414100  1
  Fe  Fe20  1  0.81714500  0.18285500  0.25414100  1
  Fe  Fe21  1  0.81714500  0.18285500  0.74585900  1
  Fe  Fe22  1  0.18285500  0.81714500  0.74585900  1
  Fe  Fe23  1  0.31714500  0.31714500  0.24585900  1
  Fe  Fe24  1  0.90267700  0.90267700  0.79959000  1
  Fe  Fe25  1  0.09732300  0.09732300  0.79959000  1
  Fe  Fe26  1  0.90267700  0.90267700  0.20041000  1
  Fe  Fe27  1  0.40267700  0.59732300  0.29959000  1
  Fe  Fe28  1  0.59732300  0.40267700  0.29959000  1
  Fe  Fe29  1  0.59732300  0.40267700  0.70041000  1
  Fe  Fe30  1  0.40267700  0.59732300  0.70041000  1
  Fe  Fe31  1  0.09732300  0.09732300  0.20041000  1
  Fe  Fe32  1  0.35886400  0.03704000  0.17470900  1
  Fe  Fe33  1  0.64113600  0.96296000  0.17470900  1
  Fe  Fe34  1  0.03704000  0.35886400  0.82529100  1
  Fe  Fe35  1  0.53704000  0.14113600  0.67470900  1
  Fe  Fe36  1  0.46296000  0.85886400  0.67470900  1
  Fe  Fe37  1  0.14113600  0.53704000  0.32529100  1
  Fe  Fe38  1  0.85886400  0.46296000  0.32529100  1
  Fe  Fe39  1  0.96296000  0.64113600  0.82529100  1
  Fe  Fe40  1  0.64113600  0.96296000  0.82529100  1
  Fe  Fe41  1  0.35886400  0.03704000  0.82529100  1
  Fe  Fe42  1  0.96296000  0.64113600  0.17470900  1
  Fe  Fe43  1  0.46296000  0.85886400  0.32529100  1
  Fe  Fe44  1  0.53704000  0.14113600  0.32529100  1
  Fe  Fe45  1  0.85886400  0.46296000  0.67470900  1
  Fe  Fe46  1  0.14113600  0.53704000  0.67470900  1
  Fe  Fe47  1  0.03704000  0.35886400  0.17470900  1
  Fe  Fe48  1  0.56624400  0.22448200  0.12622200  1
  Fe  Fe49  1  0.43375600  0.77551800  0.12622200  1
  Fe  Fe50  1  0.22448200  0.56624400  0.87377800  1
  Fe  Fe51  1  0.72448200  0.93375600  0.62622200  1
  Fe  Fe52  1  0.27551800  0.06624400  0.62622200  1
  Fe  Fe53  1  0.93375600  0.72448200  0.37377800  1
  Fe  Fe54  1  0.06624400  0.27551800  0.37377800  1
  Fe  Fe55  1  0.77551800  0.43375600  0.87377800  1
  Fe  Fe56  1  0.43375600  0.77551800  0.87377800  1
  Fe  Fe57  1  0.56624400  0.22448200  0.87377800  1
  Fe  Fe58  1  0.77551800  0.43375600  0.12622200  1
  Fe  Fe59  1  0.27551800  0.06624400  0.37377800  1
  Fe  Fe60  1  0.72448200  0.93375600  0.37377800  1
  Fe  Fe61  1  0.06624400  0.27551800  0.62622200  1
  Fe  Fe62  1  0.93375600  0.72448200  0.62622200  1
  Fe  Fe63  1  0.22448200  0.56624400  0.12622200  1
  B  B64  1  0.62453500  0.37546500  0.00000000  1
  B  B65  1  0.12453500  0.12453500  0.50000000  1
  B  B66  1  0.87546500  0.87546500  0.50000000  1
  B  B67  1  0.37546500  0.62453500  0.00000000  1
