# generated using pymatgen
data_Ca5P3HO13
_symmetry_space_group_name_H-M   'P 1'
_cell_length_a   9.54534453
_cell_length_b   9.54534453
_cell_length_c   6.91907000
_cell_angle_alpha   90.00000000
_cell_angle_beta   90.00000000
_cell_angle_gamma   120.00000365
_symmetry_Int_Tables_number   1
_chemical_formula_structural   Ca5P3HO13
_chemical_formula_sum   'Ca10 P6 H2 O26'
_cell_volume   545.96091971
_cell_formula_units_Z   2
loop_
 _symmetry_equiv_pos_site_id
 _symmetry_equiv_pos_as_xyz
  1  'x, y, z'
loop_
 _atom_site_type_symbol
 _atom_site_label
 _atom_site_symmetry_multiplicity
 _atom_site_fract_x
 _atom_site_fract_y
 _atom_site_fract_z
 _atom_site_occupancy
  Ca  Ca0  1  0.24948200  0.99820600  0.25089800  1
  Ca  Ca1  1  0.00179400  0.25127600  0.25089800  1
  Ca  Ca2  1  0.33333300  0.66666700  0.00158200  1
  Ca  Ca3  1  0.33333300  0.66666700  0.49905600  1
  Ca  Ca4  1  0.25127600  0.24948200  0.75089800  1
  Ca  Ca5  1  0.74872400  0.75051800  0.25089800  1
  Ca  Ca6  1  0.66666700  0.33333300  0.50158200  1
  Ca  Ca7  1  0.66666700  0.33333300  0.99905600  1
  Ca  Ca8  1  0.99820600  0.74872400  0.75089800  1
  Ca  Ca9  1  0.75051800  0.00179400  0.75089800  1
  P  P10  1  0.03032900  0.39873800  0.75204200  1
  P  P11  1  0.36840900  0.96967100  0.75204200  1
  P  P12  1  0.39873800  0.36840900  0.25204200  1
  P  P13  1  0.60126200  0.63159100  0.75204200  1
  P  P14  1  0.63159100  0.03032900  0.25204200  1
  P  P15  1  0.96967100  0.60126200  0.25204200  1
  H  H16  1  0.00000000  0.00000000  0.42915300  1
  H  H17  1  0.00000000  0.00000000  0.92915300  1
  O  O18  1  0.25954200  0.91162400  0.93471700  1
  O  O19  1  0.25501400  0.91721200  0.57305200  1
  O  O20  1  0.15527700  0.67001600  0.25340200  1
  O  O21  1  0.12365700  0.58779300  0.74674900  1
  O  O22  1  0.08278800  0.33780200  0.57305200  1
  O  O23  1  0.08837600  0.34791800  0.93471700  1
  O  O24  1  0.46413600  0.87634300  0.74674900  1
  O  O25  1  0.32998400  0.48526100  0.25340200  1
  O  O26  1  0.51473900  0.84472300  0.25340200  1
  O  O27  1  0.41220700  0.53586400  0.74674900  1
  O  O28  1  0.34791800  0.25954200  0.43471700  1
  O  O29  1  0.33780200  0.25501400  0.07305200  1
  O  O30  1  0.65208200  0.74045800  0.93471700  1
  O  O31  1  0.66219800  0.74498600  0.57305200  1
  O  O32  1  0.58779300  0.46413600  0.24674900  1
  O  O33  1  0.48526100  0.15527700  0.75340200  1
  O  O34  1  0.67001600  0.51473900  0.75340200  1
  O  O35  1  0.53586400  0.12365700  0.24674900  1
  O  O36  1  0.91721200  0.66219800  0.07305200  1
  O  O37  1  0.91162400  0.65208200  0.43471700  1
  O  O38  1  0.87634300  0.41220700  0.24674900  1
  O  O39  1  0.84472300  0.32998400  0.75340200  1
  O  O40  1  0.74045800  0.08837600  0.43471700  1
  O  O41  1  0.74498600  0.08278800  0.07305200  1
  O  O42  1  0.00000000  0.00000000  0.28793000  1
  O  O43  1  0.00000000  0.00000000  0.78793000  1
