# generated using pymatgen
data_AlF3
_symmetry_space_group_name_H-M   'P 1'
_cell_length_a   5.11222569
_cell_length_b   5.11222569
_cell_length_c   5.11222598
_cell_angle_alpha   58.99567389
_cell_angle_beta   58.99567389
_cell_angle_gamma   58.99566378
_symmetry_Int_Tables_number   1
_chemical_formula_structural   AlF3
_chemical_formula_sum   'Al2 F6'
_cell_volume   92.31020935
_cell_formula_units_Z   2
loop_
 _symmetry_equiv_pos_site_id
 _symmetry_equiv_pos_as_xyz
  1  'x, y, z'
loop_
 _atom_site_type_symbol
 _atom_site_label
 _atom_site_symmetry_multiplicity
 _atom_site_fract_x
 _atom_site_fract_y
 _atom_site_fract_z
 _atom_site_occupancy
  Al  Al0  1  0.00000000  0.00000000  0.00000000  1
  Al  Al1  1  0.50000000  0.50000000  0.50000000  1
  F  F2  1  0.75000000  0.18577800  0.31422200  1
  F  F3  1  0.31422200  0.75000000  0.18577800  1
  F  F4  1  0.81422200  0.68577800  0.25000000  1
  F  F5  1  0.68577800  0.25000000  0.81422200  1
  F  F6  1  0.25000000  0.81422200  0.68577800  1
  F  F7  1  0.18577800  0.31422200  0.75000000  1
