# generated using pymatgen
data_HoPO4
_symmetry_space_group_name_H-M   'P 1'
_cell_length_a   5.76029141
_cell_length_b   5.76029141
_cell_length_c   5.76029141
_cell_angle_alpha   105.95196515
_cell_angle_beta   105.95196515
_cell_angle_gamma   116.76532430
_symmetry_Int_Tables_number   1
_chemical_formula_structural   HoPO4
_chemical_formula_sum   'Ho2 P2 O8'
_cell_volume   145.32338955
_cell_formula_units_Z   2
loop_
 _symmetry_equiv_pos_site_id
 _symmetry_equiv_pos_as_xyz
  1  'x, y, z'
loop_
 _atom_site_type_symbol
 _atom_site_label
 _atom_site_symmetry_multiplicity
 _atom_site_fract_x
 _atom_site_fract_y
 _atom_site_fract_z
 _atom_site_occupancy
  Ho  Ho0  1  0.50000000  0.50000000  0.00000000  1
  Ho  Ho1  1  0.75000000  0.25000000  0.50000000  1
  P  P2  1  0.25000000  0.75000000  0.50000000  1
  P  P3  1  0.00000000  0.00000000  0.00000000  1
  O  O4  1  0.83904900  0.66422900  0.82517900  1
  O  O5  1  0.26387000  0.58904900  0.67482100  1
  O  O6  1  0.91422900  0.58904900  0.32517900  1
  O  O7  1  0.83904900  0.01387000  0.17482100  1
  O  O8  1  0.98613000  0.16095100  0.82517900  1
  O  O9  1  0.41095100  0.08577100  0.67482100  1
  O  O10  1  0.41095100  0.73613000  0.32517900  1
  O  O11  1  0.33577100  0.16095100  0.17482100  1
