# generated using pymatgen
data_SbPdSe
_symmetry_space_group_name_H-M   'P 1'
_cell_length_a   6.42521400
_cell_length_b   6.42521400
_cell_length_c   6.42521400
_cell_angle_alpha   90.00000000
_cell_angle_beta   90.00000000
_cell_angle_gamma   90.00000000
_symmetry_Int_Tables_number   1
_chemical_formula_structural   SbPdSe
_chemical_formula_sum   'Sb4 Pd4 Se4'
_cell_volume   265.25451867
_cell_formula_units_Z   4
loop_
 _symmetry_equiv_pos_site_id
 _symmetry_equiv_pos_as_xyz
  1  'x, y, z'
loop_
 _atom_site_type_symbol
 _atom_site_label
 _atom_site_symmetry_multiplicity
 _atom_site_fract_x
 _atom_site_fract_y
 _atom_site_fract_z
 _atom_site_occupancy
  Sb  Sb0  1  0.87357500  0.62642500  0.37357500  1
  Sb  Sb1  1  0.37357500  0.87357500  0.62642500  1
  Sb  Sb2  1  0.12642500  0.12642500  0.12642500  1
  Sb  Sb3  1  0.62642500  0.37357500  0.87357500  1
  Pd  Pd4  1  0.74666600  0.24666600  0.25333400  1
  Pd  Pd5  1  0.24666600  0.25333400  0.74666600  1
  Pd  Pd6  1  0.25333400  0.74666600  0.24666600  1
  Pd  Pd7  1  0.75333400  0.75333400  0.75333400  1
  Se  Se8  1  0.36771300  0.36771300  0.36771300  1
  Se  Se9  1  0.13228700  0.63228700  0.86771300  1
  Se  Se10  1  0.86771300  0.13228700  0.63228700  1
  Se  Se11  1  0.63228700  0.86771300  0.13228700  1
