# generated using pymatgen
data_Cs2KZrOF5
_symmetry_space_group_name_H-M   'P 1'
_cell_length_a   6.70809323
_cell_length_b   6.70809323
_cell_length_c   6.70809323
_cell_angle_alpha   120.29082599
_cell_angle_beta   120.29082599
_cell_angle_gamma   89.49700842
_symmetry_Int_Tables_number   1
_chemical_formula_structural   Cs2KZrOF5
_chemical_formula_sum   'Cs2 K1 Zr1 O1 F5'
_cell_volume   212.49603914
_cell_formula_units_Z   1
loop_
 _symmetry_equiv_pos_site_id
 _symmetry_equiv_pos_as_xyz
  1  'x, y, z'
loop_
 _atom_site_type_symbol
 _atom_site_label
 _atom_site_symmetry_multiplicity
 _atom_site_fract_x
 _atom_site_fract_y
 _atom_site_fract_z
 _atom_site_occupancy
  Cs  Cs0  1  0.24810500  0.74810500  0.50000000  1
  Cs  Cs1  1  0.74810500  0.24810500  0.50000000  1
  K  K2  1  0.50267300  0.50267300  0.00000000  1
  Zr  Zr3  1  0.98208700  0.98208700  0.00000000  1
  O  O4  1  0.78324200  0.78324200  0.00000000  1
  F  F5  1  0.78264000  0.22534900  0.00000000  1
  F  F6  1  0.78264000  0.78264000  0.55729200  1
  F  F7  1  0.22534900  0.22534900  0.44270800  1
  F  F8  1  0.21980900  0.21980900  0.00000000  1
  F  F9  1  0.22534900  0.78264000  0.00000000  1
