# generated using pymatgen
data_NaDy3Ti2(SbO7)2
_symmetry_space_group_name_H-M   'P 1'
_cell_length_a   7.29054000
_cell_length_b   7.30736600
_cell_length_c   12.60025845
_cell_angle_alpha   54.95194304
_cell_angle_beta   90.00000000
_cell_angle_gamma   90.00000000
_symmetry_Int_Tables_number   1
_chemical_formula_structural   NaDy3Ti2(SbO7)2
_chemical_formula_sum   'Na2 Dy6 Ti4 Sb4 O28'
_cell_volume   549.55256696
_cell_formula_units_Z   2
loop_
 _symmetry_equiv_pos_site_id
 _symmetry_equiv_pos_as_xyz
  1  'x, y, z'
loop_
 _atom_site_type_symbol
 _atom_site_label
 _atom_site_symmetry_multiplicity
 _atom_site_fract_x
 _atom_site_fract_y
 _atom_site_fract_z
 _atom_site_occupancy
  Na  Na0  1  0.00000000  0.50000000  0.50000000  1
  Na  Na1  1  0.00000000  0.50000000  0.00000000  1
  Dy  Dy2  1  0.22669200  0.00000000  0.75000000  1
  Dy  Dy3  1  0.24582300  0.50000000  0.75000000  1
  Dy  Dy4  1  0.77330800  0.00000000  0.25000000  1
  Dy  Dy5  1  0.50000000  0.50000000  0.50000000  1
  Dy  Dy6  1  0.75417700  0.50000000  0.25000000  1
  Dy  Dy7  1  0.50000000  0.50000000  0.00000000  1
  Ti  Ti8  1  0.26301100  0.00000000  0.25000000  1
  Ti  Ti9  1  0.50000000  0.00000000  0.00000000  1
  Ti  Ti10  1  0.73698900  0.00000000  0.75000000  1
  Ti  Ti11  1  0.50000000  0.00000000  0.50000000  1
  Sb  Sb12  1  0.25461200  0.50000000  0.25000000  1
  Sb  Sb13  1  0.00000000  0.00000000  0.50000000  1
  Sb  Sb14  1  0.74538800  0.50000000  0.75000000  1
  Sb  Sb15  1  0.00000000  0.00000000  0.00000000  1
  O  O16  1  0.26355800  0.63480400  0.86726200  1
  O  O17  1  0.04844500  0.05680300  0.13320400  1
  O  O18  1  0.26976900  0.67635500  0.32414000  1
  O  O19  1  0.73644200  0.63480400  0.36726200  1
  O  O20  1  0.04270200  0.66892900  0.12938300  1
  O  O21  1  0.55352500  0.07591200  0.62122200  1
  O  O22  1  0.04270200  0.33107100  0.37061700  1
  O  O23  1  0.95155500  0.05680300  0.63320400  1
  O  O24  1  0.74937700  0.07800000  0.42111700  1
  O  O25  1  0.73023100  0.67635500  0.82414000  1
  O  O26  1  0.25062300  0.92200000  0.57888300  1
  O  O27  1  0.54316100  0.67443900  0.62265500  1
  O  O28  1  0.04844500  0.94319700  0.36679600  1
  O  O29  1  0.95729800  0.66892900  0.62938300  1
  O  O30  1  0.95729800  0.33107100  0.87061700  1
  O  O31  1  0.44647500  0.07591200  0.12122200  1
  O  O32  1  0.54316100  0.32556100  0.87734500  1
  O  O33  1  0.25062300  0.07800000  0.92111700  1
  O  O34  1  0.73023100  0.32364500  0.67586000  1
  O  O35  1  0.26355800  0.36519600  0.63273800  1
  O  O36  1  0.74937700  0.92200000  0.07888300  1
  O  O37  1  0.95155500  0.94319700  0.86679600  1
  O  O38  1  0.55352500  0.92408800  0.87877800  1
  O  O39  1  0.45683900  0.67443900  0.12265500  1
  O  O40  1  0.45683900  0.32556100  0.37734500  1
  O  O41  1  0.73644200  0.36519600  0.13273800  1
  O  O42  1  0.26976900  0.32364500  0.17586000  1
  O  O43  1  0.44647500  0.92408800  0.37877800  1
