# generated using pymatgen
data_U3(CuGe)4
_symmetry_space_group_name_H-M   'P 1'
_cell_length_a   7.92512817
_cell_length_b   7.92512817
_cell_length_c   7.92512817
_cell_angle_alpha   148.17888985
_cell_angle_beta   131.48744835
_cell_angle_gamma   59.19255702
_symmetry_Int_Tables_number   1
_chemical_formula_structural   U3(CuGe)4
_chemical_formula_sum   'U3 Cu4 Ge4'
_cell_volume   194.97496894
_cell_formula_units_Z   1
loop_
 _symmetry_equiv_pos_site_id
 _symmetry_equiv_pos_as_xyz
  1  'x, y, z'
loop_
 _atom_site_type_symbol
 _atom_site_label
 _atom_site_symmetry_multiplicity
 _atom_site_fract_x
 _atom_site_fract_y
 _atom_site_fract_z
 _atom_site_occupancy
  U  U0  1  0.87604800  0.37604800  0.50000000  1
  U  U1  1  0.12395200  0.62395200  0.50000000  1
  U  U2  1  0.50000000  0.50000000  0.00000000  1
  Cu  Cu3  1  0.86105000  0.17052100  0.69052900  1
  Cu  Cu4  1  0.13895000  0.82947900  0.30947100  1
  Cu  Cu5  1  0.47999200  0.17052100  0.30947100  1
  Cu  Cu6  1  0.52000800  0.82947900  0.69052900  1
  Ge  Ge7  1  0.28420000  0.28420000  0.00000000  1
  Ge  Ge8  1  0.80268200  0.00000000  0.80268200  1
  Ge  Ge9  1  0.19731800  0.00000000  0.19731800  1
  Ge  Ge10  1  0.71580000  0.71580000  0.00000000  1
