# generated using pymatgen
data_NaGd3Ti2(SbO7)2
_symmetry_space_group_name_H-M   'P 1'
_cell_length_a   7.32399700
_cell_length_b   7.35683800
_cell_length_c   12.67799081
_cell_angle_alpha   54.94585857
_cell_angle_beta   90.00000000
_cell_angle_gamma   90.00000000
_symmetry_Int_Tables_number   1
_chemical_formula_structural   NaGd3Ti2(SbO7)2
_chemical_formula_sum   'Na2 Gd6 Ti4 Sb4 O28'
_cell_volume   559.19935144
_cell_formula_units_Z   2
loop_
 _symmetry_equiv_pos_site_id
 _symmetry_equiv_pos_as_xyz
  1  'x, y, z'
loop_
 _atom_site_type_symbol
 _atom_site_label
 _atom_site_symmetry_multiplicity
 _atom_site_fract_x
 _atom_site_fract_y
 _atom_site_fract_z
 _atom_site_occupancy
  Na  Na0  1  0.50000000  0.50000000  0.50000000  1
  Na  Na1  1  0.50000000  0.50000000  0.00000000  1
  Gd  Gd2  1  0.26701600  0.00000000  0.75000000  1
  Gd  Gd3  1  0.73298400  0.00000000  0.25000000  1
  Gd  Gd4  1  0.25473500  0.50000000  0.75000000  1
  Gd  Gd5  1  0.74526500  0.50000000  0.25000000  1
  Gd  Gd6  1  0.00000000  0.50000000  0.00000000  1
  Gd  Gd7  1  0.00000000  0.50000000  0.50000000  1
  Ti  Ti8  1  0.00000000  0.00000000  0.00000000  1
  Ti  Ti9  1  0.00000000  0.00000000  0.50000000  1
  Ti  Ti10  1  0.23918200  0.00000000  0.25000000  1
  Ti  Ti11  1  0.76081800  0.00000000  0.75000000  1
  Sb  Sb12  1  0.24589800  0.50000000  0.25000000  1
  Sb  Sb13  1  0.50000000  0.00000000  0.50000000  1
  Sb  Sb14  1  0.75410200  0.50000000  0.75000000  1
  Sb  Sb15  1  0.50000000  0.00000000  0.00000000  1
  O  O16  1  0.23981100  0.63268400  0.86881300  1
  O  O17  1  0.05348100  0.07328800  0.12231500  1
  O  O18  1  0.23228800  0.67830300  0.32229900  1
  O  O19  1  0.76018900  0.63268400  0.36881300  1
  O  O20  1  0.24928500  0.07662700  0.92308800  1
  O  O21  1  0.04549700  0.67618100  0.12263500  1
  O  O22  1  0.55028200  0.05722800  0.63216600  1
  O  O23  1  0.04549700  0.32381900  0.37736500  1
  O  O24  1  0.94651900  0.07328800  0.62231500  1
  O  O25  1  0.24928500  0.92337300  0.57691200  1
  O  O26  1  0.75071500  0.07662700  0.42308800  1
  O  O27  1  0.76771200  0.67830300  0.82229900  1
  O  O28  1  0.05348100  0.92671200  0.37768500  1
  O  O29  1  0.95450300  0.67618100  0.62263500  1
  O  O30  1  0.54483300  0.67056300  0.62859000  1
  O  O31  1  0.95450300  0.32381900  0.87736500  1
  O  O32  1  0.54483300  0.32943700  0.87141000  1
  O  O33  1  0.44971800  0.05722800  0.13216600  1
  O  O34  1  0.76771200  0.32169700  0.67770100  1
  O  O35  1  0.75071500  0.92337300  0.07691200  1
  O  O36  1  0.94651900  0.92671200  0.87768500  1
  O  O37  1  0.45516700  0.67056300  0.12859000  1
  O  O38  1  0.55028200  0.94277200  0.86783400  1
  O  O39  1  0.45516700  0.32943700  0.37141000  1
  O  O40  1  0.76018900  0.36731600  0.13118700  1
  O  O41  1  0.23228800  0.32169700  0.17770100  1
  O  O42  1  0.44971800  0.94277200  0.36783400  1
  O  O43  1  0.23981100  0.36731600  0.63118700  1
