# generated using pymatgen
data_Li7VN4
_symmetry_space_group_name_H-M   'P 1'
_cell_length_a   9.60605600
_cell_length_b   9.60605600
_cell_length_c   9.60605600
_cell_angle_alpha   90.00000000
_cell_angle_beta   90.00000000
_cell_angle_gamma   90.00000000
_symmetry_Int_Tables_number   1
_chemical_formula_structural   Li7VN4
_chemical_formula_sum   'Li56 V8 N32'
_cell_volume   886.41141935
_cell_formula_units_Z   8
loop_
 _symmetry_equiv_pos_site_id
 _symmetry_equiv_pos_as_xyz
  1  'x, y, z'
loop_
 _atom_site_type_symbol
 _atom_site_label
 _atom_site_symmetry_multiplicity
 _atom_site_fract_x
 _atom_site_fract_y
 _atom_site_fract_z
 _atom_site_occupancy
  Li  Li0  1  0.86422400  0.38023400  0.39601300  1
  Li  Li1  1  0.36422400  0.11976600  0.60398700  1
  Li  Li2  1  0.13577600  0.88023400  0.10398700  1
  Li  Li3  1  0.11976600  0.60398700  0.36422400  1
  Li  Li4  1  0.10398700  0.13577600  0.88023400  1
  Li  Li5  1  0.60398700  0.36422400  0.11976600  1
  Li  Li6  1  0.38023400  0.39601300  0.86422400  1
  Li  Li7  1  0.39601300  0.86422400  0.38023400  1
  Li  Li8  1  0.88023400  0.10398700  0.13577600  1
  Li  Li9  1  0.61976600  0.89601300  0.63577600  1
  Li  Li10  1  0.89601300  0.63577600  0.61976600  1
  Li  Li11  1  0.63577600  0.61976600  0.89601300  1
  Li  Li12  1  0.13577600  0.61976600  0.60398700  1
  Li  Li13  1  0.63577600  0.88023400  0.39601300  1
  Li  Li14  1  0.86422400  0.11976600  0.89601300  1
  Li  Li15  1  0.88023400  0.39601300  0.63577600  1
  Li  Li16  1  0.89601300  0.86422400  0.11976600  1
  Li  Li17  1  0.39601300  0.63577600  0.88023400  1
  Li  Li18  1  0.61976600  0.60398700  0.13577600  1
  Li  Li19  1  0.60398700  0.13577600  0.61976600  1
  Li  Li20  1  0.11976600  0.89601300  0.86422400  1
  Li  Li21  1  0.38023400  0.10398700  0.36422400  1
  Li  Li22  1  0.10398700  0.36422400  0.38023400  1
  Li  Li23  1  0.86918500  0.62991400  0.11573100  1
  Li  Li24  1  0.36422400  0.38023400  0.10398700  1
  Li  Li25  1  0.12991400  0.11573100  0.63081500  1
  Li  Li26  1  0.37008600  0.88426900  0.13081500  1
  Li  Li27  1  0.11573100  0.63081500  0.12991400  1
  Li  Li28  1  0.13081500  0.37008600  0.88426900  1
  Li  Li29  1  0.63081500  0.12991400  0.11573100  1
  Li  Li30  1  0.38426900  0.36918500  0.62991400  1
  Li  Li31  1  0.36918500  0.62991400  0.38426900  1
  Li  Li32  1  0.88426900  0.13081500  0.37008600  1
  Li  Li33  1  0.61573100  0.86918500  0.87008600  1
  Li  Li34  1  0.86918500  0.87008600  0.61573100  1
  Li  Li35  1  0.87008600  0.61573100  0.86918500  1
  Li  Li36  1  0.37008600  0.61573100  0.63081500  1
  Li  Li37  1  0.87008600  0.88426900  0.36918500  1
  Li  Li38  1  0.62991400  0.11573100  0.86918500  1
  Li  Li39  1  0.88426900  0.36918500  0.87008600  1
  Li  Li40  1  0.13316900  0.13316900  0.13316900  1
  Li  Li41  1  0.36683100  0.86683100  0.63316900  1
  Li  Li42  1  0.63316900  0.36683100  0.86683100  1
  Li  Li43  1  0.86683100  0.63316900  0.36683100  1
  Li  Li44  1  0.86683100  0.86683100  0.86683100  1
  Li  Li45  1  0.63316900  0.13316900  0.36683100  1
  Li  Li46  1  0.36683100  0.63316900  0.13316900  1
  Li  Li47  1  0.13316900  0.36683100  0.63316900  1
  Li  Li48  1  0.12991400  0.38426900  0.13081500  1
  Li  Li49  1  0.13081500  0.12991400  0.38426900  1
  Li  Li50  1  0.38426900  0.13081500  0.12991400  1
  Li  Li51  1  0.11573100  0.86918500  0.62991400  1
  Li  Li52  1  0.63081500  0.37008600  0.61573100  1
  Li  Li53  1  0.61573100  0.63081500  0.37008600  1
  Li  Li54  1  0.36918500  0.87008600  0.88426900  1
  Li  Li55  1  0.62991400  0.38426900  0.36918500  1
  V  V56  1  0.37023400  0.12976600  0.87023400  1
  V  V57  1  0.12976600  0.87023400  0.37023400  1
  V  V58  1  0.87023400  0.37023400  0.12976600  1
  V  V59  1  0.62976600  0.62976600  0.62976600  1
  V  V60  1  0.62976600  0.87023400  0.12976600  1
  V  V61  1  0.87023400  0.12976600  0.62976600  1
  V  V62  1  0.12976600  0.62976600  0.87023400  1
  V  V63  1  0.37023400  0.37023400  0.37023400  1
  N  N64  1  0.98535800  0.25963600  0.02196000  1
  N  N65  1  0.48535800  0.24036400  0.97804000  1
  N  N66  1  0.01464200  0.75963600  0.47804000  1
  N  N67  1  0.24036400  0.97804000  0.48535800  1
  N  N68  1  0.47804000  0.01464200  0.75963600  1
  N  N69  1  0.97804000  0.48535800  0.24036400  1
  N  N70  1  0.25963600  0.02196000  0.98535800  1
  N  N71  1  0.02196000  0.98535800  0.25963600  1
  N  N72  1  0.75963600  0.47804000  0.01464200  1
  N  N73  1  0.74036400  0.52196000  0.51464200  1
  N  N74  1  0.52196000  0.51464200  0.74036400  1
  N  N75  1  0.51464200  0.74036400  0.52196000  1
  N  N76  1  0.01464200  0.74036400  0.97804000  1
  N  N77  1  0.51464200  0.75963600  0.02196000  1
  N  N78  1  0.98535800  0.24036400  0.52196000  1
  N  N79  1  0.75963600  0.02196000  0.51464200  1
  N  N80  1  0.52196000  0.98535800  0.24036400  1
  N  N81  1  0.02196000  0.51464200  0.75963600  1
  N  N82  1  0.74036400  0.97804000  0.01464200  1
  N  N83  1  0.97804000  0.01464200  0.74036400  1
  N  N84  1  0.24036400  0.52196000  0.98535800  1
  N  N85  1  0.25963600  0.47804000  0.48535800  1
  N  N86  1  0.47804000  0.48535800  0.25963600  1
  N  N87  1  0.48535800  0.25963600  0.47804000  1
  N  N88  1  0.26046000  0.23954000  0.76046000  1
  N  N89  1  0.23954000  0.76046000  0.26046000  1
  N  N90  1  0.76046000  0.26046000  0.23954000  1
  N  N91  1  0.73954000  0.73954000  0.73954000  1
  N  N92  1  0.73954000  0.76046000  0.23954000  1
  N  N93  1  0.76046000  0.23954000  0.73954000  1
  N  N94  1  0.23954000  0.73954000  0.76046000  1
  N  N95  1  0.26046000  0.26046000  0.26046000  1
