# generated using pymatgen
data_Al2(SO4)3
_symmetry_space_group_name_H-M   'P 1'
_cell_length_a   8.61411696
_cell_length_b   8.61411696
_cell_length_c   8.61411663
_cell_angle_alpha   56.40408531
_cell_angle_beta   56.40408531
_cell_angle_gamma   56.40408219
_symmetry_Int_Tables_number   1
_chemical_formula_structural   Al2(SO4)3
_chemical_formula_sum   'Al4 S6 O24'
_cell_volume   414.39510815
_cell_formula_units_Z   2
loop_
 _symmetry_equiv_pos_site_id
 _symmetry_equiv_pos_as_xyz
  1  'x, y, z'
loop_
 _atom_site_type_symbol
 _atom_site_label
 _atom_site_symmetry_multiplicity
 _atom_site_fract_x
 _atom_site_fract_y
 _atom_site_fract_z
 _atom_site_occupancy
  Al  Al0  1  0.14419100  0.14419100  0.14419100  1
  Al  Al1  1  0.85580900  0.85580900  0.85580900  1
  Al  Al2  1  0.35166300  0.35166300  0.35166300  1
  Al  Al3  1  0.64833700  0.64833700  0.64833700  1
  S  S4  1  0.53926300  0.96332100  0.24867500  1
  S  S5  1  0.24867500  0.53926300  0.96332100  1
  S  S6  1  0.96332100  0.24867400  0.53926300  1
  S  S7  1  0.75132500  0.46073700  0.03667900  1
  S  S8  1  0.46073700  0.03667900  0.75132500  1
  S  S9  1  0.03667900  0.75132500  0.46073700  1
  O  O10  1  0.18772600  0.54925100  0.47045000  1
  O  O11  1  0.47045000  0.18772600  0.54925100  1
  O  O12  1  0.54925100  0.47045000  0.18772600  1
  O  O13  1  0.81227400  0.45074900  0.52955000  1
  O  O14  1  0.52955000  0.81227400  0.45074900  1
  O  O15  1  0.45074900  0.52955000  0.81227400  1
  O  O16  1  0.10689400  0.89934200  0.26668300  1
  O  O17  1  0.26668300  0.10689400  0.89934200  1
  O  O18  1  0.89934200  0.26668300  0.10689400  1
  O  O19  1  0.89310600  0.10065800  0.73331700  1
  O  O20  1  0.20954000  0.37713800  0.99158600  1
  O  O21  1  0.37713800  0.99158600  0.20954000  1
  O  O22  1  0.99158600  0.20954000  0.37713800  1
  O  O23  1  0.79046000  0.62286200  0.00841400  1
  O  O24  1  0.62286200  0.00841400  0.79046000  1
  O  O25  1  0.00841400  0.79046000  0.62286200  1
  O  O26  1  0.23230900  0.51894100  0.15391400  1
  O  O27  1  0.51894100  0.15391400  0.23230900  1
  O  O28  1  0.15391400  0.23230900  0.51894100  1
  O  O29  1  0.76769100  0.48105900  0.84608600  1
  O  O30  1  0.48105900  0.84608600  0.76769100  1
  O  O31  1  0.84608600  0.76769100  0.48105900  1
  O  O32  1  0.10065800  0.73331700  0.89310600  1
  O  O33  1  0.73331700  0.89310600  0.10065800  1
