# generated using pymatgen
data_Tb(SiNi)2
_symmetry_space_group_name_H-M   'P 1'
_cell_length_a   5.52761526
_cell_length_b   5.52761526
_cell_length_c   5.52761526
_cell_angle_alpha   137.82883757
_cell_angle_beta   137.82883757
_cell_angle_gamma   61.16524308
_symmetry_Int_Tables_number   1
_chemical_formula_structural   Tb(SiNi)2
_chemical_formula_sum   'Tb1 Si2 Ni2'
_cell_volume   75.27571850
_cell_formula_units_Z   1
loop_
 _symmetry_equiv_pos_site_id
 _symmetry_equiv_pos_as_xyz
  1  'x, y, z'
loop_
 _atom_site_type_symbol
 _atom_site_label
 _atom_site_symmetry_multiplicity
 _atom_site_fract_x
 _atom_site_fract_y
 _atom_site_fract_z
 _atom_site_occupancy
  Tb  Tb0  1  0.00000000  0.00000000  0.00000000  1
  Si  Si1  1  0.62709300  0.62709300  0.00000000  1
  Si  Si2  1  0.37290700  0.37290700  0.00000000  1
  Ni  Ni3  1  0.25000000  0.75000000  0.50000000  1
  Ni  Ni4  1  0.75000000  0.25000000  0.50000000  1
