# generated using pymatgen
data_GaAgTe2
_symmetry_space_group_name_H-M   'P 1'
_cell_length_a   7.65941105
_cell_length_b   7.65941105
_cell_length_c   7.65941105
_cell_angle_alpha   130.49822114
_cell_angle_beta   130.49822114
_cell_angle_gamma   72.61152272
_symmetry_Int_Tables_number   1
_chemical_formula_structural   GaAgTe2
_chemical_formula_sum   'Ga2 Ag2 Te4'
_cell_volume   253.89963602
_cell_formula_units_Z   2
loop_
 _symmetry_equiv_pos_site_id
 _symmetry_equiv_pos_as_xyz
  1  'x, y, z'
loop_
 _atom_site_type_symbol
 _atom_site_label
 _atom_site_symmetry_multiplicity
 _atom_site_fract_x
 _atom_site_fract_y
 _atom_site_fract_z
 _atom_site_occupancy
  Ga  Ga0  1  0.50000000  0.50000000  0.00000000  1
  Ga  Ga1  1  0.25000000  0.75000000  0.50000000  1
  Ag  Ag2  1  0.00000000  0.00000000  0.00000000  1
  Ag  Ag3  1  0.75000000  0.25000000  0.50000000  1
  Te  Te4  1  0.14180600  0.12500000  0.51680600  1
  Te  Te5  1  0.87500000  0.39180600  0.01680600  1
  Te  Te6  1  0.37500000  0.85819400  0.98319400  1
  Te  Te7  1  0.60819400  0.62500000  0.48319400  1
