# generated using pymatgen
data_TmNiC2
_symmetry_space_group_name_H-M   'P 1'
_cell_length_a   3.73578473
_cell_length_b   3.73578473
_cell_length_c   3.50562300
_cell_angle_alpha   90.00000000
_cell_angle_beta   90.00000000
_cell_angle_gamma   105.89347156
_symmetry_Int_Tables_number   1
_chemical_formula_structural   TmNiC2
_chemical_formula_sum   'Tm1 Ni1 C2'
_cell_volume   47.05451038
_cell_formula_units_Z   1
loop_
 _symmetry_equiv_pos_site_id
 _symmetry_equiv_pos_as_xyz
  1  'x, y, z'
loop_
 _atom_site_type_symbol
 _atom_site_label
 _atom_site_symmetry_multiplicity
 _atom_site_fract_x
 _atom_site_fract_y
 _atom_site_fract_z
 _atom_site_occupancy
  Tm  Tm0  1  0.99698400  0.00301600  0.00000000  1
  Ni  Ni1  1  0.38593200  0.61406800  0.50000000  1
  C  C2  1  0.85034700  0.45526200  0.50000000  1
  C  C3  1  0.54473800  0.14965300  0.50000000  1
