# generated using pymatgen
data_La2(SeO3)3
_symmetry_space_group_name_H-M   'P 1'
_cell_length_a   7.16708900
_cell_length_b   8.57315700
_cell_length_c   14.45654500
_cell_angle_alpha   90.00000000
_cell_angle_beta   90.00000000
_cell_angle_gamma   90.00000000
_symmetry_Int_Tables_number   1
_chemical_formula_structural   La2(SeO3)3
_chemical_formula_sum   'La8 Se12 O36'
_cell_volume   888.27632464
_cell_formula_units_Z   4
loop_
 _symmetry_equiv_pos_site_id
 _symmetry_equiv_pos_as_xyz
  1  'x, y, z'
loop_
 _atom_site_type_symbol
 _atom_site_label
 _atom_site_symmetry_multiplicity
 _atom_site_fract_x
 _atom_site_fract_y
 _atom_site_fract_z
 _atom_site_occupancy
  La  La0  1  0.17912900  0.30025100  0.06388800  1
  La  La1  1  0.67912900  0.19974900  0.93611200  1
  La  La2  1  0.32087100  0.80025100  0.43611200  1
  La  La3  1  0.82087100  0.69974900  0.56388800  1
  La  La4  1  0.82087100  0.69974900  0.93611200  1
  La  La5  1  0.32087100  0.80025100  0.06388800  1
  La  La6  1  0.67912900  0.19974900  0.56388800  1
  La  La7  1  0.17912900  0.30025100  0.43611200  1
  Se  Se8  1  0.17942600  0.04783400  0.87544500  1
  Se  Se9  1  0.67942600  0.45216600  0.12455500  1
  Se  Se10  1  0.32057400  0.54783400  0.62455500  1
  Se  Se11  1  0.82057400  0.95216600  0.37544500  1
  Se  Se12  1  0.59367800  0.95620200  0.75000000  1
  Se  Se13  1  0.09367800  0.54379800  0.25000000  1
  Se  Se14  1  0.90632200  0.45620200  0.75000000  1
  Se  Se15  1  0.40632200  0.04379800  0.25000000  1
  Se  Se16  1  0.82057400  0.95216600  0.12455500  1
  Se  Se17  1  0.32057400  0.54783400  0.87544500  1
  Se  Se18  1  0.67942600  0.45216600  0.37544500  1
  Se  Se19  1  0.17942600  0.04783400  0.62455500  1
  O  O20  1  0.73942500  0.94294500  0.84564200  1
  O  O21  1  0.23942500  0.55705500  0.15435800  1
  O  O22  1  0.76057500  0.44294500  0.65435800  1
  O  O23  1  0.26057500  0.05705500  0.34564200  1
  O  O24  1  0.26057500  0.05705500  0.15435800  1
  O  O25  1  0.76057500  0.44294500  0.84564200  1
  O  O26  1  0.23942500  0.55705500  0.34564200  1
  O  O27  1  0.73942500  0.94294500  0.65435800  1
  O  O28  1  0.43239000  0.84417000  0.25000000  1
  O  O29  1  0.93239000  0.65583000  0.75000000  1
  O  O30  1  0.06761000  0.34417000  0.25000000  1
  O  O31  1  0.56761000  0.15583000  0.75000000  1
  O  O32  1  0.09097100  0.88033400  0.92268400  1
  O  O33  1  0.59097100  0.61966600  0.07731600  1
  O  O34  1  0.40902900  0.38033400  0.57731600  1
  O  O35  1  0.90902900  0.11966600  0.42268400  1
  O  O36  1  0.02943300  0.19853300  0.59612900  1
  O  O37  1  0.52943300  0.30146700  0.40387100  1
  O  O38  1  0.47056700  0.69853300  0.90387100  1
  O  O39  1  0.97056700  0.80146700  0.09612900  1
  O  O40  1  0.97056700  0.80146700  0.40387100  1
  O  O41  1  0.47056700  0.69853300  0.59612900  1
  O  O42  1  0.52943300  0.30146700  0.09612900  1
  O  O43  1  0.02943300  0.19853300  0.90387100  1
  O  O44  1  0.35007000  0.07457400  0.53915000  1
  O  O45  1  0.85007000  0.42542600  0.46085000  1
  O  O46  1  0.14993000  0.57457400  0.96085000  1
  O  O47  1  0.64993000  0.92542600  0.03915000  1
  O  O48  1  0.64993000  0.92542600  0.46085000  1
  O  O49  1  0.14993000  0.57457400  0.53915000  1
  O  O50  1  0.85007000  0.42542600  0.03915000  1
  O  O51  1  0.35007000  0.07457400  0.96085000  1
  O  O52  1  0.09097100  0.88033400  0.57731600  1
  O  O53  1  0.59097100  0.61966600  0.42268400  1
  O  O54  1  0.40902900  0.38033400  0.92268400  1
  O  O55  1  0.90902900  0.11966600  0.07731600  1
