# generated using pymatgen
data_Nd2S3
_symmetry_space_group_name_H-M   'P 1'
_cell_length_a   4.05800200
_cell_length_b   7.51306000
_cell_length_c   15.68326400
_cell_angle_alpha   90.00000000
_cell_angle_beta   90.00000000
_cell_angle_gamma   90.00000000
_symmetry_Int_Tables_number   1
_chemical_formula_structural   Nd2S3
_chemical_formula_sum   'Nd8 S12'
_cell_volume   478.15154897
_cell_formula_units_Z   4
loop_
 _symmetry_equiv_pos_site_id
 _symmetry_equiv_pos_as_xyz
  1  'x, y, z'
loop_
 _atom_site_type_symbol
 _atom_site_label
 _atom_site_symmetry_multiplicity
 _atom_site_fract_x
 _atom_site_fract_y
 _atom_site_fract_z
 _atom_site_occupancy
  Nd  Nd0  1  0.75000000  0.23530300  0.54401700  1
  Nd  Nd1  1  0.25000000  0.76469700  0.45598300  1
  Nd  Nd2  1  0.75000000  0.73530300  0.95598300  1
  Nd  Nd3  1  0.25000000  0.26469700  0.04401700  1
  Nd  Nd4  1  0.25000000  0.14488400  0.79563200  1
  Nd  Nd5  1  0.75000000  0.85511600  0.20436800  1
  Nd  Nd6  1  0.25000000  0.64488400  0.70436800  1
  Nd  Nd7  1  0.75000000  0.35511600  0.29563200  1
  S  S8  1  0.25000000  0.00963500  0.60911800  1
  S  S9  1  0.75000000  0.99036500  0.39088200  1
  S  S10  1  0.25000000  0.50963500  0.89088200  1
  S  S11  1  0.75000000  0.49036500  0.10911800  1
  S  S12  1  0.75000000  0.35444500  0.71888000  1
  S  S13  1  0.25000000  0.64555500  0.28112000  1
  S  S14  1  0.75000000  0.85444500  0.78112000  1
  S  S15  1  0.25000000  0.14555500  0.21888000  1
  S  S16  1  0.25000000  0.37403200  0.43255300  1
  S  S17  1  0.75000000  0.62596800  0.56744700  1
  S  S18  1  0.25000000  0.87403200  0.06744700  1
  S  S19  1  0.75000000  0.12596800  0.93255300  1
