# generated using pymatgen
data_La2MgNi2
_symmetry_space_group_name_H-M   'P 1'
_cell_length_a   7.62320000
_cell_length_b   7.62320000
_cell_length_c   3.90301900
_cell_angle_alpha   90.00000000
_cell_angle_beta   90.00000000
_cell_angle_gamma   90.00000000
_symmetry_Int_Tables_number   1
_chemical_formula_structural   La2MgNi2
_chemical_formula_sum   'La4 Mg2 Ni4'
_cell_volume   226.81683882
_cell_formula_units_Z   2
loop_
 _symmetry_equiv_pos_site_id
 _symmetry_equiv_pos_as_xyz
  1  'x, y, z'
loop_
 _atom_site_type_symbol
 _atom_site_label
 _atom_site_symmetry_multiplicity
 _atom_site_fract_x
 _atom_site_fract_y
 _atom_site_fract_z
 _atom_site_occupancy
  La  La0  1  0.32776000  0.82776000  0.50000000  1
  La  La1  1  0.82776000  0.67224000  0.50000000  1
  La  La2  1  0.17224000  0.32776000  0.50000000  1
  La  La3  1  0.67224000  0.17224000  0.50000000  1
  Mg  Mg4  1  0.50000000  0.50000000  0.00000000  1
  Mg  Mg5  1  0.00000000  0.00000000  0.00000000  1
  Ni  Ni6  1  0.12206700  0.62206700  0.00000000  1
  Ni  Ni7  1  0.62206700  0.87793300  0.00000000  1
  Ni  Ni8  1  0.87793300  0.37793300  0.00000000  1
  Ni  Ni9  1  0.37793300  0.12206700  0.00000000  1
