# generated using pymatgen
data_K2NbF7
_symmetry_space_group_name_H-M   'P 1'
_cell_length_a   12.91753900
_cell_length_b   5.95572600
_cell_length_c   8.72375555
_cell_angle_alpha   89.71155466
_cell_angle_beta   90.00000000
_cell_angle_gamma   90.00000000
_symmetry_Int_Tables_number   1
_chemical_formula_structural   K2NbF7
_chemical_formula_sum   'K8 Nb4 F28'
_cell_volume   671.13899746
_cell_formula_units_Z   4
loop_
 _symmetry_equiv_pos_site_id
 _symmetry_equiv_pos_as_xyz
  1  'x, y, z'
loop_
 _atom_site_type_symbol
 _atom_site_label
 _atom_site_symmetry_multiplicity
 _atom_site_fract_x
 _atom_site_fract_y
 _atom_site_fract_z
 _atom_site_occupancy
  K  K0  1  0.78457800  0.76228000  0.05352000  1
  K  K1  1  0.28457800  0.23772000  0.44648000  1
  K  K2  1  0.21542200  0.23772000  0.94648000  1
  K  K3  1  0.71542200  0.76228000  0.55352000  1
  K  K4  1  0.94139800  0.23816300  0.31909300  1
  K  K5  1  0.44139800  0.76183700  0.18090700  1
  K  K6  1  0.05860200  0.76183700  0.68090700  1
  K  K7  1  0.55860200  0.23816300  0.81909300  1
  Nb  Nb8  1  0.62918700  0.27000100  0.27568500  1
  Nb  Nb9  1  0.12918700  0.72999900  0.22431500  1
  Nb  Nb10  1  0.37081300  0.72999900  0.72431500  1
  Nb  Nb11  1  0.87081300  0.27000100  0.77568500  1
  F  F12  1  0.57884300  0.55739900  0.36713200  1
  F  F13  1  0.07884300  0.44260100  0.13286800  1
  F  F14  1  0.42115700  0.44260100  0.63286800  1
  F  F15  1  0.92115700  0.55739900  0.86713200  1
  F  F16  1  0.62138800  0.18202500  0.49345100  1
  F  F17  1  0.12138800  0.81797500  0.00654900  1
  F  F18  1  0.37861200  0.81797500  0.50654900  1
  F  F19  1  0.87861200  0.18202500  0.99345100  1
  F  F20  1  0.47807000  0.21036400  0.28332800  1
  F  F21  1  0.97807000  0.78963600  0.21667200  1
  F  F22  1  0.52193000  0.78963600  0.71667200  1
  F  F23  1  0.02193000  0.21036400  0.78332800  1
  F  F24  1  0.75585300  0.04330300  0.79874600  1
  F  F25  1  0.25585300  0.95669700  0.70125400  1
  F  F26  1  0.24414700  0.95669700  0.20125400  1
  F  F27  1  0.74414700  0.04330300  0.29874600  1
  F  F28  1  0.74188100  0.45679700  0.78677200  1
  F  F29  1  0.24188100  0.54320300  0.71322800  1
  F  F30  1  0.25811900  0.54320300  0.21322800  1
  F  F31  1  0.75811900  0.45679700  0.28677200  1
  F  F32  1  0.89202200  0.04293500  0.60919200  1
  F  F33  1  0.39202200  0.95706500  0.89080800  1
  F  F34  1  0.10797800  0.95706500  0.39080800  1
  F  F35  1  0.60797800  0.04293500  0.10919200  1
  F  F36  1  0.89005200  0.46222000  0.58879500  1
  F  F37  1  0.39005200  0.53778000  0.91120500  1
  F  F38  1  0.10994800  0.53778000  0.41120500  1
  F  F39  1  0.60994800  0.46222000  0.08879500  1
