# generated using pymatgen
data_YCoC2
_symmetry_space_group_name_H-M   'P 1'
_cell_length_a   3.75243629
_cell_length_b   3.75243629
_cell_length_c   3.58802600
_cell_angle_alpha   90.00000000
_cell_angle_beta   90.00000000
_cell_angle_gamma   106.04700723
_symmetry_Int_Tables_number   1
_chemical_formula_structural   YCoC2
_chemical_formula_sum   'Y1 Co1 C2'
_cell_volume   48.55361231
_cell_formula_units_Z   1
loop_
 _symmetry_equiv_pos_site_id
 _symmetry_equiv_pos_as_xyz
  1  'x, y, z'
loop_
 _atom_site_type_symbol
 _atom_site_label
 _atom_site_symmetry_multiplicity
 _atom_site_fract_x
 _atom_site_fract_y
 _atom_site_fract_z
 _atom_site_occupancy
  Y  Y0  1  0.00223700  0.99776300  0.00000000  1
  Co  Co1  1  0.38534100  0.61465900  0.50000000  1
  C  C2  1  0.54342100  0.15099900  0.50000000  1
  C  C3  1  0.84900100  0.45657900  0.50000000  1
