# generated using pymatgen
data_NdScGe
_symmetry_space_group_name_H-M   'P 1'
_cell_length_a   8.57562587
_cell_length_b   8.57562587
_cell_length_c   8.57562587
_cell_angle_alpha   150.78276007
_cell_angle_beta   150.78276007
_cell_angle_gamma   41.79359653
_symmetry_Int_Tables_number   1
_chemical_formula_structural   NdScGe
_chemical_formula_sum   'Nd2 Sc2 Ge2'
_cell_volume   149.91680206
_cell_formula_units_Z   2
loop_
 _symmetry_equiv_pos_site_id
 _symmetry_equiv_pos_as_xyz
  1  'x, y, z'
loop_
 _atom_site_type_symbol
 _atom_site_label
 _atom_site_symmetry_multiplicity
 _atom_site_fract_x
 _atom_site_fract_y
 _atom_site_fract_z
 _atom_site_occupancy
  Nd  Nd0  1  0.67656500  0.67656500  0.00000000  1
  Nd  Nd1  1  0.32343500  0.32343500  0.00000000  1
  Sc  Sc2  1  0.50000000  0.00000000  0.50000000  1
  Sc  Sc3  1  0.00000000  0.50000000  0.50000000  1
  Ge  Ge4  1  0.12295000  0.12295000  0.00000000  1
  Ge  Ge5  1  0.87705000  0.87705000  0.00000000  1
