# generated using pymatgen
data_CaSO4
_symmetry_space_group_name_H-M   'P 1'
_cell_length_a   4.74450832
_cell_length_b   4.74450832
_cell_length_c   7.09405700
_cell_angle_alpha   90.00000000
_cell_angle_beta   90.00000000
_cell_angle_gamma   96.93140070
_symmetry_Int_Tables_number   1
_chemical_formula_structural   CaSO4
_chemical_formula_sum   'Ca2 S2 O8'
_cell_volume   158.52265516
_cell_formula_units_Z   2
loop_
 _symmetry_equiv_pos_site_id
 _symmetry_equiv_pos_as_xyz
  1  'x, y, z'
loop_
 _atom_site_type_symbol
 _atom_site_label
 _atom_site_symmetry_multiplicity
 _atom_site_fract_x
 _atom_site_fract_y
 _atom_site_fract_z
 _atom_site_occupancy
  Ca  Ca0  1  0.34845100  0.34845100  0.75000000  1
  Ca  Ca1  1  0.65154900  0.65154900  0.25000000  1
  S  S2  1  0.84380600  0.84380600  0.75000000  1
  S  S3  1  0.15619400  0.15619400  0.25000000  1
  O  O4  1  0.81500800  0.15289800  0.75000000  1
  O  O5  1  0.18499200  0.84710200  0.25000000  1
  O  O6  1  0.15289800  0.81500800  0.75000000  1
  O  O7  1  0.84710200  0.18499200  0.25000000  1
  O  O8  1  0.29895700  0.29895700  0.08226100  1
  O  O9  1  0.70104300  0.70104300  0.58226100  1
  O  O10  1  0.29895700  0.29895700  0.41773900  1
  O  O11  1  0.70104300  0.70104300  0.91773900  1
