# generated using pymatgen
data_TbAl4Ni
_symmetry_space_group_name_H-M   'P 1'
_cell_length_a   8.00065073
_cell_length_b   8.00065073
_cell_length_c   6.61164700
_cell_angle_alpha   90.00000000
_cell_angle_beta   90.00000000
_cell_angle_gamma   150.54809209
_symmetry_Int_Tables_number   1
_chemical_formula_structural   TbAl4Ni
_chemical_formula_sum   'Tb2 Al8 Ni2'
_cell_volume   208.09141619
_cell_formula_units_Z   2
loop_
 _symmetry_equiv_pos_site_id
 _symmetry_equiv_pos_as_xyz
  1  'x, y, z'
loop_
 _atom_site_type_symbol
 _atom_site_label
 _atom_site_symmetry_multiplicity
 _atom_site_fract_x
 _atom_site_fract_y
 _atom_site_fract_z
 _atom_site_occupancy
  Tb  Tb0  1  0.88329500  0.11670500  0.25000000  1
  Tb  Tb1  1  0.11670500  0.88329500  0.75000000  1
  Al  Al2  1  0.31104000  0.68896000  0.55279000  1
  Al  Al3  1  0.68896000  0.31104000  0.44721000  1
  Al  Al4  1  0.68896000  0.31104000  0.05279000  1
  Al  Al5  1  0.31104000  0.68896000  0.94721000  1
  Al  Al6  1  0.50000000  0.50000000  0.00000000  1
  Al  Al7  1  0.50000000  0.50000000  0.50000000  1
  Al  Al8  1  0.92319200  0.07680800  0.75000000  1
  Al  Al9  1  0.07680800  0.92319200  0.25000000  1
  Ni  Ni10  1  0.22633900  0.77366100  0.25000000  1
  Ni  Ni11  1  0.77366100  0.22633900  0.75000000  1
