# generated using pymatgen
data_ErCo3
_symmetry_space_group_name_H-M   'P 1'
_cell_length_a   8.58774205
_cell_length_b   8.58774205
_cell_length_c   8.58774259
_cell_angle_alpha   33.46520085
_cell_angle_beta   33.46520085
_cell_angle_gamma   33.46520333
_symmetry_Int_Tables_number   1
_chemical_formula_structural   ErCo3
_chemical_formula_sum   'Er3 Co9'
_cell_volume   171.51246275
_cell_formula_units_Z   3
loop_
 _symmetry_equiv_pos_site_id
 _symmetry_equiv_pos_as_xyz
  1  'x, y, z'
loop_
 _atom_site_type_symbol
 _atom_site_label
 _atom_site_symmetry_multiplicity
 _atom_site_fract_x
 _atom_site_fract_y
 _atom_site_fract_z
 _atom_site_occupancy
  Er  Er0  1  0.86053400  0.86053400  0.86053400  1
  Er  Er1  1  0.13946600  0.13946600  0.13946600  1
  Er  Er2  1  0.00000000  0.00000000  0.00000000  1
  Co  Co3  1  0.41726300  0.92111000  0.41726300  1
  Co  Co4  1  0.33496400  0.33496400  0.33496400  1
  Co  Co5  1  0.66503600  0.66503600  0.66503600  1
  Co  Co6  1  0.58273700  0.58273700  0.07889000  1
  Co  Co7  1  0.58273700  0.07889000  0.58273700  1
  Co  Co8  1  0.41726300  0.41726300  0.92111000  1
  Co  Co9  1  0.07889000  0.58273700  0.58273700  1
  Co  Co10  1  0.92111000  0.41726300  0.41726300  1
  Co  Co11  1  0.50000000  0.50000000  0.50000000  1
