# generated using pymatgen
data_Pr2SeO2
_symmetry_space_group_name_H-M   'P 1'
_cell_length_a   4.05497717
_cell_length_b   4.05497717
_cell_length_c   7.12747600
_cell_angle_alpha   90.00000000
_cell_angle_beta   90.00000000
_cell_angle_gamma   119.99998644
_symmetry_Int_Tables_number   1
_chemical_formula_structural   Pr2SeO2
_chemical_formula_sum   'Pr2 Se1 O2'
_cell_volume   101.49468061
_cell_formula_units_Z   1
loop_
 _symmetry_equiv_pos_site_id
 _symmetry_equiv_pos_as_xyz
  1  'x, y, z'
loop_
 _atom_site_type_symbol
 _atom_site_label
 _atom_site_symmetry_multiplicity
 _atom_site_fract_x
 _atom_site_fract_y
 _atom_site_fract_z
 _atom_site_occupancy
  Pr  Pr0  1  0.66666700  0.33333300  0.71176800  1
  Pr  Pr1  1  0.33333300  0.66666700  0.28823200  1
  Se  Se2  1  0.00000000  0.00000000  0.00000000  1
  O  O3  1  0.33333300  0.66666700  0.62561500  1
  O  O4  1  0.66666700  0.33333300  0.37438500  1
