# generated using pymatgen
data_Ca2SiO4
_symmetry_space_group_name_H-M   'P 1'
_cell_length_a   5.12388700
_cell_length_b   6.80933800
_cell_length_c   11.34379500
_cell_angle_alpha   90.00000000
_cell_angle_beta   90.00000000
_cell_angle_gamma   90.00000000
_symmetry_Int_Tables_number   1
_chemical_formula_structural   Ca2SiO4
_chemical_formula_sum   'Ca8 Si4 O16'
_cell_volume   395.78816631
_cell_formula_units_Z   4
loop_
 _symmetry_equiv_pos_site_id
 _symmetry_equiv_pos_as_xyz
  1  'x, y, z'
loop_
 _atom_site_type_symbol
 _atom_site_label
 _atom_site_symmetry_multiplicity
 _atom_site_fract_x
 _atom_site_fract_y
 _atom_site_fract_z
 _atom_site_occupancy
  Ca  Ca0  1  0.49173700  0.75000000  0.78069700  1
  Ca  Ca1  1  0.99173700  0.25000000  0.71930300  1
  Ca  Ca2  1  0.50826300  0.25000000  0.21930300  1
  Ca  Ca3  1  0.00826300  0.75000000  0.28069700  1
  Ca  Ca4  1  0.50000000  0.50000000  0.50000000  1
  Ca  Ca5  1  0.00000000  0.50000000  0.00000000  1
  Ca  Ca6  1  0.50000000  0.00000000  0.50000000  1
  Ca  Ca7  1  0.00000000  0.00000000  0.00000000  1
  Si  Si8  1  0.92684600  0.75000000  0.59608100  1
  Si  Si9  1  0.42684600  0.25000000  0.90391900  1
  Si  Si10  1  0.07315400  0.25000000  0.40391900  1
  Si  Si11  1  0.57315400  0.75000000  0.09608100  1
  O  O12  1  0.20371000  0.44474100  0.33806800  1
  O  O13  1  0.70371000  0.55525900  0.16193200  1
  O  O14  1  0.79629000  0.94474100  0.66193200  1
  O  O15  1  0.29629000  0.05525900  0.83806800  1
  O  O16  1  0.79629000  0.55525900  0.66193200  1
  O  O17  1  0.29629000  0.44474100  0.83806800  1
  O  O18  1  0.20371000  0.05525900  0.33806800  1
  O  O19  1  0.70371000  0.94474100  0.16193200  1
  O  O20  1  0.79662000  0.75000000  0.46075700  1
  O  O21  1  0.29662000  0.25000000  0.03924300  1
  O  O22  1  0.20338000  0.25000000  0.53924300  1
  O  O23  1  0.70338000  0.75000000  0.96075700  1
  O  O24  1  0.25270000  0.75000000  0.09288300  1
  O  O25  1  0.75270000  0.25000000  0.40711700  1
  O  O26  1  0.74730000  0.25000000  0.90711700  1
  O  O27  1  0.24730000  0.75000000  0.59288300  1
