# generated using pymatgen
data_SrTl2O4
_symmetry_space_group_name_H-M   'P 1'
_cell_length_a   3.47501300
_cell_length_b   10.21677800
_cell_length_c   11.93750900
_cell_angle_alpha   90.00000000
_cell_angle_beta   90.00000000
_cell_angle_gamma   90.00000000
_symmetry_Int_Tables_number   1
_chemical_formula_structural   SrTl2O4
_chemical_formula_sum   'Sr4 Tl8 O16'
_cell_volume   423.82259118
_cell_formula_units_Z   4
loop_
 _symmetry_equiv_pos_site_id
 _symmetry_equiv_pos_as_xyz
  1  'x, y, z'
loop_
 _atom_site_type_symbol
 _atom_site_label
 _atom_site_symmetry_multiplicity
 _atom_site_fract_x
 _atom_site_fract_y
 _atom_site_fract_z
 _atom_site_occupancy
  Sr  Sr0  1  0.25000000  0.24546200  0.34829000  1
  Sr  Sr1  1  0.75000000  0.75453800  0.65171000  1
  Sr  Sr2  1  0.25000000  0.74546200  0.15171000  1
  Sr  Sr3  1  0.75000000  0.25453800  0.84829000  1
  Tl  Tl4  1  0.25000000  0.57990100  0.89240000  1
  Tl  Tl5  1  0.75000000  0.42009900  0.10760000  1
  Tl  Tl6  1  0.25000000  0.07990100  0.60760000  1
  Tl  Tl7  1  0.75000000  0.92009900  0.39240000  1
  Tl  Tl8  1  0.25000000  0.57519500  0.39024400  1
  Tl  Tl9  1  0.75000000  0.42480500  0.60975600  1
  Tl  Tl10  1  0.25000000  0.07519500  0.10975600  1
  Tl  Tl11  1  0.75000000  0.92480500  0.89024400  1
  O  O12  1  0.25000000  0.58778800  0.57413300  1
  O  O13  1  0.75000000  0.41221200  0.42586700  1
  O  O14  1  0.25000000  0.08778800  0.92586700  1
  O  O15  1  0.75000000  0.91221200  0.07413300  1
  O  O16  1  0.25000000  0.47875700  0.22043000  1
  O  O17  1  0.75000000  0.52124300  0.77957000  1
  O  O18  1  0.25000000  0.97875700  0.27957000  1
  O  O19  1  0.75000000  0.02124300  0.72043000  1
  O  O20  1  0.25000000  0.87510800  0.52512300  1
  O  O21  1  0.75000000  0.12489200  0.47487700  1
  O  O22  1  0.25000000  0.37510800  0.97487700  1
  O  O23  1  0.75000000  0.62489200  0.02512300  1
  O  O24  1  0.75000000  0.71069800  0.32058500  1
  O  O25  1  0.25000000  0.28930200  0.67941500  1
  O  O26  1  0.75000000  0.21069800  0.17941500  1
  O  O27  1  0.25000000  0.78930200  0.82058500  1
