# generated using pymatgen
data_LaCuS2
_symmetry_space_group_name_H-M   'P 1'
_cell_length_a   7.31786400
_cell_length_b   6.60557400
_cell_length_c   6.94595558
_cell_angle_alpha   82.10794227
_cell_angle_beta   90.00000000
_cell_angle_gamma   90.00000000
_symmetry_Int_Tables_number   1
_chemical_formula_structural   LaCuS2
_chemical_formula_sum   'La4 Cu4 S8'
_cell_volume   332.57827472
_cell_formula_units_Z   4
loop_
 _symmetry_equiv_pos_site_id
 _symmetry_equiv_pos_as_xyz
  1  'x, y, z'
loop_
 _atom_site_type_symbol
 _atom_site_label
 _atom_site_symmetry_multiplicity
 _atom_site_fract_x
 _atom_site_fract_y
 _atom_site_fract_z
 _atom_site_occupancy
  La  La0  1  0.94765800  0.81022800  0.79946200  1
  La  La1  1  0.44765800  0.18977200  0.70053800  1
  La  La2  1  0.05234200  0.18977200  0.20053800  1
  La  La3  1  0.55234200  0.81022800  0.29946200  1
  Cu  Cu4  1  0.66613200  0.42797100  0.04350500  1
  Cu  Cu5  1  0.33386800  0.57202900  0.95649500  1
  Cu  Cu6  1  0.16613200  0.57202900  0.45649500  1
  Cu  Cu7  1  0.83386800  0.42797100  0.54350500  1
  S  S8  1  0.72687600  0.09026400  0.00073200  1
  S  S9  1  0.22687600  0.90973600  0.49926800  1
  S  S10  1  0.27312400  0.90973600  0.99926800  1
  S  S11  1  0.77312400  0.09026400  0.50073200  1
  S  S12  1  0.11696300  0.41327900  0.77836500  1
  S  S13  1  0.38303700  0.41327900  0.27836500  1
  S  S14  1  0.88303700  0.58672100  0.22163500  1
  S  S15  1  0.61696300  0.58672100  0.72163500  1
