# generated using pymatgen
data_UTeAs
_symmetry_space_group_name_H-M   'P 1'
_cell_length_a   9.09444407
_cell_length_b   9.09444407
_cell_length_c   9.09444407
_cell_angle_alpha   153.50993030
_cell_angle_beta   153.50993030
_cell_angle_gamma   37.81230513
_symmetry_Int_Tables_number   1
_chemical_formula_structural   UTeAs
_chemical_formula_sum   'U2 Te2 As2'
_cell_volume   149.42174249
_cell_formula_units_Z   2
loop_
 _symmetry_equiv_pos_site_id
 _symmetry_equiv_pos_as_xyz
  1  'x, y, z'
loop_
 _atom_site_type_symbol
 _atom_site_label
 _atom_site_symmetry_multiplicity
 _atom_site_fract_x
 _atom_site_fract_y
 _atom_site_fract_z
 _atom_site_occupancy
  U  U0  1  0.11825200  0.11825200  0.00000000  1
  U  U1  1  0.88174800  0.88174800  0.00000000  1
  Te  Te2  1  0.31449800  0.31449800  0.00000000  1
  Te  Te3  1  0.68550200  0.68550200  0.00000000  1
  As  As4  1  0.00000000  0.50000000  0.50000000  1
  As  As5  1  0.50000000  0.00000000  0.50000000  1
