# generated using pymatgen
data_AgAsF7
_symmetry_space_group_name_H-M   'P 1'
_cell_length_a   7.22035900
_cell_length_b   7.85344700
_cell_length_c   10.01202800
_cell_angle_alpha   90.00000000
_cell_angle_beta   90.00000000
_cell_angle_gamma   90.00000000
_symmetry_Int_Tables_number   1
_chemical_formula_structural   AgAsF7
_chemical_formula_sum   'Ag4 As4 F28'
_cell_volume   567.72911149
_cell_formula_units_Z   4
loop_
 _symmetry_equiv_pos_site_id
 _symmetry_equiv_pos_as_xyz
  1  'x, y, z'
loop_
 _atom_site_type_symbol
 _atom_site_label
 _atom_site_symmetry_multiplicity
 _atom_site_fract_x
 _atom_site_fract_y
 _atom_site_fract_z
 _atom_site_occupancy
  Ag  Ag0  1  0.25000000  0.63612700  0.74278900  1
  Ag  Ag1  1  0.75000000  0.36387300  0.25721100  1
  Ag  Ag2  1  0.25000000  0.13612700  0.75721100  1
  Ag  Ag3  1  0.75000000  0.86387300  0.24278900  1
  As  As4  1  0.25000000  0.80032600  0.05994200  1
  As  As5  1  0.75000000  0.19967400  0.94005800  1
  As  As6  1  0.25000000  0.30032600  0.44005800  1
  As  As7  1  0.75000000  0.69967400  0.55994200  1
  F  F8  1  0.92473700  0.12564900  0.82933600  1
  F  F9  1  0.42473700  0.87435100  0.17066400  1
  F  F10  1  0.57526300  0.62564900  0.67066400  1
  F  F11  1  0.07526300  0.37435100  0.32933600  1
  F  F12  1  0.07526300  0.87435100  0.17066400  1
  F  F13  1  0.57526300  0.12564900  0.82933600  1
  F  F14  1  0.42473700  0.37435100  0.32933600  1
  F  F15  1  0.92473700  0.62564900  0.67066400  1
  F  F16  1  0.75000000  0.61097400  0.19380500  1
  F  F17  1  0.25000000  0.38902600  0.80619500  1
  F  F18  1  0.75000000  0.11097400  0.30619500  1
  F  F19  1  0.25000000  0.88902600  0.69380500  1
  F  F20  1  0.75000000  0.49357700  0.48259800  1
  F  F21  1  0.25000000  0.50642300  0.51740200  1
  F  F22  1  0.75000000  0.99357700  0.01740200  1
  F  F23  1  0.25000000  0.00642300  0.98259800  1
  F  F24  1  0.75000000  0.89922000  0.63468500  1
  F  F25  1  0.25000000  0.10078000  0.36531500  1
  F  F26  1  0.75000000  0.39922000  0.86531500  1
  F  F27  1  0.25000000  0.60078000  0.13468500  1
  F  F28  1  0.92216400  0.76716900  0.44198400  1
  F  F29  1  0.42216400  0.23283100  0.55801600  1
  F  F30  1  0.57783600  0.26716900  0.05801600  1
  F  F31  1  0.07783600  0.73283100  0.94198400  1
  F  F32  1  0.07783600  0.23283100  0.55801600  1
  F  F33  1  0.57783600  0.76716900  0.44198400  1
  F  F34  1  0.42216400  0.73283100  0.94198400  1
  F  F35  1  0.92216400  0.26716900  0.05801600  1
