# generated using pymatgen
data_TbPO4
_symmetry_space_group_name_H-M   'P 1'
_cell_length_a   5.80620105
_cell_length_b   5.80620105
_cell_length_c   5.80620105
_cell_angle_alpha   105.92861474
_cell_angle_beta   105.92861474
_cell_angle_gamma   116.81562909
_symmetry_Int_Tables_number   1
_chemical_formula_structural   TbPO4
_chemical_formula_sum   'Tb2 P2 O8'
_cell_volume   148.80007343
_cell_formula_units_Z   2
loop_
 _symmetry_equiv_pos_site_id
 _symmetry_equiv_pos_as_xyz
  1  'x, y, z'
loop_
 _atom_site_type_symbol
 _atom_site_label
 _atom_site_symmetry_multiplicity
 _atom_site_fract_x
 _atom_site_fract_y
 _atom_site_fract_z
 _atom_site_occupancy
  Tb  Tb0  1  0.00000000  0.00000000  0.00000000  1
  Tb  Tb1  1  0.25000000  0.75000000  0.50000000  1
  P  P2  1  0.75000000  0.25000000  0.50000000  1
  P  P3  1  0.50000000  0.50000000  0.00000000  1
  O  O4  1  0.34064500  0.16681500  0.82617000  1
  O  O5  1  0.76447400  0.09064500  0.67383000  1
  O  O6  1  0.41681500  0.09064500  0.32617000  1
  O  O7  1  0.34064500  0.51447400  0.17383000  1
  O  O8  1  0.48552600  0.65935500  0.82617000  1
  O  O9  1  0.90935500  0.58318500  0.67383000  1
  O  O10  1  0.90935500  0.23552600  0.32617000  1
  O  O11  1  0.83318500  0.65935500  0.17383000  1
