# generated using pymatgen
data_CsBF4
_symmetry_space_group_name_H-M   'P 1'
_cell_length_a   5.95004300
_cell_length_b   7.78934900
_cell_length_c   9.80028700
_cell_angle_alpha   90.00000000
_cell_angle_beta   90.00000000
_cell_angle_gamma   90.00000000
_symmetry_Int_Tables_number   1
_chemical_formula_structural   CsBF4
_chemical_formula_sum   'Cs4 B4 F16'
_cell_volume   454.21352420
_cell_formula_units_Z   4
loop_
 _symmetry_equiv_pos_site_id
 _symmetry_equiv_pos_as_xyz
  1  'x, y, z'
loop_
 _atom_site_type_symbol
 _atom_site_label
 _atom_site_symmetry_multiplicity
 _atom_site_fract_x
 _atom_site_fract_y
 _atom_site_fract_z
 _atom_site_occupancy
  Cs  Cs0  1  0.25000000  0.83850900  0.69110200  1
  Cs  Cs1  1  0.75000000  0.16149100  0.30889800  1
  Cs  Cs2  1  0.75000000  0.33850900  0.80889800  1
  Cs  Cs3  1  0.25000000  0.66149100  0.19110200  1
  B  B4  1  0.25000000  0.19796200  0.05231700  1
  B  B5  1  0.25000000  0.30203800  0.55231700  1
  B  B6  1  0.75000000  0.69796200  0.44768300  1
  B  B7  1  0.75000000  0.80203800  0.94768300  1
  F  F8  1  0.55535200  0.80243000  0.42818200  1
  F  F9  1  0.94464800  0.69757000  0.92818200  1
  F  F10  1  0.44464800  0.30243000  0.07181800  1
  F  F11  1  0.05535200  0.19757000  0.57181800  1
  F  F12  1  0.25000000  0.36826300  0.41832800  1
  F  F13  1  0.75000000  0.63173700  0.58167300  1
  F  F14  1  0.75000000  0.86826300  0.08167200  1
  F  F15  1  0.25000000  0.13173700  0.91832700  1
  F  F16  1  0.25000000  0.06409800  0.15000000  1
  F  F17  1  0.75000000  0.93590200  0.85000000  1
  F  F18  1  0.75000000  0.56409800  0.35000000  1
  F  F19  1  0.25000000  0.43590200  0.65000000  1
  F  F20  1  0.05535200  0.30243000  0.07181800  1
  F  F21  1  0.55535200  0.69757000  0.92818200  1
  F  F22  1  0.94464800  0.80243000  0.42818200  1
  F  F23  1  0.44464800  0.19757000  0.57181800  1
