# generated using pymatgen
data_Sr2PdO3
_symmetry_space_group_name_H-M   'P 1'
_cell_length_a   6.99773746
_cell_length_b   6.99773746
_cell_length_c   6.99773746
_cell_angle_alpha   150.35090148
_cell_angle_beta   146.36398472
_cell_angle_gamma   45.44090346
_symmetry_Int_Tables_number   1
_chemical_formula_structural   Sr2PdO3
_chemical_formula_sum   'Sr2 Pd1 O3'
_cell_volume   93.59489962
_cell_formula_units_Z   1
loop_
 _symmetry_equiv_pos_site_id
 _symmetry_equiv_pos_as_xyz
  1  'x, y, z'
loop_
 _atom_site_type_symbol
 _atom_site_label
 _atom_site_symmetry_multiplicity
 _atom_site_fract_x
 _atom_site_fract_y
 _atom_site_fract_z
 _atom_site_occupancy
  Sr  Sr0  1  0.64701800  0.64701800  0.00000000  1
  Sr  Sr1  1  0.35298200  0.35298200  0.00000000  1
  Pd  Pd2  1  0.00000000  0.00000000  0.00000000  1
  O  O3  1  0.83923800  0.83923800  0.00000000  1
  O  O4  1  0.16076200  0.16076200  0.00000000  1
  O  O5  1  0.50000000  0.00000000  0.50000000  1
