# generated using pymatgen
data_KReO4
_symmetry_space_group_name_H-M   'P 1'
_cell_length_a   7.68772256
_cell_length_b   7.68772256
_cell_length_c   7.68772256
_cell_angle_alpha   135.44088083
_cell_angle_beta   135.44088083
_cell_angle_gamma   64.84593694
_symmetry_Int_Tables_number   1
_chemical_formula_structural   KReO4
_chemical_formula_sum   'K2 Re2 O8'
_cell_volume   220.50629955
_cell_formula_units_Z   2
loop_
 _symmetry_equiv_pos_site_id
 _symmetry_equiv_pos_as_xyz
  1  'x, y, z'
loop_
 _atom_site_type_symbol
 _atom_site_label
 _atom_site_symmetry_multiplicity
 _atom_site_fract_x
 _atom_site_fract_y
 _atom_site_fract_z
 _atom_site_occupancy
  K  K0  1  0.50000000  0.50000000  0.00000000  1
  K  K1  1  0.25000000  0.75000000  0.50000000  1
  Re  Re2  1  0.75000000  0.25000000  0.50000000  1
  Re  Re3  1  0.00000000  0.00000000  0.00000000  1
  O  O4  1  0.70443900  0.80607900  0.66461300  1
  O  O5  1  0.78982600  0.95443900  0.39836000  1
  O  O6  1  0.55607900  0.39146600  0.60164000  1
  O  O7  1  0.14146600  0.03982600  0.33538700  1
  O  O8  1  0.60853400  0.21017400  0.16461300  1
  O  O9  1  0.19392100  0.85853400  0.89836000  1
  O  O10  1  0.96017400  0.29556100  0.10164000  1
  O  O11  1  0.04556100  0.44392100  0.83538700  1
