# generated using pymatgen
data_Ti2O3
_symmetry_space_group_name_H-M   'P 1'
_cell_length_a   5.51733381
_cell_length_b   5.51733381
_cell_length_c   5.51733371
_cell_angle_alpha   55.20556334
_cell_angle_beta   55.20556334
_cell_angle_gamma   55.20555732
_symmetry_Int_Tables_number   1
_chemical_formula_structural   Ti2O3
_chemical_formula_sum   'Ti4 O6'
_cell_volume   105.52395263
_cell_formula_units_Z   2
loop_
 _symmetry_equiv_pos_site_id
 _symmetry_equiv_pos_as_xyz
  1  'x, y, z'
loop_
 _atom_site_type_symbol
 _atom_site_label
 _atom_site_symmetry_multiplicity
 _atom_site_fract_x
 _atom_site_fract_y
 _atom_site_fract_z
 _atom_site_occupancy
  Ti  Ti0  1  0.15446000  0.15446000  0.15446000  1
  Ti  Ti1  1  0.84554000  0.84554000  0.84554000  1
  Ti  Ti2  1  0.65446000  0.65446100  0.65446000  1
  Ti  Ti3  1  0.34554000  0.34554000  0.34554000  1
  O  O4  1  0.25000000  0.93772200  0.56227800  1
  O  O5  1  0.56227800  0.25000000  0.93772200  1
  O  O6  1  0.93772200  0.56227800  0.25000000  1
  O  O7  1  0.75000000  0.06227800  0.43772200  1
  O  O8  1  0.43772200  0.75000000  0.06227800  1
  O  O9  1  0.06227800  0.43772200  0.75000000  1
