# generated using pymatgen
data_Rb2SeO4
_symmetry_space_group_name_H-M   'P 1'
_cell_length_a   6.32223300
_cell_length_b   8.15737600
_cell_length_c   11.05610300
_cell_angle_alpha   90.00000000
_cell_angle_beta   90.00000000
_cell_angle_gamma   90.00000000
_symmetry_Int_Tables_number   1
_chemical_formula_structural   Rb2SeO4
_chemical_formula_sum   'Rb8 Se4 O16'
_cell_volume   570.19453973
_cell_formula_units_Z   4
loop_
 _symmetry_equiv_pos_site_id
 _symmetry_equiv_pos_as_xyz
  1  'x, y, z'
loop_
 _atom_site_type_symbol
 _atom_site_label
 _atom_site_symmetry_multiplicity
 _atom_site_fract_x
 _atom_site_fract_y
 _atom_site_fract_z
 _atom_site_occupancy
  Rb  Rb0  1  0.25000000  0.00068800  0.29546100  1
  Rb  Rb1  1  0.75000000  0.99931200  0.70453900  1
  Rb  Rb2  1  0.25000000  0.50068800  0.20453900  1
  Rb  Rb3  1  0.75000000  0.49931200  0.79546100  1
  Rb  Rb4  1  0.25000000  0.32749100  0.58129400  1
  Rb  Rb5  1  0.75000000  0.67250900  0.41870600  1
  Rb  Rb6  1  0.25000000  0.82749100  0.91870600  1
  Rb  Rb7  1  0.75000000  0.17250900  0.08129400  1
  Se  Se8  1  0.25000000  0.77509200  0.58271200  1
  Se  Se9  1  0.75000000  0.22490800  0.41728800  1
  Se  Se10  1  0.25000000  0.27509200  0.91728800  1
  Se  Se11  1  0.75000000  0.72490800  0.08271200  1
  O  O12  1  0.53281800  0.28913400  0.34351400  1
  O  O13  1  0.03281800  0.71086600  0.65648600  1
  O  O14  1  0.96718200  0.78913400  0.15648600  1
  O  O15  1  0.46718200  0.21086600  0.84351400  1
  O  O16  1  0.46718200  0.71086600  0.65648600  1
  O  O17  1  0.96718200  0.28913400  0.34351400  1
  O  O18  1  0.03281800  0.21086600  0.84351400  1
  O  O19  1  0.53281800  0.78913400  0.15648600  1
  O  O20  1  0.25000000  0.69102800  0.44340000  1
  O  O21  1  0.75000000  0.30897200  0.55660000  1
  O  O22  1  0.25000000  0.19102800  0.05660000  1
  O  O23  1  0.75000000  0.80897200  0.94340000  1
  O  O24  1  0.75000000  0.52052300  0.07392600  1
  O  O25  1  0.25000000  0.47947700  0.92607400  1
  O  O26  1  0.75000000  0.02052300  0.42607400  1
  O  O27  1  0.25000000  0.97947700  0.57392600  1
