# generated using pymatgen
data_CdGeAs2
_symmetry_space_group_name_H-M   'P 1'
_cell_length_a   7.16344965
_cell_length_b   7.16344965
_cell_length_c   7.16344965
_cell_angle_alpha   129.88333203
_cell_angle_beta   129.88333203
_cell_angle_gamma   73.59334652
_symmetry_Int_Tables_number   1
_chemical_formula_structural   CdGeAs2
_chemical_formula_sum   'Cd2 Ge2 As4'
_cell_volume   211.21404078
_cell_formula_units_Z   2
loop_
 _symmetry_equiv_pos_site_id
 _symmetry_equiv_pos_as_xyz
  1  'x, y, z'
loop_
 _atom_site_type_symbol
 _atom_site_label
 _atom_site_symmetry_multiplicity
 _atom_site_fract_x
 _atom_site_fract_y
 _atom_site_fract_z
 _atom_site_occupancy
  Cd  Cd0  1  0.25000000  0.75000000  0.50000000  1
  Cd  Cd1  1  0.50000000  0.50000000  0.00000000  1
  Ge  Ge2  1  0.75000000  0.25000000  0.50000000  1
  Ge  Ge3  1  0.00000000  0.00000000  0.00000000  1
  As  As4  1  0.65250500  0.12500000  0.02750500  1
  As  As5  1  0.37500000  0.34749500  0.47249500  1
  As  As6  1  0.09749500  0.62500000  0.97249500  1
  As  As7  1  0.87500000  0.90250500  0.52750500  1
