# generated using pymatgen
data_Al2SiO5
_symmetry_space_group_name_H-M   'P 1'
_cell_length_a   5.61389800
_cell_length_b   7.87578500
_cell_length_c   7.97942000
_cell_angle_alpha   90.00000000
_cell_angle_beta   90.00000000
_cell_angle_gamma   90.00000000
_symmetry_Int_Tables_number   1
_chemical_formula_structural   Al2SiO5
_chemical_formula_sum   'Al8 Si4 O20'
_cell_volume   352.80090817
_cell_formula_units_Z   4
loop_
 _symmetry_equiv_pos_site_id
 _symmetry_equiv_pos_as_xyz
  1  'x, y, z'
loop_
 _atom_site_type_symbol
 _atom_site_label
 _atom_site_symmetry_multiplicity
 _atom_site_fract_x
 _atom_site_fract_y
 _atom_site_fract_z
 _atom_site_occupancy
  Al  Al0  1  0.24176400  0.00000000  0.00000000  1
  Al  Al1  1  0.25823600  0.50000000  0.50000000  1
  Al  Al2  1  0.75823600  0.00000000  0.00000000  1
  Al  Al3  1  0.74176400  0.50000000  0.50000000  1
  Al  Al4  1  0.00000000  0.12942900  0.63918100  1
  Al  Al5  1  0.00000000  0.87057100  0.36081900  1
  Al  Al6  1  0.50000000  0.62942900  0.86081900  1
  Al  Al7  1  0.50000000  0.37057100  0.13918100  1
  Si  Si8  1  0.00000000  0.24575200  0.25224100  1
  Si  Si9  1  0.00000000  0.75424800  0.74775900  1
  Si  Si10  1  0.50000000  0.74575200  0.24775900  1
  Si  Si11  1  0.50000000  0.25424800  0.75224100  1
  O  O12  1  0.73971600  0.73075400  0.36577100  1
  O  O13  1  0.73971600  0.26924600  0.63422900  1
  O  O14  1  0.76028400  0.23075400  0.13422900  1
  O  O15  1  0.76028400  0.76924600  0.86577100  1
  O  O16  1  0.26028400  0.26924600  0.63422900  1
  O  O17  1  0.26028400  0.73075400  0.36577100  1
  O  O18  1  0.23971600  0.76924600  0.86577100  1
  O  O19  1  0.23971600  0.23075400  0.13422900  1
  O  O20  1  0.50000000  0.39746800  0.90066200  1
  O  O21  1  0.50000000  0.60253200  0.09933800  1
  O  O22  1  0.00000000  0.89746800  0.59933800  1
  O  O23  1  0.00000000  0.10253200  0.40066200  1
  O  O24  1  0.50000000  0.42403100  0.36286100  1
  O  O25  1  0.50000000  0.57596900  0.63713900  1
  O  O26  1  0.00000000  0.92403100  0.13713900  1
  O  O27  1  0.00000000  0.07596900  0.86286100  1
  O  O28  1  0.00000000  0.42412200  0.36359200  1
  O  O29  1  0.00000000  0.57587800  0.63640800  1
  O  O30  1  0.50000000  0.92412200  0.13640800  1
  O  O31  1  0.50000000  0.07587800  0.86359200  1
