# generated using pymatgen
data_Ag2CO3
_symmetry_space_group_name_H-M   'P 1'
_cell_length_a   9.78172500
_cell_length_b   3.35736500
_cell_length_c   5.03154313
_cell_angle_alpha   82.81456019
_cell_angle_beta   90.00000000
_cell_angle_gamma   90.00000000
_symmetry_Int_Tables_number   1
_chemical_formula_structural   Ag2CO3
_chemical_formula_sum   'Ag4 C2 O6'
_cell_volume   163.94229875
_cell_formula_units_Z   2
loop_
 _symmetry_equiv_pos_site_id
 _symmetry_equiv_pos_as_xyz
  1  'x, y, z'
loop_
 _atom_site_type_symbol
 _atom_site_label
 _atom_site_symmetry_multiplicity
 _atom_site_fract_x
 _atom_site_fract_y
 _atom_site_fract_z
 _atom_site_occupancy
  Ag  Ag0  1  0.43038400  0.76074400  0.20159300  1
  Ag  Ag1  1  0.93038400  0.23925600  0.79840700  1
  Ag  Ag2  1  0.56961600  0.23925600  0.79840700  1
  Ag  Ag3  1  0.06961600  0.76074400  0.20159300  1
  C  C4  1  0.25000000  0.19023200  0.71736500  1
  C  C5  1  0.75000000  0.80976800  0.28263500  1
  O  O6  1  0.86463000  0.71468300  0.40329100  1
  O  O7  1  0.36463000  0.28531700  0.59670900  1
  O  O8  1  0.25000000  0.99583100  0.96018500  1
  O  O9  1  0.75000000  0.00416900  0.03981500  1
  O  O10  1  0.63537000  0.71468300  0.40329100  1
  O  O11  1  0.13537000  0.28531700  0.59670900  1
