# generated using pymatgen
data_KBF4
_symmetry_space_group_name_H-M   'P 1'
_cell_length_a   5.58416600
_cell_length_b   7.15274300
_cell_length_c   8.78728200
_cell_angle_alpha   90.00000000
_cell_angle_beta   90.00000000
_cell_angle_gamma   90.00000000
_symmetry_Int_Tables_number   1
_chemical_formula_structural   KBF4
_chemical_formula_sum   'K4 B4 F16'
_cell_volume   350.98253387
_cell_formula_units_Z   4
loop_
 _symmetry_equiv_pos_site_id
 _symmetry_equiv_pos_as_xyz
  1  'x, y, z'
loop_
 _atom_site_type_symbol
 _atom_site_label
 _atom_site_symmetry_multiplicity
 _atom_site_fract_x
 _atom_site_fract_y
 _atom_site_fract_z
 _atom_site_occupancy
  K  K0  1  0.25000000  0.33956200  0.68445600  1
  K  K1  1  0.75000000  0.66043800  0.31554400  1
  K  K2  1  0.75000000  0.83956200  0.81554400  1
  K  K3  1  0.25000000  0.16043800  0.18445600  1
  B  B4  1  0.25000000  0.68877800  0.06260300  1
  B  B5  1  0.25000000  0.81122200  0.56260300  1
  B  B6  1  0.75000000  0.18877800  0.43739700  1
  B  B7  1  0.75000000  0.31122200  0.93739700  1
  F  F8  1  0.54264100  0.30420500  0.42288900  1
  F  F9  1  0.95735900  0.19579500  0.92288900  1
  F  F10  1  0.45735900  0.80420500  0.07711100  1
  F  F11  1  0.04264100  0.69579500  0.57711100  1
  F  F12  1  0.25000000  0.60225000  0.91877700  1
  F  F13  1  0.75000000  0.39775000  0.08122300  1
  F  F14  1  0.75000000  0.10225000  0.58122300  1
  F  F15  1  0.25000000  0.89775000  0.41877700  1
  F  F16  1  0.25000000  0.55428100  0.18065900  1
  F  F17  1  0.75000000  0.44571900  0.81934100  1
  F  F18  1  0.75000000  0.05428100  0.31934100  1
  F  F19  1  0.25000000  0.94571900  0.68065900  1
  F  F20  1  0.04264100  0.80420500  0.07711100  1
  F  F21  1  0.54264100  0.19579500  0.92288900  1
  F  F22  1  0.95735900  0.30420500  0.42288900  1
  F  F23  1  0.45735900  0.69579500  0.57711100  1
