# generated using pymatgen
data_Na2SiO3
_symmetry_space_group_name_H-M   'P 1'
_cell_length_a   6.14211211
_cell_length_b   6.14211211
_cell_length_c   4.87626300
_cell_angle_alpha   90.00000000
_cell_angle_beta   90.00000000
_cell_angle_gamma   119.83333986
_symmetry_Int_Tables_number   1
_chemical_formula_structural   Na2SiO3
_chemical_formula_sum   'Na4 Si2 O6'
_cell_volume   159.58061292
_cell_formula_units_Z   2
loop_
 _symmetry_equiv_pos_site_id
 _symmetry_equiv_pos_as_xyz
  1  'x, y, z'
loop_
 _atom_site_type_symbol
 _atom_site_label
 _atom_site_symmetry_multiplicity
 _atom_site_fract_x
 _atom_site_fract_y
 _atom_site_fract_z
 _atom_site_occupancy
  Na  Na0  1  0.17377300  0.50399900  0.49694000  1
  Na  Na1  1  0.50399900  0.17377300  0.49694000  1
  Na  Na2  1  0.82622700  0.49600100  0.99694000  1
  Na  Na3  1  0.49600100  0.82622700  0.99694000  1
  Si  Si4  1  0.84222400  0.84222400  0.46153200  1
  Si  Si5  1  0.15777600  0.15777600  0.96153200  1
  O  O6  1  0.08396400  0.08396400  0.62543700  1
  O  O7  1  0.91603600  0.91603600  0.12543700  1
  O  O8  1  0.84154000  0.58216100  0.51627500  1
  O  O9  1  0.15846000  0.41783900  0.01627500  1
  O  O10  1  0.58216100  0.84154000  0.51627500  1
  O  O11  1  0.41783900  0.15846000  0.01627500  1
