# generated using pymatgen
data_TbSi2Ni
_symmetry_space_group_name_H-M   'P 1'
_cell_length_a   8.46663482
_cell_length_b   8.46663482
_cell_length_c   3.98165700
_cell_angle_alpha   90.00000000
_cell_angle_beta   90.00000000
_cell_angle_gamma   152.60253673
_symmetry_Int_Tables_number   1
_chemical_formula_structural   TbSi2Ni
_chemical_formula_sum   'Tb2 Si4 Ni2'
_cell_volume   131.33933606
_cell_formula_units_Z   2
loop_
 _symmetry_equiv_pos_site_id
 _symmetry_equiv_pos_as_xyz
  1  'x, y, z'
loop_
 _atom_site_type_symbol
 _atom_site_label
 _atom_site_symmetry_multiplicity
 _atom_site_fract_x
 _atom_site_fract_y
 _atom_site_fract_z
 _atom_site_occupancy
  Tb  Tb0  1  0.10603500  0.89396500  0.25000000  1
  Tb  Tb1  1  0.89396500  0.10603500  0.75000000  1
  Si  Si2  1  0.74950800  0.25049200  0.25000000  1
  Si  Si3  1  0.25049200  0.74950800  0.75000000  1
  Si  Si4  1  0.45998400  0.54001600  0.25000000  1
  Si  Si5  1  0.54001600  0.45998400  0.75000000  1
  Ni  Ni6  1  0.32206300  0.67793700  0.25000000  1
  Ni  Ni7  1  0.67793700  0.32206300  0.75000000  1
