# generated using pymatgen
data_Li2B4O7
_symmetry_space_group_name_H-M   'P 1'
_cell_length_a   8.66789029
_cell_length_b   8.66789029
_cell_length_c   8.66789029
_cell_angle_alpha   112.86462301
_cell_angle_beta   112.86462301
_cell_angle_gamma   102.87882239
_symmetry_Int_Tables_number   1
_chemical_formula_structural   Li2B4O7
_chemical_formula_sum   'Li8 B16 O28'
_cell_volume   496.42523302
_cell_formula_units_Z   4
loop_
 _symmetry_equiv_pos_site_id
 _symmetry_equiv_pos_as_xyz
  1  'x, y, z'
loop_
 _atom_site_type_symbol
 _atom_site_label
 _atom_site_symmetry_multiplicity
 _atom_site_fract_x
 _atom_site_fract_y
 _atom_site_fract_z
 _atom_site_occupancy
  Li  Li0  1  0.99743600  0.98170200  0.65458300  1
  Li  Li1  1  0.09285300  0.24743600  0.51573400  1
  Li  Li2  1  0.73170200  0.57711900  0.48426600  1
  Li  Li3  1  0.32711900  0.34285300  0.34541700  1
  Li  Li4  1  0.49743600  0.84285300  0.01573400  1
  Li  Li5  1  0.82711900  0.48170200  0.98426600  1
  Li  Li6  1  0.23170200  0.74743600  0.15458300  1
  Li  Li7  1  0.59285300  0.07711900  0.84541700  1
  B  B8  1  0.62663800  0.87880400  0.41011400  1
  B  B9  1  0.96652300  0.87663800  0.24783300  1
  B  B10  1  0.62880400  0.71869000  0.75216700  1
  B  B11  1  0.46869000  0.21652300  0.58988600  1
  B  B12  1  0.12663800  0.71652300  0.74783300  1
  B  B13  1  0.96869000  0.37880400  0.25216700  1
  B  B14  1  0.12880400  0.37663800  0.91011400  1
  B  B15  1  0.46652300  0.21869000  0.08988600  1
  B  B16  1  0.46250400  0.52846300  0.16078200  1
  B  B17  1  0.05172200  0.71250400  0.43404000  1
  B  B18  1  0.27846300  0.61768100  0.56596000  1
  B  B19  1  0.36768100  0.30172200  0.83921800  1
  B  B20  1  0.96250400  0.80172200  0.93404000  1
  B  B21  1  0.86768100  0.02846300  0.06596000  1
  B  B22  1  0.77846300  0.21250400  0.66078200  1
  B  B23  1  0.55172200  0.11768100  0.33921800  1
  O  O24  1  0.60733500  0.70106800  0.34864600  1
  O  O25  1  0.00868900  0.85733500  0.40626700  1
  O  O26  1  0.45106800  0.60242200  0.59373300  1
  O  O27  1  0.35242200  0.25868900  0.65135400  1
  O  O28  1  0.10733500  0.75868900  0.90626700  1
  O  O29  1  0.85242200  0.20106800  0.09373300  1
  O  O30  1  0.95106800  0.35733500  0.84864600  1
  O  O31  1  0.50868900  0.10242200  0.15135400  1
  O  O32  1  0.76846700  0.02007100  0.59980100  1
  O  O33  1  0.91866600  0.01846700  0.24839600  1
  O  O34  1  0.77007100  0.67027000  0.75160400  1
  O  O35  1  0.42027000  0.16866600  0.40019900  1
  O  O36  1  0.26846700  0.66866600  0.74839600  1
  O  O37  1  0.92027000  0.52007100  0.25160400  1
  O  O38  1  0.27007100  0.51846700  0.09980100  1
  O  O39  1  0.41866600  0.17027000  0.90019900  1
  O  O40  1  0.50576000  0.91471800  0.28304400  1
  O  O41  1  0.97271600  0.75576000  0.09104200  1
  O  O42  1  0.66471800  0.88167400  0.90895800  1
  O  O43  1  0.63167400  0.22271600  0.71695600  1
  O  O44  1  0.00576000  0.72271600  0.59104200  1
  O  O45  1  0.13167400  0.41471800  0.40895800  1
  O  O46  1  0.16471800  0.25576000  0.78304400  1
  O  O47  1  0.47271600  0.38167400  0.21695600  1
  O  O48  1  0.49194200  0.49194200  0.00000000  1
  O  O49  1  0.24194200  0.74194200  0.50000000  1
  O  O50  1  0.99194200  0.99194200  0.00000000  1
  O  O51  1  0.74194200  0.24194200  0.50000000  1
