# generated using pymatgen
data_ErAgSe2
_symmetry_space_group_name_H-M   'P 1'
_cell_length_a   4.24621100
_cell_length_b   6.82197500
_cell_length_c   13.74418000
_cell_angle_alpha   90.00000000
_cell_angle_beta   90.00000000
_cell_angle_gamma   90.00000000
_symmetry_Int_Tables_number   1
_chemical_formula_structural   ErAgSe2
_chemical_formula_sum   'Er4 Ag4 Se8'
_cell_volume   398.13515658
_cell_formula_units_Z   4
loop_
 _symmetry_equiv_pos_site_id
 _symmetry_equiv_pos_as_xyz
  1  'x, y, z'
loop_
 _atom_site_type_symbol
 _atom_site_label
 _atom_site_symmetry_multiplicity
 _atom_site_fract_x
 _atom_site_fract_y
 _atom_site_fract_z
 _atom_site_occupancy
  Er  Er0  1  0.22152000  0.29280100  0.12768600  1
  Er  Er1  1  0.72152000  0.20719900  0.87231400  1
  Er  Er2  1  0.77848000  0.79280100  0.37231400  1
  Er  Er3  1  0.27848000  0.70719900  0.62768600  1
  Ag  Ag4  1  0.50705600  0.70569700  0.87358400  1
  Ag  Ag5  1  0.49294400  0.20569700  0.62641600  1
  Ag  Ag6  1  0.00705600  0.79430300  0.12641600  1
  Ag  Ag7  1  0.99294400  0.29430300  0.37358400  1
  Se  Se8  1  0.77085500  0.51231800  0.52708400  1
  Se  Se9  1  0.27085500  0.98768200  0.47291600  1
  Se  Se10  1  0.22914500  0.01231800  0.97291600  1
  Se  Se11  1  0.72914500  0.48768200  0.02708400  1
  Se  Se12  1  0.77717900  0.91144000  0.72606400  1
  Se  Se13  1  0.72282100  0.08856000  0.22606400  1
  Se  Se14  1  0.22282100  0.41144000  0.77393600  1
  Se  Se15  1  0.27717900  0.58856000  0.27393600  1
