# generated using pymatgen
data_LiNi2P4H3O14
_symmetry_space_group_name_H-M   'P 1'
_cell_length_a   8.51811556
_cell_length_b   8.51811556
_cell_length_c   8.88551670
_cell_angle_alpha   69.21899282
_cell_angle_beta   69.21899282
_cell_angle_gamma   99.24313516
_symmetry_Int_Tables_number   1
_chemical_formula_structural   LiNi2P4H3O14
_chemical_formula_sum   'Li2 Ni4 P8 H6 O28'
_cell_volume   532.42882645
_cell_formula_units_Z   2
loop_
 _symmetry_equiv_pos_site_id
 _symmetry_equiv_pos_as_xyz
  1  'x, y, z'
loop_
 _atom_site_type_symbol
 _atom_site_label
 _atom_site_symmetry_multiplicity
 _atom_site_fract_x
 _atom_site_fract_y
 _atom_site_fract_z
 _atom_site_occupancy
  Li  Li0  1  0.36427800  0.64387100  0.74273000  1
  Li  Li1  1  0.64387100  0.36427800  0.24273000  1
  Ni  Ni2  1  0.50296300  0.00150800  0.00298600  1
  Ni  Ni3  1  0.40516800  0.59537400  0.25133000  1
  Ni  Ni4  1  0.59537400  0.40516800  0.75133000  1
  Ni  Ni5  1  0.00150800  0.50296300  0.50298600  1
  P  P6  1  0.28578800  0.85515800  0.43493400  1
  P  P7  1  0.67699700  0.76577000  0.81686800  1
  P  P8  1  0.14383000  0.72030500  0.07155800  1
  P  P9  1  0.76577000  0.67699700  0.31686800  1
  P  P10  1  0.23217100  0.32369500  0.68539200  1
  P  P11  1  0.85515800  0.28578800  0.93493400  1
  P  P12  1  0.32369500  0.23217100  0.18539200  1
  P  P13  1  0.72030500  0.14383000  0.57155800  1
  H  H14  1  0.02532000  0.52677100  0.99065200  1
  H  H15  1  0.73124100  0.94130600  0.20730200  1
  H  H16  1  0.94130600  0.73124100  0.70730200  1
  H  H17  1  0.06181700  0.26937300  0.28997400  1
  H  H18  1  0.26937300  0.06181700  0.78997400  1
  H  H19  1  0.52677100  0.02532000  0.49065200  1
  O  O20  1  0.27841700  0.90501400  0.96147600  1
  O  O21  1  0.73457200  0.94976300  0.64327600  1
  O  O22  1  0.57472100  0.78735700  0.98368100  1
  O  O23  1  0.38003700  0.86004900  0.55095200  1
  O  O24  1  0.14268300  0.62933000  0.94573600  1
  O  O25  1  0.85533500  0.74420900  0.81276000  1
  O  O26  1  0.09641100  0.72358300  0.54015100  1
  O  O27  1  0.39638600  0.83131500  0.26983500  1
  O  O28  1  0.74420900  0.85533500  0.31276000  1
  O  O29  1  0.56906100  0.62523400  0.79334100  1
  O  O30  1  0.16721000  0.60333900  0.23215200  1
  O  O31  1  0.94976300  0.73457200  0.14327600  1
  O  O32  1  0.78735700  0.57472100  0.48368100  1
  O  O33  1  0.37545700  0.43138700  0.70647600  1
  O  O34  1  0.62523400  0.56906100  0.29334100  1
  O  O35  1  0.21288100  0.42583900  0.51661500  1
  O  O36  1  0.04953300  0.26590900  0.85687400  1
  O  O37  1  0.83131500  0.39638600  0.76983500  1
  O  O38  1  0.43138700  0.37545700  0.20647600  1
  O  O39  1  0.25718800  0.14687300  0.68504800  1
  O  O40  1  0.60333900  0.16721000  0.73215200  1
  O  O41  1  0.90501400  0.27841700  0.46147600  1
  O  O42  1  0.14687300  0.25718800  0.18504800  1
  O  O43  1  0.86004900  0.38003700  0.05095200  1
  O  O44  1  0.62933000  0.14268300  0.44573600  1
  O  O45  1  0.42583900  0.21288100  0.01661500  1
  O  O46  1  0.26590900  0.04953300  0.35687500  1
  O  O47  1  0.72358300  0.09641100  0.04015100  1
