# generated using pymatgen
data_Na3Sr3AlP4
_symmetry_space_group_name_H-M   'P 1'
_cell_length_a   9.43700966
_cell_length_b   9.43700966
_cell_length_c   7.39839100
_cell_angle_alpha   90.00000000
_cell_angle_beta   90.00000000
_cell_angle_gamma   119.99999760
_symmetry_Int_Tables_number   1
_chemical_formula_structural   Na3Sr3AlP4
_chemical_formula_sum   'Na6 Sr6 Al2 P8'
_cell_volume   570.60650836
_cell_formula_units_Z   2
loop_
 _symmetry_equiv_pos_site_id
 _symmetry_equiv_pos_as_xyz
  1  'x, y, z'
loop_
 _atom_site_type_symbol
 _atom_site_label
 _atom_site_symmetry_multiplicity
 _atom_site_fract_x
 _atom_site_fract_y
 _atom_site_fract_z
 _atom_site_occupancy
  Na  Na0  1  0.72813800  0.86406900  0.17051200  1
  Na  Na1  1  0.86406900  0.13593100  0.67051200  1
  Na  Na2  1  0.86406900  0.72813800  0.67051200  1
  Na  Na3  1  0.13593100  0.27186200  0.17051200  1
  Na  Na4  1  0.13593100  0.86406900  0.17051200  1
  Na  Na5  1  0.27186200  0.13593100  0.67051200  1
  Sr  Sr6  1  0.04818700  0.52409400  0.49892600  1
  Sr  Sr7  1  0.47590600  0.95181300  0.49892600  1
  Sr  Sr8  1  0.47590600  0.52409400  0.49892600  1
  Sr  Sr9  1  0.52409400  0.47590600  0.99892600  1
  Sr  Sr10  1  0.52409400  0.04818700  0.99892600  1
  Sr  Sr11  1  0.95181300  0.47590600  0.99892600  1
  Al  Al12  1  0.33333300  0.66666700  0.87398200  1
  Al  Al13  1  0.66666700  0.33333300  0.37398200  1
  P  P14  1  0.66666700  0.33333300  0.70997500  1
  P  P15  1  0.61630700  0.80815400  0.77897600  1
  P  P16  1  0.80815400  0.19184600  0.27897600  1
  P  P17  1  0.80815400  0.61630700  0.27897600  1
  P  P18  1  0.33333300  0.66666700  0.20997500  1
  P  P19  1  0.19184600  0.38369300  0.77897600  1
  P  P20  1  0.19184600  0.80815400  0.77897600  1
  P  P21  1  0.38369300  0.19184600  0.27897600  1
