# generated using pymatgen
data_Li4GeO4
_symmetry_space_group_name_H-M   'P 1'
_cell_length_a   5.41595261
_cell_length_b   5.41595261
_cell_length_c   6.13836500
_cell_angle_alpha   90.00000000
_cell_angle_beta   90.00000000
_cell_angle_gamma   93.34430471
_symmetry_Int_Tables_number   1
_chemical_formula_structural   Li4GeO4
_chemical_formula_sum   'Li8 Ge2 O8'
_cell_volume   179.74722275
_cell_formula_units_Z   2
loop_
 _symmetry_equiv_pos_site_id
 _symmetry_equiv_pos_as_xyz
  1  'x, y, z'
loop_
 _atom_site_type_symbol
 _atom_site_label
 _atom_site_symmetry_multiplicity
 _atom_site_fract_x
 _atom_site_fract_y
 _atom_site_fract_z
 _atom_site_occupancy
  Li  Li0  1  0.42115900  0.12538200  0.75000000  1
  Li  Li1  1  0.57884100  0.87461800  0.25000000  1
  Li  Li2  1  0.83814300  0.16185700  0.00000000  1
  Li  Li3  1  0.16185700  0.83814300  0.50000000  1
  Li  Li4  1  0.16185700  0.83814300  0.00000000  1
  Li  Li5  1  0.83814300  0.16185700  0.50000000  1
  Li  Li6  1  0.87461800  0.57884100  0.25000000  1
  Li  Li7  1  0.12538200  0.42115900  0.75000000  1
  Ge  Ge8  1  0.66129900  0.66129900  0.75000000  1
  Ge  Ge9  1  0.33870100  0.33870100  0.25000000  1
  O  O10  1  0.65577500  0.26682600  0.25000000  1
  O  O11  1  0.34422500  0.73317400  0.75000000  1
  O  O12  1  0.20370800  0.20370800  0.00754800  1
  O  O13  1  0.79629200  0.79629200  0.50754800  1
  O  O14  1  0.20370800  0.20370800  0.49245200  1
  O  O15  1  0.79629200  0.79629200  0.99245200  1
  O  O16  1  0.26682600  0.65577500  0.25000000  1
  O  O17  1  0.73317400  0.34422500  0.75000000  1
