# generated using pymatgen
data_NaCdF3
_symmetry_space_group_name_H-M   'P 1'
_cell_length_a   6.13913465
_cell_length_b   6.13913465
_cell_length_c   6.13913532
_cell_angle_alpha   56.71430703
_cell_angle_beta   56.71430703
_cell_angle_gamma   56.71431017
_symmetry_Int_Tables_number   1
_chemical_formula_structural   NaCdF3
_chemical_formula_sum   'Na2 Cd2 F6'
_cell_volume   151.19635286
_cell_formula_units_Z   2
loop_
 _symmetry_equiv_pos_site_id
 _symmetry_equiv_pos_as_xyz
  1  'x, y, z'
loop_
 _atom_site_type_symbol
 _atom_site_label
 _atom_site_symmetry_multiplicity
 _atom_site_fract_x
 _atom_site_fract_y
 _atom_site_fract_z
 _atom_site_occupancy
  Na  Na0  1  0.70926900  0.70926900  0.70926900  1
  Na  Na1  1  0.20926900  0.20926900  0.20926900  1
  Cd  Cd2  1  0.99873800  0.99873800  0.99873800  1
  Cd  Cd3  1  0.49873800  0.49873800  0.49873800  1
  F  F4  1  0.61538600  0.29367600  0.88693200  1
  F  F5  1  0.29367600  0.88693200  0.61538600  1
  F  F6  1  0.88693200  0.61538600  0.29367600  1
  F  F7  1  0.11538600  0.38693200  0.79367600  1
  F  F8  1  0.79367600  0.11538600  0.38693200  1
  F  F9  1  0.38693200  0.79367600  0.11538600  1
