# generated using pymatgen
data_YbPO4
_symmetry_space_group_name_H-M   'P 1'
_cell_length_a   5.82968777
_cell_length_b   5.82968777
_cell_length_c   5.82968777
_cell_angle_alpha   106.13227692
_cell_angle_beta   106.13227692
_cell_angle_gamma   116.37781299
_symmetry_Int_Tables_number   1
_chemical_formula_structural   YbPO4
_chemical_formula_sum   'Yb2 P2 O8'
_cell_volume   150.83410515
_cell_formula_units_Z   2
loop_
 _symmetry_equiv_pos_site_id
 _symmetry_equiv_pos_as_xyz
  1  'x, y, z'
loop_
 _atom_site_type_symbol
 _atom_site_label
 _atom_site_symmetry_multiplicity
 _atom_site_fract_x
 _atom_site_fract_y
 _atom_site_fract_z
 _atom_site_occupancy
  Yb  Yb0  1  0.00000000  0.00000000  0.00000000  1
  Yb  Yb1  1  0.25000000  0.75000000  0.50000000  1
  P  P2  1  0.75000000  0.25000000  0.50000000  1
  P  P3  1  0.50000000  0.50000000  0.00000000  1
  O  O4  1  0.90279400  0.57824000  0.67544600  1
  O  O5  1  0.47734800  0.65279400  0.82455400  1
  O  O6  1  0.82824000  0.65279400  0.17544600  1
  O  O7  1  0.90279400  0.22734800  0.32455400  1
  O  O8  1  0.77265200  0.09720600  0.67544600  1
  O  O9  1  0.34720600  0.17176000  0.82455400  1
  O  O10  1  0.34720600  0.52265200  0.17544600  1
  O  O11  1  0.42175900  0.09720600  0.32455400  1
