# generated using pymatgen
data_KCrS2
_symmetry_space_group_name_H-M   'P 1'
_cell_length_a   7.38768199
_cell_length_b   7.38768199
_cell_length_c   7.38768247
_cell_angle_alpha   28.79721823
_cell_angle_beta   28.79721823
_cell_angle_gamma   28.79721671
_symmetry_Int_Tables_number   1
_chemical_formula_structural   KCrS2
_chemical_formula_sum   'K1 Cr1 S2'
_cell_volume   82.73037792
_cell_formula_units_Z   1
loop_
 _symmetry_equiv_pos_site_id
 _symmetry_equiv_pos_as_xyz
  1  'x, y, z'
loop_
 _atom_site_type_symbol
 _atom_site_label
 _atom_site_symmetry_multiplicity
 _atom_site_fract_x
 _atom_site_fract_y
 _atom_site_fract_z
 _atom_site_occupancy
  K  K0  1  0.50000000  0.50000000  0.50000000  1
  Cr  Cr1  1  0.00000000  0.00000000  0.00000000  1
  S  S2  1  0.72515700  0.72515700  0.72515700  1
  S  S3  1  0.27484300  0.27484300  0.27484300  1
