# generated using pymatgen
data_Rb2Pt3S4
_symmetry_space_group_name_H-M   'P 1'
_cell_length_a   8.64424695
_cell_length_b   7.41475998
_cell_length_c   6.39664879
_cell_angle_alpha   77.10282454
_cell_angle_beta   56.73353669
_cell_angle_gamma   46.16363877
_symmetry_Int_Tables_number   1
_chemical_formula_structural   Rb2Pt3S4
_chemical_formula_sum   'Rb2 Pt3 S4'
_cell_volume   238.78059402
_cell_formula_units_Z   1
loop_
 _symmetry_equiv_pos_site_id
 _symmetry_equiv_pos_as_xyz
  1  'x, y, z'
loop_
 _atom_site_type_symbol
 _atom_site_label
 _atom_site_symmetry_multiplicity
 _atom_site_fract_x
 _atom_site_fract_y
 _atom_site_fract_z
 _atom_site_occupancy
  Rb  Rb0  1  0.34861300  0.34861300  0.65138700  1
  Rb  Rb1  1  0.65138700  0.65138700  0.34861300  1
  Pt  Pt2  1  0.00000000  0.00000000  0.50000000  1
  Pt  Pt3  1  0.50000000  0.50000000  0.00000000  1
  Pt  Pt4  1  0.00000000  0.00000000  0.00000000  1
  S  S5  1  0.05722300  0.72096500  0.27903500  1
  S  S6  1  0.94277700  0.27903500  0.72096500  1
  S  S7  1  0.27903500  0.94277700  0.05722300  1
  S  S8  1  0.72096500  0.05722300  0.94277700  1
