# generated using pymatgen
data_Tl3PSe4
_symmetry_space_group_name_H-M   'P 1'
_cell_length_a   9.47131500
_cell_length_b   9.58660700
_cell_length_c   11.29889800
_cell_angle_alpha   90.00000000
_cell_angle_beta   90.00000000
_cell_angle_gamma   90.00000000
_symmetry_Int_Tables_number   1
_chemical_formula_structural   Tl3PSe4
_chemical_formula_sum   'Tl12 P4 Se16'
_cell_volume   1025.91479472
_cell_formula_units_Z   4
loop_
 _symmetry_equiv_pos_site_id
 _symmetry_equiv_pos_as_xyz
  1  'x, y, z'
loop_
 _atom_site_type_symbol
 _atom_site_label
 _atom_site_symmetry_multiplicity
 _atom_site_fract_x
 _atom_site_fract_y
 _atom_site_fract_z
 _atom_site_occupancy
  Tl  Tl0  1  0.93253100  0.19442300  0.44603200  1
  Tl  Tl1  1  0.43253100  0.30557700  0.05396800  1
  Tl  Tl2  1  0.56746900  0.69442300  0.55396800  1
  Tl  Tl3  1  0.06746900  0.80557700  0.94603200  1
  Tl  Tl4  1  0.06746900  0.80557700  0.55396800  1
  Tl  Tl5  1  0.56746900  0.69442300  0.94603200  1
  Tl  Tl6  1  0.43253100  0.30557700  0.44603200  1
  Tl  Tl7  1  0.93253100  0.19442300  0.05396800  1
  Tl  Tl8  1  0.40209800  0.10843900  0.75000000  1
  Tl  Tl9  1  0.90209800  0.39156100  0.75000000  1
  Tl  Tl10  1  0.09790200  0.60843900  0.25000000  1
  Tl  Tl11  1  0.59790200  0.89156100  0.25000000  1
  P  P12  1  0.27962400  0.52778600  0.75000000  1
  P  P13  1  0.77962400  0.97221400  0.75000000  1
  P  P14  1  0.22037600  0.02778600  0.25000000  1
  P  P15  1  0.72037600  0.47221400  0.25000000  1
  Se  Se16  1  0.84034200  0.53262600  0.41223900  1
  Se  Se17  1  0.34034200  0.96737400  0.08776100  1
  Se  Se18  1  0.65965800  0.03262600  0.58776100  1
  Se  Se19  1  0.15965800  0.46737400  0.91223900  1
  Se  Se20  1  0.15965800  0.46737400  0.58776100  1
  Se  Se21  1  0.65965800  0.03262600  0.91223900  1
  Se  Se22  1  0.34034200  0.96737400  0.41223900  1
  Se  Se23  1  0.84034200  0.53262600  0.08776100  1
  Se  Se24  1  0.69113700  0.23870200  0.25000000  1
  Se  Se25  1  0.19113700  0.26129800  0.25000000  1
  Se  Se26  1  0.80886300  0.73870200  0.75000000  1
  Se  Se27  1  0.30886300  0.76129800  0.75000000  1
  Se  Se28  1  0.00543800  0.93288500  0.25000000  1
  Se  Se29  1  0.50543800  0.56711500  0.25000000  1
  Se  Se30  1  0.49456200  0.43288500  0.75000000  1
  Se  Se31  1  0.99456200  0.06711500  0.75000000  1
