# generated using pymatgen
data_CdSiP2
_symmetry_space_group_name_H-M   'P 1'
_cell_length_a   6.66308723
_cell_length_b   6.66308723
_cell_length_c   6.66308723
_cell_angle_alpha   129.05086897
_cell_angle_beta   129.05086897
_cell_angle_gamma   74.92873721
_symmetry_Int_Tables_number   1
_chemical_formula_structural   CdSiP2
_chemical_formula_sum   'Cd2 Si2 P4'
_cell_volume   173.74811567
_cell_formula_units_Z   2
loop_
 _symmetry_equiv_pos_site_id
 _symmetry_equiv_pos_as_xyz
  1  'x, y, z'
loop_
 _atom_site_type_symbol
 _atom_site_label
 _atom_site_symmetry_multiplicity
 _atom_site_fract_x
 _atom_site_fract_y
 _atom_site_fract_z
 _atom_site_occupancy
  Cd  Cd0  1  0.75000000  0.25000000  0.50000000  1
  Cd  Cd1  1  0.00000000  0.00000000  0.00000000  1
  Si  Si2  1  0.50000000  0.50000000  0.00000000  1
  Si  Si3  1  0.25000000  0.75000000  0.50000000  1
  P  P4  1  0.87500000  0.82840300  0.45340300  1
  P  P5  1  0.17159700  0.62500000  0.04659700  1
  P  P6  1  0.37500000  0.42159700  0.54659700  1
  P  P7  1  0.57840300  0.12500000  0.95340300  1
