# generated using pymatgen
data_ErTlS2
_symmetry_space_group_name_H-M   'P 1'
_cell_length_a   7.88075687
_cell_length_b   7.88075687
_cell_length_c   7.88075700
_cell_angle_alpha   29.39163571
_cell_angle_beta   29.39163571
_cell_angle_gamma   29.39163190
_symmetry_Int_Tables_number   1
_chemical_formula_structural   ErTlS2
_chemical_formula_sum   'Er1 Tl1 S2'
_cell_volume   104.33025813
_cell_formula_units_Z   1
loop_
 _symmetry_equiv_pos_site_id
 _symmetry_equiv_pos_as_xyz
  1  'x, y, z'
loop_
 _atom_site_type_symbol
 _atom_site_label
 _atom_site_symmetry_multiplicity
 _atom_site_fract_x
 _atom_site_fract_y
 _atom_site_fract_z
 _atom_site_occupancy
  Er  Er0  1  0.00000000  0.00000000  0.00000000  1
  Tl  Tl1  1  0.50000000  0.50000000  0.50000000  1
  S  S2  1  0.73191600  0.73191600  0.73191600  1
  S  S3  1  0.26808400  0.26808400  0.26808400  1
