# generated using pymatgen
data_Nd2Co14B
_symmetry_space_group_name_H-M   'P 1'
_cell_length_a   8.60497300
_cell_length_b   8.60497300
_cell_length_c   11.83154200
_cell_angle_alpha   90.00000000
_cell_angle_beta   90.00000000
_cell_angle_gamma   90.00000000
_symmetry_Int_Tables_number   1
_chemical_formula_structural   Nd2Co14B
_chemical_formula_sum   'Nd8 Co56 B4'
_cell_volume   876.07315697
_cell_formula_units_Z   4
loop_
 _symmetry_equiv_pos_site_id
 _symmetry_equiv_pos_as_xyz
  1  'x, y, z'
loop_
 _atom_site_type_symbol
 _atom_site_label
 _atom_site_symmetry_multiplicity
 _atom_site_fract_x
 _atom_site_fract_y
 _atom_site_fract_z
 _atom_site_occupancy
  Nd  Nd0  1  0.27572700  0.27572700  0.00000000  1
  Nd  Nd1  1  0.22427300  0.77572700  0.50000000  1
  Nd  Nd2  1  0.77572700  0.22427300  0.50000000  1
  Nd  Nd3  1  0.72427300  0.72427300  0.00000000  1
  Nd  Nd4  1  0.14535300  0.85464700  0.00000000  1
  Nd  Nd5  1  0.64535300  0.64535300  0.50000000  1
  Nd  Nd6  1  0.35464700  0.35464700  0.50000000  1
  Nd  Nd7  1  0.85464700  0.14535300  0.00000000  1
  Co  Co8  1  0.00000000  0.50000000  0.00000000  1
  Co  Co9  1  0.00000000  0.50000000  0.50000000  1
  Co  Co10  1  0.50000000  0.00000000  0.50000000  1
  Co  Co11  1  0.50000000  0.00000000  0.00000000  1
  Co  Co12  1  0.00000000  0.00000000  0.61649100  1
  Co  Co13  1  0.50000000  0.50000000  0.11649100  1
  Co  Co14  1  0.50000000  0.50000000  0.88350900  1
  Co  Co15  1  0.00000000  0.00000000  0.38350900  1
  Co  Co16  1  0.31794600  0.31794600  0.24720100  1
  Co  Co17  1  0.18205400  0.81794600  0.74720100  1
  Co  Co18  1  0.81794600  0.18205400  0.74720100  1
  Co  Co19  1  0.81794600  0.18205400  0.25279900  1
  Co  Co20  1  0.18205400  0.81794600  0.25279900  1
  Co  Co21  1  0.68205400  0.68205400  0.24720100  1
  Co  Co22  1  0.31794600  0.31794600  0.75279900  1
  Co  Co23  1  0.68205400  0.68205400  0.75279900  1
  Co  Co24  1  0.09869300  0.09869300  0.20617400  1
  Co  Co25  1  0.40130700  0.59869300  0.70617400  1
  Co  Co26  1  0.59869300  0.40130700  0.70617400  1
  Co  Co27  1  0.59869300  0.40130700  0.29382600  1
  Co  Co28  1  0.40130700  0.59869300  0.29382600  1
  Co  Co29  1  0.90130700  0.90130700  0.20617400  1
  Co  Co30  1  0.09869300  0.09869300  0.79382600  1
  Co  Co31  1  0.90130700  0.90130700  0.79382600  1
  Co  Co32  1  0.03603200  0.36049200  0.17893500  1
  Co  Co33  1  0.13950800  0.53603200  0.67893500  1
  Co  Co34  1  0.86049200  0.46396800  0.67893500  1
  Co  Co35  1  0.53603200  0.13950800  0.32106500  1
  Co  Co36  1  0.46396800  0.86049200  0.32106500  1
  Co  Co37  1  0.96396800  0.63950800  0.17893500  1
  Co  Co38  1  0.36049200  0.03603200  0.82106500  1
  Co  Co39  1  0.63950800  0.96396800  0.82106500  1
  Co  Co40  1  0.96396800  0.63950800  0.82106500  1
  Co  Co41  1  0.86049200  0.46396800  0.32106500  1
  Co  Co42  1  0.13950800  0.53603200  0.32106500  1
  Co  Co43  1  0.46396800  0.86049200  0.67893500  1
  Co  Co44  1  0.53603200  0.13950800  0.67893500  1
  Co  Co45  1  0.03603200  0.36049200  0.82106500  1
  Co  Co46  1  0.63950800  0.96396800  0.17893500  1
  Co  Co47  1  0.36049200  0.03603200  0.17893500  1
  Co  Co48  1  0.22462300  0.56950200  0.12741500  1
  Co  Co49  1  0.93049800  0.72462300  0.62741500  1
  Co  Co50  1  0.06950200  0.27537700  0.62741500  1
  Co  Co51  1  0.72462300  0.93049800  0.37258500  1
  Co  Co52  1  0.27537700  0.06950200  0.37258500  1
  Co  Co53  1  0.77537700  0.43049800  0.12741500  1
  Co  Co54  1  0.56950200  0.22462300  0.87258500  1
  Co  Co55  1  0.43049800  0.77537700  0.87258500  1
  Co  Co56  1  0.77537700  0.43049800  0.87258500  1
  Co  Co57  1  0.06950200  0.27537700  0.37258500  1
  Co  Co58  1  0.93049800  0.72462300  0.37258500  1
  Co  Co59  1  0.27537700  0.06950200  0.62741500  1
  Co  Co60  1  0.72462300  0.93049800  0.62741500  1
  Co  Co61  1  0.22462300  0.56950200  0.87258500  1
  Co  Co62  1  0.43049800  0.77537700  0.12741500  1
  Co  Co63  1  0.56950200  0.22462300  0.12741500  1
  B  B64  1  0.37825800  0.62174200  0.00000000  1
  B  B65  1  0.87825800  0.87825800  0.50000000  1
  B  B66  1  0.12174200  0.12174200  0.50000000  1
  B  B67  1  0.62174200  0.37825800  0.00000000  1
