# generated using pymatgen
data_Na2ThF6
_symmetry_space_group_name_H-M   'P 1'
_cell_length_a   6.07842571
_cell_length_b   6.07842571
_cell_length_c   3.86901700
_cell_angle_alpha   90.00000000
_cell_angle_beta   90.00000000
_cell_angle_gamma   119.99999688
_symmetry_Int_Tables_number   1
_chemical_formula_structural   Na2ThF6
_chemical_formula_sum   'Na2 Th1 F6'
_cell_volume   123.79796623
_cell_formula_units_Z   1
loop_
 _symmetry_equiv_pos_site_id
 _symmetry_equiv_pos_as_xyz
  1  'x, y, z'
loop_
 _atom_site_type_symbol
 _atom_site_label
 _atom_site_symmetry_multiplicity
 _atom_site_fract_x
 _atom_site_fract_y
 _atom_site_fract_z
 _atom_site_occupancy
  Na  Na0  1  0.66666700  0.33333300  0.59749600  1
  Na  Na1  1  0.33333300  0.66666700  0.40250400  1
  Th  Th2  1  0.00000000  0.00000000  0.00000000  1
  F  F3  1  0.74863700  0.74863700  0.50000000  1
  F  F4  1  0.00000000  0.25136300  0.50000000  1
  F  F5  1  0.25136300  0.00000000  0.50000000  1
  F  F6  1  0.62557800  0.00000000  0.00000000  1
  F  F7  1  0.00000000  0.62557800  0.00000000  1
  F  F8  1  0.37442200  0.37442200  0.00000000  1
