# generated using pymatgen
data_NaSm3Ti2(SbO7)2
_symmetry_space_group_name_H-M   'P 1'
_cell_length_a   7.34789000
_cell_length_b   7.38686500
_cell_length_c   12.72961603
_cell_angle_alpha   54.89425673
_cell_angle_beta   90.00000000
_cell_angle_gamma   90.00000000
_symmetry_Int_Tables_number   1
_chemical_formula_structural   NaSm3Ti2(SbO7)2
_chemical_formula_sum   'Na2 Sm6 Ti4 Sb4 O28'
_cell_volume   565.24964488
_cell_formula_units_Z   2
loop_
 _symmetry_equiv_pos_site_id
 _symmetry_equiv_pos_as_xyz
  1  'x, y, z'
loop_
 _atom_site_type_symbol
 _atom_site_label
 _atom_site_symmetry_multiplicity
 _atom_site_fract_x
 _atom_site_fract_y
 _atom_site_fract_z
 _atom_site_occupancy
  Na  Na0  1  0.00000000  0.00000000  0.00000000  1
  Na  Na1  1  0.00000000  0.00000000  0.50000000  1
  Sm  Sm2  1  0.22778500  0.50000000  0.75000000  1
  Sm  Sm3  1  0.24303400  0.00000000  0.75000000  1
  Sm  Sm4  1  0.77221500  0.50000000  0.25000000  1
  Sm  Sm5  1  0.50000000  0.00000000  0.50000000  1
  Sm  Sm6  1  0.75696600  0.00000000  0.25000000  1
  Sm  Sm7  1  0.50000000  0.00000000  0.00000000  1
  Ti  Ti8  1  0.26286100  0.50000000  0.25000000  1
  Ti  Ti9  1  0.50000000  0.50000000  0.00000000  1
  Ti  Ti10  1  0.73713900  0.50000000  0.75000000  1
  Ti  Ti11  1  0.50000000  0.50000000  0.50000000  1
  Sb  Sb12  1  0.00000000  0.50000000  0.50000000  1
  Sb  Sb13  1  0.74492500  0.00000000  0.75000000  1
  Sb  Sb14  1  0.00000000  0.50000000  0.00000000  1
  Sb  Sb15  1  0.25507500  0.00000000  0.25000000  1
  O  O16  1  0.05291400  0.55670200  0.13165300  1
  O  O17  1  0.74428600  0.13074900  0.37095000  1
  O  O18  1  0.26897100  0.17951900  0.32088800  1
  O  O19  1  0.04687200  0.17142100  0.12831300  1
  O  O20  1  0.04687200  0.82857900  0.37168700  1
  O  O21  1  0.94708600  0.55670200  0.63165300  1
  O  O22  1  0.55295400  0.57328400  0.62198500  1
  O  O23  1  0.74983300  0.57669900  0.42307900  1
  O  O24  1  0.25571400  0.13074900  0.87095000  1
  O  O25  1  0.25016700  0.42330100  0.57692100  1
  O  O26  1  0.73102900  0.17951900  0.82088800  1
  O  O27  1  0.95312800  0.17142100  0.62831300  1
  O  O28  1  0.05291400  0.44329800  0.36834700  1
  O  O29  1  0.54494800  0.17676600  0.62274100  1
  O  O30  1  0.54494800  0.82323400  0.87725900  1
  O  O31  1  0.95312800  0.82857900  0.87168700  1
  O  O32  1  0.44704600  0.57328400  0.12198500  1
  O  O33  1  0.73102900  0.82048100  0.67911200  1
  O  O34  1  0.25571400  0.86925100  0.62905000  1
  O  O35  1  0.74983300  0.42330100  0.07692100  1
  O  O36  1  0.25016700  0.57669900  0.92307900  1
  O  O37  1  0.94708600  0.44329800  0.86834700  1
  O  O38  1  0.55295400  0.42671600  0.87801500  1
  O  O39  1  0.45505200  0.17676600  0.12274100  1
  O  O40  1  0.45505200  0.82323400  0.37725900  1
  O  O41  1  0.26897100  0.82048100  0.17911200  1
  O  O42  1  0.74428600  0.86925100  0.12905000  1
  O  O43  1  0.44704600  0.42671600  0.37801500  1
