# generated using pymatgen
data_La4Re6O19
_symmetry_space_group_name_H-M   'P 1'
_cell_length_a   7.92388649
_cell_length_b   7.92388649
_cell_length_c   7.92388649
_cell_angle_alpha   109.47122063
_cell_angle_beta   109.47122063
_cell_angle_gamma   109.47122063
_symmetry_Int_Tables_number   1
_chemical_formula_structural   La4Re6O19
_chemical_formula_sum   'La4 Re6 O19'
_cell_volume   382.99477282
_cell_formula_units_Z   1
loop_
 _symmetry_equiv_pos_site_id
 _symmetry_equiv_pos_as_xyz
  1  'x, y, z'
loop_
 _atom_site_type_symbol
 _atom_site_label
 _atom_site_symmetry_multiplicity
 _atom_site_fract_x
 _atom_site_fract_y
 _atom_site_fract_z
 _atom_site_occupancy
  La  La0  1  0.31297700  0.00000000  0.00000000  1
  La  La1  1  0.68702300  0.68702300  0.68702300  1
  La  La2  1  0.00000000  0.31297700  0.00000000  1
  La  La3  1  0.00000000  0.00000000  0.31297700  1
  Re  Re4  1  0.63275900  0.50000000  0.13275900  1
  Re  Re5  1  0.50000000  0.86724100  0.36724100  1
  Re  Re6  1  0.13275900  0.63275900  0.50000000  1
  Re  Re7  1  0.50000000  0.13275900  0.63275900  1
  Re  Re8  1  0.86724100  0.36724100  0.50000000  1
  Re  Re9  1  0.36724100  0.50000000  0.86724100  1
  O  O10  1  0.00000000  0.00000000  0.00000000  1
  O  O11  1  0.33048600  0.70370300  0.05979000  1
  O  O12  1  0.64391200  0.27069500  0.94021000  1
  O  O13  1  0.66951400  0.72930500  0.37321700  1
  O  O14  1  0.94021000  0.64391200  0.27069500  1
  O  O15  1  0.70370300  0.05979000  0.33048600  1
  O  O16  1  0.29629700  0.62678300  0.35608800  1
  O  O17  1  0.62678300  0.35608800  0.29629700  1
  O  O18  1  0.27069500  0.94021000  0.64391200  1
  O  O19  1  0.37321700  0.66951400  0.72930500  1
  O  O20  1  0.32139200  0.00000000  0.32139200  1
  O  O21  1  0.32139200  0.32139200  0.00000000  1
  O  O22  1  0.00000000  0.67860800  0.67860800  1
  O  O23  1  0.67860800  0.67860800  0.00000000  1
  O  O24  1  0.00000000  0.32139200  0.32139200  1
  O  O25  1  0.67860800  0.00000000  0.67860800  1
  O  O26  1  0.35608800  0.29629700  0.62678300  1
  O  O27  1  0.05979000  0.33048600  0.70370300  1
  O  O28  1  0.72930500  0.37321700  0.66951400  1
