# generated using pymatgen
data_Nb3Co4B7
_symmetry_space_group_name_H-M   'P 1'
_cell_length_a   9.34047278
_cell_length_b   9.34047278
_cell_length_c   8.89271800
_cell_angle_alpha   90.00000000
_cell_angle_beta   90.00000000
_cell_angle_gamma   160.23250444
_symmetry_Int_Tables_number   1
_chemical_formula_structural   Nb3Co4B7
_chemical_formula_sum   'Nb6 Co8 B14'
_cell_volume   262.39230886
_cell_formula_units_Z   2
loop_
 _symmetry_equiv_pos_site_id
 _symmetry_equiv_pos_as_xyz
  1  'x, y, z'
loop_
 _atom_site_type_symbol
 _atom_site_label
 _atom_site_symmetry_multiplicity
 _atom_site_fract_x
 _atom_site_fract_y
 _atom_site_fract_z
 _atom_site_occupancy
  Nb  Nb0  1  0.69797300  0.30202700  0.25000000  1
  Nb  Nb1  1  0.30202700  0.69797300  0.75000000  1
  Nb  Nb2  1  0.58084500  0.41915500  0.55505300  1
  Nb  Nb3  1  0.41915500  0.58084500  0.44494700  1
  Nb  Nb4  1  0.41915500  0.58084500  0.05505300  1
  Nb  Nb5  1  0.58084500  0.41915500  0.94494700  1
  Co  Co6  1  0.54216200  0.45783800  0.25000000  1
  Co  Co7  1  0.45783800  0.54216200  0.75000000  1
  Co  Co8  1  0.84375100  0.15624900  0.25000000  1
  Co  Co9  1  0.15624900  0.84375100  0.75000000  1
  Co  Co10  1  0.80097900  0.19902100  0.50511800  1
  Co  Co11  1  0.19902100  0.80097900  0.49488200  1
  Co  Co12  1  0.19902100  0.80097900  0.00511800  1
  Co  Co13  1  0.80097900  0.19902100  0.99488200  1
  B  B14  1  0.95539900  0.04460100  0.25000000  1
  B  B15  1  0.04460100  0.95539900  0.75000000  1
  B  B16  1  0.89025100  0.10974900  0.64773300  1
  B  B17  1  0.10974900  0.89025100  0.35226700  1
  B  B18  1  0.10974900  0.89025100  0.14773300  1
  B  B19  1  0.89025100  0.10974900  0.85226700  1
  B  B20  1  0.71013800  0.28986200  0.64476300  1
  B  B21  1  0.28986200  0.71013800  0.35523700  1
  B  B22  1  0.28986200  0.71013800  0.14476300  1
  B  B23  1  0.71013800  0.28986200  0.85523700  1
  B  B24  1  0.98458800  0.01541200  0.59336100  1
  B  B25  1  0.01541200  0.98458800  0.40663900  1
  B  B26  1  0.01541200  0.98458800  0.09336100  1
  B  B27  1  0.98458800  0.01541200  0.90663900  1
