# generated using pymatgen
data_Ba4Nb14O23
_symmetry_space_group_name_H-M   'P 1'
_cell_length_a   12.27569462
_cell_length_b   12.27569462
_cell_length_c   4.20490900
_cell_angle_alpha   90.00000000
_cell_angle_beta   90.00000000
_cell_angle_gamma   118.20071350
_symmetry_Int_Tables_number   1
_chemical_formula_structural   Ba4Nb14O23
_chemical_formula_sum   'Ba4 Nb14 O23'
_cell_volume   558.43332207
_cell_formula_units_Z   1
loop_
 _symmetry_equiv_pos_site_id
 _symmetry_equiv_pos_as_xyz
  1  'x, y, z'
loop_
 _atom_site_type_symbol
 _atom_site_label
 _atom_site_symmetry_multiplicity
 _atom_site_fract_x
 _atom_site_fract_y
 _atom_site_fract_z
 _atom_site_occupancy
  Ba  Ba0  1  0.22879100  0.43194000  0.00000000  1
  Ba  Ba1  1  0.77120900  0.56806000  0.00000000  1
  Ba  Ba2  1  0.43194000  0.22879100  0.00000000  1
  Ba  Ba3  1  0.56806000  0.77120900  0.00000000  1
  Nb  Nb4  1  0.50000000  0.50000000  0.50000000  1
  Nb  Nb5  1  0.95984200  0.36170200  0.50000000  1
  Nb  Nb6  1  0.04015800  0.63829800  0.50000000  1
  Nb  Nb7  1  0.36170200  0.95984200  0.50000000  1
  Nb  Nb8  1  0.63829800  0.04015800  0.50000000  1
  Nb  Nb9  1  0.16286300  0.16286300  0.50000000  1
  Nb  Nb10  1  0.83713700  0.83713700  0.50000000  1
  Nb  Nb11  1  0.29793700  0.70206300  0.50000000  1
  Nb  Nb12  1  0.70206300  0.29793700  0.50000000  1
  Nb  Nb13  1  0.20369300  0.79630700  0.00000000  1
  Nb  Nb14  1  0.79630700  0.20369300  0.00000000  1
  Nb  Nb15  1  0.09966800  0.90033200  0.50000000  1
  Nb  Nb16  1  0.90033200  0.09966800  0.50000000  1
  Nb  Nb17  1  0.00000000  0.00000000  0.00000000  1
  O  O18  1  0.66202700  0.66202700  0.50000000  1
  O  O19  1  0.33797300  0.33797300  0.50000000  1
  O  O20  1  0.50000000  0.50000000  0.00000000  1
  O  O21  1  0.40400900  0.59599100  0.50000000  1
  O  O22  1  0.59599100  0.40400900  0.50000000  1
  O  O23  1  0.86398400  0.46795100  0.50000000  1
  O  O24  1  0.13601600  0.53204900  0.50000000  1
  O  O25  1  0.46795100  0.86398400  0.50000000  1
  O  O26  1  0.53204900  0.13601600  0.50000000  1
  O  O27  1  0.96986100  0.36368700  0.00000000  1
  O  O28  1  0.03013900  0.63631300  0.00000000  1
  O  O29  1  0.36368700  0.96986100  0.00000000  1
  O  O30  1  0.63631300  0.03013900  0.00000000  1
  O  O31  1  0.06978400  0.26947600  0.50000000  1
  O  O32  1  0.93021600  0.73052400  0.50000000  1
  O  O33  1  0.26947600  0.06978400  0.50000000  1
  O  O34  1  0.73052400  0.93021600  0.50000000  1
  O  O35  1  0.17021200  0.17021100  0.00000000  1
  O  O36  1  0.89959200  0.10040800  0.00000000  1
  O  O37  1  0.10040800  0.89959200  0.00000000  1
  O  O38  1  0.69609800  0.30390200  0.00000000  1
  O  O39  1  0.30390200  0.69609800  0.00000000  1
  O  O40  1  0.82978900  0.82978900  0.00000000  1
