# generated using pymatgen
data_BaCeN2
_symmetry_space_group_name_H-M   'P 1'
_cell_length_a   3.69799918
_cell_length_b   3.69799918
_cell_length_c   12.69540300
_cell_angle_alpha   90.00000000
_cell_angle_beta   90.00000000
_cell_angle_gamma   119.99998539
_symmetry_Int_Tables_number   1
_chemical_formula_structural   BaCeN2
_chemical_formula_sum   'Ba2 Ce2 N4'
_cell_volume   150.35255375
_cell_formula_units_Z   2
loop_
 _symmetry_equiv_pos_site_id
 _symmetry_equiv_pos_as_xyz
  1  'x, y, z'
loop_
 _atom_site_type_symbol
 _atom_site_label
 _atom_site_symmetry_multiplicity
 _atom_site_fract_x
 _atom_site_fract_y
 _atom_site_fract_z
 _atom_site_occupancy
  Ba  Ba0  1  0.33333300  0.66666700  0.75000000  1
  Ba  Ba1  1  0.66666700  0.33333300  0.25000000  1
  Ce  Ce2  1  0.00000000  0.00000000  0.00000000  1
  Ce  Ce3  1  0.00000000  0.00000000  0.50000000  1
  N  N4  1  0.33333300  0.66666700  0.40417900  1
  N  N5  1  0.66666700  0.33333300  0.90417900  1
  N  N6  1  0.33333300  0.66666700  0.09582100  1
  N  N7  1  0.66666700  0.33333300  0.59582100  1
