# generated using pymatgen
data_NdTe2Se
_symmetry_space_group_name_H-M   'P 1'
_cell_length_a   13.42134390
_cell_length_b   13.42134390
_cell_length_c   4.31138300
_cell_angle_alpha   90.00000000
_cell_angle_beta   90.00000000
_cell_angle_gamma   161.55954969
_symmetry_Int_Tables_number   1
_chemical_formula_structural   NdTe2Se
_chemical_formula_sum   'Nd2 Te4 Se2'
_cell_volume   245.65957481
_cell_formula_units_Z   2
loop_
 _symmetry_equiv_pos_site_id
 _symmetry_equiv_pos_as_xyz
  1  'x, y, z'
loop_
 _atom_site_type_symbol
 _atom_site_label
 _atom_site_symmetry_multiplicity
 _atom_site_fract_x
 _atom_site_fract_y
 _atom_site_fract_z
 _atom_site_occupancy
  Nd  Nd0  1  0.18022900  0.81977100  0.25000000  1
  Nd  Nd1  1  0.81977100  0.18022900  0.75000000  1
  Te  Te2  1  0.41997300  0.58002700  0.75000000  1
  Te  Te3  1  0.58002700  0.41997300  0.25000000  1
  Te  Te4  1  0.91997300  0.08002700  0.25000000  1
  Te  Te5  1  0.08002700  0.91997300  0.75000000  1
  Se  Se6  1  0.29384800  0.70615200  0.25000000  1
  Se  Se7  1  0.70615200  0.29384800  0.75000000  1
