# generated using pymatgen
data_CeCo3B2
_symmetry_space_group_name_H-M   'P 1'
_cell_length_a   5.03868233
_cell_length_b   5.03868233
_cell_length_c   3.02136900
_cell_angle_alpha   90.00000000
_cell_angle_beta   90.00000000
_cell_angle_gamma   120.00000439
_symmetry_Int_Tables_number   1
_chemical_formula_structural   CeCo3B2
_chemical_formula_sum   'Ce1 Co3 B2'
_cell_volume   66.43062514
_cell_formula_units_Z   1
loop_
 _symmetry_equiv_pos_site_id
 _symmetry_equiv_pos_as_xyz
  1  'x, y, z'
loop_
 _atom_site_type_symbol
 _atom_site_label
 _atom_site_symmetry_multiplicity
 _atom_site_fract_x
 _atom_site_fract_y
 _atom_site_fract_z
 _atom_site_occupancy
  Ce  Ce0  1  0.00000000  0.00000000  0.00000000  1
  Co  Co1  1  0.50000000  0.00000000  0.50000000  1
  Co  Co2  1  0.50000000  0.50000000  0.50000000  1
  Co  Co3  1  0.00000000  0.50000000  0.50000000  1
  B  B4  1  0.33333300  0.66666700  0.00000000  1
  B  B5  1  0.66666700  0.33333300  0.00000000  1
