# generated using pymatgen
data_Sr2Sb2O7
_symmetry_space_group_name_H-M   'P 1'
_cell_length_a   7.56575664
_cell_length_b   7.56575664
_cell_length_c   7.56575664
_cell_angle_alpha   119.93794422
_cell_angle_beta   117.94540507
_cell_angle_gamma   91.85144814
_symmetry_Int_Tables_number   1
_chemical_formula_structural   Sr2Sb2O7
_chemical_formula_sum   'Sr4 Sb4 O14'
_cell_volume   310.83594251
_cell_formula_units_Z   2
loop_
 _symmetry_equiv_pos_site_id
 _symmetry_equiv_pos_as_xyz
  1  'x, y, z'
loop_
 _atom_site_type_symbol
 _atom_site_label
 _atom_site_symmetry_multiplicity
 _atom_site_fract_x
 _atom_site_fract_y
 _atom_site_fract_z
 _atom_site_occupancy
  Sr  Sr0  1  0.50000000  0.50000000  0.50000000  1
  Sr  Sr1  1  0.50000000  0.00000000  0.00000000  1
  Sr  Sr2  1  0.50000000  0.50000000  0.00000000  1
  Sr  Sr3  1  0.00000000  0.00000000  0.00000000  1
  Sb  Sb4  1  0.00000000  0.50000000  0.00000000  1
  Sb  Sb5  1  0.00000000  0.00000000  0.50000000  1
  Sb  Sb6  1  0.00000000  0.50000000  0.50000000  1
  Sb  Sb7  1  0.50000000  0.00000000  0.50000000  1
  O  O8  1  0.94908700  0.58581700  0.77257500  1
  O  O9  1  0.05091300  0.82348800  0.63673000  1
  O  O10  1  0.68675800  0.91418300  0.36327000  1
  O  O11  1  0.31324200  0.67651200  0.22742500  1
  O  O12  1  0.05091300  0.41418300  0.22742500  1
  O  O13  1  0.94908700  0.17651200  0.36327000  1
  O  O14  1  0.31324200  0.08581700  0.63673000  1
  O  O15  1  0.68675800  0.32348800  0.77257500  1
  O  O16  1  0.09808300  0.25000000  0.84808300  1
  O  O17  1  0.90191700  0.75000000  0.15191700  1
  O  O18  1  0.68971000  0.40841500  0.28129500  1
  O  O19  1  0.31029000  0.59158500  0.71870500  1
  O  O20  1  0.37288000  0.09158500  0.28129500  1
  O  O21  1  0.62712000  0.90841500  0.71870500  1
