# generated using pymatgen
data_ZnSiH12(OF)6
_symmetry_space_group_name_H-M   'P 1'
_cell_length_a   6.42232200
_cell_length_b   6.42232200
_cell_length_c   6.42232241
_cell_angle_alpha   96.23886619
_cell_angle_beta   96.23886619
_cell_angle_gamma   96.23886991
_symmetry_Int_Tables_number   1
_chemical_formula_structural   ZnSiH12(OF)6
_chemical_formula_sum   'Zn1 Si1 H12 O6 F6'
_cell_volume   259.81517504
_cell_formula_units_Z   1
loop_
 _symmetry_equiv_pos_site_id
 _symmetry_equiv_pos_as_xyz
  1  'x, y, z'
loop_
 _atom_site_type_symbol
 _atom_site_label
 _atom_site_symmetry_multiplicity
 _atom_site_fract_x
 _atom_site_fract_y
 _atom_site_fract_z
 _atom_site_occupancy
  Zn  Zn0  1  0.00000000  0.00000000  0.00000000  1
  Si  Si1  1  0.50000000  0.50000000  0.50000000  1
  H  H2  1  0.94477200  0.60061200  0.79265200  1
  H  H3  1  0.81162900  0.31713800  0.19600400  1
  H  H4  1  0.80399600  0.18837100  0.68286200  1
  H  H5  1  0.79265200  0.94477200  0.60061200  1
  H  H6  1  0.68286200  0.80399600  0.18837100  1
  H  H7  1  0.60061200  0.79265200  0.94477200  1
  H  H8  1  0.39938800  0.20734800  0.05522800  1
  H  H9  1  0.31713800  0.19600400  0.81162900  1
  H  H10  1  0.20734800  0.05522800  0.39938800  1
  H  H11  1  0.19600400  0.81162900  0.31713800  1
  H  H12  1  0.18837100  0.68286200  0.80399600  1
  H  H13  1  0.05522800  0.39938800  0.20734800  1
  O  O14  1  0.93889500  0.30201300  0.12596800  1
  O  O15  1  0.87403200  0.06110500  0.69798700  1
  O  O16  1  0.69798700  0.87403200  0.06110500  1
  O  O17  1  0.30201300  0.12596800  0.93889500  1
  O  O18  1  0.12596800  0.93889500  0.30201300  1
  O  O19  1  0.06110500  0.69798700  0.87403200  1
  F  F20  1  0.72807200  0.44007000  0.63443800  1
  F  F21  1  0.63443800  0.72807200  0.44007000  1
  F  F22  1  0.55993000  0.36556200  0.27192800  1
  F  F23  1  0.44007000  0.63443800  0.72807200  1
  F  F24  1  0.36556200  0.27192800  0.55993000  1
  F  F25  1  0.27192800  0.55993000  0.36556200  1
