# generated using pymatgen
data_CeGeAu
_symmetry_space_group_name_H-M   'P 1'
_cell_length_a   4.47014154
_cell_length_b   4.47014154
_cell_length_c   7.97299000
_cell_angle_alpha   90.00000000
_cell_angle_beta   90.00000000
_cell_angle_gamma   119.99999320
_symmetry_Int_Tables_number   1
_chemical_formula_structural   CeGeAu
_chemical_formula_sum   'Ce2 Ge2 Au2'
_cell_volume   137.97310253
_cell_formula_units_Z   2
loop_
 _symmetry_equiv_pos_site_id
 _symmetry_equiv_pos_as_xyz
  1  'x, y, z'
loop_
 _atom_site_type_symbol
 _atom_site_label
 _atom_site_symmetry_multiplicity
 _atom_site_fract_x
 _atom_site_fract_y
 _atom_site_fract_z
 _atom_site_occupancy
  Ce  Ce0  1  0.00000000  0.00000000  0.50279300  1
  Ce  Ce1  1  0.00000000  0.00000000  0.00279300  1
  Ge  Ge2  1  0.33333300  0.66666700  0.72872300  1
  Ge  Ge3  1  0.66666700  0.33333300  0.22872300  1
  Au  Au4  1  0.66666700  0.33333300  0.77168400  1
  Au  Au5  1  0.33333300  0.66666700  0.27168400  1
