# generated using pymatgen
data_Tm(CuSi)2
_symmetry_space_group_name_H-M   'P 1'
_cell_length_a   5.72059189
_cell_length_b   5.72059189
_cell_length_c   5.72059189
_cell_angle_alpha   139.81900204
_cell_angle_beta   139.81900204
_cell_angle_gamma   58.12822148
_symmetry_Int_Tables_number   1
_chemical_formula_structural   Tm(CuSi)2
_chemical_formula_sum   'Tm1 Cu2 Si2'
_cell_volume   77.23176081
_cell_formula_units_Z   1
loop_
 _symmetry_equiv_pos_site_id
 _symmetry_equiv_pos_as_xyz
  1  'x, y, z'
loop_
 _atom_site_type_symbol
 _atom_site_label
 _atom_site_symmetry_multiplicity
 _atom_site_fract_x
 _atom_site_fract_y
 _atom_site_fract_z
 _atom_site_occupancy
  Tm  Tm0  1  0.00000000  0.00000000  0.00000000  1
  Cu  Cu1  1  0.25000000  0.75000000  0.50000000  1
  Cu  Cu2  1  0.75000000  0.25000000  0.50000000  1
  Si  Si3  1  0.61627600  0.61627600  0.00000000  1
  Si  Si4  1  0.38372400  0.38372400  0.00000000  1
