# generated using pymatgen
data_TlAsS2
_symmetry_space_group_name_H-M   'P 1'
_cell_length_a   11.64452500
_cell_length_b   6.31962900
_cell_length_c   13.03522154
_cell_angle_alpha   74.44715194
_cell_angle_beta   90.00000000
_cell_angle_gamma   90.00000000
_symmetry_Int_Tables_number   1
_chemical_formula_structural   TlAsS2
_chemical_formula_sum   'Tl8 As8 S16'
_cell_volume   924.12560573
_cell_formula_units_Z   8
loop_
 _symmetry_equiv_pos_site_id
 _symmetry_equiv_pos_as_xyz
  1  'x, y, z'
loop_
 _atom_site_type_symbol
 _atom_site_label
 _atom_site_symmetry_multiplicity
 _atom_site_fract_x
 _atom_site_fract_y
 _atom_site_fract_z
 _atom_site_occupancy
  Tl  Tl0  1  0.32236100  0.84944700  0.05950500  1
  Tl  Tl1  1  0.82236100  0.15055300  0.44049500  1
  Tl  Tl2  1  0.67763900  0.15055300  0.94049500  1
  Tl  Tl3  1  0.17763900  0.84944700  0.55950500  1
  Tl  Tl4  1  0.05735600  0.26851200  0.11138200  1
  Tl  Tl5  1  0.55735600  0.73148800  0.38861800  1
  Tl  Tl6  1  0.94264400  0.73148800  0.88861800  1
  Tl  Tl7  1  0.44264400  0.26851200  0.61138200  1
  As  As8  1  0.33166800  0.23582500  0.29808700  1
  As  As9  1  0.91020700  0.46296200  0.64333500  1
  As  As10  1  0.41020700  0.53703800  0.85666500  1
  As  As11  1  0.08979300  0.53703800  0.35666500  1
  As  As12  1  0.58979300  0.46296200  0.14333500  1
  As  As13  1  0.66833200  0.76417500  0.70191300  1
  As  As14  1  0.16833200  0.23582500  0.79808700  1
  As  As15  1  0.83166800  0.76417500  0.20191300  1
  S  S16  1  0.78613900  0.41963200  0.17680600  1
  S  S17  1  0.46774200  0.72796200  0.68356200  1
  S  S18  1  0.96774200  0.27203800  0.81643800  1
  S  S19  1  0.53225800  0.27203800  0.31643800  1
  S  S20  1  0.03225800  0.72796200  0.18356200  1
  S  S21  1  0.71386100  0.41963200  0.67680600  1
  S  S22  1  0.21386100  0.58036800  0.82319400  1
  S  S23  1  0.28613900  0.58036800  0.32319400  1
  S  S24  1  0.31415000  0.29328100  0.12411100  1
  S  S25  1  0.81415000  0.70671900  0.37588900  1
  S  S26  1  0.68585000  0.70671900  0.87588900  1
  S  S27  1  0.93736300  0.80785100  0.65032100  1
  S  S28  1  0.56263700  0.80785100  0.15032100  1
  S  S29  1  0.06263700  0.19214900  0.34967900  1
  S  S30  1  0.43736300  0.19214900  0.84967900  1
  S  S31  1  0.18585000  0.29328100  0.62411100  1
