# generated using pymatgen
data_Te2SO7
_symmetry_space_group_name_H-M   'P 1'
_cell_length_a   4.77061200
_cell_length_b   7.12248300
_cell_length_c   9.06278600
_cell_angle_alpha   90.00000000
_cell_angle_beta   90.00000000
_cell_angle_gamma   90.00000000
_symmetry_Int_Tables_number   1
_chemical_formula_structural   Te2SO7
_chemical_formula_sum   'Te4 S2 O14'
_cell_volume   307.94080639
_cell_formula_units_Z   2
loop_
 _symmetry_equiv_pos_site_id
 _symmetry_equiv_pos_as_xyz
  1  'x, y, z'
loop_
 _atom_site_type_symbol
 _atom_site_label
 _atom_site_symmetry_multiplicity
 _atom_site_fract_x
 _atom_site_fract_y
 _atom_site_fract_z
 _atom_site_occupancy
  Te  Te0  1  0.75260800  0.32300000  0.69764500  1
  Te  Te1  1  0.25260800  0.67700000  0.80235500  1
  Te  Te2  1  0.25260800  0.67700000  0.19764500  1
  Te  Te3  1  0.75260800  0.32300000  0.30235500  1
  S  S4  1  0.17381200  0.02720700  0.50000000  1
  S  S5  1  0.67381200  0.97279300  0.00000000  1
  O  O6  1  0.27041000  0.83152000  0.50000000  1
  O  O7  1  0.77041000  0.16848000  0.00000000  1
  O  O8  1  0.11321300  0.41084200  0.76216600  1
  O  O9  1  0.61321300  0.58915800  0.73783400  1
  O  O10  1  0.61321300  0.58915800  0.26216600  1
  O  O11  1  0.11321300  0.41084200  0.23783400  1
  O  O12  1  0.99620200  0.05821200  0.36384700  1
  O  O13  1  0.49620200  0.94178800  0.13615300  1
  O  O14  1  0.49620200  0.94178800  0.86384700  1
  O  O15  1  0.99620200  0.05821200  0.63615300  1
  O  O16  1  0.90687300  0.83399000  0.00000000  1
  O  O17  1  0.40687300  0.16601000  0.50000000  1
  O  O18  1  0.33615800  0.58368600  0.00000000  1
  O  O19  1  0.83615800  0.41631400  0.50000000  1
