# generated using pymatgen
data_Li2RuO3
_symmetry_space_group_name_H-M   'P 1'
_cell_length_a   5.10566662
_cell_length_b   5.10566662
_cell_length_c   5.20240245
_cell_angle_alpha   80.57288547
_cell_angle_beta   80.57288547
_cell_angle_gamma   119.93243329
_symmetry_Int_Tables_number   1
_chemical_formula_structural   Li2RuO3
_chemical_formula_sum   'Li4 Ru2 O6'
_cell_volume   111.05490678
_cell_formula_units_Z   2
loop_
 _symmetry_equiv_pos_site_id
 _symmetry_equiv_pos_as_xyz
  1  'x, y, z'
loop_
 _atom_site_type_symbol
 _atom_site_label
 _atom_site_symmetry_multiplicity
 _atom_site_fract_x
 _atom_site_fract_y
 _atom_site_fract_z
 _atom_site_occupancy
  Li  Li0  1  0.33916400  0.66083600  0.50000000  1
  Li  Li1  1  0.00000000  0.00000000  0.50000000  1
  Li  Li2  1  0.66083600  0.33916400  0.50000000  1
  Li  Li3  1  0.50000000  0.50000000  0.00000000  1
  Ru  Ru4  1  0.83351500  0.16648500  0.00000000  1
  Ru  Ru5  1  0.16648500  0.83351500  0.00000000  1
  O  O6  1  0.76483900  0.76483900  0.23828000  1
  O  O7  1  0.07748900  0.42165100  0.23557800  1
  O  O8  1  0.23516100  0.23516100  0.76172000  1
  O  O9  1  0.57834900  0.92251100  0.76442200  1
  O  O10  1  0.42165100  0.07748900  0.23557800  1
  O  O11  1  0.92251100  0.57834900  0.76442200  1
