# generated using pymatgen
data_Na4Ga3Si3IO12
_symmetry_space_group_name_H-M   'P 1'
_cell_length_a   9.18852400
_cell_length_b   9.18852400
_cell_length_c   9.18852400
_cell_angle_alpha   90.00000000
_cell_angle_beta   90.00000000
_cell_angle_gamma   90.00000000
_symmetry_Int_Tables_number   1
_chemical_formula_structural   Na4Ga3Si3IO12
_chemical_formula_sum   'Na8 Ga6 Si6 I2 O24'
_cell_volume   775.77764745
_cell_formula_units_Z   2
loop_
 _symmetry_equiv_pos_site_id
 _symmetry_equiv_pos_as_xyz
  1  'x, y, z'
loop_
 _atom_site_type_symbol
 _atom_site_label
 _atom_site_symmetry_multiplicity
 _atom_site_fract_x
 _atom_site_fract_y
 _atom_site_fract_z
 _atom_site_occupancy
  Na  Na0  1  0.80658900  0.80658900  0.19341100  1
  Na  Na1  1  0.80658900  0.19341100  0.80658900  1
  Na  Na2  1  0.19341100  0.80658900  0.80658900  1
  Na  Na3  1  0.19341100  0.19341100  0.19341100  1
  Na  Na4  1  0.30658900  0.30658900  0.69341100  1
  Na  Na5  1  0.30658900  0.69341100  0.30658900  1
  Na  Na6  1  0.69341100  0.30658900  0.30658900  1
  Na  Na7  1  0.69341100  0.69341100  0.69341100  1
  Ga  Ga8  1  0.00000000  0.50000000  0.25000000  1
  Ga  Ga9  1  0.00000000  0.50000000  0.75000000  1
  Ga  Ga10  1  0.25000000  0.00000000  0.50000000  1
  Ga  Ga11  1  0.50000000  0.75000000  0.00000000  1
  Ga  Ga12  1  0.50000000  0.25000000  0.00000000  1
  Ga  Ga13  1  0.75000000  0.00000000  0.50000000  1
  Si  Si14  1  0.75000000  0.50000000  0.00000000  1
  Si  Si15  1  0.00000000  0.75000000  0.50000000  1
  Si  Si16  1  0.25000000  0.50000000  0.00000000  1
  Si  Si17  1  0.50000000  0.00000000  0.75000000  1
  Si  Si18  1  0.50000000  0.00000000  0.25000000  1
  Si  Si19  1  0.00000000  0.25000000  0.50000000  1
  I  I20  1  0.00000000  0.00000000  0.00000000  1
  I  I21  1  0.50000000  0.50000000  0.50000000  1
  O  O22  1  0.56233400  0.86241200  0.15408100  1
  O  O23  1  0.56233400  0.13758800  0.84591900  1
  O  O24  1  0.84591900  0.56233400  0.13758800  1
  O  O25  1  0.84591900  0.43766600  0.86241200  1
  O  O26  1  0.86241200  0.15408100  0.56233400  1
  O  O27  1  0.86241200  0.84591900  0.43766600  1
  O  O28  1  0.06233400  0.34591900  0.63758800  1
  O  O29  1  0.06233400  0.65408100  0.36241200  1
  O  O30  1  0.13758800  0.84591900  0.56233400  1
  O  O31  1  0.13758800  0.15408100  0.43766600  1
  O  O32  1  0.15408100  0.56233400  0.86241200  1
  O  O33  1  0.15408100  0.43766600  0.13758800  1
  O  O34  1  0.34591900  0.36241200  0.93766600  1
  O  O35  1  0.34591900  0.63758800  0.06233400  1
  O  O36  1  0.36241200  0.06233400  0.65408100  1
  O  O37  1  0.36241200  0.93766600  0.34591900  1
  O  O38  1  0.43766600  0.86241200  0.84591900  1
  O  O39  1  0.43766600  0.13758800  0.15408100  1
  O  O40  1  0.63758800  0.06233400  0.34591900  1
  O  O41  1  0.63758800  0.93766600  0.65408100  1
  O  O42  1  0.65408100  0.36241200  0.06233400  1
  O  O43  1  0.65408100  0.63758800  0.93766600  1
  O  O44  1  0.93766600  0.34591900  0.36241200  1
  O  O45  1  0.93766600  0.65408100  0.63758800  1
