# generated using pymatgen
data_Zr(SO4)2
_symmetry_space_group_name_H-M   'P 1'
_cell_length_a   5.54780100
_cell_length_b   8.74441800
_cell_length_c   11.16453600
_cell_angle_alpha   90.00000000
_cell_angle_beta   90.00000000
_cell_angle_gamma   90.00000000
_symmetry_Int_Tables_number   1
_chemical_formula_structural   Zr(SO4)2
_chemical_formula_sum   'Zr4 S8 O32'
_cell_volume   541.61721847
_cell_formula_units_Z   4
loop_
 _symmetry_equiv_pos_site_id
 _symmetry_equiv_pos_as_xyz
  1  'x, y, z'
loop_
 _atom_site_type_symbol
 _atom_site_label
 _atom_site_symmetry_multiplicity
 _atom_site_fract_x
 _atom_site_fract_y
 _atom_site_fract_z
 _atom_site_occupancy
  Zr  Zr0  1  0.25000000  0.25560000  0.89974800  1
  Zr  Zr1  1  0.75000000  0.74440000  0.10025200  1
  Zr  Zr2  1  0.25000000  0.75560000  0.60025200  1
  Zr  Zr3  1  0.75000000  0.24440000  0.39974800  1
  S  S4  1  0.75000000  0.49599100  0.84637600  1
  S  S5  1  0.25000000  0.50400900  0.15362400  1
  S  S6  1  0.75000000  0.99599100  0.65362400  1
  S  S7  1  0.25000000  0.00400900  0.34637600  1
  S  S8  1  0.25000000  0.35423000  0.59394600  1
  S  S9  1  0.75000000  0.64577000  0.40605400  1
  S  S10  1  0.25000000  0.85423000  0.90605400  1
  S  S11  1  0.75000000  0.14577000  0.09394600  1
  O  O12  1  0.25000000  0.43123100  0.03308900  1
  O  O13  1  0.75000000  0.56876900  0.96691100  1
  O  O14  1  0.25000000  0.93123100  0.46691100  1
  O  O15  1  0.75000000  0.06876900  0.53308900  1
  O  O16  1  0.25000000  0.39798900  0.25140300  1
  O  O17  1  0.75000000  0.60201100  0.74859700  1
  O  O18  1  0.25000000  0.89798900  0.24859700  1
  O  O19  1  0.75000000  0.10201100  0.75140300  1
  O  O20  1  0.53123500  0.66742100  0.47999300  1
  O  O21  1  0.03123500  0.33257900  0.52000700  1
  O  O22  1  0.96876500  0.16742100  0.02000700  1
  O  O23  1  0.46876500  0.83257900  0.97999300  1
  O  O24  1  0.03519000  0.10779600  0.34114000  1
  O  O25  1  0.53519000  0.89220400  0.65886000  1
  O  O26  1  0.46481000  0.60779600  0.15886000  1
  O  O27  1  0.96481000  0.39220400  0.84114000  1
  O  O28  1  0.96481000  0.89220400  0.65886000  1
  O  O29  1  0.46481000  0.10779600  0.34114000  1
  O  O30  1  0.53519000  0.39220400  0.84114000  1
  O  O31  1  0.03519000  0.60779600  0.15886000  1
  O  O32  1  0.75000000  0.25621900  0.19419800  1
  O  O33  1  0.25000000  0.74378100  0.80580200  1
  O  O34  1  0.75000000  0.75621900  0.30580200  1
  O  O35  1  0.25000000  0.24378100  0.69419800  1
  O  O36  1  0.75000000  0.48597300  0.35879700  1
  O  O37  1  0.25000000  0.51402700  0.64120300  1
  O  O38  1  0.75000000  0.98597300  0.14120300  1
  O  O39  1  0.25000000  0.01402700  0.85879700  1
  O  O40  1  0.53123500  0.16742100  0.02000700  1
  O  O41  1  0.03123500  0.83257900  0.97999300  1
  O  O42  1  0.96876500  0.66742100  0.47999300  1
  O  O43  1  0.46876500  0.33257900  0.52000700  1
