# generated using pymatgen
data_Sc2S3
_symmetry_space_group_name_H-M   'P 1'
_cell_length_a   12.24841330
_cell_length_b   11.68698948
_cell_length_c   6.41115254
_cell_angle_alpha   79.36144975
_cell_angle_beta   69.67917477
_cell_angle_gamma   30.95937548
_symmetry_Int_Tables_number   1
_chemical_formula_structural   Sc2S3
_chemical_formula_sum   'Sc8 S12'
_cell_volume   430.37028021
_cell_formula_units_Z   4
loop_
 _symmetry_equiv_pos_site_id
 _symmetry_equiv_pos_as_xyz
  1  'x, y, z'
loop_
 _atom_site_type_symbol
 _atom_site_label
 _atom_site_symmetry_multiplicity
 _atom_site_fract_x
 _atom_site_fract_y
 _atom_site_fract_z
 _atom_site_occupancy
  Sc  Sc0  1  0.16651100  0.16651100  0.33348900  1
  Sc  Sc1  1  0.33348900  0.33348900  0.16651100  1
  Sc  Sc2  1  0.08348900  0.08348900  0.91651100  1
  Sc  Sc3  1  0.91651100  0.91651100  0.08348900  1
  Sc  Sc4  1  0.50232200  0.50232200  0.99767800  1
  Sc  Sc5  1  0.99767800  0.99767800  0.50232200  1
  Sc  Sc6  1  0.74767800  0.74767800  0.25232200  1
  Sc  Sc7  1  0.25232200  0.25232200  0.74767800  1
  S  S8  1  0.49064900  0.00935100  0.00935100  1
  S  S9  1  0.00935100  0.49064900  0.49064900  1
  S  S10  1  0.75935100  0.24064900  0.24064900  1
  S  S11  1  0.24064900  0.75935100  0.75935100  1
  S  S12  1  0.58431300  0.07696600  0.40636500  1
  S  S13  1  0.93235500  0.40636500  0.07696600  1
  S  S14  1  0.40636500  0.93235500  0.58431300  1
  S  S15  1  0.07696600  0.58431300  0.93235500  1
  S  S16  1  0.66568700  0.17303400  0.84363500  1
  S  S17  1  0.31764500  0.84363500  0.17303400  1
  S  S18  1  0.84363500  0.31764500  0.66568700  1
  S  S19  1  0.17303400  0.66568700  0.31764500  1
