# generated using pymatgen
data_Ca3Er3Ge2BO13
_symmetry_space_group_name_H-M   'P 1'
_cell_length_a   7.40752100
_cell_length_b   7.40769700
_cell_length_c   10.49008100
_cell_angle_alpha   90.00000000
_cell_angle_beta   90.00000000
_cell_angle_gamma   90.00000000
_symmetry_Int_Tables_number   1
_chemical_formula_structural   Ca3Er3Ge2BO13
_chemical_formula_sum   'Ca6 Er6 Ge4 B2 O26'
_cell_volume   575.61876441
_cell_formula_units_Z   2
loop_
 _symmetry_equiv_pos_site_id
 _symmetry_equiv_pos_as_xyz
  1  'x, y, z'
loop_
 _atom_site_type_symbol
 _atom_site_label
 _atom_site_symmetry_multiplicity
 _atom_site_fract_x
 _atom_site_fract_y
 _atom_site_fract_z
 _atom_site_occupancy
  Ca  Ca0  1  0.72927500  0.76970400  0.50210800  1
  Ca  Ca1  1  0.00000000  0.50000000  0.23143200  1
  Ca  Ca2  1  0.77072500  0.26970400  0.00210800  1
  Ca  Ca3  1  0.50000000  0.00000000  0.73143200  1
  Ca  Ca4  1  0.22927500  0.73029600  0.00210800  1
  Ca  Ca5  1  0.27072500  0.23029600  0.50210800  1
  Er  Er6  1  0.22762400  0.27204000  0.00189600  1
  Er  Er7  1  0.72762400  0.22796000  0.50189600  1
  Er  Er8  1  0.50000000  0.00000000  0.27417000  1
  Er  Er9  1  0.27237600  0.77204000  0.50189600  1
  Er  Er10  1  0.77237600  0.72796000  0.00189600  1
  Er  Er11  1  0.00000000  0.50000000  0.77417000  1
  Ge  Ge12  1  0.50000000  0.50000000  0.24695600  1
  Ge  Ge13  1  0.00000000  0.00000000  0.74695600  1
  Ge  Ge14  1  0.50000000  0.50000000  0.74601000  1
  Ge  Ge15  1  0.00000000  0.00000000  0.24601000  1
  B  B16  1  0.50000000  0.00000000  0.00378300  1
  B  B17  1  0.00000000  0.50000000  0.50378300  1
  O  O18  1  0.00000000  0.50000000  0.99136800  1
  O  O19  1  0.00890300  0.19967200  0.84629600  1
  O  O20  1  0.50000000  0.00000000  0.49136800  1
  O  O21  1  0.80366200  0.00921100  0.64774500  1
  O  O22  1  0.99109700  0.80032800  0.84629600  1
  O  O23  1  0.49109700  0.69967200  0.34629600  1
  O  O24  1  0.83514700  0.49318400  0.42462800  1
  O  O25  1  0.30366200  0.49078900  0.14774500  1
  O  O26  1  0.69633800  0.50921100  0.14774500  1
  O  O27  1  0.50890300  0.30032800  0.34629600  1
  O  O28  1  0.49446700  0.16286600  0.08871300  1
  O  O29  1  0.66485300  0.99318400  0.92462800  1
  O  O30  1  0.33514700  0.00681600  0.92462800  1
  O  O31  1  0.19633800  0.99078900  0.64774500  1
  O  O32  1  0.80324500  0.01346500  0.34343900  1
  O  O33  1  0.50553300  0.83713400  0.08871300  1
  O  O34  1  0.48576100  0.69353000  0.64834500  1
  O  O35  1  0.00553300  0.66286600  0.58871300  1
  O  O36  1  0.69675500  0.51346500  0.84343900  1
  O  O37  1  0.16485300  0.50681600  0.42462800  1
  O  O38  1  0.30324500  0.48653500  0.84343900  1
  O  O39  1  0.99446700  0.33713400  0.58871300  1
  O  O40  1  0.51423900  0.30647000  0.64834500  1
  O  O41  1  0.01423900  0.19353000  0.14834500  1
  O  O42  1  0.19675500  0.98653500  0.34343900  1
  O  O43  1  0.98576100  0.80647000  0.14834500  1
