# generated using pymatgen
data_U2P2O9
_symmetry_space_group_name_H-M   'P 1'
_cell_length_a   5.77070946
_cell_length_b   5.77070946
_cell_length_c   12.77270700
_cell_angle_alpha   90.00000000
_cell_angle_beta   90.00000000
_cell_angle_gamma   103.64073162
_symmetry_Int_Tables_number   1
_chemical_formula_structural   U2P2O9
_chemical_formula_sum   'U4 P4 O18'
_cell_volume   413.34757986
_cell_formula_units_Z   2
loop_
 _symmetry_equiv_pos_site_id
 _symmetry_equiv_pos_as_xyz
  1  'x, y, z'
loop_
 _atom_site_type_symbol
 _atom_site_label
 _atom_site_symmetry_multiplicity
 _atom_site_fract_x
 _atom_site_fract_y
 _atom_site_fract_z
 _atom_site_occupancy
  U  U0  1  0.20861100  0.79138900  0.43094100  1
  U  U1  1  0.29138900  0.70861100  0.93094100  1
  U  U2  1  0.79138900  0.20861100  0.56905900  1
  U  U3  1  0.70861100  0.29138900  0.06905900  1
  P  P4  1  0.10926500  0.89073500  0.14365300  1
  P  P5  1  0.39073500  0.60926500  0.64365300  1
  P  P6  1  0.89073500  0.10926500  0.85634700  1
  P  P7  1  0.60926500  0.39073500  0.35634700  1
  O  O8  1  0.94149700  0.05850300  0.12370300  1
  O  O9  1  0.55850300  0.44149700  0.62370300  1
  O  O10  1  0.05850300  0.94149700  0.87629700  1
  O  O11  1  0.44149700  0.55850300  0.37629700  1
  O  O12  1  0.50000000  0.50000000  0.00000000  1
  O  O13  1  0.00000000  0.00000000  0.50000000  1
  O  O14  1  0.63975300  0.36024700  0.23904500  1
  O  O15  1  0.86024700  0.13975300  0.73904500  1
  O  O16  1  0.85370000  0.48580600  0.41350600  1
  O  O17  1  0.64630000  0.01419400  0.91350600  1
  O  O18  1  0.48580600  0.85370000  0.58649400  1
  O  O19  1  0.01419400  0.64630000  0.08649400  1
  O  O20  1  0.14630000  0.51419400  0.58649400  1
  O  O21  1  0.35370000  0.98580600  0.08649400  1
  O  O22  1  0.51419400  0.14630000  0.41350600  1
  O  O23  1  0.98580600  0.35370000  0.91350600  1
  O  O24  1  0.13975300  0.86024700  0.26095500  1
  O  O25  1  0.36024700  0.63975300  0.76095500  1
