# generated using pymatgen
data_Sr(GaO2)2
_symmetry_space_group_name_H-M   'P 1'
_cell_length_a   9.11135600
_cell_length_b   8.48728200
_cell_length_c   10.82817887
_cell_angle_alpha   85.95939778
_cell_angle_beta   90.00000000
_cell_angle_gamma   90.00000000
_symmetry_Int_Tables_number   1
_chemical_formula_structural   Sr(GaO2)2
_chemical_formula_sum   'Sr8 Ga16 O32'
_cell_volume   835.26874190
_cell_formula_units_Z   8
loop_
 _symmetry_equiv_pos_site_id
 _symmetry_equiv_pos_as_xyz
  1  'x, y, z'
loop_
 _atom_site_type_symbol
 _atom_site_label
 _atom_site_symmetry_multiplicity
 _atom_site_fract_x
 _atom_site_fract_y
 _atom_site_fract_z
 _atom_site_occupancy
  Sr  Sr0  1  0.71319000  0.50201400  0.13060200  1
  Sr  Sr1  1  0.21319000  0.49798600  0.36939800  1
  Sr  Sr2  1  0.28681000  0.49798600  0.86939800  1
  Sr  Sr3  1  0.78681000  0.50201400  0.63060200  1
  Sr  Sr4  1  0.73959700  0.03458100  0.14884900  1
  Sr  Sr5  1  0.23959700  0.96541900  0.35115100  1
  Sr  Sr6  1  0.26040300  0.96541900  0.85115100  1
  Sr  Sr7  1  0.76040300  0.03458100  0.64884900  1
  Ga  Ga8  1  0.55796200  0.67811800  0.36080700  1
  Ga  Ga9  1  0.05796200  0.32188200  0.13919300  1
  Ga  Ga10  1  0.44203800  0.32188200  0.63919300  1
  Ga  Ga11  1  0.94203800  0.67811800  0.86080700  1
  Ga  Ga12  1  0.90515500  0.19552300  0.38907100  1
  Ga  Ga13  1  0.40515500  0.80447700  0.11092900  1
  Ga  Ga14  1  0.09484500  0.80447700  0.61092900  1
  Ga  Ga15  1  0.59484500  0.19552300  0.88907100  1
  Ga  Ga16  1  0.89317200  0.79490000  0.38045900  1
  Ga  Ga17  1  0.39317200  0.20510000  0.11954100  1
  Ga  Ga18  1  0.10682800  0.20510000  0.61954100  1
  Ga  Ga19  1  0.60682800  0.79490000  0.88045900  1
  Ga  Ga20  1  0.06354800  0.72019700  0.13030800  1
  Ga  Ga21  1  0.56354800  0.27980300  0.36969200  1
  Ga  Ga22  1  0.93645200  0.27980300  0.86969200  1
  Ga  Ga23  1  0.43645200  0.72019700  0.63030800  1
  O  O24  1  0.74507900  0.65281600  0.42605100  1
  O  O25  1  0.24507900  0.34718400  0.07394900  1
  O  O26  1  0.25492100  0.34718400  0.57394900  1
  O  O27  1  0.75492100  0.65281600  0.92605100  1
  O  O28  1  0.57917400  0.78290600  0.20223400  1
  O  O29  1  0.07917400  0.21709400  0.29776600  1
  O  O30  1  0.42082600  0.21709400  0.79776600  1
  O  O31  1  0.92082600  0.78290600  0.70223400  1
  O  O32  1  0.06593300  0.71762800  0.45873900  1
  O  O33  1  0.56593300  0.28237200  0.04126100  1
  O  O34  1  0.93406700  0.28237200  0.54126100  1
  O  O35  1  0.43406700  0.71762800  0.95873900  1
  O  O36  1  0.74811000  0.27169600  0.29206000  1
  O  O37  1  0.24811000  0.72830400  0.20794000  1
  O  O38  1  0.25189000  0.72830400  0.70794000  1
  O  O39  1  0.75189000  0.27169600  0.79206000  1
  O  O40  1  0.93911000  0.84972500  0.21432400  1
  O  O41  1  0.43911000  0.15027500  0.28567600  1
  O  O42  1  0.06089000  0.15027500  0.78567600  1
  O  O43  1  0.56089000  0.84972500  0.71432400  1
  O  O44  1  0.48889400  0.47974300  0.32138700  1
  O  O45  1  0.98889400  0.52025700  0.17861300  1
  O  O46  1  0.51110600  0.52025700  0.67861300  1
  O  O47  1  0.01110600  0.47974300  0.82138700  1
  O  O48  1  0.66088500  0.99031900  0.93387100  1
  O  O49  1  0.16088500  0.00968100  0.56612900  1
  O  O50  1  0.33911500  0.00968100  0.06612900  1
  O  O51  1  0.83911500  0.99031900  0.43387100  1
  O  O52  1  0.41625000  0.76136400  0.46067300  1
  O  O53  1  0.91625000  0.23863600  0.03932700  1
  O  O54  1  0.58375000  0.23863600  0.53932700  1
  O  O55  1  0.08375000  0.76136400  0.96067300  1
