# generated using pymatgen
data_CuSnF6
_symmetry_space_group_name_H-M   'P 1'
_cell_length_a   5.17790903
_cell_length_b   5.27189764
_cell_length_c   5.49356579
_cell_angle_alpha   62.63697684
_cell_angle_beta   89.77824470
_cell_angle_gamma   62.29294032
_symmetry_Int_Tables_number   1
_chemical_formula_structural   CuSnF6
_chemical_formula_sum   'Cu1 Sn1 F6'
_cell_volume   113.63403509
_cell_formula_units_Z   1
loop_
 _symmetry_equiv_pos_site_id
 _symmetry_equiv_pos_as_xyz
  1  'x, y, z'
loop_
 _atom_site_type_symbol
 _atom_site_label
 _atom_site_symmetry_multiplicity
 _atom_site_fract_x
 _atom_site_fract_y
 _atom_site_fract_z
 _atom_site_occupancy
  Cu  Cu0  1  0.00000000  0.00000000  0.00000000  1
  Sn  Sn1  1  0.50000000  0.00000000  0.50000000  1
  F  F2  1  0.75546900  0.87526500  0.24653900  1
  F  F3  1  0.24453100  0.12473500  0.75346100  1
  F  F4  1  0.60619700  0.53258200  0.73432100  1
  F  F5  1  0.39380300  0.46741800  0.26567900  1
  F  F6  1  0.12931400  0.11511900  0.24747600  1
  F  F7  1  0.87068600  0.88488100  0.75252400  1
