# generated using pymatgen
data_PrRhO3
_symmetry_space_group_name_H-M   'P 1'
_cell_length_a   5.44467800
_cell_length_b   5.91698200
_cell_length_c   7.89216200
_cell_angle_alpha   90.00000000
_cell_angle_beta   90.00000000
_cell_angle_gamma   90.00000000
_symmetry_Int_Tables_number   1
_chemical_formula_structural   PrRhO3
_chemical_formula_sum   'Pr4 Rh4 O12'
_cell_volume   254.25437811
_cell_formula_units_Z   4
loop_
 _symmetry_equiv_pos_site_id
 _symmetry_equiv_pos_as_xyz
  1  'x, y, z'
loop_
 _atom_site_type_symbol
 _atom_site_label
 _atom_site_symmetry_multiplicity
 _atom_site_fract_x
 _atom_site_fract_y
 _atom_site_fract_z
 _atom_site_occupancy
  Pr  Pr0  1  0.47511500  0.57683400  0.75000000  1
  Pr  Pr1  1  0.97511500  0.92316600  0.25000000  1
  Pr  Pr2  1  0.02488500  0.07683400  0.75000000  1
  Pr  Pr3  1  0.52488500  0.42316600  0.25000000  1
  Rh  Rh4  1  0.50000000  0.00000000  0.50000000  1
  Rh  Rh5  1  0.00000000  0.50000000  0.50000000  1
  Rh  Rh6  1  0.00000000  0.50000000  0.00000000  1
  Rh  Rh7  1  0.50000000  0.00000000  0.00000000  1
  O  O8  1  0.81473400  0.19629600  0.44627900  1
  O  O9  1  0.31473400  0.30370400  0.55372100  1
  O  O10  1  0.68526600  0.69629600  0.05372100  1
  O  O11  1  0.18526600  0.80370400  0.94627900  1
  O  O12  1  0.18526600  0.80370400  0.55372100  1
  O  O13  1  0.68526600  0.69629600  0.44627900  1
  O  O14  1  0.31473400  0.30370400  0.94627900  1
  O  O15  1  0.81473400  0.19629600  0.05372100  1
  O  O16  1  0.38894000  0.03509400  0.25000000  1
  O  O17  1  0.88894000  0.46490600  0.75000000  1
  O  O18  1  0.11106000  0.53509400  0.25000000  1
  O  O19  1  0.61106000  0.96490600  0.75000000  1
