# generated using pymatgen
data_Ca3AsN
_symmetry_space_group_name_H-M   'P 1'
_cell_length_a   6.74242200
_cell_length_b   6.74443900
_cell_length_c   9.56939200
_cell_angle_alpha   90.00000000
_cell_angle_beta   90.00000000
_cell_angle_gamma   90.00000000
_symmetry_Int_Tables_number   1
_chemical_formula_structural   Ca3AsN
_chemical_formula_sum   'Ca12 As4 N4'
_cell_volume   435.15713364
_cell_formula_units_Z   4
loop_
 _symmetry_equiv_pos_site_id
 _symmetry_equiv_pos_as_xyz
  1  'x, y, z'
loop_
 _atom_site_type_symbol
 _atom_site_label
 _atom_site_symmetry_multiplicity
 _atom_site_fract_x
 _atom_site_fract_y
 _atom_site_fract_z
 _atom_site_occupancy
  Ca  Ca0  1  0.03809700  0.49392700  0.25000000  1
  Ca  Ca1  1  0.46190300  0.99392700  0.25000000  1
  Ca  Ca2  1  0.53809700  0.00607300  0.75000000  1
  Ca  Ca3  1  0.96190300  0.50607300  0.75000000  1
  Ca  Ca4  1  0.71724300  0.28276700  0.01963000  1
  Ca  Ca5  1  0.78275700  0.78276700  0.48037000  1
  Ca  Ca6  1  0.21724300  0.21723300  0.98037000  1
  Ca  Ca7  1  0.28275700  0.71723300  0.51963000  1
  Ca  Ca8  1  0.28275700  0.71723300  0.98037000  1
  Ca  Ca9  1  0.21724300  0.21723300  0.51963000  1
  Ca  Ca10  1  0.78275700  0.78276700  0.01963000  1
  Ca  Ca11  1  0.71724300  0.28276700  0.48037000  1
  As  As12  1  0.00212000  0.98346400  0.75000000  1
  As  As13  1  0.49788000  0.48346400  0.75000000  1
  As  As14  1  0.50212000  0.51653600  0.25000000  1
  As  As15  1  0.99788000  0.01653600  0.25000000  1
  N  N16  1  0.50000000  0.00000000  0.50000000  1
  N  N17  1  0.00000000  0.50000000  0.00000000  1
  N  N18  1  0.00000000  0.50000000  0.50000000  1
  N  N19  1  0.50000000  0.00000000  0.00000000  1
