# generated using pymatgen
data_Sm2As4O9
_symmetry_space_group_name_H-M   'P 1'
_cell_length_a   6.89698700
_cell_length_b   7.69751542
_cell_length_c   9.90055558
_cell_angle_alpha   95.27390901
_cell_angle_beta   104.17595956
_cell_angle_gamma   104.66683046
_symmetry_Int_Tables_number   1
_chemical_formula_structural   Sm2As4O9
_chemical_formula_sum   'Sm4 As8 O18'
_cell_volume   486.32129649
_cell_formula_units_Z   2
loop_
 _symmetry_equiv_pos_site_id
 _symmetry_equiv_pos_as_xyz
  1  'x, y, z'
loop_
 _atom_site_type_symbol
 _atom_site_label
 _atom_site_symmetry_multiplicity
 _atom_site_fract_x
 _atom_site_fract_y
 _atom_site_fract_z
 _atom_site_occupancy
  Sm  Sm0  1  0.24813000  0.94017200  0.61652800  1
  Sm  Sm1  1  0.75187000  0.05982800  0.38347200  1
  Sm  Sm2  1  0.71977300  0.53140700  0.40731000  1
  Sm  Sm3  1  0.28022700  0.46859300  0.59269000  1
  As  As4  1  0.67847200  0.77775500  0.07366100  1
  As  As5  1  0.32152800  0.22224500  0.92633900  1
  As  As6  1  0.17635300  0.75498000  0.91344900  1
  As  As7  1  0.82364700  0.24502000  0.08655100  1
  As  As8  1  0.74765400  0.91767700  0.70915500  1
  As  As9  1  0.25234600  0.08232300  0.29084500  1
  As  As10  1  0.80817600  0.34864700  0.70118500  1
  As  As11  1  0.19182400  0.65135300  0.29881500  1
  O  O12  1  0.72119400  0.75182300  0.25264500  1
  O  O13  1  0.27880600  0.24817700  0.74735500  1
  O  O14  1  0.31671800  0.97932300  0.87488100  1
  O  O15  1  0.68328200  0.02067700  0.12511900  1
  O  O16  1  0.60559900  0.31799400  0.98587500  1
  O  O17  1  0.39440100  0.68200600  0.01412500  1
  O  O18  1  0.13603700  0.65251700  0.73938400  1
  O  O19  1  0.86396300  0.34748300  0.26061600  1
  O  O20  1  0.84528700  0.87158600  0.55969900  1
  O  O21  1  0.15471300  0.12841400  0.44030100  1
  O  O22  1  0.49331000  0.77206800  0.66769900  1
  O  O23  1  0.50669000  0.22793200  0.33230100  1
  O  O24  1  0.37202900  0.53939700  0.37723000  1
  O  O25  1  0.62797100  0.46060300  0.62277000  1
  O  O26  1  0.09027600  0.66805500  0.45133200  1
  O  O27  1  0.90972400  0.33194500  0.54866800  1
  O  O28  1  0.36864800  0.89868400  0.35997600  1
  O  O29  1  0.63135200  0.10131600  0.64002400  1
