# generated using pymatgen
data_La2SO6
_symmetry_space_group_name_H-M   'P 1'
_cell_length_a   7.54978315
_cell_length_b   7.54978315
_cell_length_c   8.44847165
_cell_angle_alpha   73.55651080
_cell_angle_beta   73.55651080
_cell_angle_gamma   33.22042833
_symmetry_Int_Tables_number   1
_chemical_formula_structural   La2SO6
_chemical_formula_sum   'La4 S2 O12'
_cell_volume   252.05293135
_cell_formula_units_Z   2
loop_
 _symmetry_equiv_pos_site_id
 _symmetry_equiv_pos_as_xyz
  1  'x, y, z'
loop_
 _atom_site_type_symbol
 _atom_site_label
 _atom_site_symmetry_multiplicity
 _atom_site_fract_x
 _atom_site_fract_y
 _atom_site_fract_z
 _atom_site_occupancy
  La  La0  1  0.32697300  0.33707100  0.08369900  1
  La  La1  1  0.66292900  0.67302700  0.41630100  1
  La  La2  1  0.33707100  0.32697300  0.58369900  1
  La  La3  1  0.67302700  0.66292900  0.91630100  1
  S  S4  1  0.94027100  0.05972900  0.75000000  1
  S  S5  1  0.05972900  0.94027100  0.25000000  1
  O  O6  1  0.95689900  0.22133000  0.20604300  1
  O  O7  1  0.77867000  0.04310100  0.29395700  1
  O  O8  1  0.04310100  0.77867000  0.79395700  1
  O  O9  1  0.22133000  0.95689900  0.70604300  1
  O  O10  1  0.26101800  0.23419100  0.87607800  1
  O  O11  1  0.76580900  0.73898200  0.62392200  1
  O  O12  1  0.73757100  0.26376200  0.60592500  1
  O  O13  1  0.23419100  0.26101800  0.37607800  1
  O  O14  1  0.26376200  0.73757100  0.10592500  1
  O  O15  1  0.73898200  0.76580900  0.12392200  1
  O  O16  1  0.73623800  0.26242900  0.89407500  1
  O  O17  1  0.26242900  0.73623800  0.39407500  1
