# generated using pymatgen
data_Sr4PtO6
_symmetry_space_group_name_H-M   'P 1'
_cell_length_a   6.96296860
_cell_length_b   6.96296860
_cell_length_c   6.96296832
_cell_angle_alpha   90.19061173
_cell_angle_beta   90.19061173
_cell_angle_gamma   90.19060346
_symmetry_Int_Tables_number   1
_chemical_formula_structural   Sr4PtO6
_chemical_formula_sum   'Sr8 Pt2 O12'
_cell_volume   337.57950056
_cell_formula_units_Z   2
loop_
 _symmetry_equiv_pos_site_id
 _symmetry_equiv_pos_as_xyz
  1  'x, y, z'
loop_
 _atom_site_type_symbol
 _atom_site_label
 _atom_site_symmetry_multiplicity
 _atom_site_fract_x
 _atom_site_fract_y
 _atom_site_fract_z
 _atom_site_occupancy
  Sr  Sr0  1  0.75000000  0.11821300  0.38178700  1
  Sr  Sr1  1  0.38178700  0.75000000  0.11821300  1
  Sr  Sr2  1  0.11821300  0.38178700  0.75000000  1
  Sr  Sr3  1  0.25000000  0.88178700  0.61821300  1
  Sr  Sr4  1  0.61821300  0.25000000  0.88178700  1
  Sr  Sr5  1  0.88178700  0.61821300  0.25000000  1
  Sr  Sr6  1  0.75000000  0.75000000  0.75000000  1
  Sr  Sr7  1  0.25000000  0.25000000  0.25000000  1
  Pt  Pt8  1  0.50000000  0.50000000  0.50000000  1
  Pt  Pt9  1  0.00000000  0.00000000  0.00000000  1
  O  O10  1  0.57216900  0.78627700  0.44263400  1
  O  O11  1  0.44263400  0.57216900  0.78627700  1
  O  O12  1  0.78627700  0.44263400  0.57216900  1
  O  O13  1  0.92783100  0.05736600  0.71372300  1
  O  O14  1  0.71372300  0.92783100  0.05736600  1
  O  O15  1  0.05736600  0.71372300  0.92783100  1
  O  O16  1  0.42783100  0.21372300  0.55736600  1
  O  O17  1  0.55736600  0.42783100  0.21372300  1
  O  O18  1  0.21372300  0.55736600  0.42783100  1
  O  O19  1  0.07216900  0.94263400  0.28627700  1
  O  O20  1  0.94263400  0.28627700  0.07216900  1
  O  O21  1  0.28627700  0.07216900  0.94263400  1
