# generated using pymatgen
data_NdRhO3
_symmetry_space_group_name_H-M   'P 1'
_cell_length_a   5.40954800
_cell_length_b   5.90936400
_cell_length_c   7.84659200
_cell_angle_alpha   90.00000000
_cell_angle_beta   90.00000000
_cell_angle_gamma   90.00000000
_symmetry_Int_Tables_number   1
_chemical_formula_structural   NdRhO3
_chemical_formula_sum   'Nd4 Rh4 O12'
_cell_volume   250.83191393
_cell_formula_units_Z   4
loop_
 _symmetry_equiv_pos_site_id
 _symmetry_equiv_pos_as_xyz
  1  'x, y, z'
loop_
 _atom_site_type_symbol
 _atom_site_label
 _atom_site_symmetry_multiplicity
 _atom_site_fract_x
 _atom_site_fract_y
 _atom_site_fract_z
 _atom_site_occupancy
  Nd  Nd0  1  0.47334300  0.57903200  0.75000000  1
  Nd  Nd1  1  0.97334300  0.92096800  0.25000000  1
  Nd  Nd2  1  0.02665700  0.07903200  0.75000000  1
  Nd  Nd3  1  0.52665700  0.42096800  0.25000000  1
  Rh  Rh4  1  0.50000000  0.00000000  0.50000000  1
  Rh  Rh5  1  0.00000000  0.50000000  0.50000000  1
  Rh  Rh6  1  0.00000000  0.50000000  0.00000000  1
  Rh  Rh7  1  0.50000000  0.00000000  0.00000000  1
  O  O8  1  0.81692400  0.19505500  0.44469000  1
  O  O9  1  0.31692400  0.30494500  0.55531000  1
  O  O10  1  0.68307600  0.69505500  0.05531000  1
  O  O11  1  0.18307600  0.80494500  0.94469000  1
  O  O12  1  0.18307600  0.80494500  0.55531000  1
  O  O13  1  0.68307600  0.69505500  0.44469000  1
  O  O14  1  0.31692400  0.30494500  0.94469000  1
  O  O15  1  0.81692400  0.19505500  0.05531000  1
  O  O16  1  0.38414600  0.03832900  0.25000000  1
  O  O17  1  0.88414600  0.46167100  0.75000000  1
  O  O18  1  0.11585400  0.53832900  0.25000000  1
  O  O19  1  0.61585400  0.96167100  0.75000000  1
