# generated using pymatgen
data_CeAl5Ni2
_symmetry_space_group_name_H-M   'P 1'
_cell_length_a   6.23454241
_cell_length_b   6.23454241
_cell_length_c   6.23454241
_cell_angle_alpha   142.75095806
_cell_angle_beta   111.36740270
_cell_angle_gamma   80.77225721
_symmetry_Int_Tables_number   1
_chemical_formula_structural   CeAl5Ni2
_chemical_formula_sum   'Ce1 Al5 Ni2'
_cell_volume   132.93434009
_cell_formula_units_Z   1
loop_
 _symmetry_equiv_pos_site_id
 _symmetry_equiv_pos_as_xyz
  1  'x, y, z'
loop_
 _atom_site_type_symbol
 _atom_site_label
 _atom_site_symmetry_multiplicity
 _atom_site_fract_x
 _atom_site_fract_y
 _atom_site_fract_z
 _atom_site_occupancy
  Ce  Ce0  1  0.00000000  0.00000000  0.00000000  1
  Al  Al1  1  0.50000000  0.00000000  0.50000000  1
  Al  Al2  1  0.15371700  0.34379500  0.80992200  1
  Al  Al3  1  0.84628300  0.65620500  0.19007800  1
  Al  Al4  1  0.46612700  0.65620500  0.80992200  1
  Al  Al5  1  0.53387300  0.34379500  0.19007800  1
  Ni  Ni6  1  0.74217700  0.24217700  0.50000000  1
  Ni  Ni7  1  0.25782300  0.75782300  0.50000000  1
