# generated using pymatgen
data_BaGa4S7
_symmetry_space_group_name_H-M   'P 1'
_cell_length_a   6.03044800
_cell_length_b   6.33466300
_cell_length_c   15.02942000
_cell_angle_alpha   90.00000000
_cell_angle_beta   90.00000000
_cell_angle_gamma   90.00000000
_symmetry_Int_Tables_number   1
_chemical_formula_structural   BaGa4S7
_chemical_formula_sum   'Ba2 Ga8 S14'
_cell_volume   574.13670646
_cell_formula_units_Z   2
loop_
 _symmetry_equiv_pos_site_id
 _symmetry_equiv_pos_as_xyz
  1  'x, y, z'
loop_
 _atom_site_type_symbol
 _atom_site_label
 _atom_site_symmetry_multiplicity
 _atom_site_fract_x
 _atom_site_fract_y
 _atom_site_fract_z
 _atom_site_occupancy
  Ba  Ba0  1  0.45929500  0.65048900  0.50000000  1
  Ba  Ba1  1  0.95929500  0.34951100  0.00000000  1
  Ga  Ga2  1  0.33957900  0.82947700  0.88010300  1
  Ga  Ga3  1  0.83957900  0.17052300  0.61989700  1
  Ga  Ga4  1  0.83957900  0.17052300  0.38010300  1
  Ga  Ga5  1  0.33957900  0.82947700  0.11989700  1
  Ga  Ga6  1  0.35693200  0.31491100  0.75222100  1
  Ga  Ga7  1  0.85693200  0.68508900  0.74777900  1
  Ga  Ga8  1  0.85693200  0.68508900  0.25222100  1
  Ga  Ga9  1  0.35693200  0.31491100  0.24777900  1
  S  S10  1  0.96488700  0.32884900  0.75181800  1
  S  S11  1  0.46488700  0.67115100  0.74818200  1
  S  S12  1  0.46488700  0.67115100  0.25181800  1
  S  S13  1  0.96488700  0.32884900  0.24818200  1
  S  S14  1  0.96005300  0.80223800  0.88316100  1
  S  S15  1  0.46005300  0.19776200  0.61683900  1
  S  S16  1  0.46005300  0.19776200  0.38316100  1
  S  S17  1  0.96005300  0.80223800  0.11683900  1
  S  S18  1  0.44156700  0.17583600  0.88632300  1
  S  S19  1  0.94156700  0.82416400  0.61367700  1
  S  S20  1  0.45507700  0.63836200  0.00000000  1
  S  S21  1  0.95507700  0.36163800  0.50000000  1
  S  S22  1  0.44156700  0.17583600  0.11367700  1
  S  S23  1  0.94156700  0.82416400  0.38632300  1
