# generated using pymatgen
data_NaSr3LaTi5O15
_symmetry_space_group_name_H-M   'P 1'
_cell_length_a   20.10614252
_cell_length_b   20.10614252
_cell_length_c   20.10614252
_cell_angle_alpha   164.17414503
_cell_angle_beta   164.17414503
_cell_angle_gamma   22.45346248
_symmetry_Int_Tables_number   1
_chemical_formula_structural   NaSr3LaTi5O15
_chemical_formula_sum   'Na2 Sr6 La2 Ti10 O30'
_cell_volume   604.39579220
_cell_formula_units_Z   2
loop_
 _symmetry_equiv_pos_site_id
 _symmetry_equiv_pos_as_xyz
  1  'x, y, z'
loop_
 _atom_site_type_symbol
 _atom_site_label
 _atom_site_symmetry_multiplicity
 _atom_site_fract_x
 _atom_site_fract_y
 _atom_site_fract_z
 _atom_site_occupancy
  Na  Na0  1  0.79964500  0.79964500  0.00000000  1
  Na  Na1  1  0.20035500  0.20035500  0.00000000  1
  Sr  Sr2  1  0.60029300  0.60029300  0.00000000  1
  Sr  Sr3  1  0.00000000  0.00000000  0.00000000  1
  Sr  Sr4  1  0.10077000  0.10077000  0.00000000  1
  Sr  Sr5  1  0.39970700  0.39970700  0.00000000  1
  Sr  Sr6  1  0.50000000  0.50000000  0.00000000  1
  Sr  Sr7  1  0.89923000  0.89923000  0.00000000  1
  La  La8  1  0.29961000  0.29961000  0.00000000  1
  La  La9  1  0.70039000  0.70039000  0.00000000  1
  Ti  Ti10  1  0.25000000  0.75000000  0.50000000  1
  Ti  Ti11  1  0.75000000  0.25000000  0.50000000  1
  Ti  Ti12  1  0.05034400  0.55034400  0.50000000  1
  Ti  Ti13  1  0.15108600  0.65108600  0.50000000  1
  Ti  Ti14  1  0.44965600  0.94965600  0.50000000  1
  Ti  Ti15  1  0.55034400  0.05034400  0.50000000  1
  Ti  Ti16  1  0.65108600  0.15108600  0.50000000  1
  Ti  Ti17  1  0.84891400  0.34891400  0.50000000  1
  Ti  Ti18  1  0.94965600  0.44965600  0.50000000  1
  Ti  Ti19  1  0.34891400  0.84891400  0.50000000  1
  O  O20  1  0.29941300  0.79941300  0.50000000  1
  O  O21  1  0.95277700  0.95277700  0.40746400  1
  O  O22  1  0.45468700  0.04722300  0.00000000  1
  O  O23  1  0.70058700  0.20058700  0.50000000  1
  O  O24  1  0.79941300  0.29941300  0.50000000  1
  O  O25  1  0.37453700  0.37453700  0.44758000  1
  O  O26  1  0.04722300  0.45468700  0.00000000  1
  O  O27  1  0.86458300  0.43903000  0.00000000  1
  O  O28  1  0.54531300  0.54531300  0.59253600  1
  O  O29  1  0.10075200  0.60075200  0.50000000  1
  O  O30  1  0.20058700  0.70058700  0.50000000  1
  O  O31  1  0.78034500  0.78034500  0.46025100  1
  O  O32  1  0.43903000  0.86458300  0.00000000  1
  O  O33  1  0.28044600  0.82060400  0.00000000  1
  O  O34  1  0.92695700  0.92695700  0.55242000  1
  O  O35  1  0.50000000  0.00000000  0.50000000  1
  O  O36  1  0.60075200  0.10075200  0.50000000  1
  O  O37  1  0.17939600  0.17939600  0.45984200  1
  O  O38  1  0.82060400  0.28044600  0.00000000  1
  O  O39  1  0.67990600  0.21965500  0.00000000  1
  O  O40  1  0.32009400  0.32009400  0.53974900  1
  O  O41  1  0.89924800  0.39924800  0.50000000  1
  O  O42  1  0.00000000  0.50000000  0.50000000  1
  O  O43  1  0.56097000  0.56097000  0.42555300  1
  O  O44  1  0.21965500  0.67990600  0.00000000  1
  O  O45  1  0.07304300  0.62546300  0.00000000  1
  O  O46  1  0.71955400  0.71955400  0.54015800  1
  O  O47  1  0.39924800  0.89924800  0.50000000  1
  O  O48  1  0.62546300  0.07304300  0.00000000  1
  O  O49  1  0.13541700  0.13541700  0.57444700  1
