# generated using pymatgen
data_ErP5O14
_symmetry_space_group_name_H-M   'P 1'
_cell_length_a   9.17991335
_cell_length_b   9.17991335
_cell_length_c   12.55056132
_cell_angle_alpha   88.90080244
_cell_angle_beta   88.90080244
_cell_angle_gamma   89.58541717
_symmetry_Int_Tables_number   1
_chemical_formula_structural   ErP5O14
_chemical_formula_sum   'Er4 P20 O56'
_cell_volume   1057.23178752
_cell_formula_units_Z   4
loop_
 _symmetry_equiv_pos_site_id
 _symmetry_equiv_pos_as_xyz
  1  'x, y, z'
loop_
 _atom_site_type_symbol
 _atom_site_label
 _atom_site_symmetry_multiplicity
 _atom_site_fract_x
 _atom_site_fract_y
 _atom_site_fract_z
 _atom_site_occupancy
  Er  Er0  1  0.52016700  0.47983300  0.75000000  1
  Er  Er1  1  0.47983300  0.52016700  0.25000000  1
  Er  Er2  1  0.96614400  0.03385600  0.75000000  1
  Er  Er3  1  0.03385600  0.96614400  0.25000000  1
  P  P4  1  0.67550400  0.61539200  0.99884300  1
  P  P5  1  0.38460800  0.32449600  0.50115700  1
  P  P6  1  0.32449600  0.38460800  0.00115700  1
  P  P7  1  0.61539200  0.67550400  0.49884300  1
  P  P8  1  0.95032700  0.68342700  0.89009000  1
  P  P9  1  0.31657300  0.04967300  0.60991000  1
  P  P10  1  0.04967300  0.31657300  0.10991000  1
  P  P11  1  0.68342700  0.95032700  0.39009000  1
  P  P12  1  0.12588500  0.82819900  0.53432700  1
  P  P13  1  0.17180100  0.87411500  0.96567300  1
  P  P14  1  0.87411500  0.17180100  0.46567300  1
  P  P15  1  0.82819900  0.12588500  0.03432700  1
  P  P16  1  0.18214300  0.52202000  0.60710300  1
  P  P17  1  0.47798000  0.81785700  0.89289700  1
  P  P18  1  0.81785700  0.47798000  0.39289700  1
  P  P19  1  0.52202000  0.18214300  0.10710300  1
  P  P20  1  0.92314900  0.42898700  0.74177500  1
  P  P21  1  0.57101300  0.07685100  0.75822500  1
  P  P22  1  0.07685100  0.57101300  0.25822500  1
  P  P23  1  0.42898700  0.92314900  0.24177500  1
  O  O24  1  0.03397800  0.85063400  0.63219300  1
  O  O25  1  0.14936600  0.96602200  0.86780700  1
  O  O26  1  0.96602200  0.14936600  0.36780700  1
  O  O27  1  0.85063400  0.03397800  0.13219300  1
  O  O28  1  0.92168400  0.12846800  0.57383900  1
  O  O29  1  0.87153200  0.07831600  0.92616100  1
  O  O30  1  0.07831600  0.87153200  0.42616100  1
  O  O31  1  0.12846800  0.92168400  0.07383900  1
  O  O32  1  0.64087100  0.51540600  0.91062200  1
  O  O33  1  0.48459400  0.35912900  0.58937800  1
  O  O34  1  0.35912900  0.48459400  0.08937800  1
  O  O35  1  0.51540600  0.64087100  0.41062200  1
  O  O36  1  0.35459300  0.42231100  0.88787700  1
  O  O37  1  0.57768900  0.64540700  0.61212300  1
  O  O38  1  0.64540700  0.57768900  0.11212300  1
  O  O39  1  0.42231100  0.35459300  0.38787700  1
  O  O40  1  0.84858700  0.65380200  0.99167400  1
  O  O41  1  0.34619800  0.15141300  0.50832600  1
  O  O42  1  0.15141300  0.34619800  0.00832600  1
  O  O43  1  0.10179500  0.71178100  0.94380300  1
  O  O44  1  0.65380200  0.84858700  0.49167400  1
  O  O45  1  0.19999800  0.10473300  0.68131000  1
  O  O46  1  0.10473300  0.19999800  0.18131000  1
  O  O47  1  0.80000200  0.89526700  0.31869000  1
  O  O48  1  0.45921100  0.76858500  0.21648000  1
  O  O49  1  0.23141500  0.54078900  0.28352000  1
  O  O50  1  0.54078900  0.23141500  0.78352000  1
  O  O51  1  0.76858500  0.45921100  0.71648000  1
  O  O52  1  0.27971600  0.97575400  0.26899800  1
  O  O53  1  0.02424600  0.72028400  0.23100200  1
  O  O54  1  0.72028400  0.02424600  0.73100200  1
  O  O55  1  0.97575400  0.27971600  0.76899800  1
  O  O56  1  0.53061100  0.97908900  0.33831800  1
  O  O57  1  0.02091100  0.46938900  0.16168200  1
  O  O58  1  0.46938900  0.02091100  0.66168200  1
  O  O59  1  0.97908900  0.53061100  0.83831800  1
  O  O60  1  0.49626900  0.01754200  0.13992000  1
  O  O61  1  0.98245800  0.50373100  0.36008000  1
  O  O62  1  0.50373100  0.98245800  0.86008000  1
  O  O63  1  0.01754200  0.49626900  0.63992000  1
  O  O64  1  0.39368400  0.22129300  0.02888700  1
  O  O65  1  0.77870700  0.60631600  0.47111300  1
  O  O66  1  0.60631600  0.77870700  0.97111300  1
  O  O67  1  0.22129300  0.39368400  0.52888700  1
  O  O68  1  0.53755700  0.28198900  0.19669100  1
  O  O69  1  0.71801100  0.46244300  0.30330900  1
  O  O70  1  0.46244300  0.71801100  0.80330900  1
  O  O71  1  0.28198900  0.53755700  0.69669100  1
  O  O72  1  0.65756300  0.17463600  0.02761600  1
  O  O73  1  0.82536400  0.34243700  0.47238400  1
  O  O74  1  0.34243700  0.82536400  0.97238400  1
  O  O75  1  0.17463600  0.65756300  0.52761600  1
  O  O76  1  0.71178100  0.10179500  0.44380300  1
  O  O77  1  0.89820500  0.28821900  0.05619700  1
  O  O78  1  0.28821900  0.89820500  0.55619700  1
  O  O79  1  0.89526700  0.80000200  0.81869000  1
