# generated using pymatgen
data_ZrTe3O8
_symmetry_space_group_name_H-M   'P 1'
_cell_length_a   10.04141906
_cell_length_b   10.04141906
_cell_length_c   10.04141906
_cell_angle_alpha   109.47122063
_cell_angle_beta   109.47122063
_cell_angle_gamma   109.47122063
_symmetry_Int_Tables_number   1
_chemical_formula_structural   ZrTe3O8
_chemical_formula_sum   'Zr4 Te12 O32'
_cell_volume   779.40535553
_cell_formula_units_Z   4
loop_
 _symmetry_equiv_pos_site_id
 _symmetry_equiv_pos_as_xyz
  1  'x, y, z'
loop_
 _atom_site_type_symbol
 _atom_site_label
 _atom_site_symmetry_multiplicity
 _atom_site_fract_x
 _atom_site_fract_y
 _atom_site_fract_z
 _atom_site_occupancy
  Zr  Zr0  1  0.50000000  0.00000000  0.00000000  1
  Zr  Zr1  1  0.00000000  0.00000000  0.50000000  1
  Zr  Zr2  1  0.00000000  0.50000000  0.00000000  1
  Zr  Zr3  1  0.50000000  0.50000000  0.50000000  1
  Te  Te4  1  0.55155000  0.25000000  0.80155000  1
  Te  Te5  1  0.69845000  0.94845000  0.75000000  1
  Te  Te6  1  0.25000000  0.80155000  0.55155000  1
  Te  Te7  1  0.80155000  0.55155000  0.25000000  1
  Te  Te8  1  0.75000000  0.69845000  0.94845000  1
  Te  Te9  1  0.94845000  0.75000000  0.69845000  1
  Te  Te10  1  0.44845000  0.75000000  0.19845000  1
  Te  Te11  1  0.30155000  0.05155000  0.25000000  1
  Te  Te12  1  0.75000000  0.19845000  0.44845000  1
  Te  Te13  1  0.19845000  0.44845000  0.75000000  1
  Te  Te14  1  0.25000000  0.30155000  0.05155000  1
  Te  Te15  1  0.05155000  0.25000000  0.30155000  1
  O  O16  1  0.54542100  0.20533200  0.96903700  1
  O  O17  1  0.76370500  0.29466800  0.84008900  1
  O  O18  1  0.95457900  0.92361600  0.65991100  1
  O  O19  1  0.57638400  0.53096300  0.73629500  1
  O  O20  1  0.53096300  0.73629500  0.57638400  1
  O  O21  1  0.96903700  0.54542100  0.20533200  1
  O  O22  1  0.29466800  0.84008900  0.76370500  1
  O  O23  1  0.65991100  0.95457900  0.92361600  1
  O  O24  1  0.20533200  0.96903700  0.54542100  1
  O  O25  1  0.84008900  0.76370500  0.29466800  1
  O  O26  1  0.92361600  0.65991100  0.95457900  1
  O  O27  1  0.73629500  0.57638400  0.53096300  1
  O  O28  1  0.45457900  0.79466800  0.03096300  1
  O  O29  1  0.23629500  0.70533200  0.15991100  1
  O  O30  1  0.04542100  0.07638400  0.34008900  1
  O  O31  1  0.42361600  0.46903700  0.26370500  1
  O  O32  1  0.16896100  0.16896100  0.16896100  1
  O  O33  1  0.33103900  0.50000000  0.00000000  1
  O  O34  1  0.00000000  0.33103900  0.50000000  1
  O  O35  1  0.50000000  0.00000000  0.33103900  1
  O  O36  1  0.83103900  0.83103900  0.83103900  1
  O  O37  1  0.66896100  0.50000000  0.00000000  1
  O  O38  1  0.00000000  0.66896100  0.50000000  1
  O  O39  1  0.50000000  0.00000000  0.66896100  1
  O  O40  1  0.26370500  0.42361600  0.46903700  1
  O  O41  1  0.07638400  0.34008900  0.04542100  1
  O  O42  1  0.15991100  0.23629500  0.70533200  1
  O  O43  1  0.79466800  0.03096300  0.45457900  1
  O  O44  1  0.34008900  0.04542100  0.07638400  1
  O  O45  1  0.70533200  0.15991100  0.23629500  1
  O  O46  1  0.03096300  0.45457900  0.79466800  1
  O  O47  1  0.46903700  0.26370500  0.42361600  1
