# generated using pymatgen
data_BaAlF5
_symmetry_space_group_name_H-M   'P 1'
_cell_length_a   5.09060900
_cell_length_b   5.68272200
_cell_length_c   13.94057900
_cell_angle_alpha   90.00000000
_cell_angle_beta   90.00000000
_cell_angle_gamma   90.00000000
_symmetry_Int_Tables_number   1
_chemical_formula_structural   BaAlF5
_chemical_formula_sum   'Ba4 Al4 F20'
_cell_volume   403.28025927
_cell_formula_units_Z   4
loop_
 _symmetry_equiv_pos_site_id
 _symmetry_equiv_pos_as_xyz
  1  'x, y, z'
loop_
 _atom_site_type_symbol
 _atom_site_label
 _atom_site_symmetry_multiplicity
 _atom_site_fract_x
 _atom_site_fract_y
 _atom_site_fract_z
 _atom_site_occupancy
  Ba  Ba0  1  0.76516000  0.33930700  0.34564600  1
  Ba  Ba1  1  0.26516000  0.16069300  0.65435400  1
  Ba  Ba2  1  0.23484000  0.83930700  0.15435400  1
  Ba  Ba3  1  0.73484000  0.66069300  0.84564600  1
  Al  Al4  1  0.19222100  0.84362100  0.41359900  1
  Al  Al5  1  0.69222100  0.65637900  0.58640100  1
  Al  Al6  1  0.80777900  0.34362100  0.08640100  1
  Al  Al7  1  0.30777900  0.15637900  0.91359900  1
  F  F8  1  0.96504400  0.66787900  0.49560500  1
  F  F9  1  0.46504400  0.83212100  0.50439500  1
  F  F10  1  0.03495600  0.16787900  0.00439500  1
  F  F11  1  0.53495600  0.33212100  0.99560500  1
  F  F12  1  0.92599100  0.85300600  0.32552100  1
  F  F13  1  0.42599100  0.64699400  0.67447900  1
  F  F14  1  0.07400900  0.35300600  0.17447900  1
  F  F15  1  0.57400900  0.14699400  0.82552100  1
  F  F16  1  0.92227800  0.60582800  0.02810700  1
  F  F17  1  0.42227800  0.89417200  0.97189300  1
  F  F18  1  0.07772200  0.10582800  0.47189300  1
  F  F19  1  0.57772200  0.39417200  0.52810700  1
  F  F20  1  0.61191400  0.51709200  0.16885600  1
  F  F21  1  0.11191400  0.98290800  0.83114400  1
  F  F22  1  0.38808600  0.01709200  0.33114400  1
  F  F23  1  0.88808600  0.48290800  0.66885600  1
  F  F24  1  0.20303900  0.42722700  0.85923100  1
  F  F25  1  0.70303900  0.07277300  0.14076900  1
  F  F26  1  0.79696100  0.92722700  0.64076900  1
  F  F27  1  0.29696100  0.57277300  0.35923100  1
