# generated using pymatgen
data_La4Se3O4
_symmetry_space_group_name_H-M   'P 1'
_cell_length_a   6.96533808
_cell_length_b   6.96533808
_cell_length_c   8.55802000
_cell_angle_alpha   90.00000000
_cell_angle_beta   90.00000000
_cell_angle_gamma   145.61103117
_symmetry_Int_Tables_number   1
_chemical_formula_structural   La4Se3O4
_chemical_formula_sum   'La4 Se3 O4'
_cell_volume   234.50852825
_cell_formula_units_Z   1
loop_
 _symmetry_equiv_pos_site_id
 _symmetry_equiv_pos_as_xyz
  1  'x, y, z'
loop_
 _atom_site_type_symbol
 _atom_site_label
 _atom_site_symmetry_multiplicity
 _atom_site_fract_x
 _atom_site_fract_y
 _atom_site_fract_z
 _atom_site_occupancy
  La  La0  1  0.31514500  0.68485500  0.76178600  1
  La  La1  1  0.31514500  0.68485500  0.23821400  1
  La  La2  1  0.98355300  0.01644700  0.50000000  1
  La  La3  1  0.99816700  0.00183300  0.00000000  1
  Se  Se4  1  0.64303100  0.35696900  0.35109400  1
  Se  Se5  1  0.64303100  0.35696900  0.64890600  1
  Se  Se6  1  0.68578500  0.31421500  0.00000000  1
  O  O7  1  0.38618800  0.61381200  0.50000000  1
  O  O8  1  0.41163000  0.58837000  0.00000000  1
  O  O9  1  0.90976800  0.09023200  0.75556300  1
  O  O10  1  0.90976800  0.09023200  0.24443700  1
