# generated using pymatgen
data_In14Ga3Pt2O8F15
_symmetry_space_group_name_H-M   'P 1'
_cell_length_a   16.05675865
_cell_length_b   16.05675865
_cell_length_c   16.05675847
_cell_angle_alpha   26.01820213
_cell_angle_beta   26.01820213
_cell_angle_gamma   26.01820297
_symmetry_Int_Tables_number   1
_chemical_formula_structural   In14Ga3Pt2O8F15
_chemical_formula_sum   'In14 Ga3 Pt2 O8 F15'
_cell_volume   701.69334627
_cell_formula_units_Z   1
loop_
 _symmetry_equiv_pos_site_id
 _symmetry_equiv_pos_as_xyz
  1  'x, y, z'
loop_
 _atom_site_type_symbol
 _atom_site_label
 _atom_site_symmetry_multiplicity
 _atom_site_fract_x
 _atom_site_fract_y
 _atom_site_fract_z
 _atom_site_occupancy
  In  In0  1  0.14960100  0.14960100  0.14960100  1
  In  In1  1  0.70201200  0.19334400  0.19388700  1
  In  In2  1  0.19388700  0.70201200  0.19334400  1
  In  In3  1  0.19334400  0.19388700  0.70201200  1
  In  In4  1  0.60907600  0.58685900  0.09134000  1
  In  In5  1  0.09134000  0.60907600  0.58685900  1
  In  In6  1  0.58685900  0.09134000  0.60907600  1
  In  In7  1  0.90866000  0.39092400  0.41314100  1
  In  In8  1  0.41314100  0.90866000  0.39092400  1
  In  In9  1  0.39092400  0.41314100  0.90866000  1
  In  In10  1  0.80665600  0.80611300  0.29798800  1
  In  In11  1  0.80611300  0.29798800  0.80665600  1
  In  In12  1  0.29798800  0.80665600  0.80611300  1
  In  In13  1  0.85039900  0.85039900  0.85039900  1
  Ga  Ga14  1  0.30017600  0.30017600  0.30017600  1
  Ga  Ga15  1  0.50000000  0.50000000  0.50000000  1
  Ga  Ga16  1  0.69982400  0.69982400  0.69982400  1
  Pt  Pt17  1  0.39640900  0.39640900  0.39640900  1
  Pt  Pt18  1  0.60359100  0.60359100  0.60359100  1
  O  O19  1  0.25941600  0.25941600  0.25941600  1
  O  O20  1  0.59685800  0.17261700  0.17268000  1
  O  O21  1  0.17268000  0.59685800  0.17261700  1
  O  O22  1  0.17261700  0.17268000  0.59685800  1
  O  O23  1  0.82738300  0.82732000  0.40314200  1
  O  O24  1  0.40314200  0.82738300  0.82732000  1
  O  O25  1  0.82732000  0.40314200  0.82738300  1
  O  O26  1  0.74058400  0.74058400  0.74058400  1
  F  F27  1  0.00000000  0.00000000  0.00000000  1
  F  F28  1  0.05412400  0.05412400  0.05412400  1
  F  F29  1  0.54379200  0.06974000  0.04597100  1
  F  F30  1  0.04597100  0.54379200  0.06974000  1
  F  F31  1  0.06974000  0.04597100  0.54379200  1
  F  F32  1  0.63246400  0.57140600  0.22561200  1
  F  F33  1  0.22561200  0.63246400  0.57140600  1
  F  F34  1  0.57140600  0.22561200  0.63246400  1
  F  F35  1  0.42859400  0.77438800  0.36753600  1
  F  F36  1  0.77438800  0.36753600  0.42859400  1
  F  F37  1  0.36753600  0.42859400  0.77438800  1
  F  F38  1  0.93026000  0.95402900  0.45620800  1
  F  F39  1  0.45620800  0.93026000  0.95402900  1
  F  F40  1  0.95402900  0.45620800  0.93026000  1
  F  F41  1  0.94587600  0.94587600  0.94587600  1
