# generated using pymatgen
data_Sr2IrO4
_symmetry_space_group_name_H-M   'P 1'
_cell_length_a   13.68865347
_cell_length_b   13.68865347
_cell_length_c   13.68865347
_cell_angle_alpha   156.71797098
_cell_angle_beta   156.71797098
_cell_angle_gamma   33.16058456
_symmetry_Int_Tables_number   1
_chemical_formula_structural   Sr2IrO4
_chemical_formula_sum   'Sr8 Ir4 O16'
_cell_volume   400.36002567
_cell_formula_units_Z   4
loop_
 _symmetry_equiv_pos_site_id
 _symmetry_equiv_pos_as_xyz
  1  'x, y, z'
loop_
 _atom_site_type_symbol
 _atom_site_label
 _atom_site_symmetry_multiplicity
 _atom_site_fract_x
 _atom_site_fract_y
 _atom_site_fract_z
 _atom_site_occupancy
  Sr  Sr0  1  0.92519100  0.42519100  0.50000000  1
  Sr  Sr1  1  0.17519100  0.17519100  0.00000000  1
  Sr  Sr2  1  0.32480900  0.32480900  0.00000000  1
  Sr  Sr3  1  0.07480900  0.57480900  0.50000000  1
  Sr  Sr4  1  0.67519100  0.67519100  0.00000000  1
  Sr  Sr5  1  0.42519100  0.92519100  0.50000000  1
  Sr  Sr6  1  0.57480900  0.07480900  0.50000000  1
  Sr  Sr7  1  0.82480900  0.82480900  0.00000000  1
  Ir  Ir8  1  0.25000000  0.75000000  0.50000000  1
  Ir  Ir9  1  0.50000000  0.50000000  0.00000000  1
  Ir  Ir10  1  0.00000000  0.00000000  0.00000000  1
  Ir  Ir11  1  0.75000000  0.25000000  0.50000000  1
  O  O12  1  0.57970900  0.57970900  0.00000000  1
  O  O13  1  0.32970900  0.82970900  0.50000000  1
  O  O14  1  0.67029100  0.17029100  0.50000000  1
  O  O15  1  0.92029100  0.92029100  0.00000000  1
  O  O16  1  0.17029100  0.67029100  0.50000000  1
  O  O17  1  0.42029100  0.42029100  0.00000000  1
  O  O18  1  0.07970900  0.07970900  0.00000000  1
  O  O19  1  0.82970900  0.32970900  0.50000000  1
  O  O20  1  0.93945700  0.56054300  0.00000000  1
  O  O21  1  0.31054300  0.81054300  0.12108600  1
  O  O22  1  0.68945700  0.18945700  0.87891400  1
  O  O23  1  0.56054300  0.93945700  0.00000000  1
  O  O24  1  0.18945700  0.31054300  0.50000000  1
  O  O25  1  0.06054300  0.06054300  0.62108600  1
  O  O26  1  0.43945700  0.43945700  0.37891400  1
  O  O27  1  0.81054300  0.68945700  0.50000000  1
