# generated using pymatgen
data_BaPdS2
_symmetry_space_group_name_H-M   'P 1'
_cell_length_a   6.38890262
_cell_length_b   6.38890262
_cell_length_c   5.73698400
_cell_angle_alpha   90.00000000
_cell_angle_beta   90.00000000
_cell_angle_gamma   115.02885373
_symmetry_Int_Tables_number   1
_chemical_formula_structural   BaPdS2
_chemical_formula_sum   'Ba2 Pd2 S4'
_cell_volume   212.18263338
_cell_formula_units_Z   2
loop_
 _symmetry_equiv_pos_site_id
 _symmetry_equiv_pos_as_xyz
  1  'x, y, z'
loop_
 _atom_site_type_symbol
 _atom_site_label
 _atom_site_symmetry_multiplicity
 _atom_site_fract_x
 _atom_site_fract_y
 _atom_site_fract_z
 _atom_site_occupancy
  Ba  Ba0  1  0.65142200  0.34857800  0.75000000  1
  Ba  Ba1  1  0.34857800  0.65142200  0.25000000  1
  Pd  Pd2  1  0.00000000  0.00000000  0.50000000  1
  Pd  Pd3  1  0.00000000  0.00000000  0.00000000  1
  S  S4  1  0.14168400  0.32952000  0.75000000  1
  S  S5  1  0.85831600  0.67048000  0.25000000  1
  S  S6  1  0.67048000  0.85831600  0.75000000  1
  S  S7  1  0.32952000  0.14168400  0.25000000  1
