# generated using pymatgen
data_NdCuO2
_symmetry_space_group_name_H-M   'P 1'
_cell_length_a   6.12237451
_cell_length_b   6.12237451
_cell_length_c   6.12237405
_cell_angle_alpha   35.74602278
_cell_angle_beta   35.74602278
_cell_angle_gamma   35.74602621
_symmetry_Int_Tables_number   1
_chemical_formula_structural   NdCuO2
_chemical_formula_sum   'Nd1 Cu1 O2'
_cell_volume   70.02049335
_cell_formula_units_Z   1
loop_
 _symmetry_equiv_pos_site_id
 _symmetry_equiv_pos_as_xyz
  1  'x, y, z'
loop_
 _atom_site_type_symbol
 _atom_site_label
 _atom_site_symmetry_multiplicity
 _atom_site_fract_x
 _atom_site_fract_y
 _atom_site_fract_z
 _atom_site_occupancy
  Nd  Nd0  1  0.50000000  0.50000000  0.50000000  1
  Cu  Cu1  1  0.00000000  0.00000000  0.00000000  1
  O  O2  1  0.89394600  0.89394600  0.89394600  1
  O  O3  1  0.10605400  0.10605400  0.10605400  1
