# generated using pymatgen
data_Te3As2
_symmetry_space_group_name_H-M   'P 1'
_cell_length_a   7.77178496
_cell_length_b   7.77178496
_cell_length_c   10.14114142
_cell_angle_alpha   84.61162980
_cell_angle_beta   84.61162980
_cell_angle_gamma   30.35315823
_symmetry_Int_Tables_number   1
_chemical_formula_structural   Te3As2
_chemical_formula_sum   'Te6 As4'
_cell_volume   308.06089056
_cell_formula_units_Z   2
loop_
 _symmetry_equiv_pos_site_id
 _symmetry_equiv_pos_as_xyz
  1  'x, y, z'
loop_
 _atom_site_type_symbol
 _atom_site_label
 _atom_site_symmetry_multiplicity
 _atom_site_fract_x
 _atom_site_fract_y
 _atom_site_fract_z
 _atom_site_occupancy
  Te  Te0  1  0.95766200  0.95766200  0.28785400  1
  Te  Te1  1  0.04233800  0.04233800  0.71214600  1
  Te  Te2  1  0.21791700  0.21791700  0.33559400  1
  Te  Te3  1  0.78208300  0.78208300  0.66440600  1
  Te  Te4  1  0.63020300  0.63020300  0.03067200  1
  Te  Te5  1  0.36979700  0.36979700  0.96932800  1
  As  As6  1  0.37463100  0.37463100  0.43950500  1
  As  As7  1  0.62536900  0.62536900  0.56049500  1
  As  As8  1  0.79474100  0.79474100  0.14089900  1
  As  As9  1  0.20525900  0.20525900  0.85910100  1
