# generated using pymatgen
data_KTeF5
_symmetry_space_group_name_H-M   'P 1'
_cell_length_a   4.91708100
_cell_length_b   9.43240600
_cell_length_c   11.50189200
_cell_angle_alpha   90.00000000
_cell_angle_beta   90.00000000
_cell_angle_gamma   90.00000000
_symmetry_Int_Tables_number   1
_chemical_formula_structural   KTeF5
_chemical_formula_sum   'K4 Te4 F20'
_cell_volume   533.45665054
_cell_formula_units_Z   4
loop_
 _symmetry_equiv_pos_site_id
 _symmetry_equiv_pos_as_xyz
  1  'x, y, z'
loop_
 _atom_site_type_symbol
 _atom_site_label
 _atom_site_symmetry_multiplicity
 _atom_site_fract_x
 _atom_site_fract_y
 _atom_site_fract_z
 _atom_site_occupancy
  K  K0  1  0.51053200  0.25000000  0.00000000  1
  K  K1  1  0.48946800  0.75000000  0.50000000  1
  K  K2  1  0.48946800  0.75000000  0.00000000  1
  K  K3  1  0.51053200  0.25000000  0.50000000  1
  Te  Te4  1  0.12514300  0.06126000  0.25000000  1
  Te  Te5  1  0.12514300  0.43874000  0.75000000  1
  Te  Te6  1  0.87485700  0.56126000  0.25000000  1
  Te  Te7  1  0.87485700  0.93874000  0.75000000  1
  F  F8  1  0.60766900  0.79009900  0.75000000  1
  F  F9  1  0.60766900  0.70990100  0.25000000  1
  F  F10  1  0.39233100  0.29009900  0.75000000  1
  F  F11  1  0.39233100  0.20990100  0.25000000  1
  F  F12  1  0.97251600  0.18771800  0.37385800  1
  F  F13  1  0.97251600  0.31228200  0.62614200  1
  F  F14  1  0.02748400  0.68771800  0.12614200  1
  F  F15  1  0.02748400  0.81228200  0.87385800  1
  F  F16  1  0.37822500  0.98857900  0.12672200  1
  F  F17  1  0.37822500  0.51142100  0.87327800  1
  F  F18  1  0.62177500  0.48857900  0.37327800  1
  F  F19  1  0.62177500  0.01142100  0.62672200  1
  F  F20  1  0.62177500  0.01142100  0.87327800  1
  F  F21  1  0.62177500  0.48857900  0.12672200  1
  F  F22  1  0.37822500  0.51142100  0.62672200  1
  F  F23  1  0.37822500  0.98857900  0.37327800  1
  F  F24  1  0.97251600  0.18771800  0.12614200  1
  F  F25  1  0.97251600  0.31228200  0.87385800  1
  F  F26  1  0.02748400  0.68771800  0.37385800  1
  F  F27  1  0.02748400  0.81228200  0.62614200  1
