# generated using pymatgen
data_La3(B3Ru4)2
_symmetry_space_group_name_H-M   'P 1'
_cell_length_a   10.09081087
_cell_length_b   9.24147981
_cell_length_c   5.65958485
_cell_angle_alpha   81.41711156
_cell_angle_beta   64.90081590
_cell_angle_gamma   33.68207254
_symmetry_Int_Tables_number   1
_chemical_formula_structural   La3(B3Ru4)2
_chemical_formula_sum   'La3 B6 Ru8'
_cell_volume   242.26923014
_cell_formula_units_Z   1
loop_
 _symmetry_equiv_pos_site_id
 _symmetry_equiv_pos_as_xyz
  1  'x, y, z'
loop_
 _atom_site_type_symbol
 _atom_site_label
 _atom_site_symmetry_multiplicity
 _atom_site_fract_x
 _atom_site_fract_y
 _atom_site_fract_z
 _atom_site_occupancy
  La  La0  1  0.00000000  0.00000000  0.00000000  1
  La  La1  1  0.81799000  0.81799000  0.18201000  1
  La  La2  1  0.18201000  0.18201000  0.81799000  1
  B  B3  1  0.66916100  0.33083900  0.66916100  1
  B  B4  1  0.33083900  0.66916100  0.33083900  1
  B  B5  1  0.16499400  0.49306600  0.50693400  1
  B  B6  1  0.49306600  0.16499400  0.83500600  1
  B  B7  1  0.83500600  0.50693400  0.49306600  1
  B  B8  1  0.50693400  0.83500600  0.16499400  1
  Ru  Ru9  1  0.91418600  0.91418600  0.58581400  1
  Ru  Ru10  1  0.41318000  0.41318000  0.58682000  1
  Ru  Ru11  1  0.58682000  0.58682000  0.41318000  1
  Ru  Ru12  1  0.25000000  0.25000000  0.25000000  1
  Ru  Ru13  1  0.75000000  0.75000000  0.75000000  1
  Ru  Ru14  1  0.08581400  0.08581400  0.41418600  1
  Ru  Ru15  1  0.58581400  0.58581400  0.91418600  1
  Ru  Ru16  1  0.41418600  0.41418600  0.08581400  1
