# generated using pymatgen
data_NaZnP
_symmetry_space_group_name_H-M   'P 1'
_cell_length_a   4.06975100
_cell_length_b   4.06975100
_cell_length_c   6.92856900
_cell_angle_alpha   90.00000000
_cell_angle_beta   90.00000000
_cell_angle_gamma   90.00000000
_symmetry_Int_Tables_number   1
_chemical_formula_structural   NaZnP
_chemical_formula_sum   'Na2 Zn2 P2'
_cell_volume   114.75700982
_cell_formula_units_Z   2
loop_
 _symmetry_equiv_pos_site_id
 _symmetry_equiv_pos_as_xyz
  1  'x, y, z'
loop_
 _atom_site_type_symbol
 _atom_site_label
 _atom_site_symmetry_multiplicity
 _atom_site_fract_x
 _atom_site_fract_y
 _atom_site_fract_z
 _atom_site_occupancy
  Na  Na0  1  0.00000000  0.50000000  0.64392800  1
  Na  Na1  1  0.50000000  0.00000000  0.35607200  1
  Zn  Zn2  1  0.00000000  0.00000000  0.00000000  1
  Zn  Zn3  1  0.50000000  0.50000000  0.00000000  1
  P  P4  1  0.50000000  0.00000000  0.78771300  1
  P  P5  1  0.00000000  0.50000000  0.21228700  1
