# generated using pymatgen
data_ScCrC2
_symmetry_space_group_name_H-M   'P 1'
_cell_length_a   3.25844376
_cell_length_b   3.25844376
_cell_length_c   9.02811500
_cell_angle_alpha   90.00000000
_cell_angle_beta   90.00000000
_cell_angle_gamma   119.99999506
_symmetry_Int_Tables_number   1
_chemical_formula_structural   ScCrC2
_chemical_formula_sum   'Sc2 Cr2 C4'
_cell_volume   83.01339854
_cell_formula_units_Z   2
loop_
 _symmetry_equiv_pos_site_id
 _symmetry_equiv_pos_as_xyz
  1  'x, y, z'
loop_
 _atom_site_type_symbol
 _atom_site_label
 _atom_site_symmetry_multiplicity
 _atom_site_fract_x
 _atom_site_fract_y
 _atom_site_fract_z
 _atom_site_occupancy
  Sc  Sc0  1  0.00000000  0.00000000  0.50000000  1
  Sc  Sc1  1  0.00000000  0.00000000  0.00000000  1
  Cr  Cr2  1  0.33333300  0.66666700  0.25000000  1
  Cr  Cr3  1  0.66666700  0.33333300  0.75000000  1
  C  C4  1  0.33333300  0.66666700  0.83458300  1
  C  C5  1  0.66666700  0.33333300  0.33458300  1
  C  C6  1  0.33333300  0.66666700  0.66541700  1
  C  C7  1  0.66666700  0.33333300  0.16541700  1
