# generated using pymatgen
data_Ta6Si7Ni16
_symmetry_space_group_name_H-M   'P 1'
_cell_length_a   7.94259248
_cell_length_b   7.94259248
_cell_length_c   7.94259248
_cell_angle_alpha   60.00000000
_cell_angle_beta   60.00000000
_cell_angle_gamma   60.00000000
_symmetry_Int_Tables_number   1
_chemical_formula_structural   Ta6Si7Ni16
_chemical_formula_sum   'Ta6 Si7 Ni16'
_cell_volume   354.30056288
_cell_formula_units_Z   1
loop_
 _symmetry_equiv_pos_site_id
 _symmetry_equiv_pos_as_xyz
  1  'x, y, z'
loop_
 _atom_site_type_symbol
 _atom_site_label
 _atom_site_symmetry_multiplicity
 _atom_site_fract_x
 _atom_site_fract_y
 _atom_site_fract_z
 _atom_site_occupancy
  Ta  Ta0  1  0.79716000  0.20284000  0.79716000  1
  Ta  Ta1  1  0.20284100  0.20284100  0.79716000  1
  Ta  Ta2  1  0.79716000  0.79716000  0.20284100  1
  Ta  Ta3  1  0.79716000  0.20284000  0.20284000  1
  Ta  Ta4  1  0.20284000  0.79716000  0.79716000  1
  Ta  Ta5  1  0.20284000  0.79716000  0.20284100  1
  Si  Si6  1  0.50000000  0.50000000  0.50000000  1
  Si  Si7  1  0.50000000  0.50000000  0.00000000  1
  Si  Si8  1  0.00000000  0.00000000  0.50000000  1
  Si  Si9  1  0.50000000  0.00000000  0.50000000  1
  Si  Si10  1  0.00000000  0.50000000  0.50000000  1
  Si  Si11  1  0.50000000  0.00000000  0.00000000  1
  Si  Si12  1  0.00000000  0.50000000  0.00000000  1
  Ni  Ni13  1  0.50150000  0.83283300  0.83283300  1
  Ni  Ni14  1  0.83283300  0.50150000  0.83283300  1
  Ni  Ni15  1  0.83283300  0.83283300  0.50150000  1
  Ni  Ni16  1  0.16716700  0.49850000  0.16716700  1
  Ni  Ni17  1  0.16716700  0.16716700  0.49850000  1
  Ni  Ni18  1  0.49850000  0.16716700  0.16716700  1
  Ni  Ni19  1  0.83283300  0.83283300  0.83283300  1
  Ni  Ni20  1  0.38332700  0.38332700  0.38332700  1
  Ni  Ni21  1  0.14998100  0.61667300  0.61667300  1
  Ni  Ni22  1  0.61667300  0.14998100  0.61667300  1
  Ni  Ni23  1  0.61667300  0.61667300  0.14998100  1
  Ni  Ni24  1  0.38332700  0.85001900  0.38332700  1
  Ni  Ni25  1  0.38332700  0.38332700  0.85001900  1
  Ni  Ni26  1  0.85001900  0.38332700  0.38332700  1
  Ni  Ni27  1  0.61667300  0.61667300  0.61667300  1
  Ni  Ni28  1  0.16716700  0.16716700  0.16716700  1
