# generated using pymatgen
data_Sr(AsRu)2
_symmetry_space_group_name_H-M   'P 1'
_cell_length_a   6.40376456
_cell_length_b   6.40376456
_cell_length_c   6.40376456
_cell_angle_alpha   141.55284506
_cell_angle_beta   141.55284506
_cell_angle_gamma   55.50293892
_symmetry_Int_Tables_number   1
_chemical_formula_structural   Sr(AsRu)2
_chemical_formula_sum   'Sr1 As2 Ru2'
_cell_volume   100.77731417
_cell_formula_units_Z   1
loop_
 _symmetry_equiv_pos_site_id
 _symmetry_equiv_pos_as_xyz
  1  'x, y, z'
loop_
 _atom_site_type_symbol
 _atom_site_label
 _atom_site_symmetry_multiplicity
 _atom_site_fract_x
 _atom_site_fract_y
 _atom_site_fract_z
 _atom_site_occupancy
  Sr  Sr0  1  0.00000000  0.00000000  0.00000000  1
  As  As1  1  0.64141900  0.64141900  0.00000000  1
  As  As2  1  0.35858100  0.35858100  0.00000000  1
  Ru  Ru3  1  0.25000000  0.75000000  0.50000000  1
  Ru  Ru4  1  0.75000000  0.25000000  0.50000000  1
