# generated using pymatgen
data_Na3P11
_symmetry_space_group_name_H-M   'P 1'
_cell_length_a   9.91374100
_cell_length_b   10.63204900
_cell_length_c   12.61677300
_cell_angle_alpha   90.00000000
_cell_angle_beta   90.00000000
_cell_angle_gamma   90.00000000
_symmetry_Int_Tables_number   1
_chemical_formula_structural   Na3P11
_chemical_formula_sum   'Na12 P44'
_cell_volume   1329.85051997
_cell_formula_units_Z   4
loop_
 _symmetry_equiv_pos_site_id
 _symmetry_equiv_pos_as_xyz
  1  'x, y, z'
loop_
 _atom_site_type_symbol
 _atom_site_label
 _atom_site_symmetry_multiplicity
 _atom_site_fract_x
 _atom_site_fract_y
 _atom_site_fract_z
 _atom_site_occupancy
  Na  Na0  1  0.00000000  0.75000000  0.74880000  1
  Na  Na1  1  0.50000000  0.25000000  0.75120000  1
  Na  Na2  1  0.00000000  0.25000000  0.25120000  1
  Na  Na3  1  0.50000000  0.75000000  0.24880000  1
  Na  Na4  1  0.75312900  0.07744400  0.99242800  1
  Na  Na5  1  0.25312900  0.92255600  0.50757200  1
  Na  Na6  1  0.74687100  0.57744400  0.50757200  1
  Na  Na7  1  0.24687100  0.42255600  0.99242800  1
  Na  Na8  1  0.24687100  0.92255600  0.00757200  1
  Na  Na9  1  0.74687100  0.07744400  0.49242800  1
  Na  Na10  1  0.25312900  0.42255600  0.49242800  1
  Na  Na11  1  0.75312900  0.57744400  0.00757200  1
  P  P12  1  0.00000000  0.75000000  0.50287700  1
  P  P13  1  0.50000000  0.25000000  0.99712300  1
  P  P14  1  0.00000000  0.25000000  0.49712300  1
  P  P15  1  0.50000000  0.75000000  0.00287700  1
  P  P16  1  0.69133400  0.26263800  0.23257000  1
  P  P17  1  0.19133400  0.73736200  0.26743000  1
  P  P18  1  0.80866600  0.76263800  0.26743000  1
  P  P19  1  0.30866600  0.23736200  0.23257000  1
  P  P20  1  0.30866600  0.73736200  0.76743000  1
  P  P21  1  0.80866600  0.26263800  0.73257000  1
  P  P22  1  0.19133400  0.23736200  0.73257000  1
  P  P23  1  0.69133400  0.76263800  0.76743000  1
  P  P24  1  0.60345600  0.07013400  0.20039800  1
  P  P25  1  0.10345600  0.92986600  0.29960200  1
  P  P26  1  0.89654400  0.57013400  0.29960200  1
  P  P27  1  0.39654400  0.42986600  0.20039800  1
  P  P28  1  0.39654400  0.92986600  0.79960200  1
  P  P29  1  0.89654400  0.07013400  0.70039800  1
  P  P30  1  0.10345600  0.42986600  0.70039800  1
  P  P31  1  0.60345600  0.57013400  0.79960200  1
  P  P32  1  0.58311800  0.38171100  0.11239800  1
  P  P33  1  0.08311800  0.61828900  0.38760200  1
  P  P34  1  0.91688200  0.88171100  0.38760200  1
  P  P35  1  0.41688200  0.11828900  0.11239800  1
  P  P36  1  0.41688200  0.61828900  0.88760200  1
  P  P37  1  0.91688200  0.38171100  0.61239800  1
  P  P38  1  0.08311800  0.11828900  0.61239800  1
  P  P39  1  0.58311800  0.88171100  0.88760200  1
  P  P40  1  0.58651400  0.31645100  0.38524000  1
  P  P41  1  0.08651400  0.68354900  0.11476000  1
  P  P42  1  0.91348600  0.81645100  0.11476000  1
  P  P43  1  0.41348600  0.18354900  0.38524000  1
  P  P44  1  0.41348600  0.68354900  0.61476000  1
  P  P45  1  0.91348600  0.31645100  0.88524000  1
  P  P46  1  0.08651400  0.18354900  0.88524000  1
  P  P47  1  0.58651400  0.81645100  0.61476000  1
  P  P48  1  0.02314600  0.99095000  0.14742800  1
  P  P49  1  0.52314600  0.00905000  0.35257200  1
  P  P50  1  0.47685400  0.49095000  0.35257200  1
  P  P51  1  0.97685400  0.50905000  0.14742800  1
  P  P52  1  0.97685400  0.00905000  0.85257200  1
  P  P53  1  0.47685400  0.99095000  0.64742800  1
  P  P54  1  0.52314600  0.50905000  0.64742800  1
  P  P55  1  0.02314600  0.49095000  0.85257200  1
