# generated using pymatgen
data_CaMgSn
_symmetry_space_group_name_H-M   'P 1'
_cell_length_a   4.72007000
_cell_length_b   7.88123300
_cell_length_c   8.81831500
_cell_angle_alpha   90.00000000
_cell_angle_beta   90.00000000
_cell_angle_gamma   90.00000000
_symmetry_Int_Tables_number   1
_chemical_formula_structural   CaMgSn
_chemical_formula_sum   'Ca4 Mg4 Sn4'
_cell_volume   328.04106620
_cell_formula_units_Z   4
loop_
 _symmetry_equiv_pos_site_id
 _symmetry_equiv_pos_as_xyz
  1  'x, y, z'
loop_
 _atom_site_type_symbol
 _atom_site_label
 _atom_site_symmetry_multiplicity
 _atom_site_fract_x
 _atom_site_fract_y
 _atom_site_fract_z
 _atom_site_occupancy
  Ca  Ca0  1  0.75000000  0.48080400  0.68409600  1
  Ca  Ca1  1  0.75000000  0.98080400  0.81590400  1
  Ca  Ca2  1  0.25000000  0.51919600  0.31590400  1
  Ca  Ca3  1  0.25000000  0.01919600  0.18409600  1
  Mg  Mg4  1  0.75000000  0.85564300  0.43673100  1
  Mg  Mg5  1  0.25000000  0.14435700  0.56326900  1
  Mg  Mg6  1  0.25000000  0.64435700  0.93673100  1
  Mg  Mg7  1  0.75000000  0.35564300  0.06326900  1
  Sn  Sn8  1  0.75000000  0.73503900  0.11552200  1
  Sn  Sn9  1  0.25000000  0.26496100  0.88447800  1
  Sn  Sn10  1  0.75000000  0.23503900  0.38447800  1
  Sn  Sn11  1  0.25000000  0.76496100  0.61552200  1
