# generated using pymatgen
data_LaSiRu
_symmetry_space_group_name_H-M   'P 1'
_cell_length_a   4.26037800
_cell_length_b   4.26037800
_cell_length_c   7.16706600
_cell_angle_alpha   90.00000000
_cell_angle_beta   90.00000000
_cell_angle_gamma   90.00000000
_symmetry_Int_Tables_number   1
_chemical_formula_structural   LaSiRu
_chemical_formula_sum   'La2 Si2 Ru2'
_cell_volume   130.08812993
_cell_formula_units_Z   2
loop_
 _symmetry_equiv_pos_site_id
 _symmetry_equiv_pos_as_xyz
  1  'x, y, z'
loop_
 _atom_site_type_symbol
 _atom_site_label
 _atom_site_symmetry_multiplicity
 _atom_site_fract_x
 _atom_site_fract_y
 _atom_site_fract_z
 _atom_site_occupancy
  La  La0  1  0.00000000  0.50000000  0.31566300  1
  La  La1  1  0.50000000  0.00000000  0.68433700  1
  Si  Si2  1  0.00000000  0.50000000  0.83341400  1
  Si  Si3  1  0.50000000  0.00000000  0.16658600  1
  Ru  Ru4  1  0.00000000  0.00000000  0.00000000  1
  Ru  Ru5  1  0.50000000  0.50000000  0.00000000  1
