# generated using pymatgen
data_Na5GeP3
_symmetry_space_group_name_H-M   'P 1'
_cell_length_a   7.40148700
_cell_length_b   8.10447500
_cell_length_c   15.47099194
_cell_angle_alpha   58.63186268
_cell_angle_beta   90.00000000
_cell_angle_gamma   90.00000000
_symmetry_Int_Tables_number   1
_chemical_formula_structural   Na5GeP3
_chemical_formula_sum   'Na20 Ge4 P12'
_cell_volume   792.38953113
_cell_formula_units_Z   4
loop_
 _symmetry_equiv_pos_site_id
 _symmetry_equiv_pos_as_xyz
  1  'x, y, z'
loop_
 _atom_site_type_symbol
 _atom_site_label
 _atom_site_symmetry_multiplicity
 _atom_site_fract_x
 _atom_site_fract_y
 _atom_site_fract_z
 _atom_site_occupancy
  Na  Na0  1  0.85116500  0.16706300  0.75808300  1
  Na  Na1  1  0.16284200  0.15896500  0.91859600  1
  Na  Na2  1  0.66284200  0.84103500  0.58140400  1
  Na  Na3  1  0.83715800  0.84103500  0.08140400  1
  Na  Na4  1  0.50665000  0.56371300  0.25787100  1
  Na  Na5  1  0.00665000  0.43628700  0.24212900  1
  Na  Na6  1  0.49335000  0.43628700  0.74212900  1
  Na  Na7  1  0.99335000  0.56371300  0.75787100  1
  Na  Na8  1  0.98131500  0.91403700  0.41307500  1
  Na  Na9  1  0.48131500  0.08596300  0.08692500  1
  Na  Na10  1  0.01868500  0.08596300  0.58692500  1
  Na  Na11  1  0.51868500  0.91403700  0.91307500  1
  Na  Na12  1  0.53376000  0.24824100  0.58425500  1
  Na  Na13  1  0.03376000  0.75175900  0.91574500  1
  Na  Na14  1  0.46624000  0.75175900  0.41574500  1
  Na  Na15  1  0.35116500  0.83293700  0.74191700  1
  Na  Na16  1  0.14883500  0.83293700  0.24191700  1
  Na  Na17  1  0.64883500  0.16706300  0.25808300  1
  Na  Na18  1  0.96624000  0.24824100  0.08425500  1
  Na  Na19  1  0.33715800  0.15896500  0.41859600  1
  Ge  Ge20  1  0.64236800  0.51485500  0.91381800  1
  Ge  Ge21  1  0.14236800  0.48514500  0.58618200  1
  Ge  Ge22  1  0.35763200  0.48514500  0.08618200  1
  Ge  Ge23  1  0.85763200  0.51485500  0.41381800  1
  P  P24  1  0.76260300  0.23778200  0.91907200  1
  P  P25  1  0.76378900  0.81227000  0.27344100  1
  P  P26  1  0.26378900  0.18773000  0.22655900  1
  P  P27  1  0.23621100  0.18773000  0.72655900  1
  P  P28  1  0.18639100  0.47810700  0.43339200  1
  P  P29  1  0.68639100  0.52189300  0.06660800  1
  P  P30  1  0.81360900  0.52189300  0.56660800  1
  P  P31  1  0.31360900  0.47810700  0.93339200  1
  P  P32  1  0.73621100  0.81227000  0.77344100  1
  P  P33  1  0.23739700  0.76221800  0.08092800  1
  P  P34  1  0.26260300  0.76221800  0.58092800  1
  P  P35  1  0.73739700  0.23778200  0.41907200  1
