# generated using pymatgen
data_LaSi2Pt
_symmetry_space_group_name_H-M   'P 1'
_cell_length_a   8.74434197
_cell_length_b   8.74434197
_cell_length_c   4.28708200
_cell_angle_alpha   90.00000000
_cell_angle_beta   90.00000000
_cell_angle_gamma   150.99978853
_symmetry_Int_Tables_number   1
_chemical_formula_structural   LaSi2Pt
_chemical_formula_sum   'La2 Si4 Pt2'
_cell_volume   158.92425265
_cell_formula_units_Z   2
loop_
 _symmetry_equiv_pos_site_id
 _symmetry_equiv_pos_as_xyz
  1  'x, y, z'
loop_
 _atom_site_type_symbol
 _atom_site_label
 _atom_site_symmetry_multiplicity
 _atom_site_fract_x
 _atom_site_fract_y
 _atom_site_fract_z
 _atom_site_occupancy
  La  La0  1  0.10601100  0.89398900  0.25000000  1
  La  La1  1  0.89398900  0.10601100  0.75000000  1
  Si  Si2  1  0.75078000  0.24922000  0.25000000  1
  Si  Si3  1  0.24922000  0.75078000  0.75000000  1
  Si  Si4  1  0.53624600  0.46375400  0.75000000  1
  Si  Si5  1  0.46375400  0.53624600  0.25000000  1
  Pt  Pt6  1  0.68039700  0.31960300  0.75000000  1
  Pt  Pt7  1  0.31960300  0.68039700  0.25000000  1
