# generated using pymatgen
data_Ba(SbSe2)2
_symmetry_space_group_name_H-M   'P 1'
_cell_length_a   21.30377400
_cell_length_b   8.78131600
_cell_length_c   12.68212174
_cell_angle_alpha   47.15177116
_cell_angle_beta   90.00000000
_cell_angle_gamma   90.00000000
_symmetry_Int_Tables_number   1
_chemical_formula_structural   Ba(SbSe2)2
_chemical_formula_sum   'Ba8 Sb16 Se32'
_cell_volume   1739.42400911
_cell_formula_units_Z   8
loop_
 _symmetry_equiv_pos_site_id
 _symmetry_equiv_pos_as_xyz
  1  'x, y, z'
loop_
 _atom_site_type_symbol
 _atom_site_label
 _atom_site_symmetry_multiplicity
 _atom_site_fract_x
 _atom_site_fract_y
 _atom_site_fract_z
 _atom_site_occupancy
  Ba  Ba0  1  0.20463300  0.15602700  0.89835700  1
  Ba  Ba1  1  0.70463300  0.84397300  0.60164300  1
  Ba  Ba2  1  0.79536700  0.84397300  0.10164300  1
  Ba  Ba3  1  0.29536700  0.15602700  0.39835700  1
  Ba  Ba4  1  0.80548500  0.34460300  0.60049400  1
  Ba  Ba5  1  0.30548500  0.65539700  0.89950600  1
  Ba  Ba6  1  0.19451500  0.65539700  0.39950600  1
  Ba  Ba7  1  0.69451500  0.34460300  0.10049400  1
  Sb  Sb8  1  0.03401100  0.89570800  0.90945200  1
  Sb  Sb9  1  0.53401000  0.10429200  0.59054800  1
  Sb  Sb10  1  0.96598900  0.10429200  0.09054800  1
  Sb  Sb11  1  0.46598900  0.89570800  0.40945200  1
  Sb  Sb12  1  0.00532000  0.48653600  0.35479100  1
  Sb  Sb13  1  0.50532000  0.51346400  0.14520900  1
  Sb  Sb14  1  0.99468000  0.51346400  0.64520900  1
  Sb  Sb15  1  0.49468000  0.48653600  0.85479100  1
  Sb  Sb16  1  0.38785300  0.87027600  0.11989100  1
  Sb  Sb17  1  0.88785300  0.12972400  0.38010900  1
  Sb  Sb18  1  0.61214700  0.12972400  0.88010900  1
  Sb  Sb19  1  0.11214700  0.87027600  0.61989100  1
  Sb  Sb20  1  0.37853200  0.33758700  0.64732300  1
  Sb  Sb21  1  0.87853200  0.66241300  0.85267700  1
  Sb  Sb22  1  0.62146800  0.66241300  0.35267700  1
  Sb  Sb23  1  0.12146800  0.33758700  0.14732300  1
  Se  Se24  1  0.14579000  0.30423200  0.36594600  1
  Se  Se25  1  0.64579000  0.69576800  0.13405400  1
  Se  Se26  1  0.85421000  0.69576800  0.63405400  1
  Se  Se27  1  0.35421000  0.30423200  0.86594600  1
  Se  Se28  1  0.07514200  0.89393600  0.10696100  1
  Se  Se29  1  0.57514200  0.10606400  0.39303900  1
  Se  Se30  1  0.92485800  0.10606400  0.89303900  1
  Se  Se31  1  0.42485800  0.89393600  0.60696100  1
  Se  Se32  1  0.65298800  0.26724200  0.57175600  1
  Se  Se33  1  0.15298800  0.73275800  0.92824400  1
  Se  Se34  1  0.34701200  0.73275800  0.42824400  1
  Se  Se35  1  0.84701200  0.26724200  0.07175600  1
  Se  Se36  1  0.46668700  0.51944800  0.33684500  1
  Se  Se37  1  0.96668700  0.48055200  0.16315500  1
  Se  Se38  1  0.53331300  0.48055200  0.66315500  1
  Se  Se39  1  0.03331300  0.51944800  0.83684500  1
  Se  Se40  1  0.08664100  0.26895300  0.67987600  1
  Se  Se41  1  0.58664100  0.73104700  0.82012400  1
  Se  Se42  1  0.91335900  0.73104700  0.32012400  1
  Se  Se43  1  0.41335900  0.26895300  0.17987600  1
  Se  Se44  1  0.93777400  0.13995100  0.56955400  1
  Se  Se45  1  0.43777400  0.86004900  0.93044600  1
  Se  Se46  1  0.06222600  0.86004900  0.43044600  1
  Se  Se47  1  0.56222600  0.13995100  0.06955400  1
  Se  Se48  1  0.72820200  0.81567200  0.35262300  1
  Se  Se49  1  0.22820200  0.18432800  0.14737700  1
  Se  Se50  1  0.27179800  0.18432800  0.64737700  1
  Se  Se51  1  0.77179800  0.81567200  0.85262300  1
  Se  Se52  1  0.21831900  0.69595300  0.64861000  1
  Se  Se53  1  0.71831900  0.30404700  0.85139000  1
  Se  Se54  1  0.78168100  0.30404700  0.35139000  1
  Se  Se55  1  0.28168100  0.69595300  0.14861000  1
