# generated using pymatgen
data_SrAu2
_symmetry_space_group_name_H-M   'P 1'
_cell_length_a   6.14461058
_cell_length_b   6.14461058
_cell_length_c   6.14461058
_cell_angle_alpha   133.61044144
_cell_angle_beta   103.11150297
_cell_angle_gamma   94.78411999
_symmetry_Int_Tables_number   1
_chemical_formula_structural   SrAu2
_chemical_formula_sum   'Sr2 Au4'
_cell_volume   153.84211226
_cell_formula_units_Z   2
loop_
 _symmetry_equiv_pos_site_id
 _symmetry_equiv_pos_as_xyz
  1  'x, y, z'
loop_
 _atom_site_type_symbol
 _atom_site_label
 _atom_site_symmetry_multiplicity
 _atom_site_fract_x
 _atom_site_fract_y
 _atom_site_fract_z
 _atom_site_occupancy
  Sr  Sr0  1  0.71578600  0.46578600  0.25000000  1
  Sr  Sr1  1  0.28421400  0.53421400  0.75000000  1
  Au  Au2  1  0.29510500  0.83548200  0.45962300  1
  Au  Au3  1  0.70489500  0.16451800  0.54037700  1
  Au  Au4  1  0.87585900  0.83548200  0.04037700  1
  Au  Au5  1  0.12414100  0.16451800  0.95962300  1
