# generated using pymatgen
data_Nd(CuO2)2
_symmetry_space_group_name_H-M   'P 1'
_cell_length_a   6.39307039
_cell_length_b   6.39307039
_cell_length_c   6.39307039
_cell_angle_alpha   125.58912166
_cell_angle_beta   125.58912166
_cell_angle_gamma   80.56450225
_symmetry_Int_Tables_number   1
_chemical_formula_structural   Nd(CuO2)2
_chemical_formula_sum   'Nd2 Cu4 O8'
_cell_volume   166.65453941
_cell_formula_units_Z   2
loop_
 _symmetry_equiv_pos_site_id
 _symmetry_equiv_pos_as_xyz
  1  'x, y, z'
loop_
 _atom_site_type_symbol
 _atom_site_label
 _atom_site_symmetry_multiplicity
 _atom_site_fract_x
 _atom_site_fract_y
 _atom_site_fract_z
 _atom_site_occupancy
  Nd  Nd0  1  0.00000000  0.00000000  0.00000000  1
  Nd  Nd1  1  0.75000000  0.25000000  0.50000000  1
  Cu  Cu2  1  0.37500000  0.12500000  0.75000000  1
  Cu  Cu3  1  0.37500000  0.62500000  0.25000000  1
  Cu  Cu4  1  0.87500000  0.62500000  0.25000000  1
  Cu  Cu5  1  0.37500000  0.62500000  0.75000000  1
  O  O6  1  0.16711200  0.59453200  0.86302900  1
  O  O7  1  0.73150300  0.30408300  0.13697100  1
  O  O8  1  0.58288800  0.65546800  0.63697100  1
  O  O9  1  0.01849700  0.94591700  0.36302900  1
  O  O10  1  0.34453200  0.98150300  0.92742000  1
  O  O11  1  0.05408300  0.41711200  0.07258000  1
  O  O12  1  0.69591700  0.83288800  0.42742000  1
  O  O13  1  0.40546800  0.26849700  0.57258000  1
