# generated using pymatgen
data_Na2HgO2
_symmetry_space_group_name_H-M   'P 1'
_cell_length_a   7.19059841
_cell_length_b   7.19059841
_cell_length_c   7.19059841
_cell_angle_alpha   152.08556522
_cell_angle_beta   152.08556522
_cell_angle_gamma   39.88836193
_symmetry_Int_Tables_number   1
_chemical_formula_structural   Na2HgO2
_chemical_formula_sum   'Na2 Hg1 O2'
_cell_volume   81.32790718
_cell_formula_units_Z   1
loop_
 _symmetry_equiv_pos_site_id
 _symmetry_equiv_pos_as_xyz
  1  'x, y, z'
loop_
 _atom_site_type_symbol
 _atom_site_label
 _atom_site_symmetry_multiplicity
 _atom_site_fract_x
 _atom_site_fract_y
 _atom_site_fract_z
 _atom_site_occupancy
  Na  Na0  1  0.67647100  0.67647100  0.00000000  1
  Na  Na1  1  0.32352900  0.32352900  0.00000000  1
  Hg  Hg2  1  0.00000000  0.00000000  0.00000000  1
  O  O3  1  0.85106700  0.85106700  0.00000000  1
  O  O4  1  0.14893300  0.14893300  0.00000000  1
