# generated using pymatgen
data_Ge2N2O
_symmetry_space_group_name_H-M   'P 1'
_cell_length_a   5.54408233
_cell_length_b   5.54408233
_cell_length_c   5.17655800
_cell_angle_alpha   90.00000000
_cell_angle_beta   90.00000000
_cell_angle_gamma   116.49879236
_symmetry_Int_Tables_number   1
_chemical_formula_structural   Ge2N2O
_chemical_formula_sum   'Ge4 N4 O2'
_cell_volume   142.39547007
_cell_formula_units_Z   2
loop_
 _symmetry_equiv_pos_site_id
 _symmetry_equiv_pos_as_xyz
  1  'x, y, z'
loop_
 _atom_site_type_symbol
 _atom_site_label
 _atom_site_symmetry_multiplicity
 _atom_site_fract_x
 _atom_site_fract_y
 _atom_site_fract_z
 _atom_site_occupancy
  Ge  Ge0  1  0.02088500  0.67050200  0.61755500  1
  Ge  Ge1  1  0.97911500  0.32949800  0.11755500  1
  Ge  Ge2  1  0.32949800  0.97911500  0.11755500  1
  Ge  Ge3  1  0.67050200  0.02088500  0.61755500  1
  N  N4  1  0.33666200  0.91864600  0.76887600  1
  N  N5  1  0.66333800  0.08135400  0.26887600  1
  N  N6  1  0.08135400  0.66333800  0.26887600  1
  N  N7  1  0.91864600  0.33666200  0.76887600  1
  O  O8  1  0.75865500  0.75865500  0.69913900  1
  O  O9  1  0.24134500  0.24134500  0.19913900  1
