# generated using pymatgen
data_CaAl4O7
_symmetry_space_group_name_H-M   'P 1'
_cell_length_a   7.88671026
_cell_length_b   7.88671026
_cell_length_c   5.49729139
_cell_angle_alpha   76.63767062
_cell_angle_beta   76.63767062
_cell_angle_gamma   69.28948105
_symmetry_Int_Tables_number   1
_chemical_formula_structural   CaAl4O7
_chemical_formula_sum   'Ca2 Al8 O14'
_cell_volume   306.95748011
_cell_formula_units_Z   2
loop_
 _symmetry_equiv_pos_site_id
 _symmetry_equiv_pos_as_xyz
  1  'x, y, z'
loop_
 _atom_site_type_symbol
 _atom_site_label
 _atom_site_symmetry_multiplicity
 _atom_site_fract_x
 _atom_site_fract_y
 _atom_site_fract_z
 _atom_site_occupancy
  Ca  Ca0  1  0.80481200  0.19518800  0.75000000  1
  Ca  Ca1  1  0.19518800  0.80481200  0.25000000  1
  Al  Al2  1  0.31934800  0.43982000  0.74389100  1
  Al  Al3  1  0.56018000  0.68065100  0.75610900  1
  Al  Al4  1  0.68065100  0.56018000  0.25610900  1
  Al  Al5  1  0.43982000  0.31934900  0.24389100  1
  Al  Al6  1  0.92244000  0.75109700  0.80572200  1
  Al  Al7  1  0.24890300  0.07756000  0.69427800  1
  Al  Al8  1  0.07756000  0.24890300  0.19427800  1
  Al  Al9  1  0.75109700  0.92244000  0.30572200  1
  O  O10  1  0.25155700  0.36256900  0.07981500  1
  O  O11  1  0.63743100  0.74844300  0.42018500  1
  O  O12  1  0.74844300  0.63743100  0.92018500  1
  O  O13  1  0.36256900  0.25155700  0.57981500  1
  O  O14  1  0.13569300  0.62774000  0.65008200  1
  O  O15  1  0.37226000  0.86430700  0.84991800  1
  O  O16  1  0.86430700  0.37226000  0.34991800  1
  O  O17  1  0.62774000  0.13569300  0.15008200  1
  O  O18  1  0.93863800  0.83010100  0.07239700  1
  O  O19  1  0.16989900  0.06136200  0.42760300  1
  O  O20  1  0.46861300  0.53138700  0.25000000  1
  O  O21  1  0.53138700  0.46861300  0.75000000  1
  O  O22  1  0.83010100  0.93863800  0.57239700  1
  O  O23  1  0.06136200  0.16989900  0.92760300  1
