# generated using pymatgen
data_Cs4U5O17
_symmetry_space_group_name_H-M   'P 1'
_cell_length_a   7.11951100
_cell_length_b   15.39805700
_cell_length_c   19.03863200
_cell_angle_alpha   90.00000000
_cell_angle_beta   90.00000000
_cell_angle_gamma   90.00000000
_symmetry_Int_Tables_number   1
_chemical_formula_structural   Cs4U5O17
_chemical_formula_sum   'Cs16 U20 O68'
_cell_volume   2087.14118382
_cell_formula_units_Z   4
loop_
 _symmetry_equiv_pos_site_id
 _symmetry_equiv_pos_as_xyz
  1  'x, y, z'
loop_
 _atom_site_type_symbol
 _atom_site_label
 _atom_site_symmetry_multiplicity
 _atom_site_fract_x
 _atom_site_fract_y
 _atom_site_fract_z
 _atom_site_occupancy
  Cs  Cs0  1  0.29948900  0.45026900  0.30846800  1
  Cs  Cs1  1  0.29948900  0.04973100  0.69153200  1
  Cs  Cs2  1  0.20051100  0.95026900  0.19153200  1
  Cs  Cs3  1  0.20051100  0.54973100  0.80846800  1
  Cs  Cs4  1  0.70051100  0.54973100  0.69153200  1
  Cs  Cs5  1  0.70051100  0.95026900  0.30846800  1
  Cs  Cs6  1  0.79948900  0.04973100  0.80846800  1
  Cs  Cs7  1  0.79948900  0.45026900  0.19153200  1
  Cs  Cs8  1  0.27015600  0.47543900  0.05701400  1
  Cs  Cs9  1  0.27015600  0.02456100  0.94298600  1
  Cs  Cs10  1  0.22984400  0.97543900  0.44298600  1
  Cs  Cs11  1  0.22984400  0.52456100  0.55701400  1
  Cs  Cs12  1  0.72984400  0.52456100  0.94298600  1
  Cs  Cs13  1  0.72984400  0.97543900  0.05701400  1
  Cs  Cs14  1  0.77015600  0.02456100  0.55701400  1
  Cs  Cs15  1  0.77015600  0.47543900  0.44298600  1
  U  U16  1  0.62644300  0.25000000  0.00000000  1
  U  U17  1  0.87355700  0.75000000  0.50000000  1
  U  U18  1  0.37355700  0.75000000  0.00000000  1
  U  U19  1  0.12644300  0.25000000  0.50000000  1
  U  U20  1  0.07540900  0.21240400  0.10281900  1
  U  U21  1  0.07540900  0.28759600  0.89718100  1
  U  U22  1  0.42459100  0.71240400  0.39718100  1
  U  U23  1  0.42459100  0.78759600  0.60281900  1
  U  U24  1  0.92459100  0.78759600  0.89718100  1
  U  U25  1  0.92459100  0.71240400  0.10281900  1
  U  U26  1  0.57540900  0.28759600  0.60281900  1
  U  U27  1  0.57540900  0.21240400  0.39718100  1
  U  U28  1  0.02573700  0.19372400  0.31146600  1
  U  U29  1  0.02573700  0.30627600  0.68853400  1
  U  U30  1  0.47426300  0.69372400  0.18853400  1
  U  U31  1  0.47426300  0.80627600  0.81146600  1
  U  U32  1  0.97426300  0.80627600  0.68853400  1
  U  U33  1  0.97426300  0.69372400  0.31146600  1
  U  U34  1  0.52573700  0.30627600  0.81146600  1
  U  U35  1  0.52573700  0.19372400  0.18853400  1
  O  O36  1  0.89051400  0.21614200  0.41923000  1
  O  O37  1  0.89051400  0.28385800  0.58077000  1
  O  O38  1  0.60948600  0.71614200  0.08077000  1
  O  O39  1  0.60948600  0.78385800  0.91923000  1
  O  O40  1  0.10948600  0.78385800  0.58077000  1
  O  O41  1  0.10948600  0.71614200  0.41923000  1
  O  O42  1  0.39051400  0.28385800  0.91923000  1
  O  O43  1  0.39051400  0.21614200  0.08077000  1
  O  O44  1  0.50715900  0.31160000  0.20697900  1
  O  O45  1  0.50715900  0.18840000  0.79302100  1
  O  O46  1  0.99284100  0.81160000  0.29302100  1
  O  O47  1  0.99284100  0.68840000  0.70697900  1
  O  O48  1  0.49284100  0.68840000  0.79302100  1
  O  O49  1  0.49284100  0.81160000  0.20697900  1
  O  O50  1  0.00715900  0.18840000  0.70697900  1
  O  O51  1  0.00715900  0.31160000  0.29302100  1
  O  O52  1  0.54048500  0.07269300  0.17893300  1
  O  O53  1  0.54048500  0.42730700  0.82106700  1
  O  O54  1  0.95951500  0.57269300  0.32106700  1
  O  O55  1  0.95951500  0.92730700  0.67893300  1
  O  O56  1  0.45951500  0.92730700  0.82106700  1
  O  O57  1  0.45951500  0.57269300  0.17893300  1
  O  O58  1  0.04048500  0.42730700  0.67893300  1
  O  O59  1  0.04048500  0.07269300  0.32106700  1
  O  O60  1  0.62762300  0.36461700  0.02933800  1
  O  O61  1  0.23857700  0.78987400  0.88431200  1
  O  O62  1  0.62762300  0.13538300  0.97066200  1
  O  O63  1  0.87237700  0.63538300  0.52933800  1
  O  O64  1  0.37237700  0.63538300  0.97066200  1
  O  O65  1  0.37237700  0.86461700  0.02933800  1
  O  O66  1  0.12762300  0.13538300  0.52933800  1
  O  O67  1  0.12762300  0.36461700  0.47066200  1
  O  O68  1  0.76142300  0.21012600  0.11568800  1
  O  O69  1  0.76142300  0.28987400  0.88431200  1
  O  O70  1  0.73857700  0.71012600  0.38431200  1
  O  O71  1  0.73857700  0.78987400  0.61568800  1
  O  O72  1  0.96052000  0.25000000  0.00000000  1
  O  O73  1  0.53948000  0.75000000  0.50000000  1
  O  O74  1  0.03948000  0.75000000  0.00000000  1
  O  O75  1  0.46052000  0.25000000  0.50000000  1
  O  O76  1  0.07277300  0.09360800  0.08027000  1
  O  O77  1  0.07277300  0.40639200  0.91973000  1
  O  O78  1  0.42722700  0.59360800  0.41973000  1
  O  O79  1  0.42722700  0.90639200  0.58027000  1
  O  O80  1  0.92722700  0.90639200  0.91973000  1
  O  O81  1  0.92722700  0.59360800  0.08027000  1
  O  O82  1  0.57277300  0.40639200  0.58027000  1
  O  O83  1  0.57277300  0.09360800  0.41973000  1
  O  O84  1  0.08056200  0.32950100  0.12708000  1
  O  O85  1  0.08056200  0.17049900  0.87292000  1
  O  O86  1  0.41943800  0.82950100  0.37292000  1
  O  O87  1  0.41943800  0.67049900  0.62708000  1
  O  O88  1  0.91943800  0.67049900  0.87292000  1
  O  O89  1  0.91943800  0.82950100  0.12708000  1
  O  O90  1  0.58056200  0.17049900  0.62708000  1
  O  O91  1  0.58056200  0.32950100  0.37292000  1
  O  O92  1  0.20372700  0.17996500  0.21001500  1
  O  O93  1  0.20372700  0.32003500  0.78998500  1
  O  O94  1  0.29627300  0.67996500  0.28998500  1
  O  O95  1  0.29627300  0.82003500  0.71001500  1
  O  O96  1  0.79627300  0.82003500  0.78998500  1
  O  O97  1  0.79627300  0.67996500  0.21001500  1
  O  O98  1  0.70372700  0.32003500  0.71001500  1
  O  O99  1  0.70372700  0.17996500  0.28998500  1
  O  O100  1  0.26142300  0.21012600  0.38431200  1
  O  O101  1  0.26142300  0.28987400  0.61568800  1
  O  O102  1  0.23857700  0.71012600  0.11568800  1
  O  O103  1  0.87237700  0.86461700  0.47066200  1
