# generated using pymatgen
data_KPF6
_symmetry_space_group_name_H-M   'P 1'
_cell_length_a   4.88672629
_cell_length_b   4.88672629
_cell_length_c   4.88672632
_cell_angle_alpha   97.77556296
_cell_angle_beta   97.77556296
_cell_angle_gamma   97.77556664
_symmetry_Int_Tables_number   1
_chemical_formula_structural   KPF6
_chemical_formula_sum   'K1 P1 F6'
_cell_volume   113.14856457
_cell_formula_units_Z   1
loop_
 _symmetry_equiv_pos_site_id
 _symmetry_equiv_pos_as_xyz
  1  'x, y, z'
loop_
 _atom_site_type_symbol
 _atom_site_label
 _atom_site_symmetry_multiplicity
 _atom_site_fract_x
 _atom_site_fract_y
 _atom_site_fract_z
 _atom_site_occupancy
  K  K0  1  0.50000000  0.50000000  0.50000000  1
  P  P1  1  0.00000000  0.00000000  0.00000000  1
  F  F2  1  0.07566100  0.78663500  0.74199500  1
  F  F3  1  0.74199500  0.07566100  0.78663500  1
  F  F4  1  0.21336500  0.25800500  0.92433900  1
  F  F5  1  0.25800500  0.92433900  0.21336500  1
  F  F6  1  0.92433900  0.21336500  0.25800500  1
  F  F7  1  0.78663500  0.74199500  0.07566100  1
