# generated using pymatgen
data_CaSnO3
_symmetry_space_group_name_H-M   'P 1'
_cell_length_a   6.08188842
_cell_length_b   6.08188842
_cell_length_c   6.08188849
_cell_angle_alpha   54.51346515
_cell_angle_beta   54.51346515
_cell_angle_gamma   54.51345697
_symmetry_Int_Tables_number   1
_chemical_formula_structural   CaSnO3
_chemical_formula_sum   'Ca2 Sn2 O6'
_cell_volume   138.72827221
_cell_formula_units_Z   2
loop_
 _symmetry_equiv_pos_site_id
 _symmetry_equiv_pos_as_xyz
  1  'x, y, z'
loop_
 _atom_site_type_symbol
 _atom_site_label
 _atom_site_symmetry_multiplicity
 _atom_site_fract_x
 _atom_site_fract_y
 _atom_site_fract_z
 _atom_site_occupancy
  Ca  Ca0  1  0.36273300  0.36273300  0.36273300  1
  Ca  Ca1  1  0.63726700  0.63726700  0.63726700  1
  Sn  Sn2  1  0.15425800  0.15425800  0.15425800  1
  Sn  Sn3  1  0.84574200  0.84574200  0.84574200  1
  O  O4  1  0.44370100  0.79155300  0.03581100  1
  O  O5  1  0.03581100  0.44370100  0.79155300  1
  O  O6  1  0.79155300  0.03581100  0.44370100  1
  O  O7  1  0.55629900  0.20844700  0.96418900  1
  O  O8  1  0.20844700  0.96418900  0.55629900  1
  O  O9  1  0.96418900  0.55629900  0.20844700  1
