# generated using pymatgen
data_Er2(NiB2)3
_symmetry_space_group_name_H-M   'P 1'
_cell_length_a   5.76756720
_cell_length_b   5.76756720
_cell_length_c   3.45771400
_cell_angle_alpha   90.00000000
_cell_angle_beta   90.00000000
_cell_angle_gamma   96.49958080
_symmetry_Int_Tables_number   1
_chemical_formula_structural   Er2(NiB2)3
_chemical_formula_sum   'Er2 Ni3 B6'
_cell_volume   114.28100180
_cell_formula_units_Z   1
loop_
 _symmetry_equiv_pos_site_id
 _symmetry_equiv_pos_as_xyz
  1  'x, y, z'
loop_
 _atom_site_type_symbol
 _atom_site_label
 _atom_site_symmetry_multiplicity
 _atom_site_fract_x
 _atom_site_fract_y
 _atom_site_fract_z
 _atom_site_occupancy
  Er  Er0  1  0.27514300  0.72485700  0.00000000  1
  Er  Er1  1  0.72485700  0.27514200  0.00000000  1
  Ni  Ni2  1  0.22852800  0.22852800  0.00000000  1
  Ni  Ni3  1  0.77147200  0.77147200  0.00000000  1
  Ni  Ni4  1  0.00000000  0.00000000  0.50000000  1
  B  B5  1  0.61238300  0.61238300  0.50000000  1
  B  B6  1  0.38761700  0.38761700  0.50000000  1
  B  B7  1  0.61538200  0.91578700  0.50000000  1
  B  B8  1  0.38461800  0.08421300  0.50000000  1
  B  B9  1  0.91578700  0.61538200  0.50000000  1
  B  B10  1  0.08421300  0.38461800  0.50000000  1
