# generated using pymatgen
data_Sr2SnO4
_symmetry_space_group_name_H-M   'P 1'
_cell_length_a   5.87724300
_cell_length_b   5.87724300
_cell_length_c   12.52429600
_cell_angle_alpha   90.00000000
_cell_angle_beta   90.00000000
_cell_angle_gamma   90.00000000
_symmetry_Int_Tables_number   1
_chemical_formula_structural   Sr2SnO4
_chemical_formula_sum   'Sr8 Sn4 O16'
_cell_volume   432.61404809
_cell_formula_units_Z   4
loop_
 _symmetry_equiv_pos_site_id
 _symmetry_equiv_pos_as_xyz
  1  'x, y, z'
loop_
 _atom_site_type_symbol
 _atom_site_label
 _atom_site_symmetry_multiplicity
 _atom_site_fract_x
 _atom_site_fract_y
 _atom_site_fract_z
 _atom_site_occupancy
  Sr  Sr0  1  0.76473700  0.26473700  0.39687900  1
  Sr  Sr1  1  0.26473700  0.23526300  0.60312100  1
  Sr  Sr2  1  0.73526300  0.76473700  0.60312100  1
  Sr  Sr3  1  0.23526300  0.73526300  0.39687900  1
  Sr  Sr4  1  0.73526300  0.23526300  0.10312100  1
  Sr  Sr5  1  0.23526300  0.26473700  0.89687900  1
  Sr  Sr6  1  0.76473700  0.73526300  0.89687900  1
  Sr  Sr7  1  0.26473700  0.76473700  0.10312100  1
  Sn  Sn8  1  0.75000000  0.25000000  0.75000000  1
  Sn  Sn9  1  0.25000000  0.25000000  0.25000000  1
  Sn  Sn10  1  0.75000000  0.75000000  0.25000000  1
  Sn  Sn11  1  0.25000000  0.75000000  0.75000000  1
  O  O12  1  0.70607800  0.20607800  0.58665600  1
  O  O13  1  0.20607800  0.29392200  0.41334400  1
  O  O14  1  0.79392200  0.70607800  0.41334400  1
  O  O15  1  0.29392200  0.79392200  0.58665600  1
  O  O16  1  0.79392200  0.29392200  0.91334400  1
  O  O17  1  0.29392200  0.20607800  0.08665600  1
  O  O18  1  0.70607800  0.79392200  0.08665600  1
  O  O19  1  0.20607800  0.70607800  0.91334400  1
  O  O20  1  0.00000000  0.00000000  0.25000000  1
  O  O21  1  0.50000000  0.50000000  0.75000000  1
  O  O22  1  0.50000000  0.50000000  0.25000000  1
  O  O23  1  0.00000000  0.00000000  0.75000000  1
  O  O24  1  0.50000000  0.00000000  0.78083000  1
  O  O25  1  0.00000000  0.50000000  0.21917000  1
  O  O26  1  0.00000000  0.50000000  0.71917000  1
  O  O27  1  0.50000000  0.00000000  0.28083000  1
