# generated using pymatgen
data_ZrGeS
_symmetry_space_group_name_H-M   'P 1'
_cell_length_a   3.65605400
_cell_length_b   3.65605400
_cell_length_c   8.10889100
_cell_angle_alpha   90.00000000
_cell_angle_beta   90.00000000
_cell_angle_gamma   90.00000000
_symmetry_Int_Tables_number   1
_chemical_formula_structural   ZrGeS
_chemical_formula_sum   'Zr2 Ge2 S2'
_cell_volume   108.38936350
_cell_formula_units_Z   2
loop_
 _symmetry_equiv_pos_site_id
 _symmetry_equiv_pos_as_xyz
  1  'x, y, z'
loop_
 _atom_site_type_symbol
 _atom_site_label
 _atom_site_symmetry_multiplicity
 _atom_site_fract_x
 _atom_site_fract_y
 _atom_site_fract_z
 _atom_site_occupancy
  Zr  Zr0  1  0.00000000  0.50000000  0.72513000  1
  Zr  Zr1  1  0.50000000  0.00000000  0.27487000  1
  Ge  Ge2  1  0.50000000  0.50000000  0.00000000  1
  Ge  Ge3  1  0.00000000  0.00000000  0.00000000  1
  S  S4  1  0.00000000  0.50000000  0.37915900  1
  S  S5  1  0.50000000  0.00000000  0.62084100  1
