# generated using pymatgen
data_Sc3Fe2Si3
_symmetry_space_group_name_H-M   'P 1'
_cell_length_a   5.34184456
_cell_length_b   5.34184456
_cell_length_c   12.89573800
_cell_angle_alpha   90.00000000
_cell_angle_beta   90.00000000
_cell_angle_gamma   136.63570786
_symmetry_Int_Tables_number   1
_chemical_formula_structural   Sc3Fe2Si3
_chemical_formula_sum   'Sc6 Fe4 Si6'
_cell_volume   252.67039176
_cell_formula_units_Z   2
loop_
 _symmetry_equiv_pos_site_id
 _symmetry_equiv_pos_as_xyz
  1  'x, y, z'
loop_
 _atom_site_type_symbol
 _atom_site_label
 _atom_site_symmetry_multiplicity
 _atom_site_fract_x
 _atom_site_fract_y
 _atom_site_fract_z
 _atom_site_occupancy
  Sc  Sc0  1  0.63887600  0.36112400  0.75000000  1
  Sc  Sc1  1  0.91948900  0.08051100  0.61269000  1
  Sc  Sc2  1  0.91948900  0.08051100  0.88731000  1
  Sc  Sc3  1  0.08051100  0.91948900  0.11269000  1
  Sc  Sc4  1  0.36112400  0.63887600  0.25000000  1
  Sc  Sc5  1  0.08051100  0.91948900  0.38731000  1
  Fe  Fe6  1  0.78569700  0.21430300  0.08214200  1
  Fe  Fe7  1  0.21430300  0.78569700  0.58214200  1
  Fe  Fe8  1  0.78569700  0.21430300  0.41785800  1
  Fe  Fe9  1  0.21430300  0.78569700  0.91785800  1
  Si  Si10  1  0.67141800  0.32858200  0.25000000  1
  Si  Si11  1  0.38313100  0.61686900  0.45940100  1
  Si  Si12  1  0.38313100  0.61686900  0.04059900  1
  Si  Si13  1  0.61686900  0.38313100  0.54059900  1
  Si  Si14  1  0.32858200  0.67141800  0.75000000  1
  Si  Si15  1  0.61686900  0.38313100  0.95940100  1
