# generated using pymatgen
data_SrSeO4
_symmetry_space_group_name_H-M   'P 1'
_cell_length_a   7.48098000
_cell_length_b   6.97488000
_cell_length_c   8.78246171
_cell_angle_alpha   53.30836391
_cell_angle_beta   90.00000000
_cell_angle_gamma   90.00000000
_symmetry_Int_Tables_number   1
_chemical_formula_structural   SrSeO4
_chemical_formula_sum   'Sr4 Se4 O16'
_cell_volume   367.46129891
_cell_formula_units_Z   4
loop_
 _symmetry_equiv_pos_site_id
 _symmetry_equiv_pos_as_xyz
  1  'x, y, z'
loop_
 _atom_site_type_symbol
 _atom_site_label
 _atom_site_symmetry_multiplicity
 _atom_site_fract_x
 _atom_site_fract_y
 _atom_site_fract_z
 _atom_site_occupancy
  Sr  Sr0  1  0.65589100  0.81548700  0.28160000  1
  Sr  Sr1  1  0.15589100  0.18451300  0.21840000  1
  Sr  Sr2  1  0.34410900  0.18451300  0.71840000  1
  Sr  Sr3  1  0.84410900  0.81548700  0.78160000  1
  Se  Se4  1  0.66375100  0.30658800  0.30611900  1
  Se  Se5  1  0.16375100  0.69341200  0.19388100  1
  Se  Se6  1  0.33624900  0.69341200  0.69388100  1
  Se  Se7  1  0.83624900  0.30658800  0.80611900  1
  O  O8  1  0.71421400  0.58678700  0.12418300  1
  O  O9  1  0.21421400  0.41321300  0.37581700  1
  O  O10  1  0.28578600  0.41321300  0.87581700  1
  O  O11  1  0.78578600  0.58678700  0.62418300  1
  O  O12  1  0.60632800  0.33142600  0.47802100  1
  O  O13  1  0.10632800  0.66857400  0.02197900  1
  O  O14  1  0.39367200  0.66857400  0.52197900  1
  O  O15  1  0.89367200  0.33142600  0.97802100  1
  O  O16  1  0.99485300  0.18701100  0.75226000  1
  O  O17  1  0.49485300  0.81298900  0.74774000  1
  O  O18  1  0.00514700  0.81298900  0.24774000  1
  O  O19  1  0.50514700  0.18701100  0.25226000  1
  O  O20  1  0.66292200  0.11483500  0.88650900  1
  O  O21  1  0.16292200  0.88516500  0.61349100  1
  O  O22  1  0.33707800  0.88516500  0.11349100  1
  O  O23  1  0.83707800  0.11483500  0.38650900  1
