# generated using pymatgen
data_Al7FeCu2
_symmetry_space_group_name_H-M   'P 1'
_cell_length_a   6.31984300
_cell_length_b   6.31984300
_cell_length_c   14.76901000
_cell_angle_alpha   90.00000000
_cell_angle_beta   90.00000000
_cell_angle_gamma   90.00000000
_symmetry_Int_Tables_number   1
_chemical_formula_structural   Al7FeCu2
_chemical_formula_sum   'Al28 Fe4 Cu8'
_cell_volume   589.88039658
_cell_formula_units_Z   4
loop_
 _symmetry_equiv_pos_site_id
 _symmetry_equiv_pos_as_xyz
  1  'x, y, z'
loop_
 _atom_site_type_symbol
 _atom_site_label
 _atom_site_symmetry_multiplicity
 _atom_site_fract_x
 _atom_site_fract_y
 _atom_site_fract_z
 _atom_site_occupancy
  Al  Al0  1  0.00000000  0.00000000  0.13372700  1
  Al  Al1  1  0.50000000  0.50000000  0.36627300  1
  Al  Al2  1  0.00000000  0.00000000  0.86627300  1
  Al  Al3  1  0.50000000  0.50000000  0.63372700  1
  Al  Al4  1  0.91451600  0.70608900  0.60059500  1
  Al  Al5  1  0.08548400  0.29391100  0.60059500  1
  Al  Al6  1  0.20608900  0.41451600  0.89940500  1
  Al  Al7  1  0.70608900  0.08548400  0.60059500  1
  Al  Al8  1  0.29391100  0.91451600  0.60059500  1
  Al  Al9  1  0.58548400  0.20608900  0.89940500  1
  Al  Al10  1  0.41451600  0.79391100  0.89940500  1
  Al  Al11  1  0.79391100  0.58548400  0.89940500  1
  Al  Al12  1  0.08548400  0.29391100  0.39940500  1
  Al  Al13  1  0.91451600  0.70608900  0.39940500  1
  Al  Al14  1  0.79391100  0.58548400  0.10059500  1
  Al  Al15  1  0.29391100  0.91451600  0.39940500  1
  Al  Al16  1  0.16208300  0.66208300  0.25000000  1
  Al  Al17  1  0.33791700  0.16208300  0.25000000  1
  Al  Al18  1  0.66208300  0.83791700  0.25000000  1
  Al  Al19  1  0.83791700  0.33791700  0.25000000  1
  Al  Al20  1  0.83791700  0.33791700  0.75000000  1
  Al  Al21  1  0.66208300  0.83791700  0.75000000  1
  Al  Al22  1  0.33791700  0.16208300  0.75000000  1
  Al  Al23  1  0.16208300  0.66208300  0.75000000  1
  Al  Al24  1  0.20608900  0.41451600  0.10059500  1
  Al  Al25  1  0.58548400  0.20608900  0.10059500  1
  Al  Al26  1  0.41451600  0.79391100  0.10059500  1
  Al  Al27  1  0.70608900  0.08548400  0.39940500  1
  Fe  Fe28  1  0.00000000  0.00000000  0.29935300  1
  Fe  Fe29  1  0.50000000  0.50000000  0.20064700  1
  Fe  Fe30  1  0.00000000  0.00000000  0.70064700  1
  Fe  Fe31  1  0.50000000  0.50000000  0.79935300  1
  Cu  Cu32  1  0.77306200  0.41505200  0.50000000  1
  Cu  Cu33  1  0.08494800  0.72693800  0.00000000  1
  Cu  Cu34  1  0.91505200  0.27306200  0.00000000  1
  Cu  Cu35  1  0.27306200  0.08494800  0.00000000  1
  Cu  Cu36  1  0.22693800  0.58494800  0.50000000  1
  Cu  Cu37  1  0.72693800  0.91505200  0.00000000  1
  Cu  Cu38  1  0.58494800  0.77306200  0.50000000  1
  Cu  Cu39  1  0.41505200  0.22693800  0.50000000  1
