# generated using pymatgen
data_Tl3SbSe3
_symmetry_space_group_name_H-M   'P 1'
_cell_length_a   9.70668400
_cell_length_b   9.70668400
_cell_length_c   9.70668400
_cell_angle_alpha   90.00000000
_cell_angle_beta   90.00000000
_cell_angle_gamma   90.00000000
_symmetry_Int_Tables_number   1
_chemical_formula_structural   Tl3SbSe3
_chemical_formula_sum   'Tl12 Sb4 Se12'
_cell_volume   914.56099305
_cell_formula_units_Z   4
loop_
 _symmetry_equiv_pos_site_id
 _symmetry_equiv_pos_as_xyz
  1  'x, y, z'
loop_
 _atom_site_type_symbol
 _atom_site_label
 _atom_site_symmetry_multiplicity
 _atom_site_fract_x
 _atom_site_fract_y
 _atom_site_fract_z
 _atom_site_occupancy
  Tl  Tl0  1  0.68741500  0.81258500  0.18741500  1
  Tl  Tl1  1  0.81258500  0.18741500  0.68741500  1
  Tl  Tl2  1  0.18741500  0.68741500  0.81258500  1
  Tl  Tl3  1  0.31258500  0.31258500  0.31258500  1
  Tl  Tl4  1  0.45016700  0.04983300  0.95016700  1
  Tl  Tl5  1  0.04983300  0.95016700  0.45016700  1
  Tl  Tl6  1  0.95016700  0.45016700  0.04983300  1
  Tl  Tl7  1  0.54983300  0.54983300  0.54983300  1
  Tl  Tl8  1  0.91392800  0.58607200  0.41392800  1
  Tl  Tl9  1  0.58607200  0.41392800  0.91392800  1
  Tl  Tl10  1  0.41392800  0.91392800  0.58607200  1
  Tl  Tl11  1  0.08607200  0.08607200  0.08607200  1
  Sb  Sb12  1  0.79906800  0.79906800  0.79906800  1
  Sb  Sb13  1  0.70093200  0.20093200  0.29906800  1
  Sb  Sb14  1  0.29906800  0.70093200  0.20093200  1
  Sb  Sb15  1  0.20093200  0.29906800  0.70093200  1
  Se  Se16  1  0.89092900  0.55185900  0.74106500  1
  Se  Se17  1  0.39092900  0.94814100  0.25893500  1
  Se  Se18  1  0.10907100  0.05185900  0.75893500  1
  Se  Se19  1  0.94814100  0.25893500  0.39092900  1
  Se  Se20  1  0.75893500  0.10907100  0.05185900  1
  Se  Se21  1  0.25893500  0.39092900  0.94814100  1
  Se  Se22  1  0.55185900  0.74106500  0.89092900  1
  Se  Se23  1  0.74106500  0.89092900  0.55185900  1
  Se  Se24  1  0.05185900  0.75893500  0.10907100  1
  Se  Se25  1  0.44814100  0.24106500  0.60907100  1
  Se  Se26  1  0.24106500  0.60907100  0.44814100  1
  Se  Se27  1  0.60907100  0.44814100  0.24106500  1
