# generated using pymatgen
data_Gd2CuO4
_symmetry_space_group_name_H-M   'P 1'
_cell_length_a   5.52873428
_cell_length_b   5.52852498
_cell_length_c   6.59413986
_cell_angle_alpha   89.99838146
_cell_angle_beta   65.21766207
_cell_angle_gamma   89.99605749
_symmetry_Int_Tables_number   1
_chemical_formula_structural   Gd2CuO4
_chemical_formula_sum   'Gd4 Cu2 O8'
_cell_volume   182.99296130
_cell_formula_units_Z   2
loop_
 _symmetry_equiv_pos_site_id
 _symmetry_equiv_pos_as_xyz
  1  'x, y, z'
loop_
 _atom_site_type_symbol
 _atom_site_label
 _atom_site_symmetry_multiplicity
 _atom_site_fract_x
 _atom_site_fract_y
 _atom_site_fract_z
 _atom_site_occupancy
  Gd  Gd0  1  0.15088900  0.50000000  0.69823100  1
  Gd  Gd1  1  0.34928600  0.00000000  0.30142700  1
  Gd  Gd2  1  0.84929000  0.50000000  0.30141800  1
  Gd  Gd3  1  0.65063500  0.00000000  0.69873300  1
  Cu  Cu4  1  0.49997700  0.50000200  0.00004100  1
  Cu  Cu5  1  0.99997800  0.00000100  0.00003700  1
  O  O6  1  0.99995500  0.24998100  0.50004200  1
  O  O7  1  0.50000900  0.75001400  0.50003800  1
  O  O8  1  0.50005600  0.24999000  0.49994600  1
  O  O9  1  0.00000200  0.75001400  0.49994900  1
  O  O10  1  0.24989600  0.75012300  0.00003600  1
  O  O11  1  0.75006600  0.24987500  0.00003100  1
  O  O12  1  0.24990200  0.24987400  0.00003700  1
  O  O13  1  0.75005900  0.75012600  0.00003200  1
