# generated using pymatgen
data_LaGaS3
_symmetry_space_group_name_H-M   'P 1'
_cell_length_a   10.61392800
_cell_length_b   10.43698900
_cell_length_c   12.94293648
_cell_angle_alpha   81.15577526
_cell_angle_beta   90.00000000
_cell_angle_gamma   90.00000000
_symmetry_Int_Tables_number   1
_chemical_formula_structural   LaGaS3
_chemical_formula_sum   'La12 Ga12 S36'
_cell_volume   1416.73779026
_cell_formula_units_Z   12
loop_
 _symmetry_equiv_pos_site_id
 _symmetry_equiv_pos_as_xyz
  1  'x, y, z'
loop_
 _atom_site_type_symbol
 _atom_site_label
 _atom_site_symmetry_multiplicity
 _atom_site_fract_x
 _atom_site_fract_y
 _atom_site_fract_z
 _atom_site_occupancy
  La  La0  1  0.03064100  0.05724500  0.67222700  1
  La  La1  1  0.53064100  0.94275500  0.82777300  1
  La  La2  1  0.96935900  0.94275500  0.32777300  1
  La  La3  1  0.46935900  0.05724500  0.17222700  1
  La  La4  1  0.05280600  0.48451200  0.67510800  1
  La  La5  1  0.55280600  0.51548800  0.82489200  1
  La  La6  1  0.94719400  0.51548800  0.32489200  1
  La  La7  1  0.44719400  0.48451200  0.17510800  1
  La  La8  1  0.14395200  0.81393800  0.05845900  1
  La  La9  1  0.64395200  0.18606200  0.44154100  1
  La  La10  1  0.85604800  0.18606200  0.94154100  1
  La  La11  1  0.35604800  0.81393800  0.55845900  1
  Ga  Ga12  1  0.08140000  0.25194300  0.14597500  1
  Ga  Ga13  1  0.58140000  0.74805700  0.35402500  1
  Ga  Ga14  1  0.91860000  0.74805700  0.85402500  1
  Ga  Ga15  1  0.41860000  0.25194300  0.64597500  1
  Ga  Ga16  1  0.22916700  0.19859100  0.42363300  1
  Ga  Ga17  1  0.72916700  0.80140900  0.07636700  1
  Ga  Ga18  1  0.77083300  0.80140900  0.57636700  1
  Ga  Ga19  1  0.27083300  0.19859100  0.92363300  1
  Ga  Ga20  1  0.25332100  0.68669000  0.83114100  1
  Ga  Ga21  1  0.75332100  0.31331000  0.66885900  1
  Ga  Ga22  1  0.74667900  0.31331000  0.16885900  1
  Ga  Ga23  1  0.24667900  0.68669000  0.33114100  1
  S  S24  1  0.23331000  0.89491800  0.24936100  1
  S  S25  1  0.73331000  0.10508200  0.25063900  1
  S  S26  1  0.76669000  0.10508200  0.75063900  1
  S  S27  1  0.26669000  0.89491800  0.74936100  1
  S  S28  1  0.27818200  0.29329100  0.07619600  1
  S  S29  1  0.77818200  0.70670900  0.42380400  1
  S  S30  1  0.72181800  0.70670900  0.92380400  1
  S  S31  1  0.22181800  0.29329100  0.57619600  1
  S  S32  1  0.31005200  0.56451100  0.70567900  1
  S  S33  1  0.81005200  0.43548900  0.79432100  1
  S  S34  1  0.68994800  0.43548900  0.29432100  1
  S  S35  1  0.18994800  0.56451100  0.20567900  1
  S  S36  1  0.33777100  0.99387200  0.98605500  1
  S  S37  1  0.83777100  0.00612800  0.51394500  1
  S  S38  1  0.45101600  0.24919700  0.82286400  1
  S  S39  1  0.66222900  0.00612800  0.01394500  1
  S  S40  1  0.41193400  0.66820900  0.95491100  1
  S  S41  1  0.91193400  0.33179100  0.54508900  1
  S  S42  1  0.58806600  0.33179100  0.04508900  1
  S  S43  1  0.08806600  0.66820900  0.45491100  1
  S  S44  1  0.40658000  0.24741700  0.32591200  1
  S  S45  1  0.90658000  0.75258300  0.17408800  1
  S  S46  1  0.59342000  0.75258300  0.67408800  1
  S  S47  1  0.09342000  0.24741700  0.82591200  1
  S  S48  1  0.01370400  0.05885900  0.10835000  1
  S  S49  1  0.51370400  0.94114100  0.39165000  1
  S  S50  1  0.98629600  0.94114100  0.89165000  1
  S  S51  1  0.48629600  0.05885900  0.60835000  1
  S  S52  1  0.07632500  0.60461300  0.91766100  1
  S  S53  1  0.57632500  0.39538700  0.58233900  1
  S  S54  1  0.92367500  0.39538700  0.08233900  1
  S  S55  1  0.42367500  0.60461300  0.41766100  1
  S  S56  1  0.04898400  0.24919700  0.32286400  1
  S  S57  1  0.54898400  0.75080300  0.17713600  1
  S  S58  1  0.95101600  0.75080300  0.67713600  1
  S  S59  1  0.16222900  0.99387200  0.48605500  1
