# generated using pymatgen
data_Ba(NO3)2
_symmetry_space_group_name_H-M   'P 1'
_cell_length_a   8.29526900
_cell_length_b   8.29526900
_cell_length_c   8.29526900
_cell_angle_alpha   90.00000000
_cell_angle_beta   90.00000000
_cell_angle_gamma   90.00000000
_symmetry_Int_Tables_number   1
_chemical_formula_structural   Ba(NO3)2
_chemical_formula_sum   'Ba4 N8 O24'
_cell_volume   570.80980144
_cell_formula_units_Z   4
loop_
 _symmetry_equiv_pos_site_id
 _symmetry_equiv_pos_as_xyz
  1  'x, y, z'
loop_
 _atom_site_type_symbol
 _atom_site_label
 _atom_site_symmetry_multiplicity
 _atom_site_fract_x
 _atom_site_fract_y
 _atom_site_fract_z
 _atom_site_occupancy
  Ba  Ba0  1  0.00000000  0.50000000  0.50000000  1
  Ba  Ba1  1  0.50000000  0.50000000  0.00000000  1
  Ba  Ba2  1  0.50000000  0.00000000  0.50000000  1
  Ba  Ba3  1  0.00000000  0.00000000  0.00000000  1
  N  N4  1  0.34449300  0.34449300  0.34449300  1
  N  N5  1  0.34449300  0.15550700  0.84449300  1
  N  N6  1  0.15550700  0.84449300  0.34449300  1
  N  N7  1  0.84449300  0.34449300  0.15550700  1
  N  N8  1  0.65550700  0.65550700  0.65550700  1
  N  N9  1  0.15550700  0.65550700  0.84449300  1
  N  N10  1  0.84449300  0.15550700  0.65550700  1
  N  N11  1  0.65550700  0.84449300  0.15550700  1
  O  O12  1  0.77907600  0.28507000  0.03066200  1
  O  O13  1  0.21493000  0.96933800  0.27907600  1
  O  O14  1  0.22092400  0.78507000  0.46933800  1
  O  O15  1  0.27907600  0.21493000  0.96933800  1
  O  O16  1  0.27907600  0.28507000  0.46933800  1
  O  O17  1  0.46933800  0.27907600  0.28507000  1
  O  O18  1  0.28507000  0.46933800  0.27907600  1
  O  O19  1  0.21493000  0.53066200  0.77907600  1
  O  O20  1  0.96933800  0.22092400  0.71493000  1
  O  O21  1  0.71493000  0.96933800  0.22092400  1
  O  O22  1  0.03066200  0.72092400  0.78507000  1
  O  O23  1  0.53066200  0.77907600  0.21493000  1
  O  O24  1  0.78507000  0.03066200  0.72092400  1
  O  O25  1  0.77907600  0.21493000  0.53066200  1
  O  O26  1  0.72092400  0.78507000  0.03066200  1
  O  O27  1  0.22092400  0.71493000  0.96933800  1
  O  O28  1  0.72092400  0.71493000  0.53066200  1
  O  O29  1  0.53066200  0.72092400  0.71493000  1
  O  O30  1  0.71493000  0.53066200  0.72092400  1
  O  O31  1  0.78507000  0.46933800  0.22092400  1
  O  O32  1  0.03066200  0.77907600  0.28507000  1
  O  O33  1  0.28507000  0.03066200  0.77907600  1
  O  O34  1  0.96933800  0.27907600  0.21493000  1
  O  O35  1  0.46933800  0.22092400  0.78507000  1
