# generated using pymatgen
data_SrNb2O6
_symmetry_space_group_name_H-M   'P 1'
_cell_length_a   5.65794000
_cell_length_b   7.85003200
_cell_length_c   11.22009006
_cell_angle_alpha   89.69015950
_cell_angle_beta   90.00000000
_cell_angle_gamma   90.00000000
_symmetry_Int_Tables_number   1
_chemical_formula_structural   SrNb2O6
_chemical_formula_sum   'Sr4 Nb8 O24'
_cell_volume   498.33312610
_cell_formula_units_Z   4
loop_
 _symmetry_equiv_pos_site_id
 _symmetry_equiv_pos_as_xyz
  1  'x, y, z'
loop_
 _atom_site_type_symbol
 _atom_site_label
 _atom_site_symmetry_multiplicity
 _atom_site_fract_x
 _atom_site_fract_y
 _atom_site_fract_z
 _atom_site_occupancy
  Sr  Sr0  1  0.46478700  0.24991400  0.96021500  1
  Sr  Sr1  1  0.96478700  0.75008600  0.53978500  1
  Sr  Sr2  1  0.53521300  0.75008600  0.03978500  1
  Sr  Sr3  1  0.03521300  0.24991400  0.46021500  1
  Nb  Nb4  1  0.52387200  0.01430800  0.35620400  1
  Nb  Nb5  1  0.02387200  0.98569200  0.14379600  1
  Nb  Nb6  1  0.47612800  0.98569200  0.64379600  1
  Nb  Nb7  1  0.97612800  0.01430800  0.85620400  1
  Nb  Nb8  1  0.53323400  0.52603500  0.35770900  1
  Nb  Nb9  1  0.03323400  0.47396500  0.14229100  1
  Nb  Nb10  1  0.46676600  0.47396500  0.64229100  1
  Nb  Nb11  1  0.96676600  0.52603500  0.85770900  1
  O  O12  1  0.64214800  0.75160100  0.37183400  1
  O  O13  1  0.14214800  0.24839900  0.12816600  1
  O  O14  1  0.35785200  0.24839900  0.62816600  1
  O  O15  1  0.85785200  0.75160100  0.87183400  1
  O  O16  1  0.46391500  0.25076200  0.35395800  1
  O  O17  1  0.96391500  0.74923800  0.14604200  1
  O  O18  1  0.53608500  0.74923800  0.64604200  1
  O  O19  1  0.03608500  0.25076200  0.85395800  1
  O  O20  1  0.64378100  0.44756900  0.78626600  1
  O  O21  1  0.14378100  0.55243100  0.71373400  1
  O  O22  1  0.35621900  0.55243100  0.21373400  1
  O  O23  1  0.85621900  0.44756900  0.28626600  1
  O  O24  1  0.77911700  0.03377500  0.02526700  1
  O  O25  1  0.27911700  0.96622500  0.47473300  1
  O  O26  1  0.22088300  0.96622500  0.97473300  1
  O  O27  1  0.72088300  0.03377500  0.52526700  1
  O  O28  1  0.72161400  0.46635000  0.52526700  1
  O  O29  1  0.22161400  0.53365000  0.97473300  1
  O  O30  1  0.27838600  0.53365000  0.47473300  1
  O  O31  1  0.77838600  0.46635000  0.02526700  1
  O  O32  1  0.63812800  0.04881200  0.78742000  1
  O  O33  1  0.13812800  0.95118800  0.71258000  1
  O  O34  1  0.36187200  0.95118800  0.21258000  1
  O  O35  1  0.86187200  0.04881200  0.28742000  1
