# generated using pymatgen
data_KGaO2
_symmetry_space_group_name_H-M   'P 1'
_cell_length_a   5.61039900
_cell_length_b   11.25135900
_cell_length_c   15.95816000
_cell_angle_alpha   90.00000000
_cell_angle_beta   90.00000000
_cell_angle_gamma   90.00000000
_symmetry_Int_Tables_number   1
_chemical_formula_structural   KGaO2
_chemical_formula_sum   'K16 Ga16 O32'
_cell_volume   1007.35267870
_cell_formula_units_Z   16
loop_
 _symmetry_equiv_pos_site_id
 _symmetry_equiv_pos_as_xyz
  1  'x, y, z'
loop_
 _atom_site_type_symbol
 _atom_site_label
 _atom_site_symmetry_multiplicity
 _atom_site_fract_x
 _atom_site_fract_y
 _atom_site_fract_z
 _atom_site_occupancy
  K  K0  1  0.29375100  0.26634200  0.31611900  1
  K  K1  1  0.79375100  0.23365800  0.68388100  1
  K  K2  1  0.70624900  0.76634200  0.18388100  1
  K  K3  1  0.20624900  0.73365800  0.81611900  1
  K  K4  1  0.70624900  0.73365800  0.68388100  1
  K  K5  1  0.20624900  0.76634200  0.31611900  1
  K  K6  1  0.29375100  0.23365800  0.81611900  1
  K  K7  1  0.79375100  0.26634200  0.18388100  1
  K  K8  1  0.25709100  0.01387000  0.43931100  1
  K  K9  1  0.75709100  0.48613000  0.56068900  1
  K  K10  1  0.74290900  0.51387000  0.06068900  1
  K  K11  1  0.24290900  0.98613000  0.93931100  1
  K  K12  1  0.74290900  0.98613000  0.56068900  1
  K  K13  1  0.24290900  0.51387000  0.43931100  1
  K  K14  1  0.25709100  0.48613000  0.93931100  1
  K  K15  1  0.75709100  0.01387000  0.06068900  1
  Ga  Ga16  1  0.77777300  0.26253800  0.43549300  1
  Ga  Ga17  1  0.27777300  0.23746200  0.56450700  1
  Ga  Ga18  1  0.22222700  0.76253800  0.06450700  1
  Ga  Ga19  1  0.72222700  0.73746200  0.93549300  1
  Ga  Ga20  1  0.22222700  0.73746200  0.56450700  1
  Ga  Ga21  1  0.72222700  0.76253800  0.43549300  1
  Ga  Ga22  1  0.77777300  0.23746200  0.93549300  1
  Ga  Ga23  1  0.27777300  0.26253800  0.06450700  1
  Ga  Ga24  1  0.76668100  0.00934400  0.31098200  1
  Ga  Ga25  1  0.26668100  0.49065600  0.68901800  1
  Ga  Ga26  1  0.23331900  0.50934400  0.18901800  1
  Ga  Ga27  1  0.73331900  0.99065600  0.81098200  1
  Ga  Ga28  1  0.23331900  0.99065600  0.68901800  1
  Ga  Ga29  1  0.73331900  0.50934400  0.31098200  1
  Ga  Ga30  1  0.76668100  0.49065600  0.81098200  1
  Ga  Ga31  1  0.26668100  0.00934400  0.18901800  1
  O  O32  1  0.44581100  0.98064700  0.28615000  1
  O  O33  1  0.94581100  0.51935300  0.71385000  1
  O  O34  1  0.55418900  0.48064700  0.21385000  1
  O  O35  1  0.05418900  0.01935300  0.78615000  1
  O  O36  1  0.55418900  0.01935300  0.71385000  1
  O  O37  1  0.05418900  0.48064700  0.28615000  1
  O  O38  1  0.44581100  0.51935300  0.78615000  1
  O  O39  1  0.94581100  0.98064700  0.21385000  1
  O  O40  1  0.83919600  0.16546800  0.34324200  1
  O  O41  1  0.33919600  0.33453200  0.65675800  1
  O  O42  1  0.16080400  0.66546800  0.15675800  1
  O  O43  1  0.66080400  0.83453200  0.84324200  1
  O  O44  1  0.16080400  0.83453200  0.65675800  1
  O  O45  1  0.66080400  0.66546800  0.34324200  1
  O  O46  1  0.83919600  0.33453200  0.84324200  1
  O  O47  1  0.56091600  0.30551300  0.01009800  1
  O  O48  1  0.64523500  0.40602300  0.39765800  1
  O  O49  1  0.14523500  0.09397700  0.60234200  1
  O  O50  1  0.35476500  0.90602300  0.10234200  1
  O  O51  1  0.85476500  0.59397700  0.89765800  1
  O  O52  1  0.35476500  0.59397700  0.60234200  1
  O  O53  1  0.85476500  0.90602300  0.39765800  1
  O  O54  1  0.64523500  0.09397700  0.89765800  1
  O  O55  1  0.14523500  0.40602300  0.10234200  1
  O  O56  1  0.06091600  0.30551300  0.48990200  1
  O  O57  1  0.56091600  0.19448700  0.51009800  1
  O  O58  1  0.93908400  0.80551300  0.01009800  1
  O  O59  1  0.43908400  0.69448700  0.98990200  1
  O  O60  1  0.93908400  0.69448700  0.51009800  1
  O  O61  1  0.43908400  0.80551300  0.48990200  1
  O  O62  1  0.06091600  0.19448700  0.98990200  1
  O  O63  1  0.33919600  0.16546800  0.15675800  1
