# generated using pymatgen
data_Na6Sn2S7
_symmetry_space_group_name_H-M   'P 1'
_cell_length_a   7.22199846
_cell_length_b   7.22199846
_cell_length_c   15.34021656
_cell_angle_alpha   80.10128518
_cell_angle_beta   80.10128518
_cell_angle_gamma   97.00239320
_symmetry_Int_Tables_number   1
_chemical_formula_structural   Na6Sn2S7
_chemical_formula_sum   'Na12 Sn4 S14'
_cell_volume   766.94364765
_cell_formula_units_Z   2
loop_
 _symmetry_equiv_pos_site_id
 _symmetry_equiv_pos_as_xyz
  1  'x, y, z'
loop_
 _atom_site_type_symbol
 _atom_site_label
 _atom_site_symmetry_multiplicity
 _atom_site_fract_x
 _atom_site_fract_y
 _atom_site_fract_z
 _atom_site_occupancy
  Na  Na0  1  0.95134200  0.23883200  0.42732800  1
  Na  Na1  1  0.76116800  0.04865800  0.07267200  1
  Na  Na2  1  0.04865800  0.76116800  0.57267200  1
  Na  Na3  1  0.23883200  0.95134200  0.92732800  1
  Na  Na4  1  0.50371900  0.96186100  0.63642100  1
  Na  Na5  1  0.03813900  0.49628100  0.86357900  1
  Na  Na6  1  0.43159000  0.56841000  0.25000000  1
  Na  Na7  1  0.56841000  0.43159000  0.75000000  1
  Na  Na8  1  0.50000000  0.50000000  0.00000000  1
  Na  Na9  1  0.50000000  0.50000000  0.50000000  1
  Na  Na10  1  0.49628100  0.03813900  0.36357900  1
  Na  Na11  1  0.96186100  0.50371900  0.13642100  1
  Sn  Sn12  1  0.24826400  0.07052900  0.13737600  1
  Sn  Sn13  1  0.92947100  0.75173600  0.36262400  1
  Sn  Sn14  1  0.75173600  0.92947100  0.86262400  1
  Sn  Sn15  1  0.07052900  0.24826400  0.63737600  1
  S  S16  1  0.77094700  0.31131100  0.60364400  1
  S  S17  1  0.22905300  0.68868900  0.39635600  1
  S  S18  1  0.85703600  0.73361000  0.98311700  1
  S  S19  1  0.26639000  0.14296400  0.51688300  1
  S  S20  1  0.14296400  0.26639000  0.01688300  1
  S  S21  1  0.73361000  0.85703600  0.48311700  1
  S  S22  1  0.75987300  0.48835200  0.31877100  1
  S  S23  1  0.51164800  0.24012700  0.18122900  1
  S  S24  1  0.24012700  0.51164800  0.68122900  1
  S  S25  1  0.48835200  0.75987300  0.81877100  1
  S  S26  1  0.95390400  0.04609600  0.25000000  1
  S  S27  1  0.04609600  0.95390400  0.75000000  1
  S  S28  1  0.31131100  0.77094700  0.10364400  1
  S  S29  1  0.68868900  0.22905300  0.89635600  1
