# generated using pymatgen
data_Y4Al23Ni6
_symmetry_space_group_name_H-M   'P 1'
_cell_length_a   8.16796840
_cell_length_b   8.16796840
_cell_length_c   18.33925324
_cell_angle_alpha   67.87414907
_cell_angle_beta   67.87414907
_cell_angle_gamma   28.85262306
_symmetry_Int_Tables_number   1
_chemical_formula_structural   Y4Al23Ni6
_chemical_formula_sum   'Y4 Al23 Ni6'
_cell_volume   543.93900844
_cell_formula_units_Z   1
loop_
 _symmetry_equiv_pos_site_id
 _symmetry_equiv_pos_as_xyz
  1  'x, y, z'
loop_
 _atom_site_type_symbol
 _atom_site_label
 _atom_site_symmetry_multiplicity
 _atom_site_fract_x
 _atom_site_fract_y
 _atom_site_fract_z
 _atom_site_occupancy
  Y  Y0  1  0.73461600  0.73461600  0.21903200  1
  Y  Y1  1  0.57193700  0.57193700  0.59356600  1
  Y  Y2  1  0.42806300  0.42806300  0.40643400  1
  Y  Y3  1  0.26538400  0.26538400  0.78096800  1
  Al  Al4  1  0.00000000  0.00000000  0.50000000  1
  Al  Al5  1  0.85521800  0.85521800  0.85708700  1
  Al  Al6  1  0.91898700  0.91898700  0.68584900  1
  Al  Al7  1  0.08101300  0.08101300  0.31415100  1
  Al  Al8  1  0.91031900  0.91031900  0.05233600  1
  Al  Al9  1  0.08968100  0.08968100  0.94766400  1
  Al  Al10  1  0.90932800  0.90932800  0.28178500  1
  Al  Al11  1  0.09067200  0.09067200  0.71821500  1
  Al  Al12  1  0.79943300  0.79943300  0.52029800  1
  Al  Al13  1  0.20056700  0.20056700  0.47970200  1
  Al  Al14  1  0.14478200  0.14478200  0.14291300  1
  Al  Al15  1  0.61065600  0.61065600  0.83576800  1
  Al  Al16  1  0.74391200  0.74391200  0.04648300  1
  Al  Al17  1  0.25608800  0.25608800  0.95351700  1
  Al  Al18  1  0.38934400  0.38934400  0.16423200  1
  Al  Al19  1  0.46747900  0.46747900  0.78147200  1
  Al  Al20  1  0.72611500  0.72611500  0.67502700  1
  Al  Al21  1  0.27388500  0.27388500  0.32497300  1
  Al  Al22  1  0.62185500  0.62185500  0.40534100  1
  Al  Al23  1  0.37814500  0.37814500  0.59465900  1
  Al  Al24  1  0.56570700  0.56570700  0.05934200  1
  Al  Al25  1  0.43429300  0.43429300  0.94065800  1
  Al  Al26  1  0.53252100  0.53252100  0.21852800  1
  Ni  Ni27  1  0.99160800  0.99160800  0.13901800  1
  Ni  Ni28  1  0.00839200  0.00839200  0.86098200  1
  Ni  Ni29  1  0.77256900  0.77256900  0.39925300  1
  Ni  Ni30  1  0.68901400  0.68901400  0.93178400  1
  Ni  Ni31  1  0.22743100  0.22743100  0.60074700  1
  Ni  Ni32  1  0.31098600  0.31098600  0.06821600  1
