# generated using pymatgen
data_RbZnF3
_symmetry_space_group_name_H-M   'P 1'
_cell_length_a   6.01545042
_cell_length_b   6.01545042
_cell_length_c   14.71925500
_cell_angle_alpha   90.00000000
_cell_angle_beta   90.00000000
_cell_angle_gamma   120.00000462
_symmetry_Int_Tables_number   1
_chemical_formula_structural   RbZnF3
_chemical_formula_sum   'Rb6 Zn6 F18'
_cell_volume   461.26738082
_cell_formula_units_Z   6
loop_
 _symmetry_equiv_pos_site_id
 _symmetry_equiv_pos_as_xyz
  1  'x, y, z'
loop_
 _atom_site_type_symbol
 _atom_site_label
 _atom_site_symmetry_multiplicity
 _atom_site_fract_x
 _atom_site_fract_y
 _atom_site_fract_z
 _atom_site_occupancy
  Rb  Rb0  1  0.33333300  0.66666700  0.40365000  1
  Rb  Rb1  1  0.66666700  0.33333300  0.90365000  1
  Rb  Rb2  1  0.66666700  0.33333300  0.59635000  1
  Rb  Rb3  1  0.33333300  0.66666700  0.09635000  1
  Rb  Rb4  1  0.00000000  0.00000000  0.75000000  1
  Rb  Rb5  1  0.00000000  0.00000000  0.25000000  1
  Zn  Zn6  1  0.33333300  0.66666700  0.65364700  1
  Zn  Zn7  1  0.66666700  0.33333300  0.15364700  1
  Zn  Zn8  1  0.66666700  0.33333300  0.34635300  1
  Zn  Zn9  1  0.33333300  0.66666700  0.84635300  1
  Zn  Zn10  1  0.00000000  0.00000000  0.50000000  1
  Zn  Zn11  1  0.00000000  0.00000000  0.00000000  1
  F  F12  1  0.83447600  0.16552400  0.41997400  1
  F  F13  1  0.83447600  0.66895300  0.41997400  1
  F  F14  1  0.33104700  0.16552400  0.41997400  1
  F  F15  1  0.66895300  0.83447600  0.91997400  1
  F  F16  1  0.16552400  0.33104700  0.58002600  1
  F  F17  1  0.16552400  0.83447600  0.91997400  1
  F  F18  1  0.16552400  0.33104700  0.91997400  1
  F  F19  1  0.83447600  0.16552400  0.08002600  1
  F  F20  1  0.33104700  0.16552400  0.08002600  1
  F  F21  1  0.66895300  0.83447600  0.58002600  1
  F  F22  1  0.16552400  0.83447600  0.58002600  1
  F  F23  1  0.83447600  0.66895300  0.08002600  1
  F  F24  1  0.51743600  0.03487100  0.25000000  1
  F  F25  1  0.48256400  0.51743600  0.75000000  1
  F  F26  1  0.03487100  0.51743600  0.75000000  1
  F  F27  1  0.96512900  0.48256400  0.25000000  1
  F  F28  1  0.51743600  0.48256400  0.25000000  1
  F  F29  1  0.48256400  0.96512900  0.75000000  1
