# generated using pymatgen
data_Li2SeO4
_symmetry_space_group_name_H-M   'P 1'
_cell_length_a   8.81410915
_cell_length_b   8.81410915
_cell_length_c   8.81410908
_cell_angle_alpha   107.82991616
_cell_angle_beta   107.82991616
_cell_angle_gamma   107.82992550
_symmetry_Int_Tables_number   1
_chemical_formula_structural   Li2SeO4
_chemical_formula_sum   'Li12 Se6 O24'
_cell_volume   556.85583945
_cell_formula_units_Z   6
loop_
 _symmetry_equiv_pos_site_id
 _symmetry_equiv_pos_as_xyz
  1  'x, y, z'
loop_
 _atom_site_type_symbol
 _atom_site_label
 _atom_site_symmetry_multiplicity
 _atom_site_fract_x
 _atom_site_fract_y
 _atom_site_fract_z
 _atom_site_occupancy
  Li  Li0  1  0.29599100  0.06414500  0.89154800  1
  Li  Li1  1  0.06414500  0.89154800  0.29599100  1
  Li  Li2  1  0.89154800  0.29599100  0.06414500  1
  Li  Li3  1  0.70400900  0.93585500  0.10845200  1
  Li  Li4  1  0.93585500  0.10845200  0.70400900  1
  Li  Li5  1  0.10845200  0.70400900  0.93585500  1
  Li  Li6  1  0.62195600  0.40015100  0.22184500  1
  Li  Li7  1  0.40015100  0.22184500  0.62195600  1
  Li  Li8  1  0.22184500  0.62195600  0.40015100  1
  Li  Li9  1  0.37804400  0.59984900  0.77815500  1
  Li  Li10  1  0.59984900  0.77815500  0.37804400  1
  Li  Li11  1  0.77815500  0.37804400  0.59984900  1
  Se  Se12  1  0.96033600  0.73597000  0.55179000  1
  Se  Se13  1  0.44821000  0.03966400  0.26403000  1
  Se  Se14  1  0.26403000  0.44821000  0.03966400  1
  Se  Se15  1  0.03966400  0.26403000  0.44821000  1
  Se  Se16  1  0.55179000  0.96033600  0.73597000  1
  Se  Se17  1  0.73597000  0.55179000  0.96033600  1
  O  O18  1  0.52667700  0.47296000  0.80982500  1
  O  O19  1  0.52704000  0.19017500  0.47332300  1
  O  O20  1  0.47332300  0.52704000  0.19017500  1
  O  O21  1  0.19017500  0.47332300  0.52704000  1
  O  O22  1  0.47296000  0.80982500  0.52667700  1
  O  O23  1  0.14676500  0.13835100  0.46593100  1
  O  O24  1  0.85323500  0.86164900  0.53406900  1
  O  O25  1  0.86164900  0.53406900  0.85323500  1
  O  O26  1  0.53406900  0.85323500  0.86164900  1
  O  O27  1  0.92556400  0.25220400  0.56790200  1
  O  O28  1  0.13835100  0.46593100  0.14676500  1
  O  O29  1  0.46593100  0.14676500  0.13835100  1
  O  O30  1  0.07443600  0.74779600  0.43209800  1
  O  O31  1  0.74779600  0.43209800  0.07443600  1
  O  O32  1  0.43209800  0.07443600  0.74779600  1
  O  O33  1  0.23451400  0.89982300  0.18637700  1
  O  O34  1  0.25220400  0.56790200  0.92556400  1
  O  O35  1  0.56790200  0.92556400  0.25220400  1
  O  O36  1  0.10017700  0.81362300  0.76548600  1
  O  O37  1  0.81362300  0.76548600  0.10017700  1
  O  O38  1  0.76548600  0.10017700  0.81362300  1
  O  O39  1  0.89982300  0.18637700  0.23451400  1
  O  O40  1  0.18637700  0.23451400  0.89982300  1
  O  O41  1  0.80982500  0.52667700  0.47296000  1
