# generated using pymatgen
data_ZnSnSb2
_symmetry_space_group_name_H-M   'P 1'
_cell_length_a   7.84705383
_cell_length_b   7.84705383
_cell_length_c   7.84705383
_cell_angle_alpha   131.93377045
_cell_angle_beta   131.93377045
_cell_angle_gamma   70.33364939
_symmetry_Int_Tables_number   1
_chemical_formula_structural   ZnSnSb2
_chemical_formula_sum   'Zn2 Sn2 Sb4'
_cell_volume   262.06528773
_cell_formula_units_Z   2
loop_
 _symmetry_equiv_pos_site_id
 _symmetry_equiv_pos_as_xyz
  1  'x, y, z'
loop_
 _atom_site_type_symbol
 _atom_site_label
 _atom_site_symmetry_multiplicity
 _atom_site_fract_x
 _atom_site_fract_y
 _atom_site_fract_z
 _atom_site_occupancy
  Zn  Zn0  1  0.00000000  0.00000000  0.00000000  1
  Zn  Zn1  1  0.75000000  0.25000000  0.50000000  1
  Sn  Sn2  1  0.50000000  0.50000000  0.00000000  1
  Sn  Sn3  1  0.25000000  0.75000000  0.50000000  1
  Sb  Sb4  1  0.65101800  0.62500000  0.52601800  1
  Sb  Sb5  1  0.37500000  0.90101800  0.02601800  1
  Sb  Sb6  1  0.87500000  0.34898200  0.97398200  1
  Sb  Sb7  1  0.09898200  0.12500000  0.47398200  1
