# generated using pymatgen
data_BaAl2O4
_symmetry_space_group_name_H-M   'P 1'
_cell_length_a   10.58473577
_cell_length_b   10.58473577
_cell_length_c   8.87406000
_cell_angle_alpha   90.00000000
_cell_angle_beta   90.00000000
_cell_angle_gamma   119.99999855
_symmetry_Int_Tables_number   1
_chemical_formula_structural   BaAl2O4
_chemical_formula_sum   'Ba8 Al16 O32'
_cell_volume   861.01960603
_cell_formula_units_Z   8
loop_
 _symmetry_equiv_pos_site_id
 _symmetry_equiv_pos_as_xyz
  1  'x, y, z'
loop_
 _atom_site_type_symbol
 _atom_site_label
 _atom_site_symmetry_multiplicity
 _atom_site_fract_x
 _atom_site_fract_y
 _atom_site_fract_z
 _atom_site_occupancy
  Ba  Ba0  1  0.49261200  0.99165000  0.75782300  1
  Ba  Ba1  1  0.50096200  0.49261200  0.25782300  1
  Ba  Ba2  1  0.99165000  0.49903800  0.25782300  1
  Ba  Ba3  1  0.00835000  0.50096200  0.75782300  1
  Ba  Ba4  1  0.49903800  0.50738800  0.75782300  1
  Ba  Ba5  1  0.50738800  0.00835000  0.25782300  1
  Ba  Ba6  1  0.00000000  0.00000000  0.74809600  1
  Ba  Ba7  1  0.00000000  0.00000000  0.24809600  1
  Al  Al8  1  0.66666700  0.33333300  0.04658700  1
  Al  Al9  1  0.33333300  0.66666700  0.54658700  1
  Al  Al10  1  0.66666700  0.33333300  0.44767600  1
  Al  Al11  1  0.33333300  0.66666700  0.94767600  1
  Al  Al12  1  0.84629000  0.67173300  0.95094300  1
  Al  Al13  1  0.17455800  0.84629000  0.45094300  1
  Al  Al14  1  0.67173300  0.82544200  0.45094300  1
  Al  Al15  1  0.32826700  0.17455800  0.95094300  1
  Al  Al16  1  0.82544200  0.15371000  0.95094300  1
  Al  Al17  1  0.15371000  0.32826700  0.45094300  1
  Al  Al18  1  0.84518500  0.66912600  0.56448900  1
  Al  Al19  1  0.17605900  0.84518500  0.06448900  1
  Al  Al20  1  0.66912600  0.82394100  0.06448900  1
  Al  Al21  1  0.33087400  0.17605900  0.56448900  1
  Al  Al22  1  0.82394100  0.15481500  0.56448900  1
  Al  Al23  1  0.15481500  0.33087400  0.06448900  1
  O  O24  1  0.66666700  0.33333300  0.24707800  1
  O  O25  1  0.33333300  0.66666700  0.74707800  1
  O  O26  1  0.88957900  0.67858200  0.75773100  1
  O  O27  1  0.21099700  0.88957900  0.25773100  1
  O  O28  1  0.67858200  0.78900300  0.25773100  1
  O  O29  1  0.32141800  0.21099700  0.75773100  1
  O  O30  1  0.78900300  0.11042100  0.75773100  1
  O  O31  1  0.11042100  0.32141800  0.25773100  1
  O  O32  1  0.81970000  0.49934600  0.50215300  1
  O  O33  1  0.32035400  0.81970000  0.00215300  1
  O  O34  1  0.49934600  0.67964600  0.00215300  1
  O  O35  1  0.50065400  0.32035400  0.50215300  1
  O  O36  1  0.67964600  0.18030000  0.50215300  1
  O  O37  1  0.18030000  0.50065400  0.00215300  1
  O  O38  1  0.50263800  0.81716000  0.48953500  1
  O  O39  1  0.68547900  0.50263800  0.98953500  1
  O  O40  1  0.81716000  0.31452100  0.98953500  1
  O  O41  1  0.18284000  0.68547900  0.48953500  1
  O  O42  1  0.31452100  0.49736200  0.48953500  1
  O  O43  1  0.49736200  0.18284000  0.98953500  1
  O  O44  1  0.31278100  0.00049300  0.54756000  1
  O  O45  1  0.31228800  0.31278100  0.04756000  1
  O  O46  1  0.00049300  0.68771200  0.04756000  1
  O  O47  1  0.99950700  0.31228800  0.54756000  1
  O  O48  1  0.17860300  0.99735300  0.98028700  1
  O  O49  1  0.18125000  0.17860300  0.48028700  1
  O  O50  1  0.99735300  0.81875000  0.48028700  1
  O  O51  1  0.00264700  0.18125000  0.98028700  1
  O  O52  1  0.81875000  0.82139700  0.98028700  1
  O  O53  1  0.82139700  0.00264700  0.48028700  1
  O  O54  1  0.68721900  0.99950700  0.04756000  1
  O  O55  1  0.68771200  0.68721900  0.54756000  1
