# generated using pymatgen
data_K4Sn3Se8
_symmetry_space_group_name_H-M   'P 1'
_cell_length_a   14.73955889
_cell_length_b   14.73955889
_cell_length_c   8.42020200
_cell_angle_alpha   90.00000000
_cell_angle_beta   90.00000000
_cell_angle_gamma   146.64409833
_symmetry_Int_Tables_number   1
_chemical_formula_structural   K4Sn3Se8
_chemical_formula_sum   'K8 Sn6 Se16'
_cell_volume   1005.83387113
_cell_formula_units_Z   2
loop_
 _symmetry_equiv_pos_site_id
 _symmetry_equiv_pos_as_xyz
  1  'x, y, z'
loop_
 _atom_site_type_symbol
 _atom_site_label
 _atom_site_symmetry_multiplicity
 _atom_site_fract_x
 _atom_site_fract_y
 _atom_site_fract_z
 _atom_site_occupancy
  K  K0  1  0.10314200  0.89685800  0.00000000  1
  K  K1  1  0.89685800  0.10314200  0.00000000  1
  K  K2  1  0.39685800  0.60314200  0.50000000  1
  K  K3  1  0.60314200  0.39685800  0.50000000  1
  K  K4  1  0.76700200  0.23299800  0.00000000  1
  K  K5  1  0.23299800  0.76700200  0.00000000  1
  K  K6  1  0.73299800  0.26700200  0.50000000  1
  K  K7  1  0.26700200  0.73299800  0.50000000  1
  Sn  Sn8  1  0.62640800  0.37359200  0.00000000  1
  Sn  Sn9  1  0.37359200  0.62640800  0.00000000  1
  Sn  Sn10  1  0.87359200  0.12640800  0.50000000  1
  Sn  Sn11  1  0.12640800  0.87359200  0.50000000  1
  Sn  Sn12  1  0.50000000  0.50000000  0.00000000  1
  Sn  Sn13  1  0.00000000  0.00000000  0.50000000  1
  Se  Se14  1  0.77773700  0.89999800  0.66149200  1
  Se  Se15  1  0.89999800  0.77773700  0.33850800  1
  Se  Se16  1  0.27773700  0.39999800  0.83850800  1
  Se  Se17  1  0.10000200  0.22226300  0.33850800  1
  Se  Se18  1  0.39999800  0.27773700  0.16149200  1
  Se  Se19  1  0.60000200  0.72226300  0.16149200  1
  Se  Se20  1  0.99330400  0.64736400  0.68030700  1
  Se  Se21  1  0.00669600  0.35263600  0.68030700  1
  Se  Se22  1  0.64736400  0.99330400  0.31969300  1
  Se  Se23  1  0.35263600  0.00669600  0.31969300  1
  Se  Se24  1  0.50669600  0.85263600  0.81969300  1
  Se  Se25  1  0.49330400  0.14736400  0.81969300  1
  Se  Se26  1  0.85263600  0.50669600  0.18030700  1
  Se  Se27  1  0.14736400  0.49330400  0.18030700  1
  Se  Se28  1  0.72226300  0.60000200  0.83850800  1
  Se  Se29  1  0.22226300  0.10000200  0.66149200  1
