# generated using pymatgen
data_BNF8
_symmetry_space_group_name_H-M   'P 1'
_cell_length_a   9.99298800
_cell_length_b   9.99298800
_cell_length_c   5.28192200
_cell_angle_alpha   90.00000000
_cell_angle_beta   90.00000000
_cell_angle_gamma   90.00000000
_symmetry_Int_Tables_number   1
_chemical_formula_structural   BNF8
_chemical_formula_sum   'B4 N4 F32'
_cell_volume   527.45172296
_cell_formula_units_Z   4
loop_
 _symmetry_equiv_pos_site_id
 _symmetry_equiv_pos_as_xyz
  1  'x, y, z'
loop_
 _atom_site_type_symbol
 _atom_site_label
 _atom_site_symmetry_multiplicity
 _atom_site_fract_x
 _atom_site_fract_y
 _atom_site_fract_z
 _atom_site_occupancy
  B  B0  1  0.24405300  0.25594700  0.59888600  1
  B  B1  1  0.74405300  0.24405300  0.40111400  1
  B  B2  1  0.25594700  0.75594700  0.40111400  1
  B  B3  1  0.75594700  0.74405300  0.59888600  1
  N  N4  1  0.00000000  0.00000000  0.00000000  1
  N  N5  1  0.50000000  0.50000000  0.00000000  1
  N  N6  1  0.00000000  0.50000000  0.96277800  1
  N  N7  1  0.50000000  0.00000000  0.03722200  1
  F  F8  1  0.94247800  0.90693800  0.14674800  1
  F  F9  1  0.09306200  0.94247800  0.85325200  1
  F  F10  1  0.90693800  0.05752200  0.85325200  1
  F  F11  1  0.05752200  0.09306200  0.14674800  1
  F  F12  1  0.44247800  0.59306200  0.85325200  1
  F  F13  1  0.55752200  0.40693800  0.85325200  1
  F  F14  1  0.40693800  0.44247800  0.14674800  1
  F  F15  1  0.59306200  0.55752200  0.14674800  1
  F  F16  1  0.07771700  0.42228300  0.10851900  1
  F  F17  1  0.57771700  0.07771700  0.89148100  1
  F  F18  1  0.42228300  0.92228300  0.89148100  1
  F  F19  1  0.92228300  0.57771700  0.10851900  1
  F  F20  1  0.07736100  0.57736100  0.81596200  1
  F  F21  1  0.42263900  0.07736100  0.18403800  1
  F  F22  1  0.57736100  0.92263900  0.18403800  1
  F  F23  1  0.92263900  0.42263900  0.81596200  1
  F  F24  1  0.27877800  0.38516200  0.68913100  1
  F  F25  1  0.61483800  0.27877800  0.31086900  1
  F  F26  1  0.38516200  0.72122200  0.31086900  1
  F  F27  1  0.72122200  0.61483800  0.68913100  1
  F  F28  1  0.77877800  0.11483800  0.31086900  1
  F  F29  1  0.22122200  0.88516200  0.31086900  1
  F  F30  1  0.88516200  0.77877800  0.68913100  1
  F  F31  1  0.11483800  0.22122200  0.68913100  1
  F  F32  1  0.24201600  0.25798400  0.32928900  1
  F  F33  1  0.74201600  0.24201600  0.67071100  1
  F  F34  1  0.25798400  0.75798400  0.67071100  1
  F  F35  1  0.75798400  0.74201600  0.32928900  1
  F  F36  1  0.33897500  0.16102500  0.68360600  1
  F  F37  1  0.83897500  0.33897500  0.31639400  1
  F  F38  1  0.16102500  0.66102500  0.31639400  1
  F  F39  1  0.66102500  0.83897500  0.68360600  1
