# generated using pymatgen
data_SrTeO4
_symmetry_space_group_name_H-M   'P 1'
_cell_length_a   5.10352700
_cell_length_b   5.66068900
_cell_length_c   13.28230100
_cell_angle_alpha   90.00000000
_cell_angle_beta   90.00000000
_cell_angle_gamma   90.00000000
_symmetry_Int_Tables_number   1
_chemical_formula_structural   SrTeO4
_chemical_formula_sum   'Sr4 Te4 O16'
_cell_volume   383.71875780
_cell_formula_units_Z   4
loop_
 _symmetry_equiv_pos_site_id
 _symmetry_equiv_pos_as_xyz
  1  'x, y, z'
loop_
 _atom_site_type_symbol
 _atom_site_label
 _atom_site_symmetry_multiplicity
 _atom_site_fract_x
 _atom_site_fract_y
 _atom_site_fract_z
 _atom_site_occupancy
  Sr  Sr0  1  0.75000000  0.00000000  0.66654800  1
  Sr  Sr1  1  0.25000000  0.50000000  0.83345200  1
  Sr  Sr2  1  0.25000000  0.00000000  0.33345200  1
  Sr  Sr3  1  0.75000000  0.50000000  0.16654800  1
  Te  Te4  1  0.75000000  0.50000000  0.43008700  1
  Te  Te5  1  0.25000000  0.00000000  0.06991300  1
  Te  Te6  1  0.25000000  0.50000000  0.56991300  1
  Te  Te7  1  0.75000000  0.00000000  0.93008700  1
  O  O8  1  0.13113300  0.28561200  0.66742400  1
  O  O9  1  0.63113300  0.21438800  0.83257600  1
  O  O10  1  0.86886700  0.78561200  0.83257600  1
  O  O11  1  0.36886700  0.71438800  0.66742400  1
  O  O12  1  0.86886700  0.71438800  0.33257600  1
  O  O13  1  0.36886700  0.78561200  0.16742400  1
  O  O14  1  0.13113300  0.21438800  0.16742400  1
  O  O15  1  0.63113300  0.28561200  0.33257600  1
  O  O16  1  0.57163900  0.31094800  0.54238900  1
  O  O17  1  0.07163900  0.18905200  0.95761100  1
  O  O18  1  0.42836100  0.81094800  0.95761100  1
  O  O19  1  0.92836100  0.68905200  0.54238900  1
  O  O20  1  0.42836100  0.68905200  0.45761100  1
  O  O21  1  0.92836100  0.81094800  0.04238900  1
  O  O22  1  0.57163900  0.18905200  0.04238900  1
  O  O23  1  0.07163900  0.31094800  0.45761100  1
