# generated using pymatgen
data_Si2N2O
_symmetry_space_group_name_H-M   'P 1'
_cell_length_a   5.27070890
_cell_length_b   5.27070890
_cell_length_c   4.89529300
_cell_angle_alpha   90.00000000
_cell_angle_beta   90.00000000
_cell_angle_gamma   116.51545245
_symmetry_Int_Tables_number   1
_chemical_formula_structural   Si2N2O
_chemical_formula_sum   'Si4 N4 O2'
_cell_volume   121.68849449
_cell_formula_units_Z   2
loop_
 _symmetry_equiv_pos_site_id
 _symmetry_equiv_pos_as_xyz
  1  'x, y, z'
loop_
 _atom_site_type_symbol
 _atom_site_label
 _atom_site_symmetry_multiplicity
 _atom_site_fract_x
 _atom_site_fract_y
 _atom_site_fract_z
 _atom_site_occupancy
  Si  Si0  1  0.67247900  0.02670200  0.72918300  1
  Si  Si1  1  0.32752100  0.97329800  0.22918300  1
  Si  Si2  1  0.97329800  0.32752100  0.22918300  1
  Si  Si3  1  0.02670200  0.67247900  0.72918300  1
  N  N4  1  0.65708000  0.09616700  0.38510500  1
  N  N5  1  0.34292000  0.90383300  0.88510500  1
  N  N6  1  0.90383300  0.34292000  0.88510500  1
  N  N7  1  0.09616700  0.65708000  0.38510500  1
  O  O8  1  0.79068000  0.79068000  0.77870300  1
  O  O9  1  0.20932000  0.20932000  0.27870300  1
