# generated using pymatgen
data_CaCN2
_symmetry_space_group_name_H-M   'P 1'
_cell_length_a   5.40360551
_cell_length_b   5.40360551
_cell_length_c   5.40360584
_cell_angle_alpha   40.28184935
_cell_angle_beta   40.28184935
_cell_angle_gamma   40.28186049
_symmetry_Int_Tables_number   1
_chemical_formula_structural   CaCN2
_chemical_formula_sum   'Ca1 C1 N2'
_cell_volume   59.46022350
_cell_formula_units_Z   1
loop_
 _symmetry_equiv_pos_site_id
 _symmetry_equiv_pos_as_xyz
  1  'x, y, z'
loop_
 _atom_site_type_symbol
 _atom_site_label
 _atom_site_symmetry_multiplicity
 _atom_site_fract_x
 _atom_site_fract_y
 _atom_site_fract_z
 _atom_site_occupancy
  Ca  Ca0  1  0.00000000  0.00000000  0.00000000  1
  C  C1  1  0.50000000  0.50000000  0.50000000  1
  N  N2  1  0.58314800  0.58314800  0.58314800  1
  N  N3  1  0.41685200  0.41685200  0.41685200  1
