# generated using pymatgen
data_Li5GaO4
_symmetry_space_group_name_H-M   'P 1'
_cell_length_a   9.19600400
_cell_length_b   9.26996400
_cell_length_c   9.29323600
_cell_angle_alpha   90.00000000
_cell_angle_beta   90.00000000
_cell_angle_gamma   90.00000000
_symmetry_Int_Tables_number   1
_chemical_formula_structural   Li5GaO4
_chemical_formula_sum   'Li40 Ga8 O32'
_cell_volume   792.21701384
_cell_formula_units_Z   8
loop_
 _symmetry_equiv_pos_site_id
 _symmetry_equiv_pos_as_xyz
  1  'x, y, z'
loop_
 _atom_site_type_symbol
 _atom_site_label
 _atom_site_symmetry_multiplicity
 _atom_site_fract_x
 _atom_site_fract_y
 _atom_site_fract_z
 _atom_site_occupancy
  Li  Li0  1  0.89659400  0.38130900  0.84301400  1
  Li  Li1  1  0.39659400  0.61869100  0.65698600  1
  Li  Li2  1  0.60340600  0.88130900  0.15698600  1
  Li  Li3  1  0.10340600  0.11869100  0.34301400  1
  Li  Li4  1  0.10340600  0.61869100  0.15698600  1
  Li  Li5  1  0.60340600  0.38130900  0.34301400  1
  Li  Li6  1  0.39659400  0.11869100  0.84301400  1
  Li  Li7  1  0.89659400  0.88130900  0.65698600  1
  Li  Li8  1  0.89645800  0.12636000  0.14675100  1
  Li  Li9  1  0.39645800  0.87364000  0.35324900  1
  Li  Li10  1  0.60354200  0.62636000  0.85324900  1
  Li  Li11  1  0.10354200  0.37364000  0.64675100  1
  Li  Li12  1  0.10354200  0.87364000  0.85324900  1
  Li  Li13  1  0.60354200  0.12636000  0.64675100  1
  Li  Li14  1  0.39645800  0.37364000  0.14675100  1
  Li  Li15  1  0.89645800  0.62636000  0.35324900  1
  Li  Li16  1  0.85923200  0.38799900  0.10649500  1
  Li  Li17  1  0.35923200  0.61200100  0.39350500  1
  Li  Li18  1  0.64076800  0.88799900  0.89350500  1
  Li  Li19  1  0.83648900  0.60748900  0.61952100  1
  Li  Li20  1  0.14076800  0.61200100  0.89350500  1
  Li  Li21  1  0.64076800  0.38799900  0.60649500  1
  Li  Li22  1  0.35923200  0.11200100  0.10649500  1
  Li  Li23  1  0.85923200  0.88799900  0.39350500  1
  Li  Li24  1  0.87258000  0.14623500  0.62092500  1
  Li  Li25  1  0.37258000  0.85376500  0.87907500  1
  Li  Li26  1  0.62742000  0.64623500  0.37907500  1
  Li  Li27  1  0.12742000  0.35376500  0.12092500  1
  Li  Li28  1  0.12742000  0.85376500  0.37907500  1
  Li  Li29  1  0.62742000  0.14623500  0.12092500  1
  Li  Li30  1  0.37258000  0.35376500  0.62092500  1
  Li  Li31  1  0.87258000  0.64623500  0.87907500  1
  Li  Li32  1  0.83648900  0.10748900  0.88047900  1
  Li  Li33  1  0.33648900  0.89251100  0.61952100  1
  Li  Li34  1  0.66351100  0.60748900  0.11952100  1
  Li  Li35  1  0.16351100  0.39251100  0.38047900  1
  Li  Li36  1  0.16351100  0.89251100  0.11952100  1
  Li  Li37  1  0.66351100  0.10748900  0.38047900  1
  Li  Li38  1  0.33648900  0.39251100  0.88047900  1
  Li  Li39  1  0.14076800  0.11200100  0.60649500  1
  Ga  Ga40  1  0.88272400  0.35472100  0.38197300  1
  Ga  Ga41  1  0.38272400  0.64527900  0.11802700  1
  Ga  Ga42  1  0.61727600  0.85472100  0.61802700  1
  Ga  Ga43  1  0.11727600  0.14527900  0.88197300  1
  Ga  Ga44  1  0.11727600  0.64527900  0.61802700  1
  Ga  Ga45  1  0.61727600  0.35472100  0.88197300  1
  Ga  Ga46  1  0.38272400  0.14527900  0.38197300  1
  Ga  Ga47  1  0.88272400  0.85472100  0.11802700  1
  O  O48  1  0.76214900  0.25080900  0.25508600  1
  O  O49  1  0.26214900  0.74919100  0.24491400  1
  O  O50  1  0.73785100  0.75080900  0.74491400  1
  O  O51  1  0.23785100  0.24919100  0.75508600  1
  O  O52  1  0.23785100  0.74919100  0.74491400  1
  O  O53  1  0.73785100  0.25080900  0.75508600  1
  O  O54  1  0.26214900  0.24919100  0.25508600  1
  O  O55  1  0.76214900  0.75080900  0.24491400  1
  O  O56  1  0.75589500  0.49095200  0.46559800  1
  O  O57  1  0.25589500  0.50904800  0.03440200  1
  O  O58  1  0.74410500  0.99095200  0.53440200  1
  O  O59  1  0.24410500  0.00904800  0.96559800  1
  O  O60  1  0.24410500  0.50904800  0.53440200  1
  O  O61  1  0.74410500  0.49095200  0.96559800  1
  O  O62  1  0.25589500  0.00904800  0.46559800  1
  O  O63  1  0.75589500  0.99095200  0.03440200  1
  O  O64  1  0.00035900  0.46666100  0.25565900  1
  O  O65  1  0.50035900  0.53333900  0.24434100  1
  O  O66  1  0.49964100  0.96666100  0.74434100  1
  O  O67  1  0.99964100  0.03333900  0.75565900  1
  O  O68  1  0.01258400  0.75044500  0.00545700  1
  O  O69  1  0.49964100  0.46666100  0.75565900  1
  O  O70  1  0.50035900  0.03333900  0.25565900  1
  O  O71  1  0.00035900  0.96666100  0.24434100  1
  O  O72  1  0.01258400  0.25044500  0.49454300  1
  O  O73  1  0.51258400  0.74955500  0.00545700  1
  O  O74  1  0.48741600  0.75044500  0.50545700  1
  O  O75  1  0.98741600  0.24955500  0.99454300  1
  O  O76  1  0.98741600  0.74955500  0.50545700  1
  O  O77  1  0.48741600  0.25044500  0.99454300  1
  O  O78  1  0.51258400  0.24955500  0.49454300  1
  O  O79  1  0.99964100  0.53333900  0.74434100  1
