# generated using pymatgen
data_ErPO4
_symmetry_space_group_name_H-M   'P 1'
_cell_length_a   5.73965420
_cell_length_b   5.73965420
_cell_length_c   5.73965420
_cell_angle_alpha   105.95687417
_cell_angle_beta   105.95687417
_cell_angle_gamma   116.75475217
_symmetry_Int_Tables_number   1
_chemical_formula_structural   ErPO4
_chemical_formula_sum   'Er2 P2 O8'
_cell_volume   143.77225346
_cell_formula_units_Z   2
loop_
 _symmetry_equiv_pos_site_id
 _symmetry_equiv_pos_as_xyz
  1  'x, y, z'
loop_
 _atom_site_type_symbol
 _atom_site_label
 _atom_site_symmetry_multiplicity
 _atom_site_fract_x
 _atom_site_fract_y
 _atom_site_fract_z
 _atom_site_occupancy
  Er  Er0  1  0.50000000  0.50000000  0.00000000  1
  Er  Er1  1  0.75000000  0.25000000  0.50000000  1
  P  P2  1  0.25000000  0.75000000  0.50000000  1
  P  P3  1  0.00000000  0.00000000  0.00000000  1
  O  O4  1  0.83827800  0.66301000  0.82473200  1
  O  O5  1  0.26354600  0.58827800  0.67526800  1
  O  O6  1  0.91301000  0.58827800  0.32473200  1
  O  O7  1  0.83827800  0.01354600  0.17526800  1
  O  O8  1  0.98645400  0.16172200  0.82473200  1
  O  O9  1  0.41172200  0.08699000  0.67526800  1
  O  O10  1  0.41172200  0.73645400  0.32473200  1
  O  O11  1  0.33699000  0.16172200  0.17526800  1
