# generated using pymatgen
data_Na3ScF6
_symmetry_space_group_name_H-M   'P 1'
_cell_length_a   5.88220700
_cell_length_b   5.65264500
_cell_length_c   9.92366673
_cell_angle_alpha   56.08155447
_cell_angle_beta   90.00000000
_cell_angle_gamma   90.00000000
_symmetry_Int_Tables_number   1
_chemical_formula_structural   Na3ScF6
_chemical_formula_sum   'Na6 Sc2 F12'
_cell_volume   273.81341523
_cell_formula_units_Z   2
loop_
 _symmetry_equiv_pos_site_id
 _symmetry_equiv_pos_as_xyz
  1  'x, y, z'
loop_
 _atom_site_type_symbol
 _atom_site_label
 _atom_site_symmetry_multiplicity
 _atom_site_fract_x
 _atom_site_fract_y
 _atom_site_fract_z
 _atom_site_occupancy
  Na  Na0  1  0.55524900  0.72456400  0.25882300  1
  Na  Na1  1  0.05524900  0.27543600  0.24117700  1
  Na  Na2  1  0.44475100  0.27543600  0.74117700  1
  Na  Na3  1  0.94475100  0.72456400  0.75882300  1
  Na  Na4  1  0.50000000  0.50000000  0.00000000  1
  Na  Na5  1  0.00000000  0.50000000  0.50000000  1
  Sc  Sc6  1  0.50000000  0.00000000  0.50000000  1
  Sc  Sc7  1  0.00000000  0.00000000  0.00000000  1
  F  F8  1  0.21481900  0.75134900  0.57881300  1
  F  F9  1  0.71481900  0.24865100  0.92118700  1
  F  F10  1  0.78518100  0.24865100  0.42118700  1
  F  F11  1  0.28518100  0.75134900  0.07881300  1
  F  F12  1  0.32131900  0.34966500  0.44563100  1
  F  F13  1  0.82131900  0.65033500  0.05436900  1
  F  F14  1  0.67868100  0.65033500  0.55436900  1
  F  F15  1  0.17868100  0.34966500  0.94563100  1
  F  F16  1  0.06757200  0.10357700  0.77091500  1
  F  F17  1  0.56757200  0.89642300  0.72908500  1
  F  F18  1  0.93242800  0.89642300  0.22908500  1
  F  F19  1  0.43242800  0.10357700  0.27091500  1
