# generated using pymatgen
data_Ba2Ce3Si3O12F
_symmetry_space_group_name_H-M   'P 1'
_cell_length_a   9.94105014
_cell_length_b   9.94105014
_cell_length_c   7.44973900
_cell_angle_alpha   90.00000000
_cell_angle_beta   90.00000000
_cell_angle_gamma   120.00000092
_symmetry_Int_Tables_number   1
_chemical_formula_structural   Ba2Ce3Si3O12F
_chemical_formula_sum   'Ba4 Ce6 Si6 O24 F2'
_cell_volume   637.58224363
_cell_formula_units_Z   2
loop_
 _symmetry_equiv_pos_site_id
 _symmetry_equiv_pos_as_xyz
  1  'x, y, z'
loop_
 _atom_site_type_symbol
 _atom_site_label
 _atom_site_symmetry_multiplicity
 _atom_site_fract_x
 _atom_site_fract_y
 _atom_site_fract_z
 _atom_site_occupancy
  Ba  Ba0  1  0.33333300  0.66666700  0.50531900  1
  Ba  Ba1  1  0.33333300  0.66666700  0.00103600  1
  Ba  Ba2  1  0.66666700  0.33333300  0.00531900  1
  Ba  Ba3  1  0.66666700  0.33333300  0.50103600  1
  Ce  Ce4  1  0.25117500  0.99711700  0.25359100  1
  Ce  Ce5  1  0.00288300  0.25405800  0.25359100  1
  Ce  Ce6  1  0.25405800  0.25117500  0.75359100  1
  Ce  Ce7  1  0.74594200  0.74882500  0.25359100  1
  Ce  Ce8  1  0.99711700  0.74594200  0.75359100  1
  Ce  Ce9  1  0.74882500  0.00288300  0.75359100  1
  Si  Si10  1  0.01826400  0.37880900  0.75333000  1
  Si  Si11  1  0.36054500  0.98173600  0.75333000  1
  Si  Si12  1  0.37880900  0.36054500  0.25333000  1
  Si  Si13  1  0.62119100  0.63945500  0.75333000  1
  Si  Si14  1  0.63945500  0.01826400  0.25333000  1
  Si  Si15  1  0.98173600  0.62119100  0.25333000  1
  O  O16  1  0.24222900  0.90995500  0.92846000  1
  O  O17  1  0.24135600  0.91151600  0.57856400  1
  O  O18  1  0.17130500  0.71847600  0.25385500  1
  O  O19  1  0.08577700  0.56831500  0.75214300  1
  O  O20  1  0.08848400  0.32983900  0.57856400  1
  O  O21  1  0.09004500  0.33227500  0.92846000  1
  O  O22  1  0.48253900  0.91422300  0.75214300  1
  O  O23  1  0.54717100  0.82869500  0.25385500  1
  O  O24  1  0.28152400  0.45282900  0.25385500  1
  O  O25  1  0.43168500  0.51746100  0.75214300  1
  O  O26  1  0.33227500  0.24222900  0.42846000  1
  O  O27  1  0.32983900  0.24135600  0.07856400  1
  O  O28  1  0.67016100  0.75864400  0.57856400  1
  O  O29  1  0.66772500  0.75777100  0.92846000  1
  O  O30  1  0.56831500  0.48253900  0.25214300  1
  O  O31  1  0.71847600  0.54717100  0.75385500  1
  O  O32  1  0.45282900  0.17130500  0.75385500  1
  O  O33  1  0.51746100  0.08577700  0.25214300  1
  O  O34  1  0.91151600  0.67016100  0.07856400  1
  O  O35  1  0.90995500  0.66772500  0.42846000  1
  O  O36  1  0.91422300  0.43168500  0.25214300  1
  O  O37  1  0.82869500  0.28152400  0.75385500  1
  O  O38  1  0.75777100  0.09004500  0.42846000  1
  O  O39  1  0.75864400  0.08848400  0.07856400  1
  F  F40  1  0.00000000  0.00000000  0.76181800  1
  F  F41  1  0.00000000  0.00000000  0.26181800  1
