# generated using pymatgen
data_ScPO4
_symmetry_space_group_name_H-M   'P 1'
_cell_length_a   5.54336291
_cell_length_b   5.54336291
_cell_length_c   5.54336291
_cell_angle_alpha   106.05220099
_cell_angle_beta   106.05220099
_cell_angle_gamma   116.54970061
_symmetry_Int_Tables_number   1
_chemical_formula_structural   ScPO4
_chemical_formula_sum   'Sc2 P2 O8'
_cell_volume   129.60998024
_cell_formula_units_Z   2
loop_
 _symmetry_equiv_pos_site_id
 _symmetry_equiv_pos_as_xyz
  1  'x, y, z'
loop_
 _atom_site_type_symbol
 _atom_site_label
 _atom_site_symmetry_multiplicity
 _atom_site_fract_x
 _atom_site_fract_y
 _atom_site_fract_z
 _atom_site_occupancy
  Sc  Sc0  1  0.00000000  0.00000000  0.00000000  1
  Sc  Sc1  1  0.25000000  0.75000000  0.50000000  1
  P  P2  1  0.75000000  0.25000000  0.50000000  1
  P  P3  1  0.50000000  0.50000000  0.00000000  1
  O  O4  1  0.33063300  0.50997600  0.17934300  1
  O  O5  1  0.40128900  0.08063300  0.32065700  1
  O  O6  1  0.75997600  0.08063300  0.67934300  1
  O  O7  1  0.33063300  0.15128900  0.82065700  1
  O  O8  1  0.84871100  0.66936700  0.17934300  1
  O  O9  1  0.91936700  0.24002400  0.32065700  1
  O  O10  1  0.91936700  0.59871100  0.67934300  1
  O  O11  1  0.49002400  0.66936700  0.82065700  1
