# generated using pymatgen
data_CaAu2
_symmetry_space_group_name_H-M   'P 1'
_cell_length_a   5.95597014
_cell_length_b   5.95597014
_cell_length_c   5.95597014
_cell_angle_alpha   133.64904552
_cell_angle_beta   106.37658710
_cell_angle_gamma   91.59368059
_symmetry_Int_Tables_number   1
_chemical_formula_structural   CaAu2
_chemical_formula_sum   'Ca2 Au4'
_cell_volume   138.94360165
_cell_formula_units_Z   2
loop_
 _symmetry_equiv_pos_site_id
 _symmetry_equiv_pos_as_xyz
  1  'x, y, z'
loop_
 _atom_site_type_symbol
 _atom_site_label
 _atom_site_symmetry_multiplicity
 _atom_site_fract_x
 _atom_site_fract_y
 _atom_site_fract_z
 _atom_site_occupancy
  Ca  Ca0  1  0.71063700  0.46063700  0.25000000  1
  Ca  Ca1  1  0.28936300  0.53936300  0.75000000  1
  Au  Au2  1  0.29961300  0.83810500  0.46150800  1
  Au  Au3  1  0.70038700  0.16189500  0.53849200  1
  Au  Au4  1  0.87659700  0.83810500  0.03849200  1
  Au  Au5  1  0.12340300  0.16189500  0.96150800  1
