# generated using pymatgen
data_TbCoSi2
_symmetry_space_group_name_H-M   'P 1'
_cell_length_a   8.34714432
_cell_length_b   8.34714432
_cell_length_c   3.99297600
_cell_angle_alpha   90.00000000
_cell_angle_beta   90.00000000
_cell_angle_gamma   151.95081684
_symmetry_Int_Tables_number   1
_chemical_formula_structural   TbCoSi2
_chemical_formula_sum   'Tb2 Co2 Si4'
_cell_volume   130.82244122
_cell_formula_units_Z   2
loop_
 _symmetry_equiv_pos_site_id
 _symmetry_equiv_pos_as_xyz
  1  'x, y, z'
loop_
 _atom_site_type_symbol
 _atom_site_label
 _atom_site_symmetry_multiplicity
 _atom_site_fract_x
 _atom_site_fract_y
 _atom_site_fract_z
 _atom_site_occupancy
  Tb  Tb0  1  0.10723200  0.89276800  0.25000000  1
  Tb  Tb1  1  0.89276800  0.10723200  0.75000000  1
  Co  Co2  1  0.67983800  0.32016200  0.75000000  1
  Co  Co3  1  0.32016200  0.67983800  0.25000000  1
  Si  Si4  1  0.75020700  0.24979300  0.25000000  1
  Si  Si5  1  0.24979300  0.75020700  0.75000000  1
  Si  Si6  1  0.54269500  0.45730500  0.75000000  1
  Si  Si7  1  0.45730500  0.54269500  0.25000000  1
