# generated using pymatgen
data_NaNO3
_symmetry_space_group_name_H-M   'P 1'
_cell_length_a   6.54322747
_cell_length_b   6.54322747
_cell_length_c   6.54322744
_cell_angle_alpha   46.13967122
_cell_angle_beta   46.13967122
_cell_angle_gamma   46.13967038
_symmetry_Int_Tables_number   1
_chemical_formula_structural   NaNO3
_chemical_formula_sum   'Na2 N2 O6'
_cell_volume   132.88301883
_cell_formula_units_Z   2
loop_
 _symmetry_equiv_pos_site_id
 _symmetry_equiv_pos_as_xyz
  1  'x, y, z'
loop_
 _atom_site_type_symbol
 _atom_site_label
 _atom_site_symmetry_multiplicity
 _atom_site_fract_x
 _atom_site_fract_y
 _atom_site_fract_z
 _atom_site_occupancy
  Na  Na0  1  0.50000000  0.50000000  0.50000000  1
  Na  Na1  1  0.00000000  0.00000000  0.00000000  1
  N  N2  1  0.25000000  0.25000000  0.25000000  1
  N  N3  1  0.75000000  0.75000000  0.75000000  1
  O  O4  1  0.00296300  0.49703700  0.25000000  1
  O  O5  1  0.25000000  0.00296300  0.49703700  1
  O  O6  1  0.49703700  0.25000000  0.00296300  1
  O  O7  1  0.75000000  0.99703700  0.50296300  1
  O  O8  1  0.50296300  0.75000000  0.99703700  1
  O  O9  1  0.99703700  0.50296300  0.75000000  1
