# generated using pymatgen
data_SiNiH12(OF)6
_symmetry_space_group_name_H-M   'P 1'
_cell_length_a   6.39486786
_cell_length_b   6.39323440
_cell_length_c   25.59656808
_cell_angle_alpha   83.55938526
_cell_angle_beta   83.54609617
_cell_angle_gamma   96.34719733
_symmetry_Int_Tables_number   1
_chemical_formula_structural   SiNiH12(OF)6
_chemical_formula_sum   'Si4 Ni4 H48 O24 F24'
_cell_volume   1025.22251344
_cell_formula_units_Z   4
loop_
 _symmetry_equiv_pos_site_id
 _symmetry_equiv_pos_as_xyz
  1  'x, y, z'
loop_
 _atom_site_type_symbol
 _atom_site_label
 _atom_site_symmetry_multiplicity
 _atom_site_fract_x
 _atom_site_fract_y
 _atom_site_fract_z
 _atom_site_occupancy
  Si  Si0  1  0.37499100  0.37499600  0.12500700  1
  Si  Si1  1  0.12504200  0.12506800  0.37477300  1
  Si  Si2  1  0.87500000  0.87500000  0.62500000  1
  Si  Si3  1  0.62497000  0.62493900  0.87522300  1
  Ni  Ni4  1  0.50001000  0.50011500  0.50005100  1
  Ni  Ni5  1  0.24996700  0.24987000  0.74995700  1
  Ni  Ni6  1  0.99999700  0.00000400  0.99995400  1
  Ni  Ni7  1  0.74998900  0.74996400  0.25004400  1
  H  H8  1  0.00718400  0.34785500  0.05037800  1
  H  H9  1  0.75720900  0.09780600  0.30040100  1
  H  H10  1  0.50713400  0.84803100  0.55040800  1
  H  H11  1  0.25710200  0.59812000  0.80038500  1
  H  H12  1  0.10194900  0.95802200  0.09958600  1
  H  H13  1  0.85188400  0.70807000  0.34962500  1
  H  H14  1  0.60206600  0.45797600  0.59964600  1
  H  H15  1  0.35217100  0.20792900  0.84960400  1
  H  H16  1  0.38391300  0.18723700  0.01441200  1
  H  H17  1  0.13393000  0.93722300  0.26442000  1
  H  H18  1  0.88415200  0.68725100  0.51440600  1
  H  H19  1  0.63418600  0.43726500  0.76438700  1
  H  H20  1  0.36604200  0.56276700  0.23558900  1
  H  H21  1  0.11582800  0.31274100  0.48560900  1
  H  H22  1  0.86584200  0.06274800  0.73559000  1
  H  H23  1  0.61610200  0.81277100  0.98558100  1
  H  H24  1  0.64803600  0.79199500  0.15041900  1
  H  H25  1  0.39784400  0.54207500  0.40039400  1
  H  H26  1  0.14793600  0.29203200  0.65035200  1
  H  H27  1  0.89811900  0.04191400  0.90037000  1
  H  H28  1  0.74281400  0.40207900  0.19961800  1
  H  H29  1  0.49289800  0.15189300  0.44961200  1
  H  H30  1  0.24287100  0.90196300  0.69958900  1
  H  H31  1  0.99279600  0.65224200  0.94960200  1
  H  H32  1  0.98477900  0.48607600  0.20128600  1
  H  H33  1  0.73480000  0.23600400  0.45124600  1
  H  H34  1  0.48481700  0.98601300  0.70126600  1
  H  H35  1  0.23483600  0.73607800  0.95130000  1
  H  H36  1  0.11668900  0.73589500  0.07814500  1
  H  H37  1  0.86668800  0.48563400  0.32816500  1
  H  H38  1  0.61682100  0.23570700  0.57819600  1
  H  H39  1  0.36686600  0.98590500  0.82818300  1
  H  H40  1  0.10910000  0.99134500  0.20352000  1
  H  H41  1  0.85918500  0.74154600  0.45351700  1
  H  H42  1  0.60932000  0.49145900  0.70348700  1
  H  H43  1  0.35929300  0.24132200  0.95347500  1
  H  H44  1  0.64089800  0.75864900  0.04648900  1
  H  H45  1  0.39071200  0.50869600  0.29652000  1
  H  H46  1  0.14068300  0.25854000  0.54651300  1
  H  H47  1  0.89080600  0.00844200  0.79648100  1
  H  H48  1  0.63329400  0.01411900  0.17185500  1
  H  H49  1  0.38314300  0.76409500  0.42181500  1
  H  H50  1  0.13318200  0.51429700  0.67180200  1
  H  H51  1  0.88332700  0.26434900  0.92183800  1
  H  H52  1  0.76520000  0.26391400  0.04871600  1
  H  H53  1  0.51519500  0.01392800  0.29869800  1
  H  H54  1  0.26518300  0.76398800  0.54873200  1
  H  H55  1  0.01520000  0.51401100  0.79875300  1
  O  O56  1  0.84019500  0.48263500  0.21928700  1
  O  O57  1  0.59026100  0.23242800  0.46929300  1
  O  O58  1  0.34027600  0.98191700  0.71938100  1
  O  O59  1  0.09025100  0.73232200  0.96935000  1
  O  O60  1  0.04817900  0.86602000  0.07454400  1
  O  O61  1  0.79861800  0.61609800  0.32451600  1
  O  O62  1  0.54814600  0.36579700  0.57465400  1
  O  O63  1  0.29764100  0.11559800  0.82471300  1
  O  O64  1  0.06318000  0.88754600  0.23517100  1
  O  O65  1  0.81362100  0.63746200  0.48513400  1
  O  O66  1  0.56329200  0.38771300  0.73511500  1
  O  O67  1  0.31278800  0.13794900  0.98514800  1
  O  O68  1  0.68693300  0.86235600  0.01482700  1
  O  O69  1  0.43710200  0.61214800  0.26485600  1
  O  O70  1  0.18671400  0.36228000  0.51488300  1
  O  O71  1  0.93635100  0.11254100  0.76486600  1
  O  O72  1  0.70189200  0.88404400  0.17544200  1
  O  O73  1  0.45234700  0.63439100  0.42529100  1
  O  O74  1  0.20185500  0.38420400  0.67534500  1
  O  O75  1  0.95133100  0.13385200  0.92549400  1
  O  O76  1  0.90978100  0.26728800  0.03072000  1
  O  O77  1  0.65977700  0.01776000  0.28064000  1
  O  O78  1  0.40972400  0.76805900  0.53062100  1
  O  O79  1  0.15973600  0.51758200  0.78070500  1
  F  F80  1  0.19026200  0.47459000  0.08841600  1
  F  F81  1  0.94027800  0.22467000  0.33822100  1
  F  F82  1  0.69033700  0.97457100  0.58839600  1
  F  F83  1  0.44032000  0.72445900  0.83857800  1
  F  F84  1  0.21270000  0.13782400  0.14071900  1
  F  F85  1  0.96270000  0.88793100  0.39050600  1
  F  F86  1  0.71270200  0.63789600  0.64073000  1
  F  F87  1  0.46269700  0.38779400  0.89094600  1
  F  F88  1  0.25660400  0.46617200  0.18032400  1
  F  F89  1  0.00677100  0.21622200  0.43012900  1
  F  F90  1  0.75672000  0.96618500  0.68032800  1
  F  F91  1  0.50657200  0.71618100  0.93050600  1
  F  F92  1  0.49337800  0.28381700  0.06969100  1
  F  F93  1  0.24344200  0.03383300  0.31948600  1
  F  F94  1  0.99328400  0.78381700  0.56967200  1
  F  F95  1  0.74323900  0.53379200  0.81986400  1
  F  F96  1  0.53729200  0.61216300  0.10929600  1
  F  F97  1  0.28731600  0.36221400  0.35905100  1
  F  F98  1  0.03729800  0.11210700  0.60926900  1
  F  F99  1  0.78730800  0.86207800  0.85949000  1
  F  F100  1  0.55971800  0.27539900  0.16160200  1
  F  F101  1  0.30968800  0.02554800  0.41141500  1
  F  F102  1  0.05966200  0.77543400  0.66160400  1
  F  F103  1  0.80974000  0.52534200  0.91177100  1
