# generated using pymatgen
data_Sr5V3O12F
_symmetry_space_group_name_H-M   'P 1'
_cell_length_a   10.14117014
_cell_length_b   10.14117014
_cell_length_c   7.51826600
_cell_angle_alpha   90.00000000
_cell_angle_beta   90.00000000
_cell_angle_gamma   120.00000088
_symmetry_Int_Tables_number   1
_chemical_formula_structural   Sr5V3O12F
_chemical_formula_sum   'Sr10 V6 O24 F2'
_cell_volume   669.61388822
_cell_formula_units_Z   2
loop_
 _symmetry_equiv_pos_site_id
 _symmetry_equiv_pos_as_xyz
  1  'x, y, z'
loop_
 _atom_site_type_symbol
 _atom_site_label
 _atom_site_symmetry_multiplicity
 _atom_site_fract_x
 _atom_site_fract_y
 _atom_site_fract_z
 _atom_site_occupancy
  Sr  Sr0  1  0.76095000  0.75097400  0.75000000  1
  Sr  Sr1  1  0.24902600  0.00997600  0.75000000  1
  Sr  Sr2  1  0.99002400  0.23905000  0.75000000  1
  Sr  Sr3  1  0.23905000  0.24902600  0.25000000  1
  Sr  Sr4  1  0.75097400  0.99002400  0.25000000  1
  Sr  Sr5  1  0.00997600  0.76095000  0.25000000  1
  Sr  Sr6  1  0.66666700  0.33333300  0.50055000  1
  Sr  Sr7  1  0.33333300  0.66666700  0.00055000  1
  Sr  Sr8  1  0.33333300  0.66666700  0.49945000  1
  Sr  Sr9  1  0.66666700  0.33333300  0.99945000  1
  V  V10  1  0.60154500  0.97000200  0.75000000  1
  V  V11  1  0.02999800  0.63154300  0.75000000  1
  V  V12  1  0.36845700  0.39845500  0.75000000  1
  V  V13  1  0.39845500  0.02999800  0.25000000  1
  V  V14  1  0.97000200  0.36845700  0.25000000  1
  V  V15  1  0.63154300  0.60154500  0.25000000  1
  O  O16  1  0.40205100  0.87358500  0.75000000  1
  O  O17  1  0.12641500  0.52846600  0.75000000  1
  O  O18  1  0.47153400  0.59794900  0.75000000  1
  O  O19  1  0.59794900  0.12641500  0.25000000  1
  O  O20  1  0.87358500  0.47153400  0.25000000  1
  O  O21  1  0.52846600  0.40205100  0.25000000  1
  O  O22  1  0.68422000  0.16844900  0.75000000  1
  O  O23  1  0.83155100  0.51577100  0.75000000  1
  O  O24  1  0.48422900  0.31578000  0.75000000  1
  O  O25  1  0.31578000  0.83155100  0.25000000  1
  O  O26  1  0.16844900  0.48422900  0.25000000  1
  O  O27  1  0.51577100  0.68422000  0.25000000  1
  O  O28  1  0.65990200  0.90899100  0.56665300  1
  O  O29  1  0.09100900  0.75091000  0.56665300  1
  O  O30  1  0.24909000  0.34009800  0.56665300  1
  O  O31  1  0.34009800  0.09100900  0.06665300  1
  O  O32  1  0.90899100  0.24909000  0.06665300  1
  O  O33  1  0.75091000  0.65990200  0.06665300  1
  O  O34  1  0.34009800  0.09100900  0.43334700  1
  O  O35  1  0.90899100  0.24909000  0.43334700  1
  O  O36  1  0.75091000  0.65990200  0.43334700  1
  O  O37  1  0.65990200  0.90899100  0.93334700  1
  O  O38  1  0.09100900  0.75091000  0.93334700  1
  O  O39  1  0.24909000  0.34009800  0.93334700  1
  F  F40  1  0.00000000  0.00000000  0.75000000  1
  F  F41  1  0.00000000  0.00000000  0.25000000  1
