# generated using pymatgen
data_Nd(GePd)2
_symmetry_space_group_name_H-M   'P 1'
_cell_length_a   5.96925250
_cell_length_b   5.96925250
_cell_length_c   5.96925250
_cell_angle_alpha   137.32340981
_cell_angle_beta   137.32340981
_cell_angle_gamma   61.94082429
_symmetry_Int_Tables_number   1
_chemical_formula_structural   Nd(GePd)2
_chemical_formula_sum   'Nd1 Ge2 Pd2'
_cell_volume   96.58770563
_cell_formula_units_Z   1
loop_
 _symmetry_equiv_pos_site_id
 _symmetry_equiv_pos_as_xyz
  1  'x, y, z'
loop_
 _atom_site_type_symbol
 _atom_site_label
 _atom_site_symmetry_multiplicity
 _atom_site_fract_x
 _atom_site_fract_y
 _atom_site_fract_z
 _atom_site_occupancy
  Nd  Nd0  1  0.00000000  0.00000000  0.00000000  1
  Ge  Ge1  1  0.37813400  0.37813400  0.00000000  1
  Ge  Ge2  1  0.62186600  0.62186600  0.00000000  1
  Pd  Pd3  1  0.25000000  0.75000000  0.50000000  1
  Pd  Pd4  1  0.75000000  0.25000000  0.50000000  1
