# generated using pymatgen
data_PrNbO4
_symmetry_space_group_name_H-M   'P 1'
_cell_length_a   6.92587851
_cell_length_b   6.92587851
_cell_length_c   5.33987422
_cell_angle_alpha   68.04748386
_cell_angle_beta   68.04748386
_cell_angle_gamma   114.07889080
_symmetry_Int_Tables_number   1
_chemical_formula_structural   PrNbO4
_chemical_formula_sum   'Pr2 Nb2 O8'
_cell_volume   169.90395076
_cell_formula_units_Z   2
loop_
 _symmetry_equiv_pos_site_id
 _symmetry_equiv_pos_as_xyz
  1  'x, y, z'
loop_
 _atom_site_type_symbol
 _atom_site_label
 _atom_site_symmetry_multiplicity
 _atom_site_fract_x
 _atom_site_fract_y
 _atom_site_fract_z
 _atom_site_occupancy
  Pr  Pr0  1  0.62646000  0.37354000  0.25000000  1
  Pr  Pr1  1  0.37354000  0.62646000  0.75000000  1
  Nb  Nb2  1  0.11639800  0.88360200  0.25000000  1
  Nb  Nb3  1  0.88360200  0.11639800  0.75000000  1
  O  O4  1  0.94702000  0.36444200  0.84112600  1
  O  O5  1  0.63555800  0.05298000  0.65887400  1
  O  O6  1  0.05298000  0.63555800  0.15887400  1
  O  O7  1  0.36444200  0.94702000  0.34112600  1
  O  O8  1  0.71645000  0.78856900  0.17213000  1
  O  O9  1  0.21143100  0.28355000  0.32787000  1
  O  O10  1  0.28355000  0.21143100  0.82787000  1
  O  O11  1  0.78856900  0.71645000  0.67213000  1
