# generated using pymatgen
data_CoAs3
_symmetry_space_group_name_H-M   'P 1'
_cell_length_a   7.16241980
_cell_length_b   7.16241980
_cell_length_c   7.16241980
_cell_angle_alpha   109.47122063
_cell_angle_beta   109.47122063
_cell_angle_gamma   109.47122063
_symmetry_Int_Tables_number   1
_chemical_formula_structural   CoAs3
_chemical_formula_sum   'Co4 As12'
_cell_volume   282.85080922
_cell_formula_units_Z   4
loop_
 _symmetry_equiv_pos_site_id
 _symmetry_equiv_pos_as_xyz
  1  'x, y, z'
loop_
 _atom_site_type_symbol
 _atom_site_label
 _atom_site_symmetry_multiplicity
 _atom_site_fract_x
 _atom_site_fract_y
 _atom_site_fract_z
 _atom_site_occupancy
  Co  Co0  1  0.50000000  0.00000000  0.00000000  1
  Co  Co1  1  0.50000000  0.50000000  0.50000000  1
  Co  Co2  1  0.00000000  0.50000000  0.00000000  1
  Co  Co3  1  0.00000000  0.00000000  0.50000000  1
  As  As4  1  0.49319200  0.34120700  0.15198500  1
  As  As5  1  0.34120700  0.84801500  0.18922200  1
  As  As6  1  0.18922200  0.34120700  0.84801500  1
  As  As7  1  0.81077800  0.65879300  0.15198500  1
  As  As8  1  0.34120700  0.15198500  0.49319200  1
  As  As9  1  0.84801500  0.50680800  0.65879300  1
  As  As10  1  0.15198500  0.49319200  0.34120700  1
  As  As11  1  0.15198500  0.81077800  0.65879300  1
  As  As12  1  0.65879300  0.84801500  0.50680800  1
  As  As13  1  0.50680800  0.65879300  0.84801500  1
  As  As14  1  0.65879300  0.15198500  0.81077800  1
  As  As15  1  0.84801500  0.18922200  0.34120700  1
