# generated using pymatgen
data_LaTe2Se
_symmetry_space_group_name_H-M   'P 1'
_cell_length_a   13.53608602
_cell_length_b   13.53608602
_cell_length_c   4.34631600
_cell_angle_alpha   90.00000000
_cell_angle_beta   90.00000000
_cell_angle_gamma   161.58108556
_symmetry_Int_Tables_number   1
_chemical_formula_structural   LaTe2Se
_chemical_formula_sum   'La2 Te4 Se2'
_cell_volume   251.61858981
_cell_formula_units_Z   2
loop_
 _symmetry_equiv_pos_site_id
 _symmetry_equiv_pos_as_xyz
  1  'x, y, z'
loop_
 _atom_site_type_symbol
 _atom_site_label
 _atom_site_symmetry_multiplicity
 _atom_site_fract_x
 _atom_site_fract_y
 _atom_site_fract_z
 _atom_site_occupancy
  La  La0  1  0.18041700  0.81958300  0.75000000  1
  La  La1  1  0.81958300  0.18041700  0.25000000  1
  Te  Te2  1  0.57948400  0.42051600  0.75000000  1
  Te  Te3  1  0.42051600  0.57948400  0.25000000  1
  Te  Te4  1  0.07950500  0.92049500  0.25000000  1
  Te  Te5  1  0.92049500  0.07950500  0.75000000  1
  Se  Se6  1  0.70511000  0.29489000  0.25000000  1
  Se  Se7  1  0.29489000  0.70511000  0.75000000  1
