# generated using pymatgen
data_K2NaTiOF5
_symmetry_space_group_name_H-M   'P 1'
_cell_length_a   5.99689063
_cell_length_b   5.99689063
_cell_length_c   5.99689063
_cell_angle_alpha   120.19657139
_cell_angle_beta   120.19657139
_cell_angle_gamma   89.65986424
_symmetry_Int_Tables_number   1
_chemical_formula_structural   K2NaTiOF5
_chemical_formula_sum   'K2 Na1 Ti1 O1 F5'
_cell_volume   152.04173195
_cell_formula_units_Z   1
loop_
 _symmetry_equiv_pos_site_id
 _symmetry_equiv_pos_as_xyz
  1  'x, y, z'
loop_
 _atom_site_type_symbol
 _atom_site_label
 _atom_site_symmetry_multiplicity
 _atom_site_fract_x
 _atom_site_fract_y
 _atom_site_fract_z
 _atom_site_occupancy
  K  K0  1  0.75273700  0.25273700  0.50000000  1
  K  K1  1  0.25273700  0.75273700  0.50000000  1
  Na  Na2  1  0.49999000  0.49999000  0.00000000  1
  Ti  Ti3  1  0.02019700  0.02019700  0.00000000  1
  O  O4  1  0.22189100  0.22189100  0.00000000  1
  F  F5  1  0.22575500  0.22575500  0.45998700  1
  F  F6  1  0.76576800  0.22575500  0.00000000  1
  F  F7  1  0.22575500  0.76576800  0.00000000  1
  F  F8  1  0.76576800  0.76576800  0.54001300  1
  F  F9  1  0.76940200  0.76940200  0.00000000  1
