# generated using pymatgen
data_Na2ZnP2O7
_symmetry_space_group_name_H-M   'P 1'
_cell_length_a   7.83145500
_cell_length_b   7.81767300
_cell_length_c   12.84527043
_cell_angle_alpha   53.99545414
_cell_angle_beta   90.00000000
_cell_angle_gamma   90.00000000
_symmetry_Int_Tables_number   1
_chemical_formula_structural   Na2ZnP2O7
_chemical_formula_sum   'Na8 Zn4 P8 O28'
_cell_volume   636.20315310
_cell_formula_units_Z   4
loop_
 _symmetry_equiv_pos_site_id
 _symmetry_equiv_pos_as_xyz
  1  'x, y, z'
loop_
 _atom_site_type_symbol
 _atom_site_label
 _atom_site_symmetry_multiplicity
 _atom_site_fract_x
 _atom_site_fract_y
 _atom_site_fract_z
 _atom_site_occupancy
  Na  Na0  1  0.85702100  0.35729400  0.50368100  1
  Na  Na1  1  0.79962500  0.79670000  0.00941000  1
  Na  Na2  1  0.70037500  0.79670000  0.50941000  1
  Na  Na3  1  0.64297900  0.35729400  0.00368100  1
  Na  Na4  1  0.35702100  0.64270600  0.99631900  1
  Na  Na5  1  0.29962500  0.20330000  0.49059000  1
  Na  Na6  1  0.20037500  0.20330000  0.99059000  1
  Na  Na7  1  0.14297900  0.64270600  0.49631900  1
  Zn  Zn8  1  0.99778900  0.26311700  0.24916900  1
  Zn  Zn9  1  0.00221100  0.73688300  0.75083100  1
  Zn  Zn10  1  0.49778900  0.73688300  0.25083100  1
  Zn  Zn11  1  0.50221100  0.26311700  0.74916900  1
  P  P12  1  0.86301100  0.33976200  0.79373700  1
  P  P13  1  0.86474600  0.92165900  0.21797900  1
  P  P14  1  0.63525400  0.92165900  0.71797900  1
  P  P15  1  0.63698900  0.33976200  0.29373700  1
  P  P16  1  0.36301100  0.66023800  0.70626300  1
  P  P17  1  0.36474600  0.07834100  0.28202100  1
  P  P18  1  0.13525400  0.07834100  0.78202100  1
  P  P19  1  0.13698900  0.66023800  0.20626300  1
  O  O20  1  0.97112900  0.12393600  0.84234700  1
  O  O21  1  0.88909400  0.15839100  0.15759900  1
  O  O22  1  0.95099800  0.42901800  0.86030800  1
  O  O23  1  0.86314300  0.48594000  0.64815800  1
  O  O24  1  0.86950300  0.77477500  0.36384700  1
  O  O25  1  0.81135600  0.24675900  0.35919100  1
  O  O26  1  0.79245700  0.89272200  0.65691400  1
  O  O27  1  0.70754300  0.89272200  0.15691400  1
  O  O28  1  0.68864400  0.24675900  0.85919100  1
  O  O29  1  0.63049700  0.77477500  0.86384700  1
  O  O30  1  0.63685700  0.48594000  0.14815800  1
  O  O31  1  0.54900200  0.42901800  0.36030800  1
  O  O32  1  0.61090600  0.15839100  0.65759900  1
  O  O33  1  0.52887100  0.12393600  0.34234700  1
  O  O34  1  0.47112900  0.87606400  0.65765300  1
  O  O35  1  0.45099800  0.57098200  0.63969200  1
  O  O36  1  0.38909400  0.84160900  0.34240100  1
  O  O37  1  0.36314300  0.51406000  0.85184200  1
  O  O38  1  0.36950300  0.22522500  0.13615300  1
  O  O39  1  0.31135600  0.75324100  0.14080900  1
  O  O40  1  0.29245700  0.10727800  0.84308600  1
  O  O41  1  0.20754300  0.10727800  0.34308600  1
  O  O42  1  0.18864400  0.75324100  0.64080900  1
  O  O43  1  0.13049700  0.22522500  0.63615300  1
  O  O44  1  0.13685700  0.51406000  0.35184200  1
  O  O45  1  0.04900200  0.57098200  0.13969200  1
  O  O46  1  0.11090600  0.84160900  0.84240100  1
  O  O47  1  0.02887100  0.87606400  0.15765300  1
