# generated using pymatgen
data_LaNi4B
_symmetry_space_group_name_H-M   'P 1'
_cell_length_a   5.09534010
_cell_length_b   5.09534010
_cell_length_c   6.99565900
_cell_angle_alpha   90.00000000
_cell_angle_beta   90.00000000
_cell_angle_gamma   120.00000134
_symmetry_Int_Tables_number   1
_chemical_formula_structural   LaNi4B
_chemical_formula_sum   'La2 Ni8 B2'
_cell_volume   157.29162991
_cell_formula_units_Z   2
loop_
 _symmetry_equiv_pos_site_id
 _symmetry_equiv_pos_as_xyz
  1  'x, y, z'
loop_
 _atom_site_type_symbol
 _atom_site_label
 _atom_site_symmetry_multiplicity
 _atom_site_fract_x
 _atom_site_fract_y
 _atom_site_fract_z
 _atom_site_occupancy
  La  La0  1  0.00000000  0.00000000  0.50000000  1
  La  La1  1  0.00000000  0.00000000  0.00000000  1
  Ni  Ni2  1  0.33333300  0.66666700  0.00000000  1
  Ni  Ni3  1  0.66666700  0.33333300  0.00000000  1
  Ni  Ni4  1  0.50000000  0.00000000  0.29465100  1
  Ni  Ni5  1  0.50000000  0.50000000  0.29465100  1
  Ni  Ni6  1  0.00000000  0.50000000  0.29465100  1
  Ni  Ni7  1  0.50000000  0.00000000  0.70534900  1
  Ni  Ni8  1  0.50000000  0.50000000  0.70534900  1
  Ni  Ni9  1  0.00000000  0.50000000  0.70534900  1
  B  B10  1  0.66666700  0.33333300  0.50000000  1
  B  B11  1  0.33333300  0.66666700  0.50000000  1
