# generated using pymatgen
data_Th(MoO4)2
_symmetry_space_group_name_H-M   'P 1'
_cell_length_a   10.13613900
_cell_length_b   10.41036400
_cell_length_c   14.89788000
_cell_angle_alpha   90.00000000
_cell_angle_beta   90.00000000
_cell_angle_gamma   90.00000000
_symmetry_Int_Tables_number   1
_chemical_formula_structural   Th(MoO4)2
_chemical_formula_sum   'Th8 Mo16 O64'
_cell_volume   1572.03765421
_cell_formula_units_Z   8
loop_
 _symmetry_equiv_pos_site_id
 _symmetry_equiv_pos_as_xyz
  1  'x, y, z'
loop_
 _atom_site_type_symbol
 _atom_site_label
 _atom_site_symmetry_multiplicity
 _atom_site_fract_x
 _atom_site_fract_y
 _atom_site_fract_z
 _atom_site_occupancy
  Th  Th0  1  0.71905900  0.03165700  0.39137300  1
  Th  Th1  1  0.21905900  0.96834300  0.10862700  1
  Th  Th2  1  0.78094100  0.53165700  0.60862700  1
  Th  Th3  1  0.28094100  0.46834300  0.89137300  1
  Th  Th4  1  0.28094100  0.96834300  0.60862700  1
  Th  Th5  1  0.78094100  0.03165700  0.89137300  1
  Th  Th6  1  0.21905900  0.46834300  0.39137300  1
  Th  Th7  1  0.71905900  0.53165700  0.10862700  1
  Mo  Mo8  1  0.00171100  0.77964800  0.44453100  1
  Mo  Mo9  1  0.50171100  0.22035200  0.05546900  1
  Mo  Mo10  1  0.49828900  0.27964800  0.55546900  1
  Mo  Mo11  1  0.99828900  0.72035200  0.94453100  1
  Mo  Mo12  1  0.99828900  0.22035200  0.55546900  1
  Mo  Mo13  1  0.49828900  0.77964800  0.94453100  1
  Mo  Mo14  1  0.50171100  0.72035200  0.44453100  1
  Mo  Mo15  1  0.00171100  0.27964800  0.05546900  1
  Mo  Mo16  1  0.83407400  0.39260100  0.34363000  1
  Mo  Mo17  1  0.33407400  0.60739900  0.15637000  1
  Mo  Mo18  1  0.66592600  0.89260100  0.65637000  1
  Mo  Mo19  1  0.16592600  0.10739900  0.84363000  1
  Mo  Mo20  1  0.16592600  0.60739900  0.65637000  1
  Mo  Mo21  1  0.66592600  0.39260100  0.84363000  1
  Mo  Mo22  1  0.33407400  0.10739900  0.34363000  1
  Mo  Mo23  1  0.83407400  0.89260100  0.15637000  1
  O  O24  1  0.78796900  0.22767200  0.32577100  1
  O  O25  1  0.28796900  0.77232800  0.17422900  1
  O  O26  1  0.71203100  0.72767200  0.67422900  1
  O  O27  1  0.21203100  0.27232800  0.82577100  1
  O  O28  1  0.21203100  0.77232800  0.67422900  1
  O  O29  1  0.71203100  0.22767200  0.82577100  1
  O  O30  1  0.28796900  0.27232800  0.32577100  1
  O  O31  1  0.78796900  0.72767200  0.17422900  1
  O  O32  1  0.59872100  0.32807400  0.12267200  1
  O  O33  1  0.09872100  0.67192600  0.37732800  1
  O  O34  1  0.90127900  0.82807400  0.87732800  1
  O  O35  1  0.40127900  0.17192600  0.62267200  1
  O  O36  1  0.40127900  0.67192600  0.87732800  1
  O  O37  1  0.90127900  0.32807400  0.62267200  1
  O  O38  1  0.09872100  0.17192600  0.12267200  1
  O  O39  1  0.59872100  0.82807400  0.37732800  1
  O  O40  1  0.50780600  0.08543300  0.32801900  1
  O  O41  1  0.00780600  0.91456700  0.17198100  1
  O  O42  1  0.99219400  0.58543300  0.67198100  1
  O  O43  1  0.49219400  0.41456700  0.82801900  1
  O  O44  1  0.49219400  0.91456700  0.67198100  1
  O  O45  1  0.89575100  0.18303200  0.98707300  1
  O  O46  1  0.99219400  0.08543300  0.82801900  1
  O  O47  1  0.50780600  0.58543300  0.17198100  1
  O  O48  1  0.74491900  0.49234500  0.26643200  1
  O  O49  1  0.24491900  0.50765500  0.23356800  1
  O  O50  1  0.75508100  0.99234500  0.73356800  1
  O  O51  1  0.25508100  0.00765500  0.76643200  1
  O  O52  1  0.25508100  0.50765500  0.73356800  1
  O  O53  1  0.75508100  0.49234500  0.76643200  1
  O  O54  1  0.24491900  0.00765500  0.26643200  1
  O  O55  1  0.74491900  0.99234500  0.23356800  1
  O  O56  1  0.89977900  0.88588700  0.37795700  1
  O  O57  1  0.39977900  0.11411300  0.12204300  1
  O  O58  1  0.60022100  0.38588700  0.62204300  1
  O  O59  1  0.10022100  0.61411300  0.87795700  1
  O  O60  1  0.10022100  0.11411300  0.62204300  1
  O  O61  1  0.60022100  0.88588700  0.87795700  1
  O  O62  1  0.39977900  0.61411300  0.37795700  1
  O  O63  1  0.89977900  0.38588700  0.12204300  1
  O  O64  1  0.89411300  0.62624600  0.01562600  1
  O  O65  1  0.39411300  0.37375400  0.48437400  1
  O  O66  1  0.60588700  0.12624600  0.98437400  1
  O  O67  1  0.10588700  0.87375400  0.51562600  1
  O  O68  1  0.10588700  0.37375400  0.98437400  1
  O  O69  1  0.60588700  0.62624600  0.51562600  1
  O  O70  1  0.39411300  0.87375400  0.01562600  1
  O  O71  1  0.89411300  0.12624600  0.48437400  1
  O  O72  1  0.79555500  0.93558200  0.04259300  1
  O  O73  1  0.29555500  0.06441800  0.45740700  1
  O  O74  1  0.70444500  0.43558200  0.95740700  1
  O  O75  1  0.20444500  0.56441800  0.54259300  1
  O  O76  1  0.20444500  0.06441800  0.95740700  1
  O  O77  1  0.70444500  0.93558200  0.54259300  1
  O  O78  1  0.29555500  0.56441800  0.04259300  1
  O  O79  1  0.79555500  0.43558200  0.45740700  1
  O  O80  1  0.89575100  0.68303200  0.51292700  1
  O  O81  1  0.39575100  0.31696800  0.98707300  1
  O  O82  1  0.60424900  0.18303200  0.48707300  1
  O  O83  1  0.10424900  0.81696800  0.01292700  1
  O  O84  1  0.10424900  0.31696800  0.48707300  1
  O  O85  1  0.60424900  0.68303200  0.01292700  1
  O  O86  1  0.39575100  0.81696800  0.51292700  1
  O  O87  1  0.00780600  0.41456700  0.32801900  1
