# generated using pymatgen
data_NaSi2Pd3
_symmetry_space_group_name_H-M   'P 1'
_cell_length_a   6.74065316
_cell_length_b   6.74065316
_cell_length_c   6.74065316
_cell_angle_alpha   129.32671348
_cell_angle_beta   116.68558179
_cell_angle_gamma   85.24841538
_symmetry_Int_Tables_number   1
_chemical_formula_structural   NaSi2Pd3
_chemical_formula_sum   'Na2 Si4 Pd6'
_cell_volume   202.45789585
_cell_formula_units_Z   2
loop_
 _symmetry_equiv_pos_site_id
 _symmetry_equiv_pos_as_xyz
  1  'x, y, z'
loop_
 _atom_site_type_symbol
 _atom_site_label
 _atom_site_symmetry_multiplicity
 _atom_site_fract_x
 _atom_site_fract_y
 _atom_site_fract_z
 _atom_site_occupancy
  Na  Na0  1  0.00000000  0.95566300  0.95566300  1
  Na  Na1  1  0.50000000  0.01902100  0.51902100  1
  Si  Si2  1  0.31090000  0.38251400  0.07161400  1
  Si  Si3  1  0.84266700  0.28157700  0.43891000  1
  Si  Si4  1  0.68910000  0.76071400  0.07161400  1
  Si  Si5  1  0.15733300  0.59624300  0.43891000  1
  Pd  Pd6  1  0.95015600  0.49562800  0.94738000  1
  Pd  Pd7  1  0.54824700  0.49562800  0.54547200  1
  Pd  Pd8  1  0.04984400  0.99722400  0.54547200  1
  Pd  Pd9  1  0.71849000  0.50178300  0.22027300  1
  Pd  Pd10  1  0.28151000  0.50178300  0.78329200  1
  Pd  Pd11  1  0.45175300  0.99722400  0.94738000  1
