# generated using pymatgen
data_TaBO4
_symmetry_space_group_name_H-M   'P 1'
_cell_length_a   5.23162792
_cell_length_b   5.23162792
_cell_length_c   5.23162792
_cell_angle_alpha   106.20071809
_cell_angle_beta   106.20071809
_cell_angle_gamma   116.23115747
_symmetry_Int_Tables_number   1
_chemical_formula_structural   TaBO4
_chemical_formula_sum   'Ta2 B2 O8'
_cell_volume   109.06325683
_cell_formula_units_Z   2
loop_
 _symmetry_equiv_pos_site_id
 _symmetry_equiv_pos_as_xyz
  1  'x, y, z'
loop_
 _atom_site_type_symbol
 _atom_site_label
 _atom_site_symmetry_multiplicity
 _atom_site_fract_x
 _atom_site_fract_y
 _atom_site_fract_z
 _atom_site_occupancy
  Ta  Ta0  1  0.00000000  0.00000000  0.00000000  1
  Ta  Ta1  1  0.25000000  0.75000000  0.50000000  1
  B  B2  1  0.50000000  0.50000000  0.00000000  1
  B  B3  1  0.75000000  0.25000000  0.50000000  1
  O  O4  1  0.32421300  0.14631000  0.82209700  1
  O  O5  1  0.75211600  0.07421300  0.67790300  1
  O  O6  1  0.49788400  0.67578700  0.82209700  1
  O  O7  1  0.92578700  0.60369000  0.67790300  1
  O  O8  1  0.92578700  0.24788400  0.32209700  1
  O  O9  1  0.85369000  0.67578700  0.17790300  1
  O  O10  1  0.32421300  0.50211600  0.17790300  1
  O  O11  1  0.39631000  0.07421300  0.32209700  1
