# generated using pymatgen
data_NaHf2(PO4)3
_symmetry_space_group_name_H-M   'P 1'
_cell_length_a   9.18271482
_cell_length_b   9.18271482
_cell_length_c   9.18271586
_cell_angle_alpha   57.67412642
_cell_angle_beta   57.67412642
_cell_angle_gamma   57.67412646
_symmetry_Int_Tables_number   1
_chemical_formula_structural   NaHf2(PO4)3
_chemical_formula_sum   'Na2 Hf4 P6 O24'
_cell_volume   518.25561547
_cell_formula_units_Z   2
loop_
 _symmetry_equiv_pos_site_id
 _symmetry_equiv_pos_as_xyz
  1  'x, y, z'
loop_
 _atom_site_type_symbol
 _atom_site_label
 _atom_site_symmetry_multiplicity
 _atom_site_fract_x
 _atom_site_fract_y
 _atom_site_fract_z
 _atom_site_occupancy
  Na  Na0  1  0.00000000  0.00000000  0.00000000  1
  Na  Na1  1  0.50000000  0.50000000  0.50000000  1
  Hf  Hf2  1  0.14557900  0.14557900  0.14557900  1
  Hf  Hf3  1  0.35442100  0.35442100  0.35442100  1
  Hf  Hf4  1  0.64557900  0.64557900  0.64557900  1
  Hf  Hf5  1  0.85442100  0.85442100  0.85442100  1
  P  P6  1  0.04056000  0.45944000  0.75000000  1
  P  P7  1  0.45944000  0.75000000  0.04056000  1
  P  P8  1  0.75000000  0.04056000  0.45944000  1
  P  P9  1  0.25000000  0.95944000  0.54056000  1
  P  P10  1  0.54056000  0.25000000  0.95944000  1
  P  P11  1  0.95944000  0.54056000  0.25000000  1
  O  O12  1  0.56382700  0.41812900  0.78064000  1
  O  O13  1  0.78064000  0.56382700  0.41812900  1
  O  O14  1  0.41812900  0.78064000  0.56382700  1
  O  O15  1  0.87733000  0.49436800  0.71315600  1
  O  O16  1  0.49436800  0.71315600  0.87733000  1
  O  O17  1  0.71315600  0.87733000  0.49436800  1
  O  O18  1  0.00563200  0.62267000  0.78684400  1
  O  O19  1  0.62267000  0.78684400  0.00563200  1
  O  O20  1  0.78684400  0.00563200  0.62267000  1
  O  O21  1  0.93617300  0.71936000  0.08187100  1
  O  O22  1  0.08187100  0.93617300  0.71936000  1
  O  O23  1  0.71936000  0.08187100  0.93617300  1
  O  O24  1  0.28064000  0.91812900  0.06382700  1
  O  O25  1  0.91812900  0.06382700  0.28064000  1
  O  O26  1  0.06382700  0.28064000  0.91812900  1
  O  O27  1  0.21315600  0.99436800  0.37733000  1
  O  O28  1  0.37733000  0.21315600  0.99436800  1
  O  O29  1  0.99436800  0.37733000  0.21315600  1
  O  O30  1  0.28684400  0.12267000  0.50563200  1
  O  O31  1  0.50563200  0.28684400  0.12267000  1
  O  O32  1  0.12267000  0.50563200  0.28684400  1
  O  O33  1  0.58187100  0.21936000  0.43617300  1
  O  O34  1  0.21936000  0.43617300  0.58187100  1
  O  O35  1  0.43617300  0.58187100  0.21936000  1
