# generated using pymatgen
data_HfSiO4
_symmetry_space_group_name_H-M   'P 1'
_cell_length_a   5.56457889
_cell_length_b   5.56457889
_cell_length_c   5.56457889
_cell_angle_alpha   106.93889778
_cell_angle_beta   106.93889778
_cell_angle_gamma   114.66402757
_symmetry_Int_Tables_number   1
_chemical_formula_structural   HfSiO4
_chemical_formula_sum   'Hf2 Si2 O8'
_cell_volume   131.81548604
_cell_formula_units_Z   2
loop_
 _symmetry_equiv_pos_site_id
 _symmetry_equiv_pos_as_xyz
  1  'x, y, z'
loop_
 _atom_site_type_symbol
 _atom_site_label
 _atom_site_symmetry_multiplicity
 _atom_site_fract_x
 _atom_site_fract_y
 _atom_site_fract_z
 _atom_site_occupancy
  Hf  Hf0  1  0.00000000  0.00000000  0.00000000  1
  Hf  Hf1  1  0.25000000  0.75000000  0.50000000  1
  Si  Si2  1  0.75000000  0.25000000  0.50000000  1
  Si  Si3  1  0.50000000  0.50000000  0.00000000  1
  O  O4  1  0.31840900  0.13379300  0.81538400  1
  O  O5  1  0.75302400  0.06840900  0.68461600  1
  O  O6  1  0.38379300  0.06840900  0.31538400  1
  O  O7  1  0.31840900  0.50302400  0.18461600  1
  O  O8  1  0.49697600  0.68159100  0.81538400  1
  O  O9  1  0.93159100  0.61620700  0.68461600  1
  O  O10  1  0.93159100  0.24697600  0.31538400  1
  O  O11  1  0.86620700  0.68159100  0.18461600  1
