# generated using pymatgen
data_PrScGe
_symmetry_space_group_name_H-M   'P 1'
_cell_length_a   8.63021439
_cell_length_b   8.63021439
_cell_length_c   8.63021439
_cell_angle_alpha   150.83801383
_cell_angle_beta   150.83801383
_cell_angle_gamma   41.71266417
_symmetry_Int_Tables_number   1
_chemical_formula_structural   PrScGe
_chemical_formula_sum   'Pr2 Sc2 Ge2'
_cell_volume   152.27412449
_cell_formula_units_Z   2
loop_
 _symmetry_equiv_pos_site_id
 _symmetry_equiv_pos_as_xyz
  1  'x, y, z'
loop_
 _atom_site_type_symbol
 _atom_site_label
 _atom_site_symmetry_multiplicity
 _atom_site_fract_x
 _atom_site_fract_y
 _atom_site_fract_z
 _atom_site_occupancy
  Pr  Pr0  1  0.67644600  0.67644600  0.00000000  1
  Pr  Pr1  1  0.32355400  0.32355400  0.00000000  1
  Sc  Sc2  1  0.50000000  0.00000000  0.50000000  1
  Sc  Sc3  1  0.00000000  0.50000000  0.50000000  1
  Ge  Ge4  1  0.12168600  0.12168600  0.00000000  1
  Ge  Ge5  1  0.87831400  0.87831400  0.00000000  1
