# generated using pymatgen
data_TlGaS2
_symmetry_space_group_name_H-M   'P 1'
_cell_length_a   7.40909810
_cell_length_b   7.40909810
_cell_length_c   15.42691223
_cell_angle_alpha   83.04223334
_cell_angle_beta   83.04223334
_cell_angle_gamma   89.99467400
_symmetry_Int_Tables_number   1
_chemical_formula_structural   TlGaS2
_chemical_formula_sum   'Tl8 Ga8 S16'
_cell_volume   834.33782126
_cell_formula_units_Z   8
loop_
 _symmetry_equiv_pos_site_id
 _symmetry_equiv_pos_as_xyz
  1  'x, y, z'
loop_
 _atom_site_type_symbol
 _atom_site_label
 _atom_site_symmetry_multiplicity
 _atom_site_fract_x
 _atom_site_fract_y
 _atom_site_fract_z
 _atom_site_occupancy
  Tl  Tl0  1  0.27733800  0.15484400  0.88406100  1
  Tl  Tl1  1  0.84515600  0.72266200  0.61593900  1
  Tl  Tl2  1  0.72266200  0.84515600  0.11593900  1
  Tl  Tl3  1  0.15484400  0.27733800  0.38406100  1
  Tl  Tl4  1  0.65191500  0.27529400  0.39028200  1
  Tl  Tl5  1  0.72470600  0.34808500  0.10971800  1
  Tl  Tl6  1  0.34808500  0.72470600  0.60971800  1
  Tl  Tl7  1  0.27529400  0.65191500  0.89028200  1
  Ga  Ga8  1  0.20899300  0.58636700  0.16424800  1
  Ga  Ga9  1  0.91929400  0.79074800  0.33696200  1
  Ga  Ga10  1  0.79074800  0.91929400  0.83696200  1
  Ga  Ga11  1  0.08070600  0.20925200  0.66303800  1
  Ga  Ga12  1  0.58636700  0.20899300  0.66424800  1
  Ga  Ga13  1  0.79100700  0.41363300  0.83575200  1
  Ga  Ga14  1  0.41363300  0.79100700  0.33575200  1
  Ga  Ga15  1  0.20925200  0.08070600  0.16303800  1
  S  S16  1  0.76930900  0.14434000  0.92808800  1
  S  S17  1  0.85566000  0.23069100  0.57191200  1
  S  S18  1  0.23069100  0.85566000  0.07191200  1
  S  S19  1  0.14434000  0.76930900  0.42808800  1
  S  S20  1  0.44450800  0.06815300  0.24866700  1
  S  S21  1  0.93184700  0.55549200  0.25133300  1
  S  S22  1  0.55549200  0.93184700  0.75133300  1
  S  S23  1  0.06815300  0.44450800  0.74866700  1
  S  S24  1  0.64315200  0.77028700  0.42497300  1
  S  S25  1  0.22971300  0.35684800  0.07502700  1
  S  S26  1  0.35684800  0.22971300  0.57502700  1
  S  S27  1  0.06800700  0.93199300  0.75000000  1
  S  S28  1  0.44411400  0.55588600  0.25000000  1
  S  S29  1  0.55588600  0.44411400  0.75000000  1
  S  S30  1  0.93199300  0.06800700  0.25000000  1
  S  S31  1  0.77028700  0.64315200  0.92497300  1
