# generated using pymatgen
data_Cd(PO3)2
_symmetry_space_group_name_H-M   'P 1'
_cell_length_a   7.16787300
_cell_length_b   9.82219400
_cell_length_c   13.86604800
_cell_angle_alpha   90.00000000
_cell_angle_beta   90.00000000
_cell_angle_gamma   90.00000000
_symmetry_Int_Tables_number   1
_chemical_formula_structural   Cd(PO3)2
_chemical_formula_sum   'Cd8 P16 O48'
_cell_volume   976.22855978
_cell_formula_units_Z   8
loop_
 _symmetry_equiv_pos_site_id
 _symmetry_equiv_pos_as_xyz
  1  'x, y, z'
loop_
 _atom_site_type_symbol
 _atom_site_label
 _atom_site_symmetry_multiplicity
 _atom_site_fract_x
 _atom_site_fract_y
 _atom_site_fract_z
 _atom_site_occupancy
  Cd  Cd0  1  0.55090000  0.99239300  0.29367000  1
  Cd  Cd1  1  0.05090000  0.50760700  0.70633000  1
  Cd  Cd2  1  0.44910000  0.49239300  0.20633000  1
  Cd  Cd3  1  0.94910000  0.00760700  0.79367000  1
  Cd  Cd4  1  0.44910000  0.00760700  0.70633000  1
  Cd  Cd5  1  0.94910000  0.49239300  0.29367000  1
  Cd  Cd6  1  0.55090000  0.50760700  0.79367000  1
  Cd  Cd7  1  0.05090000  0.99239300  0.20633000  1
  P  P8  1  0.08242300  0.30031600  0.09749200  1
  P  P9  1  0.58242300  0.19968400  0.90250800  1
  P  P10  1  0.91757700  0.80031600  0.40250800  1
  P  P11  1  0.41757700  0.69968400  0.59749200  1
  P  P12  1  0.91757700  0.69968400  0.90250800  1
  P  P13  1  0.41757700  0.80031600  0.09749200  1
  P  P14  1  0.08242300  0.19968400  0.59749200  1
  P  P15  1  0.58242300  0.30031600  0.40250800  1
  P  P16  1  0.68539000  0.21210700  0.10607900  1
  P  P17  1  0.18539000  0.28789300  0.89392100  1
  P  P18  1  0.31461000  0.71210700  0.39392100  1
  P  P19  1  0.81461000  0.78789300  0.60607900  1
  P  P20  1  0.31461000  0.78789300  0.89392100  1
  P  P21  1  0.81461000  0.71210700  0.10607900  1
  P  P22  1  0.68539000  0.28789300  0.60607900  1
  P  P23  1  0.18539000  0.21210700  0.39392100  1
  O  O24  1  0.65635700  0.13760700  0.00295900  1
  O  O25  1  0.15635700  0.36239300  0.99704100  1
  O  O26  1  0.34364300  0.63760700  0.49704100  1
  O  O27  1  0.84364300  0.86239300  0.50295900  1
  O  O28  1  0.34364300  0.86239300  0.99704100  1
  O  O29  1  0.84364300  0.63760700  0.00295900  1
  O  O30  1  0.65635700  0.36239300  0.50295900  1
  O  O31  1  0.15635700  0.13760700  0.49704100  1
  O  O32  1  0.85846700  0.31387900  0.08796700  1
  O  O33  1  0.35846700  0.18612100  0.91203300  1
  O  O34  1  0.14153300  0.81387900  0.41203300  1
  O  O35  1  0.64153300  0.68612100  0.58796700  1
  O  O36  1  0.14153300  0.68612100  0.91203300  1
  O  O37  1  0.64153300  0.81387900  0.08796700  1
  O  O38  1  0.85846700  0.18612100  0.58796700  1
  O  O39  1  0.35846700  0.31387900  0.41203300  1
  O  O40  1  0.13767800  0.15404400  0.10546200  1
  O  O41  1  0.13839900  0.40265800  0.17429600  1
  O  O42  1  0.63767800  0.34595600  0.89453800  1
  O  O43  1  0.36232200  0.84595600  0.60546200  1
  O  O44  1  0.86232200  0.84595600  0.89453800  1
  O  O45  1  0.36232200  0.65404400  0.10546200  1
  O  O46  1  0.13767800  0.34595600  0.60546200  1
  O  O47  1  0.63767800  0.15404400  0.39453800  1
  O  O48  1  0.01936700  0.29866000  0.37206700  1
  O  O49  1  0.51936700  0.20134000  0.62793300  1
  O  O50  1  0.98063300  0.79866000  0.12793300  1
  O  O51  1  0.48063300  0.70134000  0.87206700  1
  O  O52  1  0.98063300  0.70134000  0.62793300  1
  O  O53  1  0.48063300  0.79866000  0.37206700  1
  O  O54  1  0.01936700  0.20134000  0.87206700  1
  O  O55  1  0.51936700  0.29866000  0.12793300  1
  O  O56  1  0.24101800  0.10097500  0.32373400  1
  O  O57  1  0.74101800  0.39902500  0.67626600  1
  O  O58  1  0.75898200  0.60097500  0.17626600  1
  O  O59  1  0.25898200  0.89902500  0.82373400  1
  O  O60  1  0.75898200  0.89902500  0.67626600  1
  O  O61  1  0.25898200  0.60097500  0.32373400  1
  O  O62  1  0.24101800  0.39902500  0.82373400  1
  O  O63  1  0.74101800  0.10097500  0.17626600  1
  O  O64  1  0.63839900  0.40265800  0.32570400  1
  O  O65  1  0.13839900  0.09734200  0.67429600  1
  O  O66  1  0.36160100  0.90265800  0.17429600  1
  O  O67  1  0.86160100  0.59734200  0.82570400  1
  O  O68  1  0.36160100  0.59734200  0.67429600  1
  O  O69  1  0.86160100  0.90265800  0.32570400  1
  O  O70  1  0.63839900  0.09734200  0.82570400  1
  O  O71  1  0.86232200  0.65404400  0.39453800  1
