# generated using pymatgen
data_LiSbO3
_symmetry_space_group_name_H-M   'P 1'
_cell_length_a   4.99198800
_cell_length_b   5.27028200
_cell_length_c   8.60878700
_cell_angle_alpha   90.00000000
_cell_angle_beta   90.00000000
_cell_angle_gamma   90.00000000
_symmetry_Int_Tables_number   1
_chemical_formula_structural   LiSbO3
_chemical_formula_sum   'Li4 Sb4 O12'
_cell_volume   226.49016551
_cell_formula_units_Z   4
loop_
 _symmetry_equiv_pos_site_id
 _symmetry_equiv_pos_as_xyz
  1  'x, y, z'
loop_
 _atom_site_type_symbol
 _atom_site_label
 _atom_site_symmetry_multiplicity
 _atom_site_fract_x
 _atom_site_fract_y
 _atom_site_fract_z
 _atom_site_occupancy
  Li  Li0  1  0.50000000  0.75000000  0.80578100  1
  Li  Li1  1  0.00000000  0.75000000  0.69421900  1
  Li  Li2  1  0.50000000  0.25000000  0.19421900  1
  Li  Li3  1  0.00000000  0.25000000  0.30578100  1
  Sb  Sb4  1  0.50000000  0.75000000  0.40533500  1
  Sb  Sb5  1  0.00000000  0.25000000  0.90533500  1
  Sb  Sb6  1  0.50000000  0.25000000  0.59466500  1
  Sb  Sb7  1  0.00000000  0.75000000  0.09466500  1
  O  O8  1  0.79503500  0.57559000  0.91827400  1
  O  O9  1  0.70496500  0.57559000  0.58172600  1
  O  O10  1  0.20496500  0.92441000  0.91827400  1
  O  O11  1  0.25000000  0.40915300  0.75000000  1
  O  O12  1  0.75000000  0.59084700  0.25000000  1
  O  O13  1  0.25000000  0.90915300  0.25000000  1
  O  O14  1  0.70496500  0.07559000  0.41827400  1
  O  O15  1  0.75000000  0.09084700  0.75000000  1
  O  O16  1  0.29503500  0.42441000  0.41827400  1
  O  O17  1  0.20496500  0.42441000  0.08172600  1
  O  O18  1  0.79503500  0.07559000  0.08172600  1
  O  O19  1  0.29503500  0.92441000  0.58172600  1
