# generated using pymatgen
data_Ho(CuSi)2
_symmetry_space_group_name_H-M   'P 1'
_cell_length_a   5.72960110
_cell_length_b   5.72960110
_cell_length_c   5.72960110
_cell_angle_alpha   139.61581088
_cell_angle_beta   139.61581088
_cell_angle_gamma   58.43710211
_symmetry_Int_Tables_number   1
_chemical_formula_structural   Ho(CuSi)2
_chemical_formula_sum   'Ho1 Cu2 Si2'
_cell_volume   78.23351501
_cell_formula_units_Z   1
loop_
 _symmetry_equiv_pos_site_id
 _symmetry_equiv_pos_as_xyz
  1  'x, y, z'
loop_
 _atom_site_type_symbol
 _atom_site_label
 _atom_site_symmetry_multiplicity
 _atom_site_fract_x
 _atom_site_fract_y
 _atom_site_fract_z
 _atom_site_occupancy
  Ho  Ho0  1  0.00000000  0.00000000  0.00000000  1
  Cu  Cu1  1  0.75000000  0.25000000  0.50000000  1
  Cu  Cu2  1  0.25000000  0.75000000  0.50000000  1
  Si  Si3  1  0.61702600  0.61702600  0.00000000  1
  Si  Si4  1  0.38297400  0.38297400  0.00000000  1
