# generated using pymatgen
data_Li2BeF4
_symmetry_space_group_name_H-M   'P 1'
_cell_length_a   8.37445744
_cell_length_b   8.37445744
_cell_length_c   8.37445735
_cell_angle_alpha   107.78321280
_cell_angle_beta   107.78321280
_cell_angle_gamma   107.78321325
_symmetry_Int_Tables_number   1
_chemical_formula_structural   Li2BeF4
_chemical_formula_sum   'Li12 Be6 F24'
_cell_volume   478.28556079
_cell_formula_units_Z   6
loop_
 _symmetry_equiv_pos_site_id
 _symmetry_equiv_pos_as_xyz
  1  'x, y, z'
loop_
 _atom_site_type_symbol
 _atom_site_label
 _atom_site_symmetry_multiplicity
 _atom_site_fract_x
 _atom_site_fract_y
 _atom_site_fract_z
 _atom_site_occupancy
  Li  Li0  1  0.09974300  0.27701800  0.87783200  1
  Li  Li1  1  0.87783200  0.09974300  0.27701800  1
  Li  Li2  1  0.27701800  0.87783200  0.09974300  1
  Li  Li3  1  0.90025700  0.72298200  0.12216800  1
  Li  Li4  1  0.12216800  0.90025700  0.72298200  1
  Li  Li5  1  0.72298200  0.12216800  0.90025700  1
  Li  Li6  1  0.43895500  0.61243400  0.20440100  1
  Li  Li7  1  0.20440100  0.43895500  0.61243400  1
  Li  Li8  1  0.61243400  0.20440100  0.43895500  1
  Li  Li9  1  0.56104500  0.38756600  0.79559900  1
  Li  Li10  1  0.79559900  0.56104500  0.38756600  1
  Li  Li11  1  0.38756600  0.79559900  0.56104500  1
  Be  Be12  1  0.76489500  0.94687600  0.54011600  1
  Be  Be13  1  0.54011600  0.76489500  0.94687600  1
  Be  Be14  1  0.94687600  0.54011600  0.76489500  1
  Be  Be15  1  0.23510500  0.05312400  0.45988400  1
  Be  Be16  1  0.45988400  0.23510500  0.05312400  1
  Be  Be17  1  0.05312400  0.45988400  0.23510500  1
  F  F18  1  0.26409800  0.59938500  0.31115100  1
  F  F19  1  0.59938500  0.31115100  0.26409800  1
  F  F20  1  0.31115100  0.26409800  0.59938500  1
  F  F21  1  0.73590200  0.40061500  0.68884900  1
  F  F22  1  0.40061500  0.68884900  0.73590200  1
  F  F23  1  0.68884900  0.73590200  0.40061500  1
  F  F24  1  0.96915200  0.02464800  0.69204800  1
  F  F25  1  0.69204800  0.96915200  0.02464800  1
  F  F26  1  0.02464800  0.69204800  0.96915200  1
  F  F27  1  0.03084800  0.97535200  0.30795200  1
  F  F28  1  0.30795200  0.03084800  0.97535200  1
  F  F29  1  0.97535200  0.30795200  0.03084800  1
  F  F30  1  0.75582600  0.06695400  0.42891500  1
  F  F31  1  0.42891500  0.75582600  0.06695400  1
  F  F32  1  0.06695400  0.42891500  0.75582600  1
  F  F33  1  0.24417400  0.93304600  0.57108500  1
  F  F34  1  0.57108500  0.24417400  0.93304600  1
  F  F35  1  0.93304600  0.57108500  0.24417400  1
  F  F36  1  0.63804300  0.96418200  0.64354300  1
  F  F37  1  0.64354300  0.63804300  0.96418200  1
  F  F38  1  0.96418200  0.64354300  0.63804300  1
  F  F39  1  0.36195700  0.03581800  0.35645700  1
  F  F40  1  0.35645700  0.36195700  0.03581800  1
  F  F41  1  0.03581800  0.35645700  0.36195700  1
