# generated using pymatgen
data_Na8Al6Si6SO28
_symmetry_space_group_name_H-M   'P 1'
_cell_length_a   9.16741200
_cell_length_b   9.16741200
_cell_length_c   9.16741200
_cell_angle_alpha   90.00000000
_cell_angle_beta   90.00000000
_cell_angle_gamma   90.00000000
_symmetry_Int_Tables_number   1
_chemical_formula_structural   Na8Al6Si6SO28
_chemical_formula_sum   'Na8 Al6 Si6 S1 O28'
_cell_volume   770.44253102
_cell_formula_units_Z   1
loop_
 _symmetry_equiv_pos_site_id
 _symmetry_equiv_pos_as_xyz
  1  'x, y, z'
loop_
 _atom_site_type_symbol
 _atom_site_label
 _atom_site_symmetry_multiplicity
 _atom_site_fract_x
 _atom_site_fract_y
 _atom_site_fract_z
 _atom_site_occupancy
  Na  Na0  1  0.19306500  0.19306500  0.19306500  1
  Na  Na1  1  0.19306500  0.80693500  0.80693500  1
  Na  Na2  1  0.24140300  0.24140300  0.75859700  1
  Na  Na3  1  0.24140300  0.75859700  0.24140300  1
  Na  Na4  1  0.75859700  0.24140300  0.24140300  1
  Na  Na5  1  0.75859700  0.75859700  0.75859700  1
  Na  Na6  1  0.80693500  0.19306500  0.80693500  1
  Na  Na7  1  0.80693500  0.80693500  0.19306500  1
  Al  Al8  1  0.00000000  0.25049200  0.50000000  1
  Al  Al9  1  0.00000000  0.74950800  0.50000000  1
  Al  Al10  1  0.25049200  0.50000000  0.00000000  1
  Al  Al11  1  0.50000000  0.00000000  0.74950800  1
  Al  Al12  1  0.50000000  0.00000000  0.25049200  1
  Al  Al13  1  0.74950800  0.50000000  0.00000000  1
  Si  Si14  1  0.00000000  0.50000000  0.24962700  1
  Si  Si15  1  0.00000000  0.50000000  0.75037300  1
  Si  Si16  1  0.24962700  0.00000000  0.50000000  1
  Si  Si17  1  0.50000000  0.75037300  0.00000000  1
  Si  Si18  1  0.50000000  0.24962700  0.00000000  1
  Si  Si19  1  0.75037300  0.00000000  0.50000000  1
  S  S20  1  0.00000000  0.00000000  0.00000000  1
  O  O21  1  0.04470200  0.35755200  0.65228100  1
  O  O22  1  0.04470200  0.64244800  0.34771900  1
  O  O23  1  0.09402800  0.09402800  0.90597200  1
  O  O24  1  0.09402800  0.90597200  0.09402800  1
  O  O25  1  0.15171700  0.14238300  0.45364800  1
  O  O26  1  0.14238300  0.45364800  0.15171700  1
  O  O27  1  0.14238300  0.54635200  0.84828300  1
  O  O28  1  0.15171700  0.85761700  0.54635200  1
  O  O29  1  0.34771900  0.04470200  0.64244800  1
  O  O30  1  0.35755200  0.34771900  0.95529800  1
  O  O31  1  0.35755200  0.65228100  0.04470200  1
  O  O32  1  0.34771900  0.95529800  0.35755200  1
  O  O33  1  0.45364800  0.15171700  0.14238300  1
  O  O34  1  0.45364800  0.84828300  0.85761700  1
  O  O35  1  0.54635200  0.15171700  0.85761700  1
  O  O36  1  0.54635200  0.84828300  0.14238300  1
  O  O37  1  0.65228100  0.04470200  0.35755200  1
  O  O38  1  0.64244800  0.34771900  0.04470200  1
  O  O39  1  0.64244800  0.65228100  0.95529800  1
  O  O40  1  0.65228100  0.95529800  0.64244800  1
  O  O41  1  0.84828300  0.14238300  0.54635200  1
  O  O42  1  0.85761700  0.45364800  0.84828300  1
  O  O43  1  0.85761700  0.54635200  0.15171700  1
  O  O44  1  0.84828300  0.85761700  0.45364800  1
  O  O45  1  0.90597200  0.09402800  0.09402800  1
  O  O46  1  0.90597200  0.90597200  0.90597200  1
  O  O47  1  0.95529800  0.35755200  0.34771900  1
  O  O48  1  0.95529800  0.64244800  0.65228100  1
