# generated using pymatgen
data_Na5Al3F14
_symmetry_space_group_name_H-M   'P 1'
_cell_length_a   7.11760200
_cell_length_b   7.11760200
_cell_length_c   10.56160600
_cell_angle_alpha   90.00000000
_cell_angle_beta   90.00000000
_cell_angle_gamma   90.00000000
_symmetry_Int_Tables_number   1
_chemical_formula_structural   Na5Al3F14
_chemical_formula_sum   'Na10 Al6 F28'
_cell_volume   535.05368729
_cell_formula_units_Z   2
loop_
 _symmetry_equiv_pos_site_id
 _symmetry_equiv_pos_as_xyz
  1  'x, y, z'
loop_
 _atom_site_type_symbol
 _atom_site_label
 _atom_site_symmetry_multiplicity
 _atom_site_fract_x
 _atom_site_fract_y
 _atom_site_fract_z
 _atom_site_occupancy
  Na  Na0  1  0.00000000  0.00000000  0.50000000  1
  Na  Na1  1  0.50000000  0.50000000  0.00000000  1
  Na  Na2  1  0.27519700  0.77519700  0.25000000  1
  Na  Na3  1  0.22480300  0.27519700  0.25000000  1
  Na  Na4  1  0.77519700  0.72480300  0.25000000  1
  Na  Na5  1  0.72480300  0.22480300  0.25000000  1
  Na  Na6  1  0.27519700  0.77519700  0.75000000  1
  Na  Na7  1  0.22480300  0.27519700  0.75000000  1
  Na  Na8  1  0.77519700  0.72480300  0.75000000  1
  Na  Na9  1  0.72480300  0.22480300  0.75000000  1
  Al  Al10  1  0.00000000  0.00000000  0.00000000  1
  Al  Al11  1  0.50000000  0.50000000  0.50000000  1
  Al  Al12  1  0.00000000  0.50000000  0.00000000  1
  Al  Al13  1  0.50000000  0.00000000  0.00000000  1
  Al  Al14  1  0.50000000  0.00000000  0.50000000  1
  Al  Al15  1  0.00000000  0.50000000  0.50000000  1
  F  F16  1  0.03479800  0.68001900  0.62013000  1
  F  F17  1  0.96520200  0.31998100  0.62013000  1
  F  F18  1  0.18001900  0.53479800  0.87987000  1
  F  F19  1  0.68001900  0.96520200  0.62013000  1
  F  F20  1  0.31998100  0.03479800  0.62013000  1
  F  F21  1  0.46520200  0.18001900  0.87987000  1
  F  F22  1  0.53479800  0.81998100  0.87987000  1
  F  F23  1  0.81998100  0.46520200  0.87987000  1
  F  F24  1  0.96520200  0.31998100  0.37987000  1
  F  F25  1  0.03479800  0.68001900  0.37987000  1
  F  F26  1  0.81998100  0.46520200  0.12013000  1
  F  F27  1  0.31998100  0.03479800  0.37987000  1
  F  F28  1  0.68001900  0.96520200  0.37987000  1
  F  F29  1  0.53479800  0.81998100  0.12013000  1
  F  F30  1  0.46520200  0.18001900  0.12013000  1
  F  F31  1  0.18001900  0.53479800  0.12013000  1
  F  F32  1  0.00000000  0.00000000  0.17148100  1
  F  F33  1  0.50000000  0.50000000  0.32851900  1
  F  F34  1  0.00000000  0.00000000  0.82851900  1
  F  F35  1  0.50000000  0.50000000  0.67148100  1
  F  F36  1  0.06338200  0.24791600  0.00000000  1
  F  F37  1  0.75208400  0.06338200  0.00000000  1
  F  F38  1  0.24791600  0.93661800  0.00000000  1
  F  F39  1  0.56338200  0.25208400  0.50000000  1
  F  F40  1  0.43661800  0.74791600  0.50000000  1
  F  F41  1  0.93661800  0.75208400  0.00000000  1
  F  F42  1  0.74791600  0.56338200  0.50000000  1
  F  F43  1  0.25208400  0.43661800  0.50000000  1
