# generated using pymatgen
data_RbCeTe2
_symmetry_space_group_name_H-M   'P 1'
_cell_length_a   8.95883409
_cell_length_b   8.95883409
_cell_length_c   8.95883410
_cell_angle_alpha   30.43231335
_cell_angle_beta   30.43231335
_cell_angle_gamma   30.43231129
_symmetry_Int_Tables_number   1
_chemical_formula_structural   RbCeTe2
_chemical_formula_sum   'Rb1 Ce1 Te2'
_cell_volume   163.51398422
_cell_formula_units_Z   1
loop_
 _symmetry_equiv_pos_site_id
 _symmetry_equiv_pos_as_xyz
  1  'x, y, z'
loop_
 _atom_site_type_symbol
 _atom_site_label
 _atom_site_symmetry_multiplicity
 _atom_site_fract_x
 _atom_site_fract_y
 _atom_site_fract_z
 _atom_site_occupancy
  Rb  Rb0  1  0.50000000  0.50000000  0.50000000  1
  Ce  Ce1  1  0.00000000  0.00000000  0.00000000  1
  Te  Te2  1  0.26535300  0.26535300  0.26535300  1
  Te  Te3  1  0.73464700  0.73464700  0.73464700  1
