# generated using pymatgen
data_BaZnO2
_symmetry_space_group_name_H-M   'P 1'
_cell_length_a   5.97230042
_cell_length_b   5.97230042
_cell_length_c   6.82699600
_cell_angle_alpha   90.00000000
_cell_angle_beta   90.00000000
_cell_angle_gamma   120.00000461
_symmetry_Int_Tables_number   1
_chemical_formula_structural   BaZnO2
_chemical_formula_sum   'Ba3 Zn3 O6'
_cell_volume   210.88396114
_cell_formula_units_Z   3
loop_
 _symmetry_equiv_pos_site_id
 _symmetry_equiv_pos_as_xyz
  1  'x, y, z'
loop_
 _atom_site_type_symbol
 _atom_site_label
 _atom_site_symmetry_multiplicity
 _atom_site_fract_x
 _atom_site_fract_y
 _atom_site_fract_z
 _atom_site_occupancy
  Ba  Ba0  1  0.65395900  0.00000000  0.83333300  1
  Ba  Ba1  1  0.00000000  0.65395900  0.16666700  1
  Ba  Ba2  1  0.34604100  0.34604100  0.50000000  1
  Zn  Zn3  1  0.41594500  0.41594500  0.00000000  1
  Zn  Zn4  1  0.00000000  0.58405500  0.66666700  1
  Zn  Zn5  1  0.58405500  0.00000000  0.33333300  1
  O  O6  1  0.12391600  0.42119700  0.87617300  1
  O  O7  1  0.57880300  0.70271900  0.20950600  1
  O  O8  1  0.29728100  0.87608400  0.54284000  1
  O  O9  1  0.70271900  0.57880300  0.79049400  1
  O  O10  1  0.42119700  0.12391600  0.12382700  1
  O  O11  1  0.87608400  0.29728100  0.45716000  1
