# generated using pymatgen
data_Na2SO4
_symmetry_space_group_name_H-M   'P 1'
_cell_length_a   7.97520194
_cell_length_b   6.90161091
_cell_length_c   5.79473912
_cell_angle_alpha   77.28329091
_cell_angle_beta   57.58165432
_cell_angle_gamma   45.13505477
_symmetry_Int_Tables_number   1
_chemical_formula_structural   Na2SO4
_chemical_formula_sum   'Na4 S2 O8'
_cell_volume   184.05495757
_cell_formula_units_Z   2
loop_
 _symmetry_equiv_pos_site_id
 _symmetry_equiv_pos_as_xyz
  1  'x, y, z'
loop_
 _atom_site_type_symbol
 _atom_site_label
 _atom_site_symmetry_multiplicity
 _atom_site_fract_x
 _atom_site_fract_y
 _atom_site_fract_z
 _atom_site_occupancy
  Na  Na0  1  0.81482600  0.18517400  0.81482600  1
  Na  Na1  1  0.18517400  0.81482600  0.18517400  1
  Na  Na2  1  0.06482600  0.43517400  0.06482600  1
  Na  Na3  1  0.43517400  0.06482600  0.43517400  1
  S  S4  1  0.50000000  0.50000000  0.50000000  1
  S  S5  1  0.75000000  0.75000000  0.75000000  1
  O  O6  1  0.76071400  0.87477200  0.91646800  1
  O  O7  1  0.44804600  0.91646800  0.87477200  1
  O  O8  1  0.91646800  0.44804600  0.76071400  1
  O  O9  1  0.87477200  0.76071400  0.44804600  1
  O  O10  1  0.48928600  0.37522800  0.33353200  1
  O  O11  1  0.80195400  0.33353200  0.37522800  1
  O  O12  1  0.37522800  0.48928600  0.80195400  1
  O  O13  1  0.33353200  0.80195400  0.48928600  1
