# generated using pymatgen
data_K2Mn2P2O7F2
_symmetry_space_group_name_H-M   'P 1'
_cell_length_a   6.99333500
_cell_length_b   10.81134700
_cell_length_c   11.46570100
_cell_angle_alpha   90.00000000
_cell_angle_beta   90.00000000
_cell_angle_gamma   90.00000000
_symmetry_Int_Tables_number   1
_chemical_formula_structural   K2Mn2P2O7F2
_chemical_formula_sum   'K8 Mn8 P8 O28 F8'
_cell_volume   866.89151355
_cell_formula_units_Z   4
loop_
 _symmetry_equiv_pos_site_id
 _symmetry_equiv_pos_as_xyz
  1  'x, y, z'
loop_
 _atom_site_type_symbol
 _atom_site_label
 _atom_site_symmetry_multiplicity
 _atom_site_fract_x
 _atom_site_fract_y
 _atom_site_fract_z
 _atom_site_occupancy
  K  K0  1  0.50006300  0.56381300  0.17325800  1
  K  K1  1  0.00006300  0.43618700  0.32674200  1
  K  K2  1  0.50006300  0.06381300  0.82674200  1
  K  K3  1  0.49993700  0.43618700  0.82674200  1
  K  K4  1  0.00006300  0.93618700  0.67325800  1
  K  K5  1  0.99993700  0.56381300  0.67325800  1
  K  K6  1  0.99993700  0.06381300  0.32674200  1
  K  K7  1  0.49993700  0.93618700  0.17325800  1
  Mn  Mn8  1  0.50000000  0.25000000  0.33449500  1
  Mn  Mn9  1  0.50000000  0.75000000  0.66550500  1
  Mn  Mn10  1  0.00000000  0.50000000  0.00000000  1
  Mn  Mn11  1  0.00000000  0.25000000  0.83449500  1
  Mn  Mn12  1  0.00000000  0.00000000  0.00000000  1
  Mn  Mn13  1  0.00000000  0.75000000  0.16550500  1
  Mn  Mn14  1  0.50000000  0.00000000  0.50000000  1
  Mn  Mn15  1  0.50000000  0.50000000  0.50000000  1
  P  P16  1  0.78423700  0.74861800  0.42174200  1
  P  P17  1  0.21576300  0.25138200  0.57825800  1
  P  P18  1  0.28423700  0.25138200  0.07825800  1
  P  P19  1  0.71576300  0.24861800  0.07825800  1
  P  P20  1  0.71576300  0.74861800  0.92174200  1
  P  P21  1  0.78423700  0.24861800  0.57825800  1
  P  P22  1  0.28423700  0.75138200  0.92174200  1
  P  P23  1  0.21576300  0.75138200  0.42174200  1
  O  O24  1  0.00000000  0.75000000  0.48034900  1
  O  O25  1  0.77593400  0.11289100  0.08401900  1
  O  O26  1  0.20247200  0.68966900  0.30172300  1
  O  O27  1  0.67474600  0.32667200  0.48710500  1
  O  O28  1  0.70247200  0.31033100  0.19827700  1
  O  O29  1  0.82525400  0.82667200  0.01289500  1
  O  O30  1  0.72406600  0.11289100  0.58401900  1
  O  O31  1  0.67474600  0.82667200  0.51289500  1
  O  O32  1  0.72406600  0.61289100  0.41598100  1
  O  O33  1  0.50000000  0.75000000  0.98034900  1
  O  O34  1  0.32525400  0.67332800  0.51289500  1
  O  O35  1  0.27593400  0.88710900  0.41598100  1
  O  O36  1  0.22406600  0.38710900  0.08401900  1
  O  O37  1  0.17474600  0.67332800  0.01289500  1
  O  O38  1  0.32525400  0.17332800  0.48710500  1
  O  O39  1  0.70247200  0.81033100  0.80172300  1
  O  O40  1  0.79752800  0.31033100  0.69827700  1
  O  O41  1  0.00000000  0.25000000  0.51965100  1
  O  O42  1  0.29752800  0.18966900  0.19827700  1
  O  O43  1  0.29752800  0.68966900  0.80172300  1
  O  O44  1  0.27593400  0.38710900  0.58401900  1
  O  O45  1  0.20247200  0.18966900  0.69827700  1
  O  O46  1  0.82525400  0.32667200  0.98710500  1
  O  O47  1  0.50000000  0.25000000  0.01965100  1
  O  O48  1  0.79752800  0.81033100  0.30172300  1
  O  O49  1  0.77593400  0.61289100  0.91598100  1
  O  O50  1  0.22406600  0.88710900  0.91598100  1
  O  O51  1  0.17474600  0.17332800  0.98710500  1
  F  F52  1  0.11660000  0.92891900  0.15642700  1
  F  F53  1  0.38340000  0.92891900  0.65642700  1
  F  F54  1  0.38340000  0.42891900  0.34357300  1
  F  F55  1  0.88340000  0.07108100  0.84357300  1
  F  F56  1  0.11660000  0.42891900  0.84357300  1
  F  F57  1  0.61660000  0.07108100  0.34357300  1
  F  F58  1  0.61660000  0.57108100  0.65642700  1
  F  F59  1  0.88340000  0.57108100  0.15642700  1
