# generated using pymatgen
data_Rb4Zr3Te16
_symmetry_space_group_name_H-M   'P 1'
_cell_length_a   11.36030220
_cell_length_b   11.36030220
_cell_length_c   15.65465366
_cell_angle_alpha   83.19590096
_cell_angle_beta   83.19590096
_cell_angle_gamma   115.31020330
_symmetry_Int_Tables_number   1
_chemical_formula_structural   Rb4Zr3Te16
_chemical_formula_sum   'Rb8 Zr6 Te32'
_cell_volume   1781.05201706
_cell_formula_units_Z   2
loop_
 _symmetry_equiv_pos_site_id
 _symmetry_equiv_pos_as_xyz
  1  'x, y, z'
loop_
 _atom_site_type_symbol
 _atom_site_label
 _atom_site_symmetry_multiplicity
 _atom_site_fract_x
 _atom_site_fract_y
 _atom_site_fract_z
 _atom_site_occupancy
  Rb  Rb0  1  0.54940900  0.25121200  0.93206200  1
  Rb  Rb1  1  0.74878800  0.45059100  0.56793800  1
  Rb  Rb2  1  0.45059100  0.74878800  0.06793800  1
  Rb  Rb3  1  0.25121200  0.54940900  0.43206200  1
  Rb  Rb4  1  0.02896300  0.75286800  0.87481600  1
  Rb  Rb5  1  0.24713200  0.97103700  0.62518400  1
  Rb  Rb6  1  0.97103700  0.24713200  0.12518400  1
  Rb  Rb7  1  0.75286800  0.02896300  0.37481600  1
  Zr  Zr8  1  0.56771200  0.79158100  0.72890300  1
  Zr  Zr9  1  0.20841900  0.43228800  0.77109700  1
  Zr  Zr10  1  0.43228800  0.20841900  0.27109700  1
  Zr  Zr11  1  0.79158100  0.56771200  0.22890300  1
  Zr  Zr12  1  0.89172300  0.10827700  0.75000000  1
  Zr  Zr13  1  0.10827700  0.89172300  0.25000000  1
  Te  Te14  1  0.75175800  0.84716700  0.86871100  1
  Te  Te15  1  0.15283300  0.24824200  0.63128900  1
  Te  Te16  1  0.24824200  0.15283300  0.13128900  1
  Te  Te17  1  0.84716700  0.75175800  0.36871100  1
  Te  Te18  1  0.80169100  0.09379200  0.93953800  1
  Te  Te19  1  0.90620800  0.19830900  0.56046200  1
  Te  Te20  1  0.19830900  0.90620800  0.06046200  1
  Te  Te21  1  0.09379200  0.80169100  0.43953800  1
  Te  Te22  1  0.08318100  0.15485200  0.87230800  1
  Te  Te23  1  0.84514800  0.91681900  0.62769200  1
  Te  Te24  1  0.91681900  0.84514800  0.12769200  1
  Te  Te25  1  0.15485200  0.08318100  0.37230800  1
  Te  Te26  1  0.35207700  0.26601900  0.74426600  1
  Te  Te27  1  0.73398100  0.64792300  0.75573400  1
  Te  Te28  1  0.64792300  0.73398100  0.25573400  1
  Te  Te29  1  0.26601900  0.35207700  0.24426600  1
  Te  Te30  1  0.62473900  0.07801200  0.71519000  1
  Te  Te31  1  0.92198800  0.37526100  0.78481000  1
  Te  Te32  1  0.37526100  0.92198800  0.28481000  1
  Te  Te33  1  0.07801200  0.62473900  0.21519000  1
  Te  Te34  1  0.40667600  0.88104600  0.83772600  1
  Te  Te35  1  0.11895400  0.59332400  0.66227400  1
  Te  Te36  1  0.59332400  0.11895400  0.16227400  1
  Te  Te37  1  0.88104600  0.40667600  0.33772600  1
  Te  Te38  1  0.42408700  0.54827700  0.87262300  1
  Te  Te39  1  0.45172300  0.57591300  0.62737700  1
  Te  Te40  1  0.57591300  0.45172300  0.12737700  1
  Te  Te41  1  0.54827700  0.42408700  0.37262300  1
  Te  Te42  1  0.17245000  0.52718500  0.93749200  1
  Te  Te43  1  0.47281500  0.82755000  0.56250800  1
  Te  Te44  1  0.82755000  0.47281500  0.06250800  1
  Te  Te45  1  0.52718500  0.17245000  0.43749200  1
