# generated using pymatgen
data_Tb(MnSi)2
_symmetry_space_group_name_H-M   'P 1'
_cell_length_a   5.85874298
_cell_length_b   5.85874298
_cell_length_c   5.85874298
_cell_angle_alpha   141.06596735
_cell_angle_beta   141.06596735
_cell_angle_gamma   56.23829898
_symmetry_Int_Tables_number   1
_chemical_formula_structural   Tb(MnSi)2
_chemical_formula_sum   'Tb1 Mn2 Si2'
_cell_volume   78.79597636
_cell_formula_units_Z   1
loop_
 _symmetry_equiv_pos_site_id
 _symmetry_equiv_pos_as_xyz
  1  'x, y, z'
loop_
 _atom_site_type_symbol
 _atom_site_label
 _atom_site_symmetry_multiplicity
 _atom_site_fract_x
 _atom_site_fract_y
 _atom_site_fract_z
 _atom_site_occupancy
  Tb  Tb0  1  0.00000000  0.00000000  0.00000000  1
  Mn  Mn1  1  0.75000000  0.25000000  0.50000000  1
  Mn  Mn2  1  0.25000000  0.75000000  0.50000000  1
  Si  Si3  1  0.62078900  0.62078900  0.00000000  1
  Si  Si4  1  0.37921100  0.37921100  0.00000000  1
