# generated using pymatgen
data_Ba3NaBiO6
_symmetry_space_group_name_H-M   'P 1'
_cell_length_a   7.35353121
_cell_length_b   7.35353121
_cell_length_c   7.35353127
_cell_angle_alpha   91.80812226
_cell_angle_beta   91.80812226
_cell_angle_gamma   91.80812559
_symmetry_Int_Tables_number   1
_chemical_formula_structural   Ba3NaBiO6
_chemical_formula_sum   'Ba6 Na2 Bi2 O12'
_cell_volume   397.03118589
_cell_formula_units_Z   2
loop_
 _symmetry_equiv_pos_site_id
 _symmetry_equiv_pos_as_xyz
  1  'x, y, z'
loop_
 _atom_site_type_symbol
 _atom_site_label
 _atom_site_symmetry_multiplicity
 _atom_site_fract_x
 _atom_site_fract_y
 _atom_site_fract_z
 _atom_site_occupancy
  Ba  Ba0  1  0.25000000  0.89890300  0.60109700  1
  Ba  Ba1  1  0.75000000  0.10109700  0.39890300  1
  Ba  Ba2  1  0.89890300  0.60109700  0.25000000  1
  Ba  Ba3  1  0.39890300  0.75000000  0.10109700  1
  Ba  Ba4  1  0.10109700  0.39890300  0.75000000  1
  Ba  Ba5  1  0.60109700  0.25000000  0.89890300  1
  Na  Na6  1  0.75000000  0.75000000  0.75000000  1
  Na  Na7  1  0.25000000  0.25000000  0.25000000  1
  Bi  Bi8  1  0.00000000  0.00000000  0.00000000  1
  Bi  Bi9  1  0.50000000  0.50000000  0.50000000  1
  O  O10  1  0.72098700  0.91810100  0.05258500  1
  O  O11  1  0.05258500  0.72098700  0.91810100  1
  O  O12  1  0.08189900  0.94741500  0.27901300  1
  O  O13  1  0.91810100  0.05258500  0.72098700  1
  O  O14  1  0.44741500  0.58189900  0.77901300  1
  O  O15  1  0.58189900  0.77901300  0.44741500  1
  O  O16  1  0.27901300  0.08189900  0.94741500  1
  O  O17  1  0.94741500  0.27901300  0.08189900  1
  O  O18  1  0.22098700  0.55258500  0.41810100  1
  O  O19  1  0.55258500  0.41810100  0.22098700  1
  O  O20  1  0.41810100  0.22098700  0.55258500  1
  O  O21  1  0.77901300  0.44741500  0.58189900  1
