# generated using pymatgen
data_Al2CdS4
_symmetry_space_group_name_H-M   'P 1'
_cell_length_a   6.49583876
_cell_length_b   6.49583876
_cell_length_c   6.49583876
_cell_angle_alpha   128.54579355
_cell_angle_beta   128.54579355
_cell_angle_gamma   75.74251720
_symmetry_Int_Tables_number   1
_chemical_formula_structural   Al2CdS4
_chemical_formula_sum   'Al2 Cd1 S4'
_cell_volume   163.08297108
_cell_formula_units_Z   1
loop_
 _symmetry_equiv_pos_site_id
 _symmetry_equiv_pos_as_xyz
  1  'x, y, z'
loop_
 _atom_site_type_symbol
 _atom_site_label
 _atom_site_symmetry_multiplicity
 _atom_site_fract_x
 _atom_site_fract_y
 _atom_site_fract_z
 _atom_site_occupancy
  Al  Al0  1  0.25000000  0.75000000  0.50000000  1
  Al  Al1  1  0.00000000  0.00000000  0.00000000  1
  Cd  Cd2  1  0.50000000  0.50000000  0.00000000  1
  S  S3  1  0.10166400  0.64637700  0.01632100  1
  S  S4  1  0.63005600  0.08534300  0.98367900  1
  S  S5  1  0.35362300  0.36994400  0.45528700  1
  S  S6  1  0.91465700  0.89833600  0.54471300  1
