# generated using pymatgen
data_Fe(SbO3)2
_symmetry_space_group_name_H-M   'P 1'
_cell_length_a   4.75334600
_cell_length_b   9.50669200
_cell_length_c   9.48425000
_cell_angle_alpha   90.00000000
_cell_angle_beta   90.00000000
_cell_angle_gamma   90.00000000
_symmetry_Int_Tables_number   1
_chemical_formula_structural   Fe(SbO3)2
_chemical_formula_sum   'Fe4 Sb8 O24'
_cell_volume   428.57994533
_cell_formula_units_Z   4
loop_
 _symmetry_equiv_pos_site_id
 _symmetry_equiv_pos_as_xyz
  1  'x, y, z'
loop_
 _atom_site_type_symbol
 _atom_site_label
 _atom_site_symmetry_multiplicity
 _atom_site_fract_x
 _atom_site_fract_y
 _atom_site_fract_z
 _atom_site_occupancy
  Fe  Fe0  1  0.00000000  0.50000000  0.00000000  1
  Fe  Fe1  1  0.50000000  0.75000000  0.50000000  1
  Fe  Fe2  1  0.00000000  0.00000000  0.00000000  1
  Fe  Fe3  1  0.50000000  0.25000000  0.50000000  1
  Sb  Sb4  1  0.00000000  0.00000000  0.33210800  1
  Sb  Sb5  1  0.00000000  0.50000000  0.33210800  1
  Sb  Sb6  1  0.50000000  0.25000000  0.83210800  1
  Sb  Sb7  1  0.50000000  0.75000000  0.83210800  1
  Sb  Sb8  1  0.50000000  0.25000000  0.16789200  1
  Sb  Sb9  1  0.50000000  0.75000000  0.16789200  1
  Sb  Sb10  1  0.00000000  0.00000000  0.66789200  1
  Sb  Sb11  1  0.00000000  0.50000000  0.66789200  1
  O  O12  1  0.31215000  0.15607500  0.00000000  1
  O  O13  1  0.31215000  0.65607500  0.00000000  1
  O  O14  1  0.18785000  0.40607500  0.50000000  1
  O  O15  1  0.18785000  0.90607500  0.50000000  1
  O  O16  1  0.81215000  0.09392500  0.50000000  1
  O  O17  1  0.81215000  0.59392500  0.50000000  1
  O  O18  1  0.68785000  0.34392500  0.00000000  1
  O  O19  1  0.68785000  0.84392500  0.00000000  1
  O  O20  1  0.30079800  0.15039900  0.32637000  1
  O  O21  1  0.30079800  0.65039900  0.32637000  1
  O  O22  1  0.19920200  0.40039900  0.82637000  1
  O  O23  1  0.19920200  0.90039900  0.82637000  1
  O  O24  1  0.80079800  0.09960100  0.82637000  1
  O  O25  1  0.80079800  0.59960100  0.82637000  1
  O  O26  1  0.80079800  0.09960100  0.17363000  1
  O  O27  1  0.80079800  0.59960100  0.17363000  1
  O  O28  1  0.19920200  0.40039900  0.17363000  1
  O  O29  1  0.19920200  0.90039900  0.17363000  1
  O  O30  1  0.69920200  0.34960100  0.32637000  1
  O  O31  1  0.69920200  0.84960100  0.32637000  1
  O  O32  1  0.30079800  0.15039900  0.67363000  1
  O  O33  1  0.30079800  0.65039900  0.67363000  1
  O  O34  1  0.69920200  0.34960100  0.67363000  1
  O  O35  1  0.69920200  0.84960100  0.67363000  1
