# generated using pymatgen
data_RbTh2(PO4)3
_symmetry_space_group_name_H-M   'P 1'
_cell_length_a   9.63582562
_cell_length_b   9.63582562
_cell_length_c   8.24078597
_cell_angle_alpha   78.31776030
_cell_angle_beta   78.31776030
_cell_angle_gamma   42.33396843
_symmetry_Int_Tables_number   1
_chemical_formula_structural   RbTh2(PO4)3
_chemical_formula_sum   'Rb2 Th4 P6 O24'
_cell_volume   502.99702430
_cell_formula_units_Z   2
loop_
 _symmetry_equiv_pos_site_id
 _symmetry_equiv_pos_as_xyz
  1  'x, y, z'
loop_
 _atom_site_type_symbol
 _atom_site_label
 _atom_site_symmetry_multiplicity
 _atom_site_fract_x
 _atom_site_fract_y
 _atom_site_fract_z
 _atom_site_occupancy
  Rb  Rb0  1  0.40576200  0.59423800  0.75000000  1
  Rb  Rb1  1  0.59423800  0.40576200  0.25000000  1
  Th  Th2  1  0.06013300  0.24871200  0.46648100  1
  Th  Th3  1  0.24871200  0.06013300  0.96648100  1
  Th  Th4  1  0.75128800  0.93986700  0.03351900  1
  Th  Th5  1  0.93986700  0.75128800  0.53351900  1
  P  P6  1  0.60031100  0.78345500  0.31778500  1
  P  P7  1  0.39968900  0.21654500  0.68221500  1
  P  P8  1  0.09480800  0.90519200  0.25000000  1
  P  P9  1  0.21654500  0.39968900  0.18221500  1
  P  P10  1  0.90519200  0.09480800  0.75000000  1
  P  P11  1  0.78345500  0.60031100  0.81778500  1
  O  O12  1  0.26160200  0.44913000  0.65035600  1
  O  O13  1  0.75705800  0.18822200  0.90944200  1
  O  O14  1  0.60283500  0.08754900  0.57131400  1
  O  O15  1  0.44809200  0.14350100  0.87038200  1
  O  O16  1  0.44913000  0.26160200  0.15035600  1
  O  O17  1  0.04068100  0.10231100  0.25672300  1
  O  O18  1  0.95931900  0.89768900  0.74327700  1
  O  O19  1  0.89768900  0.95931900  0.24327700  1
  O  O20  1  0.85649900  0.55190800  0.62961800  1
  O  O21  1  0.24294200  0.81177800  0.09055800  1
  O  O22  1  0.82894800  0.72382600  0.83044400  1
  O  O23  1  0.73839800  0.55087000  0.34964400  1
  O  O24  1  0.91245100  0.39716500  0.92868600  1
  O  O25  1  0.18822200  0.75705800  0.40944200  1
  O  O26  1  0.81177800  0.24294200  0.59055800  1
  O  O27  1  0.08754900  0.60283500  0.07131400  1
  O  O28  1  0.55190800  0.85649900  0.12961800  1
  O  O29  1  0.14350100  0.44809200  0.37038200  1
  O  O30  1  0.17105200  0.27617400  0.16955600  1
  O  O31  1  0.55087000  0.73839800  0.84964400  1
  O  O32  1  0.27617400  0.17105200  0.66955600  1
  O  O33  1  0.10231100  0.04068100  0.75672300  1
  O  O34  1  0.39716500  0.91245100  0.42868600  1
  O  O35  1  0.72382600  0.82894800  0.33044400  1
