# generated using pymatgen
data_Ba3DyRu2O9
_symmetry_space_group_name_H-M   'P 1'
_cell_length_a   5.95863451
_cell_length_b   5.95863451
_cell_length_c   14.59855900
_cell_angle_alpha   90.00000000
_cell_angle_beta   90.00000000
_cell_angle_gamma   120.00000562
_symmetry_Int_Tables_number   1
_chemical_formula_structural   Ba3DyRu2O9
_chemical_formula_sum   'Ba6 Dy2 Ru4 O18'
_cell_volume   448.88396412
_cell_formula_units_Z   2
loop_
 _symmetry_equiv_pos_site_id
 _symmetry_equiv_pos_as_xyz
  1  'x, y, z'
loop_
 _atom_site_type_symbol
 _atom_site_label
 _atom_site_symmetry_multiplicity
 _atom_site_fract_x
 _atom_site_fract_y
 _atom_site_fract_z
 _atom_site_occupancy
  Ba  Ba0  1  0.00000000  0.00000000  0.25000000  1
  Ba  Ba1  1  0.00000000  0.00000000  0.75000000  1
  Ba  Ba2  1  0.33333300  0.66666700  0.90534900  1
  Ba  Ba3  1  0.66666700  0.33333300  0.40534900  1
  Ba  Ba4  1  0.66666700  0.33333300  0.09465100  1
  Ba  Ba5  1  0.33333300  0.66666700  0.59465100  1
  Dy  Dy6  1  0.00000000  0.00000000  0.00000000  1
  Dy  Dy7  1  0.00000000  0.00000000  0.50000000  1
  Ru  Ru8  1  0.33333300  0.66666700  0.16442300  1
  Ru  Ru9  1  0.66666700  0.33333300  0.66442300  1
  Ru  Ru10  1  0.66666700  0.33333300  0.83557700  1
  Ru  Ru11  1  0.33333300  0.66666700  0.33557700  1
  O  O12  1  0.49037100  0.98074300  0.25000000  1
  O  O13  1  0.50962900  0.49037100  0.75000000  1
  O  O14  1  0.98074300  0.49037100  0.75000000  1
  O  O15  1  0.01925700  0.50962900  0.25000000  1
  O  O16  1  0.49037100  0.50962900  0.25000000  1
  O  O17  1  0.50962900  0.01925700  0.75000000  1
  O  O18  1  0.17613100  0.35226200  0.41182600  1
  O  O19  1  0.82386900  0.17613100  0.91182600  1
  O  O20  1  0.35226200  0.17613100  0.91182600  1
  O  O21  1  0.64773800  0.82386900  0.41182600  1
  O  O22  1  0.17613100  0.82386900  0.41182600  1
  O  O23  1  0.82386900  0.64773800  0.58817400  1
  O  O24  1  0.82386900  0.17613100  0.58817400  1
  O  O25  1  0.82386900  0.64773800  0.91182600  1
  O  O26  1  0.35226200  0.17613100  0.58817400  1
  O  O27  1  0.64773800  0.82386900  0.08817400  1
  O  O28  1  0.17613100  0.35226200  0.08817400  1
  O  O29  1  0.17613100  0.82386900  0.08817400  1
