# generated using pymatgen
data_Ba6Ru2Pt(ClO6)2
_symmetry_space_group_name_H-M   'P 1'
_cell_length_a   5.90743767
_cell_length_b   5.90743767
_cell_length_c   15.28070000
_cell_angle_alpha   90.00000000
_cell_angle_beta   90.00000000
_cell_angle_gamma   119.99999632
_symmetry_Int_Tables_number   1
_chemical_formula_structural   Ba6Ru2Pt(ClO6)2
_chemical_formula_sum   'Ba6 Ru2 Pt1 Cl2 O12'
_cell_volume   461.81942220
_cell_formula_units_Z   1
loop_
 _symmetry_equiv_pos_site_id
 _symmetry_equiv_pos_as_xyz
  1  'x, y, z'
loop_
 _atom_site_type_symbol
 _atom_site_label
 _atom_site_symmetry_multiplicity
 _atom_site_fract_x
 _atom_site_fract_y
 _atom_site_fract_z
 _atom_site_occupancy
  Ba  Ba0  1  0.66666700  0.33333300  0.21414500  1
  Ba  Ba1  1  0.33333300  0.66666700  0.08104400  1
  Ba  Ba2  1  0.66666700  0.33333300  0.63436000  1
  Ba  Ba3  1  0.66666700  0.33333300  0.91895600  1
  Ba  Ba4  1  0.33333300  0.66666700  0.36564000  1
  Ba  Ba5  1  0.33333300  0.66666700  0.78585500  1
  Ru  Ru6  1  0.00000000  0.00000000  0.81727800  1
  Ru  Ru7  1  0.00000000  0.00000000  0.18272200  1
  Pt  Pt8  1  0.00000000  0.00000000  0.00000000  1
  Cl  Cl9  1  0.66666700  0.33333300  0.42224700  1
  Cl  Cl10  1  0.33333300  0.66666700  0.57775300  1
  O  O11  1  0.30321100  0.15160600  0.08710200  1
  O  O12  1  0.69678900  0.84839400  0.91289800  1
  O  O13  1  0.16087700  0.83912300  0.24399200  1
  O  O14  1  0.67824500  0.83912300  0.24399200  1
  O  O15  1  0.83912300  0.67824500  0.75600800  1
  O  O16  1  0.32175500  0.16087700  0.75600800  1
  O  O17  1  0.16087700  0.32175500  0.24399200  1
  O  O18  1  0.84839400  0.69678900  0.08710200  1
  O  O19  1  0.15160600  0.30321100  0.91289800  1
  O  O20  1  0.83912300  0.16087700  0.75600800  1
  O  O21  1  0.84839400  0.15160600  0.08710200  1
  O  O22  1  0.15160600  0.84839400  0.91289800  1
