# generated using pymatgen
data_La10S19
_symmetry_space_group_name_H-M   'P 1'
_cell_length_a   9.14949900
_cell_length_b   9.14949900
_cell_length_c   16.36936000
_cell_angle_alpha   90.00000000
_cell_angle_beta   90.00000000
_cell_angle_gamma   90.00000000
_symmetry_Int_Tables_number   1
_chemical_formula_structural   La10S19
_chemical_formula_sum   'La20 S38'
_cell_volume   1370.33366751
_cell_formula_units_Z   2
loop_
 _symmetry_equiv_pos_site_id
 _symmetry_equiv_pos_as_xyz
  1  'x, y, z'
loop_
 _atom_site_type_symbol
 _atom_site_label
 _atom_site_symmetry_multiplicity
 _atom_site_fract_x
 _atom_site_fract_y
 _atom_site_fract_z
 _atom_site_occupancy
  La  La0  1  0.29108400  0.59818500  0.62727800  1
  La  La1  1  0.90181500  0.79108400  0.12727800  1
  La  La2  1  0.19418900  0.89639000  0.35146200  1
  La  La3  1  0.40181500  0.29108400  0.37272200  1
  La  La4  1  0.20891600  0.90181500  0.87272200  1
  La  La5  1  0.89639000  0.80581100  0.64853800  1
  La  La6  1  0.50000000  0.00000000  0.63701700  1
  La  La7  1  0.30581100  0.60361000  0.14853800  1
  La  La8  1  0.70891600  0.40181500  0.62727800  1
  La  La9  1  0.50000000  0.00000000  0.13701700  1
  La  La10  1  0.09818500  0.20891600  0.12727800  1
  La  La11  1  0.00000000  0.50000000  0.36298300  1
  La  La12  1  0.79108400  0.09818500  0.87272200  1
  La  La13  1  0.10361000  0.19418900  0.64853800  1
  La  La14  1  0.00000000  0.50000000  0.86298300  1
  La  La15  1  0.59818500  0.70891600  0.37272200  1
  La  La16  1  0.39639000  0.30581100  0.85146200  1
  La  La17  1  0.60361000  0.69418900  0.85146200  1
  La  La18  1  0.69418900  0.39639000  0.14853800  1
  La  La19  1  0.80581100  0.10361000  0.35146200  1
  S  S20  1  0.89791200  0.80372500  0.31226000  1
  S  S21  1  0.80372500  0.10208800  0.68774000  1
  S  S22  1  0.20131400  0.90108700  0.17449000  1
  S  S23  1  0.16881400  0.35947900  0.50004900  1
  S  S24  1  0.50000000  0.00000000  0.31718500  1
  S  S25  1  0.94858400  0.28039900  0.49892000  1
  S  S26  1  0.71960100  0.94858400  0.50108000  1
  S  S27  1  0.78039900  0.55141600  0.99892000  1
  S  S28  1  0.35947900  0.83118600  0.49995100  1
  S  S29  1  0.70131400  0.40108700  0.32551000  1
  S  S30  1  0.40108700  0.29868600  0.67449000  1
  S  S31  1  0.10208800  0.19627500  0.31226000  1
  S  S32  1  0.64052100  0.16881400  0.49995100  1
  S  S33  1  0.90108700  0.79868600  0.82551000  1
  S  S34  1  0.50000000  0.00000000  0.81718500  1
  S  S35  1  0.33118600  0.14052100  0.99995100  1
  S  S36  1  0.30372500  0.60208800  0.81226000  1
  S  S37  1  0.39791200  0.30372500  0.18774000  1
  S  S38  1  0.55141600  0.21960100  0.00108000  1
  S  S39  1  0.05141600  0.71960100  0.49892000  1
  S  S40  1  0.66881400  0.85947900  0.99995100  1
  S  S41  1  0.79868600  0.09891300  0.17449000  1
  S  S42  1  0.50000000  0.50000000  0.50000000  1
  S  S43  1  0.83118600  0.64052100  0.50004900  1
  S  S44  1  0.00000000  0.50000000  0.18281500  1
  S  S45  1  0.21960100  0.44858400  0.99892000  1
  S  S46  1  0.28039900  0.05141600  0.50108000  1
  S  S47  1  0.60208800  0.69627500  0.18774000  1
  S  S48  1  0.14052100  0.66881400  0.00004900  1
  S  S49  1  0.69627500  0.39791200  0.81226000  1
  S  S50  1  0.44858400  0.78039900  0.00108000  1
  S  S51  1  0.19627500  0.89791200  0.68774000  1
  S  S52  1  0.59891300  0.70131400  0.67449000  1
  S  S53  1  0.09891300  0.20131400  0.82551000  1
  S  S54  1  0.00000000  0.00000000  0.00000000  1
  S  S55  1  0.00000000  0.50000000  0.68281500  1
  S  S56  1  0.85947900  0.33118600  0.00004900  1
  S  S57  1  0.29868600  0.59891300  0.32551000  1
