# generated using pymatgen
data_CsEr(TaBr3)6
_symmetry_space_group_name_H-M   'P 1'
_cell_length_a   9.94298560
_cell_length_b   9.94298560
_cell_length_c   18.49250700
_cell_angle_alpha   90.00000000
_cell_angle_beta   90.00000000
_cell_angle_gamma   119.99999732
_symmetry_Int_Tables_number   1
_chemical_formula_structural   CsEr(TaBr3)6
_chemical_formula_sum   'Cs2 Er2 Ta12 Br36'
_cell_volume   1583.28849446
_cell_formula_units_Z   2
loop_
 _symmetry_equiv_pos_site_id
 _symmetry_equiv_pos_as_xyz
  1  'x, y, z'
loop_
 _atom_site_type_symbol
 _atom_site_label
 _atom_site_symmetry_multiplicity
 _atom_site_fract_x
 _atom_site_fract_y
 _atom_site_fract_z
 _atom_site_occupancy
  Cs  Cs0  1  0.66666700  0.33333300  0.25000000  1
  Cs  Cs1  1  0.33333300  0.66666700  0.75000000  1
  Er  Er2  1  0.66666700  0.33333300  0.75000000  1
  Er  Er3  1  0.33333300  0.66666700  0.25000000  1
  Ta  Ta4  1  0.85281000  0.81525500  0.93590100  1
  Ta  Ta5  1  0.81525500  0.85281000  0.43590100  1
  Ta  Ta6  1  0.03755600  0.18474500  0.43590100  1
  Ta  Ta7  1  0.85281000  0.03755600  0.56409900  1
  Ta  Ta8  1  0.96244400  0.81525500  0.56409900  1
  Ta  Ta9  1  0.03755600  0.85281000  0.06409900  1
  Ta  Ta10  1  0.96244400  0.14719000  0.93590100  1
  Ta  Ta11  1  0.18474500  0.14719000  0.56409900  1
  Ta  Ta12  1  0.14719000  0.96244400  0.43590100  1
  Ta  Ta13  1  0.18474500  0.03755600  0.93590100  1
  Ta  Ta14  1  0.81525500  0.96244400  0.06409900  1
  Ta  Ta15  1  0.14719000  0.18474500  0.06409900  1
  Br  Br16  1  0.08780200  0.44805400  0.33772700  1
  Br  Br17  1  0.58564300  0.72514900  0.99907500  1
  Br  Br18  1  0.23033800  0.18444100  0.34053800  1
  Br  Br19  1  0.27485100  0.41435700  0.50092500  1
  Br  Br20  1  0.27485100  0.86049300  0.99907500  1
  Br  Br21  1  0.55194600  0.91219800  0.16227300  1
  Br  Br22  1  0.55194600  0.63974900  0.33772700  1
  Br  Br23  1  0.86049300  0.27485100  0.49907500  1
  Br  Br24  1  0.13950700  0.41435700  0.99907500  1
  Br  Br25  1  0.72514900  0.58564300  0.49907500  1
  Br  Br26  1  0.81555900  0.76966200  0.15946200  1
  Br  Br27  1  0.76966200  0.81555900  0.65946200  1
  Br  Br28  1  0.04589600  0.81555900  0.84053800  1
  Br  Br29  1  0.63974900  0.08780200  0.66227300  1
  Br  Br30  1  0.18444100  0.95410400  0.65946200  1
  Br  Br31  1  0.23033800  0.04589600  0.15946200  1
  Br  Br32  1  0.36025100  0.91219800  0.33772700  1
  Br  Br33  1  0.41435700  0.27485100  0.00092500  1
  Br  Br34  1  0.41435700  0.13950700  0.49907500  1
  Br  Br35  1  0.13950700  0.72514900  0.50092500  1
  Br  Br36  1  0.63974900  0.55194600  0.83772700  1
  Br  Br37  1  0.44805400  0.08780200  0.83772700  1
  Br  Br38  1  0.72514900  0.13950700  0.00092500  1
  Br  Br39  1  0.91219800  0.55194600  0.66227300  1
  Br  Br40  1  0.36025100  0.44805400  0.16227300  1
  Br  Br41  1  0.44805400  0.36025100  0.66227300  1
  Br  Br42  1  0.95410400  0.76966200  0.34053800  1
  Br  Br43  1  0.04589600  0.23033800  0.65946200  1
  Br  Br44  1  0.86049300  0.58564300  0.00092500  1
  Br  Br45  1  0.95410400  0.18444100  0.15946200  1
  Br  Br46  1  0.76966200  0.95410400  0.84053800  1
  Br  Br47  1  0.18444100  0.23033800  0.84053800  1
  Br  Br48  1  0.08780200  0.63974900  0.16227300  1
  Br  Br49  1  0.81555900  0.04589600  0.34053800  1
  Br  Br50  1  0.91219800  0.36025100  0.83772700  1
  Br  Br51  1  0.58564300  0.86049300  0.50092500  1
