# generated using pymatgen
data_UPbO4
_symmetry_space_group_name_H-M   'P 1'
_cell_length_a   5.65834200
_cell_length_b   8.04117300
_cell_length_c   8.29092200
_cell_angle_alpha   90.00000000
_cell_angle_beta   90.00000000
_cell_angle_gamma   90.00000000
_symmetry_Int_Tables_number   1
_chemical_formula_structural   UPbO4
_chemical_formula_sum   'U4 Pb4 O16'
_cell_volume   377.23452106
_cell_formula_units_Z   4
loop_
 _symmetry_equiv_pos_site_id
 _symmetry_equiv_pos_as_xyz
  1  'x, y, z'
loop_
 _atom_site_type_symbol
 _atom_site_label
 _atom_site_symmetry_multiplicity
 _atom_site_fract_x
 _atom_site_fract_y
 _atom_site_fract_z
 _atom_site_occupancy
  U  U0  1  0.00000000  0.00000000  0.00000000  1
  U  U1  1  0.00000000  0.50000000  0.00000000  1
  U  U2  1  0.00000000  0.50000000  0.50000000  1
  U  U3  1  0.00000000  0.00000000  0.50000000  1
  Pb  Pb4  1  0.50469200  0.20360600  0.25000000  1
  Pb  Pb5  1  0.50469200  0.29639400  0.75000000  1
  Pb  Pb6  1  0.49530800  0.70360600  0.25000000  1
  Pb  Pb7  1  0.49530800  0.79639400  0.75000000  1
  O  O8  1  0.29725900  0.91472700  0.07850800  1
  O  O9  1  0.29725900  0.58527300  0.92149200  1
  O  O10  1  0.70274100  0.41472700  0.42149200  1
  O  O11  1  0.70274100  0.08527300  0.57850800  1
  O  O12  1  0.70274100  0.08527300  0.92149200  1
  O  O13  1  0.70274100  0.41472700  0.07850800  1
  O  O14  1  0.29725900  0.58527300  0.57850800  1
  O  O15  1  0.29725900  0.91472700  0.42149200  1
  O  O16  1  0.15391400  0.25000000  0.00000000  1
  O  O17  1  0.84608600  0.75000000  0.50000000  1
  O  O18  1  0.84608600  0.75000000  0.00000000  1
  O  O19  1  0.15391400  0.25000000  0.50000000  1
  O  O20  1  0.86782800  0.03814300  0.25000000  1
  O  O21  1  0.86782800  0.46185700  0.75000000  1
  O  O22  1  0.13217200  0.53814300  0.25000000  1
  O  O23  1  0.13217200  0.96185700  0.75000000  1
