# generated using pymatgen
data_Rb2Ge2Se5
_symmetry_space_group_name_H-M   'P 1'
_cell_length_a   11.76847916
_cell_length_b   11.76847916
_cell_length_c   9.62574313
_cell_angle_alpha   80.33255301
_cell_angle_beta   80.33255301
_cell_angle_gamma   90.03634015
_symmetry_Int_Tables_number   1
_chemical_formula_structural   Rb2Ge2Se5
_chemical_formula_sum   'Rb8 Ge8 Se20'
_cell_volume   1294.97229333
_cell_formula_units_Z   4
loop_
 _symmetry_equiv_pos_site_id
 _symmetry_equiv_pos_as_xyz
  1  'x, y, z'
loop_
 _atom_site_type_symbol
 _atom_site_label
 _atom_site_symmetry_multiplicity
 _atom_site_fract_x
 _atom_site_fract_y
 _atom_site_fract_z
 _atom_site_occupancy
  Rb  Rb0  1  0.78817200  0.52699400  0.11700700  1
  Rb  Rb1  1  0.47300600  0.21182800  0.38299300  1
  Rb  Rb2  1  0.21182800  0.47300600  0.88299300  1
  Rb  Rb3  1  0.52699400  0.78817200  0.61700700  1
  Rb  Rb4  1  0.05337000  0.21168800  0.38590500  1
  Rb  Rb5  1  0.78831200  0.94663000  0.11409500  1
  Rb  Rb6  1  0.94663000  0.78831200  0.61409500  1
  Rb  Rb7  1  0.21168800  0.05337000  0.88590500  1
  Ge  Ge8  1  0.73252400  0.47023800  0.59938500  1
  Ge  Ge9  1  0.52976200  0.26747600  0.90061500  1
  Ge  Ge10  1  0.26747600  0.52976200  0.40061500  1
  Ge  Ge11  1  0.47023800  0.73252400  0.09938500  1
  Ge  Ge12  1  0.13419500  0.73049200  0.11237900  1
  Ge  Ge13  1  0.26950800  0.86580500  0.38762100  1
  Ge  Ge14  1  0.86580500  0.26950800  0.88762100  1
  Ge  Ge15  1  0.73049200  0.13419500  0.61237900  1
  Se  Se16  1  0.88786000  0.45586400  0.73789300  1
  Se  Se17  1  0.54413600  0.11214000  0.76210700  1
  Se  Se18  1  0.11214000  0.54413600  0.26210700  1
  Se  Se19  1  0.45586400  0.88786000  0.23789300  1
  Se  Se20  1  0.24592000  0.68099400  0.54633800  1
  Se  Se21  1  0.31900600  0.75408000  0.95366200  1
  Se  Se22  1  0.75408000  0.31900600  0.45366200  1
  Se  Se23  1  0.68099400  0.24592000  0.04633800  1
  Se  Se24  1  0.75667600  0.64419200  0.44839000  1
  Se  Se25  1  0.35580800  0.24332400  0.05161000  1
  Se  Se26  1  0.24332400  0.35580800  0.55161000  1
  Se  Se27  1  0.64419200  0.75667600  0.94839000  1
  Se  Se28  1  0.00533200  0.24630100  0.02954500  1
  Se  Se29  1  0.75369900  0.99466800  0.47045500  1
  Se  Se30  1  0.99466800  0.75369900  0.97045500  1
  Se  Se31  1  0.24630100  0.00533200  0.52954500  1
  Se  Se32  1  0.88595300  0.11404700  0.75000000  1
  Se  Se33  1  0.11404700  0.88595300  0.25000000  1
  Se  Se34  1  0.54572600  0.45427400  0.75000000  1
  Se  Se35  1  0.45427400  0.54572600  0.25000000  1
