# generated using pymatgen
data_V2CdO6
_symmetry_space_group_name_H-M   'P 1'
_cell_length_a   5.36519047
_cell_length_b   5.36519047
_cell_length_c   7.22041022
_cell_angle_alpha   77.90956128
_cell_angle_beta   77.90956128
_cell_angle_gamma   39.86526332
_symmetry_Int_Tables_number   1
_chemical_formula_structural   V2CdO6
_chemical_formula_sum   'V2 Cd1 O6'
_cell_volume   129.87437556
_cell_formula_units_Z   1
loop_
 _symmetry_equiv_pos_site_id
 _symmetry_equiv_pos_as_xyz
  1  'x, y, z'
loop_
 _atom_site_type_symbol
 _atom_site_label
 _atom_site_symmetry_multiplicity
 _atom_site_fract_x
 _atom_site_fract_y
 _atom_site_fract_z
 _atom_site_occupancy
  V  V0  1  0.76678400  0.76678400  0.67219700  1
  V  V1  1  0.23321600  0.23321600  0.32780300  1
  Cd  Cd2  1  0.00000000  0.00000000  0.00000000  1
  O  O3  1  0.91647700  0.91647700  0.73421400  1
  O  O4  1  0.74766900  0.74766900  0.39890200  1
  O  O5  1  0.25233100  0.25233100  0.60109800  1
  O  O6  1  0.63906000  0.63906000  0.87407500  1
  O  O7  1  0.36094000  0.36094000  0.12592500  1
  O  O8  1  0.08352300  0.08352300  0.26578600  1
