# generated using pymatgen
data_Rb4SnSb6
_symmetry_space_group_name_H-M   'P 1'
_cell_length_a   15.30979577
_cell_length_b   15.30979577
_cell_length_c   14.74155400
_cell_angle_alpha   90.00000000
_cell_angle_beta   90.00000000
_cell_angle_gamma   119.99999902
_symmetry_Int_Tables_number   1
_chemical_formula_structural   Rb4SnSb6
_chemical_formula_sum   'Rb24 Sn6 Sb36'
_cell_volume   2992.35212941
_cell_formula_units_Z   6
loop_
 _symmetry_equiv_pos_site_id
 _symmetry_equiv_pos_as_xyz
  1  'x, y, z'
loop_
 _atom_site_type_symbol
 _atom_site_label
 _atom_site_symmetry_multiplicity
 _atom_site_fract_x
 _atom_site_fract_y
 _atom_site_fract_z
 _atom_site_occupancy
  Rb  Rb0  1  0.33333300  0.66666700  0.50048100  1
  Rb  Rb1  1  0.66666700  0.33333300  0.49951900  1
  Rb  Rb2  1  0.38656800  0.35623500  0.54556400  1
  Rb  Rb3  1  0.64376500  0.03033300  0.54556400  1
  Rb  Rb4  1  0.96966700  0.61343200  0.54556400  1
  Rb  Rb5  1  0.61343200  0.64376500  0.45443600  1
  Rb  Rb6  1  0.35623500  0.96966700  0.45443600  1
  Rb  Rb7  1  0.03033300  0.38656800  0.45443600  1
  Rb  Rb8  1  0.32888400  0.23271600  0.85132500  1
  Rb  Rb9  1  0.76728400  0.09616700  0.85132500  1
  Rb  Rb10  1  0.90383300  0.67111600  0.85132500  1
  Rb  Rb11  1  0.67111600  0.76728400  0.14867500  1
  Rb  Rb12  1  0.23271600  0.90383300  0.14867500  1
  Rb  Rb13  1  0.09616700  0.32888400  0.14867500  1
  Rb  Rb14  1  0.29755000  0.48358100  0.88104000  1
  Rb  Rb15  1  0.51641900  0.81397000  0.88104000  1
  Rb  Rb16  1  0.18603000  0.70245000  0.88104000  1
  Rb  Rb17  1  0.70245000  0.51641900  0.11896000  1
  Rb  Rb18  1  0.48358100  0.18603000  0.11896000  1
  Rb  Rb19  1  0.81397000  0.29755000  0.11896000  1
  Rb  Rb20  1  0.00000000  0.00000000  0.00000000  1
  Rb  Rb21  1  0.00000000  0.00000000  0.50000000  1
  Rb  Rb22  1  0.33333300  0.66666700  0.20424100  1
  Rb  Rb23  1  0.66666700  0.33333300  0.79575900  1
  Sn  Sn24  1  0.45468800  0.48980900  0.22937800  1
  Sn  Sn25  1  0.51019100  0.96487900  0.22937800  1
  Sn  Sn26  1  0.03512100  0.54531200  0.22937800  1
  Sn  Sn27  1  0.54531200  0.51019100  0.77062200  1
  Sn  Sn28  1  0.48980900  0.03512100  0.77062200  1
  Sn  Sn29  1  0.96487900  0.45468800  0.77062200  1
  Sb  Sb30  1  0.52042200  0.36359300  0.31602000  1
  Sb  Sb31  1  0.63640700  0.15682900  0.31602000  1
  Sb  Sb32  1  0.84317100  0.47957800  0.31602000  1
  Sb  Sb33  1  0.47957800  0.63640700  0.68398000  1
  Sb  Sb34  1  0.36359300  0.84317100  0.68398000  1
  Sb  Sb35  1  0.15682900  0.52042200  0.68398000  1
  Sb  Sb36  1  0.28437100  0.44002700  0.34576800  1
  Sb  Sb37  1  0.55997300  0.84434400  0.34576800  1
  Sb  Sb38  1  0.15565600  0.71562900  0.34576800  1
  Sb  Sb39  1  0.71562900  0.55997300  0.65423200  1
  Sb  Sb40  1  0.44002700  0.15565600  0.65423200  1
  Sb  Sb41  1  0.84434400  0.28437100  0.65423200  1
  Sb  Sb42  1  0.35619700  0.35805000  0.07746500  1
  Sb  Sb43  1  0.64195000  0.99814700  0.07746500  1
  Sb  Sb44  1  0.00185300  0.64380300  0.07746500  1
  Sb  Sb45  1  0.64380300  0.64195000  0.92253500  1
  Sb  Sb46  1  0.35805000  0.00185300  0.92253500  1
  Sb  Sb47  1  0.99814700  0.35619700  0.92253500  1
  Sb  Sb48  1  0.22747900  0.17524800  0.16331400  1
  Sb  Sb49  1  0.82475200  0.05223100  0.16331400  1
  Sb  Sb50  1  0.94776900  0.77252100  0.16331400  1
  Sb  Sb51  1  0.77252100  0.82475200  0.83668600  1
  Sb  Sb52  1  0.17524800  0.94776900  0.83668600  1
  Sb  Sb53  1  0.05223100  0.22747900  0.83668600  1
  Sb  Sb54  1  0.34116300  0.17969700  0.32834600  1
  Sb  Sb55  1  0.82030300  0.16146600  0.32834600  1
  Sb  Sb56  1  0.83853400  0.65883700  0.32834600  1
  Sb  Sb57  1  0.65883700  0.82030300  0.67165400  1
  Sb  Sb58  1  0.17969700  0.83853400  0.67165400  1
  Sb  Sb59  1  0.16146600  0.34116300  0.67165400  1
  Sb  Sb60  1  0.18015800  0.22961600  0.34278100  1
  Sb  Sb61  1  0.77038400  0.95054200  0.34278100  1
  Sb  Sb62  1  0.04945800  0.81984200  0.34278100  1
  Sb  Sb63  1  0.81984200  0.77038400  0.65721900  1
  Sb  Sb64  1  0.22961600  0.04945800  0.65721900  1
  Sb  Sb65  1  0.95054200  0.18015800  0.65721900  1
