# generated using pymatgen
data_Sr2P2O7
_symmetry_space_group_name_H-M   'P 1'
_cell_length_a   5.46693800
_cell_length_b   9.02767600
_cell_length_c   13.31989200
_cell_angle_alpha   90.00000000
_cell_angle_beta   90.00000000
_cell_angle_gamma   90.00000000
_symmetry_Int_Tables_number   1
_chemical_formula_structural   Sr2P2O7
_chemical_formula_sum   'Sr8 P8 O28'
_cell_volume   657.38655288
_cell_formula_units_Z   4
loop_
 _symmetry_equiv_pos_site_id
 _symmetry_equiv_pos_as_xyz
  1  'x, y, z'
loop_
 _atom_site_type_symbol
 _atom_site_label
 _atom_site_symmetry_multiplicity
 _atom_site_fract_x
 _atom_site_fract_y
 _atom_site_fract_z
 _atom_site_occupancy
  Sr  Sr0  1  0.25000000  0.12606200  0.58674700  1
  Sr  Sr1  1  0.75000000  0.87393800  0.41325300  1
  Sr  Sr2  1  0.25000000  0.62606200  0.91325300  1
  Sr  Sr3  1  0.75000000  0.37393800  0.08674700  1
  Sr  Sr4  1  0.25000000  0.17326900  0.26074700  1
  Sr  Sr5  1  0.75000000  0.82673100  0.73925300  1
  Sr  Sr6  1  0.25000000  0.67326900  0.23925300  1
  Sr  Sr7  1  0.75000000  0.32673100  0.76074700  1
  P  P8  1  0.75000000  0.72336200  0.03525400  1
  P  P9  1  0.25000000  0.27663800  0.96474600  1
  P  P10  1  0.75000000  0.22336200  0.46474600  1
  P  P11  1  0.25000000  0.77663800  0.53525400  1
  P  P12  1  0.75000000  0.96742600  0.18248500  1
  P  P13  1  0.25000000  0.03257400  0.81751500  1
  P  P14  1  0.75000000  0.46742600  0.31751500  1
  P  P15  1  0.25000000  0.53257400  0.68248500  1
  O  O16  1  0.75000000  0.13388200  0.16547700  1
  O  O17  1  0.25000000  0.86611800  0.83452300  1
  O  O18  1  0.75000000  0.63388200  0.33452300  1
  O  O19  1  0.25000000  0.36611800  0.66547700  1
  O  O20  1  0.75000000  0.72657500  0.92061400  1
  O  O21  1  0.25000000  0.27342500  0.07938600  1
  O  O22  1  0.75000000  0.22657500  0.57938600  1
  O  O23  1  0.25000000  0.77342500  0.42061400  1
  O  O24  1  0.48104500  0.35399000  0.92390700  1
  O  O25  1  0.98104500  0.64601000  0.07609300  1
  O  O26  1  0.01895500  0.85399000  0.57609300  1
  O  O27  1  0.51895500  0.14601000  0.42390700  1
  O  O28  1  0.51895500  0.64601000  0.07609300  1
  O  O29  1  0.01895500  0.35399000  0.92390700  1
  O  O30  1  0.98104500  0.14601000  0.42390700  1
  O  O31  1  0.48104500  0.85399000  0.57609300  1
  O  O32  1  0.25000000  0.60548100  0.57049600  1
  O  O33  1  0.75000000  0.39451900  0.42950400  1
  O  O34  1  0.25000000  0.10548100  0.92950400  1
  O  O35  1  0.75000000  0.89451900  0.07049600  1
  O  O36  1  0.48209300  0.58320600  0.73794600  1
  O  O37  1  0.98209300  0.41679400  0.26205400  1
  O  O38  1  0.01790700  0.08320600  0.76205400  1
  O  O39  1  0.51790700  0.91679400  0.23794500  1
  O  O40  1  0.51790700  0.41679400  0.26205400  1
  O  O41  1  0.01790700  0.58320600  0.73794600  1
  O  O42  1  0.98209300  0.91679400  0.23794500  1
  O  O43  1  0.48209300  0.08320600  0.76205400  1
