# generated using pymatgen
data_Cu2P8Se3I2
_symmetry_space_group_name_H-M   'P 1'
_cell_length_a   9.43779100
_cell_length_b   12.84300700
_cell_length_c   13.91783300
_cell_angle_alpha   90.00000000
_cell_angle_beta   90.00000000
_cell_angle_gamma   90.00000000
_symmetry_Int_Tables_number   1
_chemical_formula_structural   Cu2P8Se3I2
_chemical_formula_sum   'Cu8 P32 Se12 I8'
_cell_volume   1686.97519178
_cell_formula_units_Z   4
loop_
 _symmetry_equiv_pos_site_id
 _symmetry_equiv_pos_as_xyz
  1  'x, y, z'
loop_
 _atom_site_type_symbol
 _atom_site_label
 _atom_site_symmetry_multiplicity
 _atom_site_fract_x
 _atom_site_fract_y
 _atom_site_fract_z
 _atom_site_occupancy
  Cu  Cu0  1  0.00215500  0.87186400  0.25000000  1
  Cu  Cu1  1  0.99784500  0.37186400  0.25000000  1
  Cu  Cu2  1  0.80718300  0.08217400  0.25000000  1
  Cu  Cu3  1  0.99784500  0.12813600  0.75000000  1
  Cu  Cu4  1  0.00215500  0.62813600  0.75000000  1
  Cu  Cu5  1  0.80718300  0.41782600  0.75000000  1
  Cu  Cu6  1  0.19281700  0.91782600  0.75000000  1
  Cu  Cu7  1  0.19281700  0.58217400  0.25000000  1
  P  P8  1  0.23249300  0.83060800  0.61266800  1
  P  P9  1  0.07682500  0.69583900  0.60873600  1
  P  P10  1  0.44202500  0.74512900  0.07919700  1
  P  P11  1  0.07682500  0.80416100  0.10873600  1
  P  P12  1  0.18254200  0.92434400  0.48030900  1
  P  P13  1  0.44202500  0.75487100  0.92080300  1
  P  P14  1  0.07682500  0.69583900  0.89126400  1
  P  P15  1  0.55797500  0.25487100  0.92080300  1
  P  P16  1  0.55797500  0.25487100  0.57919700  1
  P  P17  1  0.76750700  0.16939200  0.38733200  1
  P  P18  1  0.81745800  0.42434400  0.48030900  1
  P  P19  1  0.23249300  0.66939200  0.38733200  1
  P  P20  1  0.23249300  0.66939200  0.11266800  1
  P  P21  1  0.76750700  0.33060800  0.88733200  1
  P  P22  1  0.92317500  0.19583900  0.60873600  1
  P  P23  1  0.18254200  0.57565600  0.98030900  1
  P  P24  1  0.81745800  0.07565600  0.98030900  1
  P  P25  1  0.07682500  0.80416100  0.39126400  1
  P  P26  1  0.55797500  0.24512900  0.07919700  1
  P  P27  1  0.55797500  0.24512900  0.42080300  1
  P  P28  1  0.76750700  0.33060800  0.61266800  1
  P  P29  1  0.92317500  0.30416100  0.39126400  1
  P  P30  1  0.81745800  0.07565600  0.51969100  1
  P  P31  1  0.18254200  0.57565600  0.51969100  1
  P  P32  1  0.18254200  0.92434400  0.01969100  1
  P  P33  1  0.76750700  0.16939200  0.11266800  1
  P  P34  1  0.92317500  0.19583900  0.89126400  1
  P  P35  1  0.44202500  0.75487100  0.57919700  1
  P  P36  1  0.81745800  0.42434400  0.01969100  1
  P  P37  1  0.92317500  0.30416100  0.10873600  1
  P  P38  1  0.44202500  0.74512900  0.42080300  1
  P  P39  1  0.23249300  0.83060800  0.88733200  1
  Se  Se40  1  0.91107800  0.75000000  0.00000000  1
  Se  Se41  1  0.39136000  0.58337100  0.89543900  1
  Se  Se42  1  0.60864000  0.41662900  0.10456100  1
  Se  Se43  1  0.60864000  0.08337100  0.60456100  1
  Se  Se44  1  0.60864000  0.08337100  0.89543900  1
  Se  Se45  1  0.60864000  0.41662900  0.39543900  1
  Se  Se46  1  0.08892200  0.25000000  0.00000000  1
  Se  Se47  1  0.39136000  0.58337100  0.60456100  1
  Se  Se48  1  0.39136000  0.91662900  0.10456100  1
  Se  Se49  1  0.91107800  0.75000000  0.50000000  1
  Se  Se50  1  0.39136000  0.91662900  0.39543900  1
  Se  Se51  1  0.08892200  0.25000000  0.50000000  1
  I  I52  1  0.27794200  0.38782300  0.25000000  1
  I  I53  1  0.90799000  0.93014800  0.75000000  1
  I  I54  1  0.09201000  0.43014800  0.75000000  1
  I  I55  1  0.90799000  0.56985200  0.25000000  1
  I  I56  1  0.72205800  0.88782300  0.25000000  1
  I  I57  1  0.27794200  0.11217700  0.75000000  1
  I  I58  1  0.09201000  0.06985200  0.25000000  1
  I  I59  1  0.72205800  0.61217700  0.75000000  1
