# generated using pymatgen
data_Sr5Cd3
_symmetry_space_group_name_H-M   'P 1'
_cell_length_a   10.42246980
_cell_length_b   10.42246980
_cell_length_c   10.42246980
_cell_angle_alpha   130.88397816
_cell_angle_beta   130.88397816
_cell_angle_gamma   71.99747831
_symmetry_Int_Tables_number   1
_chemical_formula_structural   Sr5Cd3
_chemical_formula_sum   'Sr10 Cd6'
_cell_volume   632.87447688
_cell_formula_units_Z   2
loop_
 _symmetry_equiv_pos_site_id
 _symmetry_equiv_pos_as_xyz
  1  'x, y, z'
loop_
 _atom_site_type_symbol
 _atom_site_label
 _atom_site_symmetry_multiplicity
 _atom_site_fract_x
 _atom_site_fract_y
 _atom_site_fract_z
 _atom_site_occupancy
  Sr  Sr0  1  0.97885400  0.47885400  0.16301700  1
  Sr  Sr1  1  0.47885400  0.31583700  0.50000000  1
  Sr  Sr2  1  0.68416300  0.18416300  0.16301700  1
  Sr  Sr3  1  0.00000000  0.00000000  0.00000000  1
  Sr  Sr4  1  0.18416300  0.02114600  0.50000000  1
  Sr  Sr5  1  0.81583700  0.97885400  0.50000000  1
  Sr  Sr6  1  0.31583700  0.81583700  0.83698300  1
  Sr  Sr7  1  0.52114600  0.68416300  0.50000000  1
  Sr  Sr8  1  0.50000000  0.50000000  0.00000000  1
  Sr  Sr9  1  0.02114600  0.52114600  0.83698300  1
  Cd  Cd10  1  0.12247300  0.37752700  0.50000000  1
  Cd  Cd11  1  0.37752700  0.87752700  0.25505400  1
  Cd  Cd12  1  0.62247300  0.12247300  0.74494600  1
  Cd  Cd13  1  0.75000000  0.75000000  0.00000000  1
  Cd  Cd14  1  0.87752700  0.62247300  0.50000000  1
  Cd  Cd15  1  0.25000000  0.25000000  0.00000000  1
