# generated using pymatgen
data_Yb7Au3
_symmetry_space_group_name_H-M   'P 1'
_cell_length_a   10.34290930
_cell_length_b   10.34290930
_cell_length_c   6.49259000
_cell_angle_alpha   90.00000000
_cell_angle_beta   90.00000000
_cell_angle_gamma   119.99999552
_symmetry_Int_Tables_number   1
_chemical_formula_structural   Yb7Au3
_chemical_formula_sum   'Yb14 Au6'
_cell_volume   601.49782635
_cell_formula_units_Z   2
loop_
 _symmetry_equiv_pos_site_id
 _symmetry_equiv_pos_as_xyz
  1  'x, y, z'
loop_
 _atom_site_type_symbol
 _atom_site_label
 _atom_site_symmetry_multiplicity
 _atom_site_fract_x
 _atom_site_fract_y
 _atom_site_fract_z
 _atom_site_occupancy
  Yb  Yb0  1  0.33333300  0.66666700  0.71972800  1
  Yb  Yb1  1  0.66666700  0.33333300  0.21972800  1
  Yb  Yb2  1  0.12639100  0.87360900  0.50092100  1
  Yb  Yb3  1  0.74721700  0.87360900  0.50092100  1
  Yb  Yb4  1  0.12639100  0.25278300  0.50092100  1
  Yb  Yb5  1  0.87360900  0.12639100  0.00092100  1
  Yb  Yb6  1  0.25278300  0.12639100  0.00092100  1
  Yb  Yb7  1  0.87360900  0.74721700  0.00092100  1
  Yb  Yb8  1  0.54024700  0.45975300  0.70551100  1
  Yb  Yb9  1  0.91950500  0.45975300  0.70551100  1
  Yb  Yb10  1  0.54024700  0.08049500  0.70551100  1
  Yb  Yb11  1  0.45975300  0.54024700  0.20551100  1
  Yb  Yb12  1  0.08049500  0.54024700  0.20551100  1
  Yb  Yb13  1  0.45975300  0.91950500  0.20551100  1
  Au  Au14  1  0.81170500  0.18829500  0.43968500  1
  Au  Au15  1  0.37659100  0.18829500  0.43968500  1
  Au  Au16  1  0.81170500  0.62340900  0.43968500  1
  Au  Au17  1  0.18829500  0.81170500  0.93968500  1
  Au  Au18  1  0.62340900  0.81170500  0.93968500  1
  Au  Au19  1  0.18829500  0.37659100  0.93968500  1
