# generated using pymatgen
data_RbP3PbO9
_symmetry_space_group_name_H-M   'P 1'
_cell_length_a   17.37379100
_cell_length_b   7.33741700
_cell_length_c   14.44639057
_cell_angle_alpha   74.19767030
_cell_angle_beta   90.00000000
_cell_angle_gamma   90.00000000
_symmetry_Int_Tables_number   1
_chemical_formula_structural   RbP3PbO9
_chemical_formula_sum   'Rb8 P24 Pb8 O72'
_cell_volume   1772.00777582
_cell_formula_units_Z   8
loop_
 _symmetry_equiv_pos_site_id
 _symmetry_equiv_pos_as_xyz
  1  'x, y, z'
loop_
 _atom_site_type_symbol
 _atom_site_label
 _atom_site_symmetry_multiplicity
 _atom_site_fract_x
 _atom_site_fract_y
 _atom_site_fract_z
 _atom_site_occupancy
  Rb  Rb0  1  0.34012600  0.11999400  0.05009000  1
  Rb  Rb1  1  0.17172700  0.65455500  0.99861900  1
  Rb  Rb2  1  0.67172700  0.34544500  0.50138100  1
  Rb  Rb3  1  0.65987400  0.88000600  0.94991000  1
  Rb  Rb4  1  0.32827300  0.65455500  0.49861900  1
  Rb  Rb5  1  0.82827300  0.34544500  0.00138100  1
  Rb  Rb6  1  0.15987400  0.11999400  0.55009000  1
  Rb  Rb7  1  0.84012600  0.88000600  0.44991000  1
  P  P8  1  0.99139500  0.22275100  0.36305500  1
  P  P9  1  0.12496600  0.04647600  0.14022300  1
  P  P10  1  0.13512800  0.51964700  0.64081300  1
  P  P11  1  0.00860500  0.77724900  0.63694500  1
  P  P12  1  0.25253700  0.46494900  0.30199300  1
  P  P13  1  0.49139500  0.77724900  0.13694500  1
  P  P14  1  0.01105500  0.34089100  0.14785900  1
  P  P15  1  0.72276100  0.93710800  0.18983500  1
  P  P16  1  0.24746300  0.46494900  0.80199300  1
  P  P17  1  0.62496600  0.95352400  0.35977700  1
  P  P18  1  0.51105500  0.65910900  0.35214100  1
  P  P19  1  0.37503400  0.04647600  0.64022300  1
  P  P20  1  0.36487200  0.51964700  0.14081300  1
  P  P21  1  0.22276100  0.06289200  0.31016500  1
  P  P22  1  0.63512800  0.48035300  0.85918700  1
  P  P23  1  0.77723900  0.93710800  0.68983500  1
  P  P24  1  0.87503400  0.95352400  0.85977700  1
  P  P25  1  0.50860500  0.22275100  0.86305500  1
  P  P26  1  0.86487200  0.48035300  0.35918700  1
  P  P27  1  0.27723900  0.06289200  0.81016500  1
  P  P28  1  0.75253700  0.53505100  0.19800700  1
  P  P29  1  0.48894500  0.34089100  0.64785900  1
  P  P30  1  0.98894500  0.65910900  0.85214100  1
  P  P31  1  0.74746300  0.53505100  0.69800700  1
  Pb  Pb32  1  0.92364600  0.82627600  0.13174300  1
  Pb  Pb33  1  0.57635400  0.82627600  0.63174300  1
  Pb  Pb34  1  0.07244900  0.70733400  0.38000200  1
  Pb  Pb35  1  0.92755100  0.29266600  0.61999800  1
  Pb  Pb36  1  0.42755100  0.70733400  0.88000200  1
  Pb  Pb37  1  0.42364600  0.17372400  0.36825700  1
  Pb  Pb38  1  0.07635400  0.17372400  0.86825700  1
  Pb  Pb39  1  0.57244900  0.29266600  0.11999800  1
  O  O40  1  0.79685500  0.94185500  0.79877300  1
  O  O41  1  0.55169500  0.21020900  0.63565800  1
  O  O42  1  0.50933400  0.45052300  0.40114100  1
  O  O43  1  0.34818100  0.01900000  0.54614400  1
  O  O44  1  0.71907800  0.47958500  0.81013900  1
  O  O45  1  0.43047000  0.90707400  0.70191200  1
  O  O46  1  0.52880700  0.67453600  0.23923000  1
  O  O47  1  0.50885500  0.01188600  0.88259300  1
  O  O48  1  0.29917300  0.27907100  0.80747100  1
  O  O49  1  0.19828300  0.61413400  0.31373300  1
  O  O50  1  0.99066600  0.45052300  0.90114100  1
  O  O51  1  0.56953000  0.09292600  0.29808800  1
  O  O52  1  0.79917300  0.72092900  0.69252900  1
  O  O53  1  0.10056000  0.71594600  0.65326400  1
  O  O54  1  0.90598500  0.73683500  0.88150600  1
  O  O55  1  0.69243100  0.97129900  0.67829700  1
  O  O56  1  0.84810700  0.46437100  0.46319300  1
  O  O57  1  0.21907800  0.52041500  0.68986100  1
  O  O58  1  0.15189300  0.53562900  0.53680700  1
  O  O59  1  0.67890400  0.58707000  0.63214700  1
  O  O60  1  0.20314500  0.05814500  0.20122700  1
  O  O61  1  0.49114500  0.98811400  0.11740700  1
  O  O62  1  0.94830500  0.21020900  0.13565800  1
  O  O63  1  0.15181900  0.01900000  0.04614400  1
  O  O64  1  0.83091500  0.05571800  0.61583000  1
  O  O65  1  0.16908500  0.94428200  0.38417000  1
  O  O66  1  0.30756900  0.02870100  0.32170300  1
  O  O67  1  0.00933400  0.54947700  0.09885900  1
  O  O68  1  0.82109600  0.58707000  0.13214700  1
  O  O69  1  0.41290200  0.35254400  0.19555100  1
  O  O70  1  0.65181900  0.98100000  0.45385600  1
  O  O71  1  0.97119300  0.67453600  0.73923000  1
  O  O72  1  0.47523100  0.31895300  0.93370900  1
  O  O73  1  0.99114500  0.01188600  0.38259300  1
  O  O74  1  0.39944000  0.71594600  0.15326400  1
  O  O75  1  0.66908500  0.05571800  0.11583000  1
  O  O76  1  0.47119300  0.32546400  0.76077000  1
  O  O77  1  0.20082700  0.27907100  0.30747100  1
  O  O78  1  0.52476900  0.68104700  0.06629100  1
  O  O79  1  0.78092200  0.47958500  0.31013900  1
  O  O80  1  0.70314500  0.94185500  0.29877300  1
  O  O81  1  0.93047000  0.09292600  0.79808800  1
  O  O82  1  0.70082700  0.72092900  0.19252900  1
  O  O83  1  0.32109600  0.41293000  0.36785300  1
  O  O84  1  0.84818100  0.98100000  0.95385600  1
  O  O85  1  0.44830500  0.78979100  0.36434200  1
  O  O86  1  0.49066600  0.54947700  0.59885900  1
  O  O87  1  0.59401500  0.73683500  0.38150600  1
  O  O88  1  0.69828300  0.38586600  0.18626700  1
  O  O89  1  0.19243100  0.02870100  0.82170300  1
  O  O90  1  0.65189300  0.46437100  0.96319300  1
  O  O91  1  0.06953000  0.90707400  0.20191200  1
  O  O92  1  0.09401500  0.26316500  0.11849400  1
  O  O93  1  0.05169500  0.78979100  0.86434200  1
  O  O94  1  0.00885500  0.98811400  0.61740700  1
  O  O95  1  0.30171700  0.61413400  0.81373300  1
  O  O96  1  0.02476900  0.31895300  0.43370900  1
  O  O97  1  0.89944000  0.28405400  0.34673600  1
  O  O98  1  0.08709800  0.35254400  0.69555100  1
  O  O99  1  0.33091500  0.94428200  0.88417000  1
  O  O100  1  0.58709800  0.64745600  0.80444900  1
  O  O101  1  0.34810700  0.53562900  0.03680700  1
  O  O102  1  0.28092200  0.52041500  0.18986100  1
  O  O103  1  0.17890400  0.41293000  0.86785300  1
  O  O104  1  0.80171700  0.38586600  0.68626700  1
  O  O105  1  0.40598500  0.26316500  0.61849400  1
  O  O106  1  0.60056000  0.28405400  0.84673600  1
  O  O107  1  0.97523100  0.68104700  0.56629100  1
  O  O108  1  0.91290200  0.64745600  0.30444900  1
  O  O109  1  0.02880700  0.32546400  0.26077000  1
  O  O110  1  0.29685500  0.05814500  0.70122700  1
  O  O111  1  0.80756900  0.97129900  0.17829700  1
