# generated using pymatgen
data_CsNb(CuTe2)2
_symmetry_space_group_name_H-M   'P 1'
_cell_length_a   6.05765200
_cell_length_b   8.34499600
_cell_length_c   21.03435100
_cell_angle_alpha   90.00000000
_cell_angle_beta   90.00000000
_cell_angle_gamma   90.00000000
_symmetry_Int_Tables_number   1
_chemical_formula_structural   CsNb(CuTe2)2
_chemical_formula_sum   'Cs4 Nb4 Cu8 Te16'
_cell_volume   1063.30919611
_cell_formula_units_Z   4
loop_
 _symmetry_equiv_pos_site_id
 _symmetry_equiv_pos_as_xyz
  1  'x, y, z'
loop_
 _atom_site_type_symbol
 _atom_site_label
 _atom_site_symmetry_multiplicity
 _atom_site_fract_x
 _atom_site_fract_y
 _atom_site_fract_z
 _atom_site_occupancy
  Cs  Cs0  1  0.01481700  0.70357200  0.43835900  1
  Cs  Cs1  1  0.51481700  0.29642800  0.56164100  1
  Cs  Cs2  1  0.51481700  0.79642800  0.93835900  1
  Cs  Cs3  1  0.01481700  0.20357200  0.06164100  1
  Nb  Nb4  1  0.25911600  0.70355400  0.14725900  1
  Nb  Nb5  1  0.75911600  0.29644600  0.85274100  1
  Nb  Nb6  1  0.75911600  0.79644600  0.64725900  1
  Nb  Nb7  1  0.25911600  0.20355400  0.35274100  1
  Cu  Cu8  1  0.26661000  0.96141100  0.24716800  1
  Cu  Cu9  1  0.76661000  0.03858900  0.75283200  1
  Cu  Cu10  1  0.76661000  0.53858900  0.74716800  1
  Cu  Cu11  1  0.26661000  0.46141100  0.25283200  1
  Cu  Cu12  1  0.25933800  0.79573200  0.64700200  1
  Cu  Cu13  1  0.75933800  0.20426800  0.35299800  1
  Cu  Cu14  1  0.75933800  0.70426800  0.14700200  1
  Cu  Cu15  1  0.25933800  0.29573200  0.85299800  1
  Te  Te16  1  0.51213200  0.96304300  0.14409300  1
  Te  Te17  1  0.01213200  0.03695700  0.85590700  1
  Te  Te18  1  0.01213200  0.53695700  0.64409300  1
  Te  Te19  1  0.51213200  0.46304300  0.35590700  1
  Te  Te20  1  0.51336100  0.94635600  0.34904500  1
  Te  Te21  1  0.01336100  0.05364400  0.65095500  1
  Te  Te22  1  0.01336100  0.55364400  0.84904500  1
  Te  Te23  1  0.51336100  0.44635600  0.15095500  1
  Te  Te24  1  0.00220200  0.71103700  0.25044900  1
  Te  Te25  1  0.50220200  0.28896300  0.74955100  1
  Te  Te26  1  0.50220200  0.78896300  0.75044900  1
  Te  Te27  1  0.00220200  0.21103700  0.24955100  1
  Te  Te28  1  0.00692300  0.69073400  0.04519900  1
  Te  Te29  1  0.50692300  0.30926600  0.95480100  1
  Te  Te30  1  0.50692300  0.80926600  0.54519900  1
  Te  Te31  1  0.00692300  0.19073400  0.45480100  1
