# generated using pymatgen
data_Pr2Si2O7
_symmetry_space_group_name_H-M   'P 1'
_cell_length_a   8.78318400
_cell_length_b   5.50202100
_cell_length_c   14.24065754
_cell_angle_alpha   67.65646439
_cell_angle_beta   90.00000000
_cell_angle_gamma   90.00000000
_symmetry_Int_Tables_number   1
_chemical_formula_structural   Pr2Si2O7
_chemical_formula_sum   'Pr8 Si8 O28'
_cell_volume   636.51547429
_cell_formula_units_Z   4
loop_
 _symmetry_equiv_pos_site_id
 _symmetry_equiv_pos_as_xyz
  1  'x, y, z'
loop_
 _atom_site_type_symbol
 _atom_site_label
 _atom_site_symmetry_multiplicity
 _atom_site_fract_x
 _atom_site_fract_y
 _atom_site_fract_z
 _atom_site_occupancy
  Pr  Pr0  1  0.39432000  0.33134000  0.41078000  1
  Pr  Pr1  1  0.89432000  0.66866000  0.08922000  1
  Pr  Pr2  1  0.60568000  0.66866000  0.58922000  1
  Pr  Pr3  1  0.10568000  0.33134000  0.91078000  1
  Pr  Pr4  1  0.18790500  0.01969300  0.23339900  1
  Pr  Pr5  1  0.68790500  0.98030700  0.26660100  1
  Pr  Pr6  1  0.81209500  0.98030700  0.76660100  1
  Pr  Pr7  1  0.31209500  0.01969300  0.73339900  1
  Si  Si8  1  0.50277500  0.45975000  0.82066100  1
  Si  Si9  1  0.00277500  0.54025000  0.67933900  1
  Si  Si10  1  0.49722500  0.54025000  0.17933900  1
  Si  Si11  1  0.99722500  0.45975000  0.32066100  1
  Si  Si12  1  0.75325500  0.24520700  0.97433700  1
  Si  Si13  1  0.25325500  0.75479300  0.52566300  1
  Si  Si14  1  0.24674500  0.75479300  0.02566300  1
  Si  Si15  1  0.74674500  0.24520700  0.47433700  1
  O  O16  1  0.32674700  0.54116100  0.82982800  1
  O  O17  1  0.82674700  0.45883900  0.67017200  1
  O  O18  1  0.67325300  0.45883900  0.17017200  1
  O  O19  1  0.17325300  0.54116100  0.32982800  1
  O  O20  1  0.51878900  0.28674400  0.74831900  1
  O  O21  1  0.01878900  0.71325600  0.75168100  1
  O  O22  1  0.48121100  0.71325600  0.25168100  1
  O  O23  1  0.98121100  0.28674400  0.24831900  1
  O  O24  1  0.58750500  0.74221000  0.76031600  1
  O  O25  1  0.08750500  0.25779000  0.73968400  1
  O  O26  1  0.41249500  0.25779000  0.23968400  1
  O  O27  1  0.91249500  0.74221000  0.26031600  1
  O  O28  1  0.75520300  0.05135000  0.09363500  1
  O  O29  1  0.25520300  0.94865000  0.40636500  1
  O  O30  1  0.24479700  0.94865000  0.90636500  1
  O  O31  1  0.74479700  0.05135000  0.59363500  1
  O  O32  1  0.92183800  0.29669100  0.43221200  1
  O  O33  1  0.42183800  0.70330900  0.06778800  1
  O  O34  1  0.07816200  0.70330900  0.56778800  1
  O  O35  1  0.57816200  0.29669100  0.93221200  1
  O  O36  1  0.64385800  0.08036000  0.41924200  1
  O  O37  1  0.14385800  0.91964000  0.08075800  1
  O  O38  1  0.35614200  0.91964000  0.58075800  1
  O  O39  1  0.85614200  0.08036000  0.91924200  1
  O  O40  1  0.65323000  0.52153500  0.45004300  1
  O  O41  1  0.15323000  0.47846500  0.04995700  1
  O  O42  1  0.34677000  0.47846500  0.54995700  1
  O  O43  1  0.84677000  0.52153500  0.95004300  1
