# generated using pymatgen
data_K3PO4
_symmetry_space_group_name_H-M   'P 1'
_cell_length_a   6.01276800
_cell_length_b   8.21563700
_cell_length_c   11.37102100
_cell_angle_alpha   90.00000000
_cell_angle_beta   90.00000000
_cell_angle_gamma   90.00000000
_symmetry_Int_Tables_number   1
_chemical_formula_structural   K3PO4
_chemical_formula_sum   'K12 P4 O16'
_cell_volume   561.71387400
_cell_formula_units_Z   4
loop_
 _symmetry_equiv_pos_site_id
 _symmetry_equiv_pos_as_xyz
  1  'x, y, z'
loop_
 _atom_site_type_symbol
 _atom_site_label
 _atom_site_symmetry_multiplicity
 _atom_site_fract_x
 _atom_site_fract_y
 _atom_site_fract_z
 _atom_site_occupancy
  K  K0  1  0.80502000  0.49112300  0.64386300  1
  K  K1  1  0.19498000  0.99112300  0.35613700  1
  K  K2  1  0.30502000  0.50887700  0.85613700  1
  K  K3  1  0.13879700  0.25000000  0.07046200  1
  K  K4  1  0.63879700  0.75000000  0.42953800  1
  K  K5  1  0.86120300  0.75000000  0.92953800  1
  K  K6  1  0.30502000  0.99112300  0.85613700  1
  K  K7  1  0.36120300  0.25000000  0.57046200  1
  K  K8  1  0.69498000  0.49112300  0.14386300  1
  K  K9  1  0.19498000  0.50887700  0.35613700  1
  K  K10  1  0.80502000  0.00887700  0.64386300  1
  K  K11  1  0.69498000  0.00887700  0.14386300  1
  P  P12  1  0.78170300  0.25000000  0.38418700  1
  P  P13  1  0.71829700  0.25000000  0.88418700  1
  P  P14  1  0.21829700  0.75000000  0.61581300  1
  P  P15  1  0.28170300  0.75000000  0.11581300  1
  O  O16  1  0.05229000  0.75000000  0.50904300  1
  O  O17  1  0.63372800  0.09376700  0.38919400  1
  O  O18  1  0.13372800  0.90623300  0.11080600  1
  O  O19  1  0.86627200  0.40623300  0.88919400  1
  O  O20  1  0.13372800  0.59376700  0.11080600  1
  O  O21  1  0.57832500  0.25000000  0.76793400  1
  O  O22  1  0.36627200  0.90623300  0.61080600  1
  O  O23  1  0.44771000  0.75000000  0.00904300  1
  O  O24  1  0.63372800  0.40623300  0.38919400  1
  O  O25  1  0.92167500  0.25000000  0.26793400  1
  O  O26  1  0.55229000  0.25000000  0.99095700  1
  O  O27  1  0.86627200  0.09376700  0.88919400  1
  O  O28  1  0.36627200  0.59376700  0.61080600  1
  O  O29  1  0.94771000  0.25000000  0.49095700  1
  O  O30  1  0.07832500  0.75000000  0.73206600  1
  O  O31  1  0.42167500  0.75000000  0.23206600  1
