# generated using pymatgen
data_U2TeN2
_symmetry_space_group_name_H-M   'P 1'
_cell_length_a   6.89568294
_cell_length_b   6.89568294
_cell_length_c   6.89568294
_cell_angle_alpha   147.31731160
_cell_angle_beta   147.31731160
_cell_angle_gamma   46.89417925
_symmetry_Int_Tables_number   1
_chemical_formula_structural   U2TeN2
_chemical_formula_sum   'U2 Te1 N2'
_cell_volume   95.25463315
_cell_formula_units_Z   1
loop_
 _symmetry_equiv_pos_site_id
 _symmetry_equiv_pos_as_xyz
  1  'x, y, z'
loop_
 _atom_site_type_symbol
 _atom_site_label
 _atom_site_symmetry_multiplicity
 _atom_site_fract_x
 _atom_site_fract_y
 _atom_site_fract_z
 _atom_site_occupancy
  U  U0  1  0.34061700  0.34061700  0.00000000  1
  U  U1  1  0.65938300  0.65938300  0.00000000  1
  Te  Te2  1  0.00000000  0.00000000  0.00000000  1
  N  N3  1  0.75000000  0.25000000  0.50000000  1
  N  N4  1  0.25000000  0.75000000  0.50000000  1
