# generated using pymatgen
data_Li2MnSiO4
_symmetry_space_group_name_H-M   'P 1'
_cell_length_a   5.04872200
_cell_length_b   5.44145500
_cell_length_c   12.75411500
_cell_angle_alpha   89.99784783
_cell_angle_beta   90.00022131
_cell_angle_gamma   90.00045862
_symmetry_Int_Tables_number   1
_chemical_formula_structural   Li2MnSiO4
_chemical_formula_sum   'Li8 Mn4 Si4 O16'
_cell_volume   350.38606679
_cell_formula_units_Z   4
loop_
 _symmetry_equiv_pos_site_id
 _symmetry_equiv_pos_as_xyz
  1  'x, y, z'
loop_
 _atom_site_type_symbol
 _atom_site_label
 _atom_site_symmetry_multiplicity
 _atom_site_fract_x
 _atom_site_fract_y
 _atom_site_fract_z
 _atom_site_occupancy
  Li  Li0  1  0.55672500  0.33107300  0.37453700  1
  Li  Li1  1  0.55672100  0.33107500  0.87453600  1
  Li  Li2  1  0.55672700  0.33107300  0.12546800  1
  Li  Li3  1  0.55672800  0.33107300  0.62546300  1
  Li  Li4  1  0.05672400  0.66895000  0.12453900  1
  Li  Li5  1  0.05672300  0.66894500  0.62453300  1
  Li  Li6  1  0.05672600  0.66894700  0.37546500  1
  Li  Li7  1  0.05672300  0.66894200  0.87546700  1
  Mn  Mn8  1  0.55933200  0.83369100  0.99997600  1
  Mn  Mn9  1  0.05957000  0.16599700  0.74999500  1
  Mn  Mn10  1  0.55928400  0.83402000  0.50002300  1
  Mn  Mn11  1  0.05935100  0.16600700  0.24997900  1
  Si  Si12  1  0.04991000  0.17944100  0.00000200  1
  Si  Si13  1  0.04991500  0.17942800  0.49999800  1
  Si  Si14  1  0.54991400  0.82059700  0.25000500  1
  Si  Si15  1  0.54991100  0.82058000  0.74999900  1
  O  O16  1  0.72261400  0.18782000  0.50000500  1
  O  O17  1  0.72261300  0.18789400  0.00001600  1
  O  O18  1  0.22261300  0.81220400  0.24999800  1
  O  O19  1  0.22261800  0.81211400  0.74998700  1
  O  O20  1  0.14428600  0.88654400  0.49999600  1
  O  O21  1  0.14421800  0.88653900  0.00000800  1
  O  O22  1  0.64428900  0.11348100  0.25000700  1
  O  O23  1  0.64422300  0.11348200  0.74999300  1
  O  O24  1  0.16270200  0.32056700  0.39407500  1
  O  O25  1  0.16271600  0.32058600  0.89408900  1
  O  O26  1  0.66272500  0.67942400  0.14409200  1
  O  O27  1  0.66270600  0.67946900  0.64407900  1
  O  O28  1  0.66270200  0.67945700  0.35593000  1
  O  O29  1  0.66271600  0.67943200  0.85591100  1
  O  O30  1  0.16271000  0.32055500  0.10592300  1
  O  O31  1  0.16272700  0.32059600  0.60590900  1
