# generated using pymatgen
data_Sr3U(Te2O7)2
_symmetry_space_group_name_H-M   'P 1'
_cell_length_a   10.89485692
_cell_length_b   10.89485692
_cell_length_c   13.24355433
_cell_angle_alpha   86.36075584
_cell_angle_beta   86.36075584
_cell_angle_gamma   30.53204772
_symmetry_Int_Tables_number   1
_chemical_formula_structural   Sr3U(Te2O7)2
_chemical_formula_sum   'Sr6 U2 Te8 O28'
_cell_volume   796.86826883
_cell_formula_units_Z   2
loop_
 _symmetry_equiv_pos_site_id
 _symmetry_equiv_pos_as_xyz
  1  'x, y, z'
loop_
 _atom_site_type_symbol
 _atom_site_label
 _atom_site_symmetry_multiplicity
 _atom_site_fract_x
 _atom_site_fract_y
 _atom_site_fract_z
 _atom_site_occupancy
  Sr  Sr0  1  0.29385500  0.82752200  0.94191400  1
  Sr  Sr1  1  0.82752200  0.29385500  0.44191400  1
  Sr  Sr2  1  0.17247800  0.70614500  0.55808600  1
  Sr  Sr3  1  0.72145100  0.27854900  0.75000000  1
  Sr  Sr4  1  0.70614500  0.17247800  0.05808600  1
  Sr  Sr5  1  0.27854900  0.72145100  0.25000000  1
  U  U6  1  0.00000000  0.50000000  0.50000000  1
  U  U7  1  0.50000000  0.00000000  0.00000000  1
  Te  Te8  1  0.53813900  0.11315200  0.66351700  1
  Te  Te9  1  0.82561300  0.37558900  0.12733700  1
  Te  Te10  1  0.46186100  0.88684800  0.33648300  1
  Te  Te11  1  0.37558900  0.82561300  0.62733700  1
  Te  Te12  1  0.62441100  0.17438700  0.37266300  1
  Te  Te13  1  0.11315200  0.53813900  0.16351700  1
  Te  Te14  1  0.17438700  0.62441100  0.87266300  1
  Te  Te15  1  0.88684800  0.46186100  0.83648300  1
  O  O16  1  0.92542100  0.25995800  0.86515000  1
  O  O17  1  0.72311800  0.45821200  0.26497100  1
  O  O18  1  0.35293100  0.30425300  0.05912400  1
  O  O19  1  0.07457900  0.74004200  0.13485000  1
  O  O20  1  0.46563600  0.45405800  0.41368500  1
  O  O21  1  0.69574700  0.64706900  0.44087600  1
  O  O22  1  0.93601700  0.97721300  0.38418900  1
  O  O23  1  0.17132800  0.26608400  0.90425500  1
  O  O24  1  0.06398300  0.02278700  0.61581100  1
  O  O25  1  0.53436400  0.54594200  0.58631500  1
  O  O26  1  0.54178800  0.27688200  0.23502900  1
  O  O27  1  0.96184700  0.65403200  0.39630100  1
  O  O28  1  0.45821200  0.72311800  0.76497100  1
  O  O29  1  0.34596800  0.03815300  0.10369900  1
  O  O30  1  0.65403200  0.96184700  0.89630100  1
  O  O31  1  0.25995800  0.92542100  0.36515000  1
  O  O32  1  0.97721300  0.93601700  0.88418900  1
  O  O33  1  0.64706900  0.69574700  0.94087600  1
  O  O34  1  0.74004200  0.07457900  0.63485000  1
  O  O35  1  0.54594200  0.53436400  0.08631500  1
  O  O36  1  0.45405800  0.46563600  0.91368500  1
  O  O37  1  0.30425300  0.35293100  0.55912400  1
  O  O38  1  0.82867200  0.73391600  0.09574500  1
  O  O39  1  0.73391600  0.82867200  0.59574500  1
  O  O40  1  0.02278700  0.06398300  0.11581100  1
  O  O41  1  0.26608400  0.17132800  0.40425500  1
  O  O42  1  0.27688200  0.54178800  0.73502900  1
  O  O43  1  0.03815300  0.34596800  0.60369900  1
