# generated using pymatgen
data_CsCrP2O7
_symmetry_space_group_name_H-M   'P 1'
_cell_length_a   10.05861100
_cell_length_b   7.79410400
_cell_length_c   8.46306904
_cell_angle_alpha   74.92716805
_cell_angle_beta   90.00000000
_cell_angle_gamma   90.00000000
_symmetry_Int_Tables_number   1
_chemical_formula_structural   CsCrP2O7
_chemical_formula_sum   'Cs4 Cr4 P8 O28'
_cell_volume   640.65994440
_cell_formula_units_Z   4
loop_
 _symmetry_equiv_pos_site_id
 _symmetry_equiv_pos_as_xyz
  1  'x, y, z'
loop_
 _atom_site_type_symbol
 _atom_site_label
 _atom_site_symmetry_multiplicity
 _atom_site_fract_x
 _atom_site_fract_y
 _atom_site_fract_z
 _atom_site_occupancy
  Cs  Cs0  1  0.20578500  0.80091500  0.03905300  1
  Cs  Cs1  1  0.79421500  0.19908500  0.96094700  1
  Cs  Cs2  1  0.29421500  0.80091500  0.53905300  1
  Cs  Cs3  1  0.70578500  0.19908500  0.46094700  1
  Cr  Cr4  1  0.39821700  0.24154600  0.74164900  1
  Cr  Cr5  1  0.89821700  0.75845400  0.75835100  1
  Cr  Cr6  1  0.60178300  0.75845400  0.25835100  1
  Cr  Cr7  1  0.10178300  0.24154600  0.24164900  1
  P  P8  1  0.59555300  0.87196600  0.83252000  1
  P  P9  1  0.90444700  0.87196600  0.33252000  1
  P  P10  1  0.12574600  0.42211500  0.81762500  1
  P  P11  1  0.40444700  0.12803400  0.16748000  1
  P  P12  1  0.37425400  0.42211500  0.31762500  1
  P  P13  1  0.87425400  0.57788500  0.18237500  1
  P  P14  1  0.62574600  0.57788500  0.68237500  1
  P  P15  1  0.09555300  0.12803400  0.66748000  1
  O  O16  1  0.93343800  0.39083500  0.23225700  1
  O  O17  1  0.04610700  0.31201700  0.70634700  1
  O  O18  1  0.72724000  0.56602500  0.23571000  1
  O  O19  1  0.56656200  0.39083500  0.73225700  1
  O  O20  1  0.10130900  0.32008500  0.99413600  1
  O  O21  1  0.58442400  0.84460100  0.01526400  1
  O  O22  1  0.89869100  0.67991500  0.00586400  1
  O  O23  1  0.60130900  0.67991500  0.50586400  1
  O  O24  1  0.00500700  0.98140300  0.76748200  1
  O  O25  1  0.77276000  0.56602500  0.73571000  1
  O  O26  1  0.73819900  0.90801100  0.76537800  1
  O  O27  1  0.08442400  0.15539900  0.48473600  1
  O  O28  1  0.26180100  0.09198900  0.23462200  1
  O  O29  1  0.06656200  0.60916500  0.76774300  1
  O  O30  1  0.39869100  0.32008500  0.49413600  1
  O  O31  1  0.95389300  0.68798300  0.29365300  1
  O  O32  1  0.45389300  0.31201700  0.20634700  1
  O  O33  1  0.99499300  0.01859700  0.23251800  1
  O  O34  1  0.50500700  0.01859700  0.73251800  1
  O  O35  1  0.22724000  0.43397500  0.26429000  1
  O  O36  1  0.54610700  0.68798300  0.79365300  1
  O  O37  1  0.43343800  0.60916500  0.26774300  1
  O  O38  1  0.23819900  0.09198900  0.73462200  1
  O  O39  1  0.49499300  0.98140300  0.26748200  1
  O  O40  1  0.41557600  0.15539900  0.98473600  1
  O  O41  1  0.91557600  0.84460100  0.51526400  1
  O  O42  1  0.76180100  0.90801100  0.26537800  1
  O  O43  1  0.27276000  0.43397500  0.76429000  1
