# generated using pymatgen
data_CsSb2F11
_symmetry_space_group_name_H-M   'P 1'
_cell_length_a   14.64633000
_cell_length_b   7.92522800
_cell_length_c   9.90593510
_cell_angle_alpha   65.50049801
_cell_angle_beta   90.00000000
_cell_angle_gamma   90.00000000
_symmetry_Int_Tables_number   1
_chemical_formula_structural   CsSb2F11
_chemical_formula_sum   'Cs4 Sb8 F44'
_cell_volume   1046.31075059
_cell_formula_units_Z   4
loop_
 _symmetry_equiv_pos_site_id
 _symmetry_equiv_pos_as_xyz
  1  'x, y, z'
loop_
 _atom_site_type_symbol
 _atom_site_label
 _atom_site_symmetry_multiplicity
 _atom_site_fract_x
 _atom_site_fract_y
 _atom_site_fract_z
 _atom_site_occupancy
  Cs  Cs0  1  0.62779700  0.74214600  0.27427500  1
  Cs  Cs1  1  0.37220300  0.25785400  0.72572500  1
  Cs  Cs2  1  0.87220300  0.74214600  0.77427500  1
  Cs  Cs3  1  0.12779700  0.25785400  0.22572500  1
  Sb  Sb4  1  0.94982000  0.73279100  0.24334300  1
  Sb  Sb5  1  0.05018000  0.26720900  0.75665700  1
  Sb  Sb6  1  0.55018000  0.73279100  0.74334300  1
  Sb  Sb7  1  0.80535300  0.27932700  0.30939800  1
  Sb  Sb8  1  0.19464700  0.72067300  0.69060200  1
  Sb  Sb9  1  0.30535300  0.72067300  0.19060200  1
  Sb  Sb10  1  0.69464700  0.27932700  0.80939800  1
  Sb  Sb11  1  0.44982000  0.26720900  0.25665700  1
  F  F12  1  0.35832200  0.87998900  0.00583200  1
  F  F13  1  0.95031100  0.41631000  0.65093900  1
  F  F14  1  0.52136200  0.04847200  0.34033500  1
  F  F15  1  0.74285800  0.08663900  0.28184800  1
  F  F16  1  0.25714200  0.91336100  0.71815200  1
  F  F17  1  0.87268200  0.49044300  0.34381100  1
  F  F18  1  0.75714200  0.08663900  0.78184800  1
  F  F19  1  0.79411200  0.33001600  0.91050200  1
  F  F20  1  0.24285800  0.91336100  0.21815200  1
  F  F21  1  0.47863800  0.95152800  0.65966500  1
  F  F22  1  0.20588800  0.66998400  0.08949800  1
  F  F23  1  0.33894500  0.15759000  0.35464600  1
  F  F24  1  0.54968900  0.41631000  0.15093900  1
  F  F25  1  0.14167800  0.87998900  0.50583200  1
  F  F26  1  0.73573100  0.47647600  0.63103400  1
  F  F27  1  0.23573100  0.52352400  0.86896600  1
  F  F28  1  0.45031100  0.58369000  0.84906100  1
  F  F29  1  0.97295700  0.65407500  0.08850300  1
  F  F30  1  0.41380200  0.74313400  0.28770300  1
  F  F31  1  0.29411200  0.66998400  0.58949800  1
  F  F32  1  0.58590000  0.78001300  0.90912100  1
  F  F33  1  0.02704300  0.34592500  0.91149700  1
  F  F34  1  0.16105500  0.15759000  0.85464600  1
  F  F35  1  0.85832200  0.12001100  0.49416800  1
  F  F36  1  0.70588800  0.33001600  0.41050200  1
  F  F37  1  0.62731800  0.49044300  0.84381100  1
  F  F38  1  0.08590000  0.21998700  0.59087900  1
  F  F39  1  0.97863800  0.04847200  0.84033500  1
  F  F40  1  0.64167800  0.12001100  0.99416800  1
  F  F41  1  0.58619800  0.25686600  0.71229700  1
  F  F42  1  0.91410000  0.78001300  0.40912100  1
  F  F43  1  0.76426900  0.47647600  0.13103400  1
  F  F44  1  0.04968900  0.58369000  0.34906100  1
  F  F45  1  0.37268200  0.50955700  0.15618900  1
  F  F46  1  0.26426900  0.52352400  0.36896600  1
  F  F47  1  0.47295700  0.34592500  0.41149700  1
  F  F48  1  0.41410000  0.21998700  0.09087900  1
  F  F49  1  0.52704300  0.65407500  0.58850300  1
  F  F50  1  0.02136200  0.95152800  0.15966500  1
  F  F51  1  0.66105500  0.84241000  0.64535400  1
  F  F52  1  0.83894500  0.84241000  0.14535400  1
  F  F53  1  0.91380200  0.25686600  0.21229700  1
  F  F54  1  0.12731800  0.50955700  0.65618900  1
  F  F55  1  0.08619800  0.74313400  0.78770300  1
