# generated using pymatgen
data_SmNiSb3
_symmetry_space_group_name_H-M   'P 1'
_cell_length_a   6.26567800
_cell_length_b   12.50561700
_cell_length_c   18.18922400
_cell_angle_alpha   90.00000000
_cell_angle_beta   90.00000000
_cell_angle_gamma   90.00000000
_symmetry_Int_Tables_number   1
_chemical_formula_structural   SmNiSb3
_chemical_formula_sum   'Sm12 Ni12 Sb36'
_cell_volume   1425.23791542
_cell_formula_units_Z   12
loop_
 _symmetry_equiv_pos_site_id
 _symmetry_equiv_pos_as_xyz
  1  'x, y, z'
loop_
 _atom_site_type_symbol
 _atom_site_label
 _atom_site_symmetry_multiplicity
 _atom_site_fract_x
 _atom_site_fract_y
 _atom_site_fract_z
 _atom_site_occupancy
  Sm  Sm0  1  0.52740400  0.70140400  0.41637700  1
  Sm  Sm1  1  0.94004400  0.30450600  0.75000000  1
  Sm  Sm2  1  0.55995600  0.30450600  0.25000000  1
  Sm  Sm3  1  0.97259600  0.70140400  0.91637700  1
  Sm  Sm4  1  0.02740400  0.29859600  0.41637700  1
  Sm  Sm5  1  0.05995600  0.69549400  0.25000000  1
  Sm  Sm6  1  0.47259600  0.29859600  0.91637700  1
  Sm  Sm7  1  0.47259600  0.29859600  0.58362300  1
  Sm  Sm8  1  0.52740400  0.70140400  0.08362300  1
  Sm  Sm9  1  0.97259600  0.70140400  0.58362300  1
  Sm  Sm10  1  0.02740400  0.29859600  0.08362300  1
  Sm  Sm11  1  0.44004400  0.69549400  0.75000000  1
  Ni  Ni12  1  0.75000000  0.10529800  0.50000000  1
  Ni  Ni13  1  0.67124200  0.89872000  0.67604700  1
  Ni  Ni14  1  0.32875800  0.10128000  0.17604700  1
  Ni  Ni15  1  0.25000000  0.89470200  0.50000000  1
  Ni  Ni16  1  0.82875800  0.89872000  0.32395300  1
  Ni  Ni17  1  0.17124200  0.10128000  0.67604700  1
  Ni  Ni18  1  0.32875800  0.10128000  0.32395300  1
  Ni  Ni19  1  0.82875800  0.89872000  0.17604700  1
  Ni  Ni20  1  0.17124200  0.10128000  0.82395300  1
  Ni  Ni21  1  0.75000000  0.10529800  0.00000000  1
  Ni  Ni22  1  0.25000000  0.89470200  0.00000000  1
  Ni  Ni23  1  0.67124200  0.89872000  0.82395300  1
  Sb  Sb24  1  0.95706400  0.97363900  0.58661600  1
  Sb  Sb25  1  0.45706400  0.02636100  0.91338400  1
  Sb  Sb26  1  0.02579100  0.77069600  0.08427500  1
  Sb  Sb27  1  0.97420900  0.22930400  0.91572500  1
  Sb  Sb28  1  0.05393800  0.22543100  0.25000000  1
  Sb  Sb29  1  0.79445300  0.50387000  0.16586300  1
  Sb  Sb30  1  0.75000000  0.49591600  0.50000000  1
  Sb  Sb31  1  0.75000000  0.49591600  0.00000000  1
  Sb  Sb32  1  0.04293600  0.02636100  0.08661600  1
  Sb  Sb33  1  0.02579100  0.77069600  0.41572500  1
  Sb  Sb34  1  0.29445300  0.49613000  0.33413700  1
  Sb  Sb35  1  0.20554700  0.49613000  0.66586300  1
  Sb  Sb36  1  0.31303600  0.94158300  0.75000000  1
  Sb  Sb37  1  0.47420900  0.77069600  0.58427500  1
  Sb  Sb38  1  0.18696400  0.94158300  0.25000000  1
  Sb  Sb39  1  0.68696400  0.05841700  0.25000000  1
  Sb  Sb40  1  0.52579100  0.22930400  0.41572500  1
  Sb  Sb41  1  0.44606200  0.22543100  0.75000000  1
  Sb  Sb42  1  0.70554700  0.50387000  0.66586300  1
  Sb  Sb43  1  0.54293600  0.97363900  0.08661600  1
  Sb  Sb44  1  0.70554700  0.50387000  0.83413700  1
  Sb  Sb45  1  0.94606200  0.77456900  0.75000000  1
  Sb  Sb46  1  0.25000000  0.50408400  0.50000000  1
  Sb  Sb47  1  0.25000000  0.50408400  0.00000000  1
  Sb  Sb48  1  0.47420900  0.77069600  0.91572500  1
  Sb  Sb49  1  0.29445300  0.49613000  0.16586300  1
  Sb  Sb50  1  0.20554700  0.49613000  0.83413700  1
  Sb  Sb51  1  0.45706400  0.02636100  0.58661600  1
  Sb  Sb52  1  0.04293600  0.02636100  0.41338400  1
  Sb  Sb53  1  0.52579100  0.22930400  0.08427500  1
  Sb  Sb54  1  0.79445300  0.50387000  0.33413700  1
  Sb  Sb55  1  0.81303600  0.05841700  0.75000000  1
  Sb  Sb56  1  0.97420900  0.22930400  0.58427500  1
  Sb  Sb57  1  0.55393800  0.77456900  0.25000000  1
  Sb  Sb58  1  0.95706400  0.97363900  0.91338400  1
  Sb  Sb59  1  0.54293600  0.97363900  0.41338400  1
