# generated using pymatgen
data_Lu2FeB6
_symmetry_space_group_name_H-M   'P 1'
_cell_length_a   3.47444100
_cell_length_b   8.96848300
_cell_length_c   11.31674600
_cell_angle_alpha   90.00000000
_cell_angle_beta   90.00000000
_cell_angle_gamma   90.00000000
_symmetry_Int_Tables_number   1
_chemical_formula_structural   Lu2FeB6
_chemical_formula_sum   'Lu8 Fe4 B24'
_cell_volume   352.63506813
_cell_formula_units_Z   4
loop_
 _symmetry_equiv_pos_site_id
 _symmetry_equiv_pos_as_xyz
  1  'x, y, z'
loop_
 _atom_site_type_symbol
 _atom_site_label
 _atom_site_symmetry_multiplicity
 _atom_site_fract_x
 _atom_site_fract_y
 _atom_site_fract_z
 _atom_site_occupancy
  Lu  Lu0  1  0.00000000  0.82326200  0.08542400  1
  Lu  Lu1  1  0.00000000  0.17673800  0.91457600  1
  Lu  Lu2  1  0.00000000  0.32326200  0.41457600  1
  Lu  Lu3  1  0.00000000  0.67673800  0.58542400  1
  Lu  Lu4  1  0.00000000  0.44327000  0.12932400  1
  Lu  Lu5  1  0.00000000  0.55673000  0.87067600  1
  Lu  Lu6  1  0.00000000  0.94327000  0.37067600  1
  Lu  Lu7  1  0.00000000  0.05673000  0.62932400  1
  Fe  Fe8  1  0.00000000  0.13871700  0.17922400  1
  Fe  Fe9  1  0.00000000  0.86128300  0.82077600  1
  Fe  Fe10  1  0.00000000  0.63871700  0.32077600  1
  Fe  Fe11  1  0.00000000  0.36128300  0.67922400  1
  B  B12  1  0.50000000  0.05421600  0.06714600  1
  B  B13  1  0.50000000  0.94578400  0.93285400  1
  B  B14  1  0.50000000  0.55421600  0.43285400  1
  B  B15  1  0.50000000  0.44578400  0.56714600  1
  B  B16  1  0.50000000  0.24757600  0.08104200  1
  B  B17  1  0.50000000  0.75242400  0.91895800  1
  B  B18  1  0.50000000  0.74757600  0.41895800  1
  B  B19  1  0.50000000  0.25242400  0.58104200  1
  B  B20  1  0.50000000  0.29107400  0.23427900  1
  B  B21  1  0.50000000  0.70892600  0.76572100  1
  B  B22  1  0.50000000  0.79107400  0.26572100  1
  B  B23  1  0.50000000  0.20892600  0.73427900  1
  B  B24  1  0.50000000  0.13222500  0.31462900  1
  B  B25  1  0.50000000  0.86777500  0.68537100  1
  B  B26  1  0.50000000  0.63222500  0.18537100  1
  B  B27  1  0.50000000  0.36777500  0.81462900  1
  B  B28  1  0.50000000  0.48493700  0.28831700  1
  B  B29  1  0.50000000  0.51506300  0.71168300  1
  B  B30  1  0.50000000  0.98493700  0.21168300  1
  B  B31  1  0.50000000  0.01506300  0.78831700  1
  B  B32  1  0.50000000  0.10680600  0.47064300  1
  B  B33  1  0.50000000  0.89319400  0.52935700  1
  B  B34  1  0.50000000  0.60680600  0.02935700  1
  B  B35  1  0.50000000  0.39319400  0.97064300  1
