# generated using pymatgen
data_Pd3S
_symmetry_space_group_name_H-M   'P 1'
_cell_length_a   4.61511107
_cell_length_b   4.61511107
_cell_length_c   6.37443000
_cell_angle_alpha   90.00000000
_cell_angle_beta   90.00000000
_cell_angle_gamma   107.99141312
_symmetry_Int_Tables_number   1
_chemical_formula_structural   Pd3S
_chemical_formula_sum   'Pd6 S2'
_cell_volume   129.13178054
_cell_formula_units_Z   2
loop_
 _symmetry_equiv_pos_site_id
 _symmetry_equiv_pos_as_xyz
  1  'x, y, z'
loop_
 _atom_site_type_symbol
 _atom_site_label
 _atom_site_symmetry_multiplicity
 _atom_site_fract_x
 _atom_site_fract_y
 _atom_site_fract_z
 _atom_site_occupancy
  Pd  Pd0  1  0.04254400  0.65119000  0.75000000  1
  Pd  Pd1  1  0.65119000  0.04254400  0.75000000  1
  Pd  Pd2  1  0.50000000  0.50000000  0.00000000  1
  Pd  Pd3  1  0.50000000  0.50000000  0.50000000  1
  Pd  Pd4  1  0.34881000  0.95745600  0.25000000  1
  Pd  Pd5  1  0.95745600  0.34881000  0.25000000  1
  S  S6  1  0.81086200  0.81086200  0.25000000  1
  S  S7  1  0.18913800  0.18913800  0.75000000  1
