# generated using pymatgen
data_CrHg3(PbO4)2
_symmetry_space_group_name_H-M   'P 1'
_cell_length_a   22.39420600
_cell_length_b   6.57620600
_cell_length_c   7.19657041
_cell_angle_alpha   70.48331464
_cell_angle_beta   90.00000000
_cell_angle_gamma   90.00000000
_symmetry_Int_Tables_number   1
_chemical_formula_structural   CrHg3(PbO4)2
_chemical_formula_sum   'Cr4 Hg12 Pb8 O32'
_cell_volume   998.93769429
_cell_formula_units_Z   4
loop_
 _symmetry_equiv_pos_site_id
 _symmetry_equiv_pos_as_xyz
  1  'x, y, z'
loop_
 _atom_site_type_symbol
 _atom_site_label
 _atom_site_symmetry_multiplicity
 _atom_site_fract_x
 _atom_site_fract_y
 _atom_site_fract_z
 _atom_site_occupancy
  Cr  Cr0  1  0.38859600  0.41476400  0.86459900  1
  Cr  Cr1  1  0.88859600  0.58523600  0.63540100  1
  Cr  Cr2  1  0.11140400  0.41476400  0.36459900  1
  Cr  Cr3  1  0.61140400  0.58523600  0.13540100  1
  Hg  Hg4  1  0.05595300  0.49506900  0.82515600  1
  Hg  Hg5  1  0.71790200  0.64064200  0.60071000  1
  Hg  Hg6  1  0.94404700  0.50493100  0.17484400  1
  Hg  Hg7  1  0.21790200  0.35935800  0.89929000  1
  Hg  Hg8  1  0.86191400  0.07375000  0.12845000  1
  Hg  Hg9  1  0.63808600  0.07375000  0.62845000  1
  Hg  Hg10  1  0.28209800  0.35935800  0.39929000  1
  Hg  Hg11  1  0.78209800  0.64064200  0.10071000  1
  Hg  Hg12  1  0.13808600  0.92625000  0.87155000  1
  Hg  Hg13  1  0.55595300  0.50493100  0.67484400  1
  Hg  Hg14  1  0.36191400  0.92625000  0.37155000  1
  Hg  Hg15  1  0.44404700  0.49506900  0.32515600  1
  Pb  Pb16  1  0.52174900  0.02851500  0.24063600  1
  Pb  Pb17  1  0.79856800  0.16646300  0.57252900  1
  Pb  Pb18  1  0.97825100  0.02851500  0.74063600  1
  Pb  Pb19  1  0.02174900  0.97148500  0.25936400  1
  Pb  Pb20  1  0.29856800  0.83353700  0.92747100  1
  Pb  Pb21  1  0.20143200  0.83353700  0.42747100  1
  Pb  Pb22  1  0.47825100  0.97148500  0.75936400  1
  Pb  Pb23  1  0.70143200  0.16646300  0.07252900  1
  O  O24  1  0.45644000  0.31640000  0.94058800  1
  O  O25  1  0.64240900  0.73347400  0.25658500  1
  O  O26  1  0.04356000  0.31640000  0.44058800  1
  O  O27  1  0.04172400  0.17213700  0.92109700  1
  O  O28  1  0.95644000  0.68360000  0.55941200  1
  O  O29  1  0.35759100  0.26652600  0.74341500  1
  O  O30  1  0.45827600  0.17213700  0.42109700  1
  O  O31  1  0.89461800  0.32601100  0.78012100  1
  O  O32  1  0.85759100  0.73347400  0.75658500  1
  O  O33  1  0.54356000  0.68360000  0.05941200  1
  O  O34  1  0.84510700  0.58754400  0.44415400  1
  O  O35  1  0.78588500  0.97104800  0.00930200  1
  O  O36  1  0.10538200  0.67398900  0.21987900  1
  O  O37  1  0.22429300  0.68565400  0.79168900  1
  O  O38  1  0.14240900  0.26652600  0.24341500  1
  O  O39  1  0.34510700  0.41245600  0.05584600  1
  O  O40  1  0.15489300  0.41245600  0.55584600  1
  O  O41  1  0.71411500  0.97104800  0.50930200  1
  O  O42  1  0.77570700  0.31434600  0.20831100  1
  O  O43  1  0.60538200  0.32601100  0.28012100  1
  O  O44  1  0.06749000  0.82320800  0.73171200  1
  O  O45  1  0.56749000  0.17679200  0.76828800  1
  O  O46  1  0.43251000  0.82320800  0.23171200  1
  O  O47  1  0.28588500  0.02895200  0.49069800  1
  O  O48  1  0.93251000  0.17679200  0.26828800  1
  O  O49  1  0.95827600  0.82786300  0.07890300  1
  O  O50  1  0.65489300  0.58754400  0.94415400  1
  O  O51  1  0.72429300  0.31434600  0.70831100  1
  O  O52  1  0.21411500  0.02895200  0.99069800  1
  O  O53  1  0.54172400  0.82786300  0.57890300  1
  O  O54  1  0.39461800  0.67398900  0.71987900  1
  O  O55  1  0.27570700  0.68565400  0.29168900  1
