# generated using pymatgen
data_Ag5Te2Cl
_symmetry_space_group_name_H-M   'P 1'
_cell_length_a   7.79781100
_cell_length_b   14.01648600
_cell_length_c   14.10085200
_cell_angle_alpha   90.00000000
_cell_angle_beta   90.00000000
_cell_angle_gamma   90.00000000
_symmetry_Int_Tables_number   1
_chemical_formula_structural   Ag5Te2Cl
_chemical_formula_sum   'Ag40 Te16 Cl8'
_cell_volume   1541.19363466
_cell_formula_units_Z   8
loop_
 _symmetry_equiv_pos_site_id
 _symmetry_equiv_pos_as_xyz
  1  'x, y, z'
loop_
 _atom_site_type_symbol
 _atom_site_label
 _atom_site_symmetry_multiplicity
 _atom_site_fract_x
 _atom_site_fract_y
 _atom_site_fract_z
 _atom_site_occupancy
  Ag  Ag0  1  0.87124000  0.92858100  0.92122400  1
  Ag  Ag1  1  0.00897600  0.64151800  0.10793800  1
  Ag  Ag2  1  0.12876000  0.07141900  0.07877600  1
  Ag  Ag3  1  0.49102400  0.35848200  0.60793800  1
  Ag  Ag4  1  0.62450200  0.89958300  0.07961400  1
  Ag  Ag5  1  0.62876000  0.42858100  0.42122400  1
  Ag  Ag6  1  0.12450200  0.60041700  0.42038600  1
  Ag  Ag7  1  0.87549800  0.39958300  0.57961400  1
  Ag  Ag8  1  0.62876000  0.07141900  0.42122400  1
  Ag  Ag9  1  0.37549800  0.10041700  0.92038600  1
  Ag  Ag10  1  0.37124000  0.92858100  0.57877600  1
  Ag  Ag11  1  0.56503000  0.75000000  0.57341800  1
  Ag  Ag12  1  0.50897600  0.64151800  0.39206200  1
  Ag  Ag13  1  0.70726500  0.35367500  0.20330900  1
  Ag  Ag14  1  0.06503000  0.75000000  0.92658200  1
  Ag  Ag15  1  0.29273500  0.85367500  0.79669100  1
  Ag  Ag16  1  0.43497000  0.25000000  0.42658200  1
  Ag  Ag17  1  0.93497000  0.25000000  0.07341800  1
  Ag  Ag18  1  0.14263800  0.25000000  0.61950300  1
  Ag  Ag19  1  0.87124000  0.57141900  0.92122400  1
  Ag  Ag20  1  0.64263800  0.25000000  0.88049700  1
  Ag  Ag21  1  0.79273500  0.85367500  0.70330900  1
  Ag  Ag22  1  0.62450200  0.60041700  0.07961400  1
  Ag  Ag23  1  0.00897600  0.85848200  0.10793800  1
  Ag  Ag24  1  0.12876000  0.42858100  0.07877600  1
  Ag  Ag25  1  0.35736200  0.75000000  0.11950300  1
  Ag  Ag26  1  0.29273500  0.64632500  0.79669100  1
  Ag  Ag27  1  0.37549800  0.39958300  0.92038600  1
  Ag  Ag28  1  0.20726500  0.14632500  0.29669100  1
  Ag  Ag29  1  0.85736200  0.75000000  0.38049700  1
  Ag  Ag30  1  0.99102400  0.35848200  0.89206200  1
  Ag  Ag31  1  0.70726500  0.14632500  0.20330900  1
  Ag  Ag32  1  0.49102400  0.14151800  0.60793800  1
  Ag  Ag33  1  0.37124000  0.57141900  0.57877600  1
  Ag  Ag34  1  0.50897600  0.85848200  0.39206200  1
  Ag  Ag35  1  0.12450200  0.89958300  0.42038600  1
  Ag  Ag36  1  0.79273500  0.64632500  0.70330900  1
  Ag  Ag37  1  0.87549800  0.10041700  0.57961400  1
  Ag  Ag38  1  0.99102400  0.14151800  0.89206200  1
  Ag  Ag39  1  0.20726500  0.35367500  0.29669100  1
  Te  Te40  1  0.75454500  0.25000000  0.68978700  1
  Te  Te41  1  0.21150300  0.41057700  0.49065100  1
  Te  Te42  1  0.28537000  0.25000000  0.13242000  1
  Te  Te43  1  0.78849700  0.91057700  0.50934900  1
  Te  Te44  1  0.78537000  0.25000000  0.36758000  1
  Te  Te45  1  0.25454500  0.25000000  0.81021300  1
  Te  Te46  1  0.71150300  0.08942300  0.00934900  1
  Te  Te47  1  0.21463000  0.75000000  0.63242000  1
  Te  Te48  1  0.28849700  0.58942300  0.99065100  1
  Te  Te49  1  0.28849700  0.91057700  0.99065100  1
  Te  Te50  1  0.71150300  0.41057700  0.00934900  1
  Te  Te51  1  0.71463000  0.75000000  0.86758000  1
  Te  Te52  1  0.21150300  0.08942300  0.49065100  1
  Te  Te53  1  0.74545500  0.75000000  0.18978700  1
  Te  Te54  1  0.24545500  0.75000000  0.31021300  1
  Te  Te55  1  0.78849700  0.58942300  0.50934900  1
  Cl  Cl56  1  0.51122400  0.50323900  0.74531000  1
  Cl  Cl57  1  0.98877600  0.49676100  0.24531000  1
  Cl  Cl58  1  0.98877600  0.00323900  0.24531000  1
  Cl  Cl59  1  0.01122400  0.99676100  0.75469000  1
  Cl  Cl60  1  0.01122400  0.50323900  0.75469000  1
  Cl  Cl61  1  0.48877600  0.49676100  0.25469000  1
  Cl  Cl62  1  0.48877600  0.00323900  0.25469000  1
  Cl  Cl63  1  0.51122400  0.99676100  0.74531000  1
