# generated using pymatgen
data_NbTlCl4O
_symmetry_space_group_name_H-M   'P 1'
_cell_length_a   8.08540700
_cell_length_b   13.05887300
_cell_length_c   15.33044700
_cell_angle_alpha   90.00000000
_cell_angle_beta   90.00000000
_cell_angle_gamma   90.00000000
_symmetry_Int_Tables_number   1
_chemical_formula_structural   NbTlCl4O
_chemical_formula_sum   'Nb8 Tl8 Cl32 O8'
_cell_volume   1618.68522462
_cell_formula_units_Z   8
loop_
 _symmetry_equiv_pos_site_id
 _symmetry_equiv_pos_as_xyz
  1  'x, y, z'
loop_
 _atom_site_type_symbol
 _atom_site_label
 _atom_site_symmetry_multiplicity
 _atom_site_fract_x
 _atom_site_fract_y
 _atom_site_fract_z
 _atom_site_occupancy
  Nb  Nb0  1  0.69101600  0.75380400  0.59174200  1
  Nb  Nb1  1  0.80898400  0.75380400  0.09174200  1
  Nb  Nb2  1  0.69101600  0.25380400  0.90825800  1
  Nb  Nb3  1  0.30898400  0.24619600  0.40825800  1
  Nb  Nb4  1  0.30898400  0.74619600  0.09174200  1
  Nb  Nb5  1  0.80898400  0.25380400  0.40825800  1
  Nb  Nb6  1  0.19101600  0.24619600  0.90825800  1
  Nb  Nb7  1  0.19101600  0.74619600  0.59174200  1
  Tl  Tl8  1  0.01088500  0.39543300  0.15508700  1
  Tl  Tl9  1  0.48911500  0.89543300  0.84491300  1
  Tl  Tl10  1  0.51088500  0.60456700  0.34491300  1
  Tl  Tl11  1  0.01088500  0.89543300  0.34491300  1
  Tl  Tl12  1  0.51088500  0.10456700  0.15508700  1
  Tl  Tl13  1  0.48911500  0.39543300  0.65508700  1
  Tl  Tl14  1  0.98911500  0.10456700  0.65508700  1
  Tl  Tl15  1  0.98911500  0.60456700  0.84491300  1
  Cl  Cl16  1  0.14940000  0.18676000  0.05560300  1
  Cl  Cl17  1  0.14476300  0.07590500  0.85329400  1
  Cl  Cl18  1  0.85523700  0.42409500  0.35329400  1
  Cl  Cl19  1  0.14940000  0.68676000  0.44439700  1
  Cl  Cl20  1  0.85060000  0.31324000  0.55560300  1
  Cl  Cl21  1  0.64940000  0.31324000  0.05560300  1
  Cl  Cl22  1  0.67138000  0.57961200  0.53851000  1
  Cl  Cl23  1  0.15456800  0.31274800  0.76134600  1
  Cl  Cl24  1  0.82862000  0.07961200  0.46149000  1
  Cl  Cl25  1  0.15456800  0.81274800  0.73865400  1
  Cl  Cl26  1  0.67138000  0.07961200  0.96149000  1
  Cl  Cl27  1  0.34543200  0.31274800  0.26134600  1
  Cl  Cl28  1  0.35060000  0.18676000  0.55560300  1
  Cl  Cl29  1  0.14476300  0.57590500  0.64670600  1
  Cl  Cl30  1  0.84543200  0.18725200  0.26134600  1
  Cl  Cl31  1  0.35523700  0.57590500  0.14670600  1
  Cl  Cl32  1  0.35523700  0.07590500  0.35329400  1
  Cl  Cl33  1  0.65456800  0.68725200  0.73865400  1
  Cl  Cl34  1  0.65456800  0.18725200  0.76134600  1
  Cl  Cl35  1  0.17138000  0.92038800  0.53851000  1
  Cl  Cl36  1  0.85060000  0.81324000  0.94439700  1
  Cl  Cl37  1  0.32862000  0.42038800  0.46149000  1
  Cl  Cl38  1  0.17138000  0.42038800  0.96149000  1
  Cl  Cl39  1  0.84543200  0.68725200  0.23865400  1
  Cl  Cl40  1  0.85523700  0.92409500  0.14670600  1
  Cl  Cl41  1  0.64476300  0.42409500  0.85329400  1
  Cl  Cl42  1  0.32862000  0.92038800  0.03851000  1
  Cl  Cl43  1  0.35060000  0.68676000  0.94439700  1
  Cl  Cl44  1  0.64476300  0.92409500  0.64670600  1
  Cl  Cl45  1  0.82862000  0.57961200  0.03851000  1
  Cl  Cl46  1  0.34543200  0.81274800  0.23865400  1
  Cl  Cl47  1  0.64940000  0.81324000  0.44439700  1
  O  O48  1  0.58847800  0.25722500  0.40805900  1
  O  O49  1  0.91152200  0.75722400  0.59194100  1
  O  O50  1  0.41152200  0.24277500  0.90805900  1
  O  O51  1  0.08847800  0.24277500  0.40805900  1
  O  O52  1  0.58847800  0.75722400  0.09194100  1
  O  O53  1  0.41152200  0.74277600  0.59194100  1
  O  O54  1  0.91152200  0.25722500  0.90805900  1
  O  O55  1  0.08847800  0.74277600  0.09194100  1
