# generated using pymatgen
data_Ge2S3Br2
_symmetry_space_group_name_H-M   'P 1'
_cell_length_a   9.43297300
_cell_length_b   10.57001997
_cell_length_c   10.73725997
_cell_angle_alpha   93.63497257
_cell_angle_beta   115.92241700
_cell_angle_gamma   90.03494657
_symmetry_Int_Tables_number   1
_chemical_formula_structural   Ge2S3Br2
_chemical_formula_sum   'Ge8 S12 Br8'
_cell_volume   960.44706814
_cell_formula_units_Z   4
loop_
 _symmetry_equiv_pos_site_id
 _symmetry_equiv_pos_as_xyz
  1  'x, y, z'
loop_
 _atom_site_type_symbol
 _atom_site_label
 _atom_site_symmetry_multiplicity
 _atom_site_fract_x
 _atom_site_fract_y
 _atom_site_fract_z
 _atom_site_occupancy
  Ge  Ge0  1  0.73858500  0.81767300  0.74277900  1
  Ge  Ge1  1  0.26141500  0.18232700  0.25722100  1
  Ge  Ge2  1  0.69622200  0.51447300  0.82270000  1
  Ge  Ge3  1  0.30377800  0.48552700  0.17730000  1
  Ge  Ge4  1  0.37068100  0.69675500  0.67016000  1
  Ge  Ge5  1  0.62931900  0.30324500  0.32984000  1
  Ge  Ge6  1  0.63922100  0.77061000  0.00903000  1
  Ge  Ge7  1  0.36077900  0.22939000  0.99097000  1
  S  S8  1  0.78085000  0.90598800  0.95203600  1
  S  S9  1  0.21915000  0.09401200  0.04796400  1
  S  S10  1  0.84321200  0.62637900  0.74846400  1
  S  S11  1  0.15678800  0.37362100  0.25153600  1
  S  S12  1  0.48792900  0.82522900  0.58235800  1
  S  S13  1  0.51207100  0.17477100  0.41764200  1
  S  S14  1  0.73459900  0.57497100  0.03953300  1
  S  S15  1  0.26540100  0.42502900  0.96046700  1
  S  S16  1  0.44097300  0.49431800  0.67037500  1
  S  S17  1  0.55902700  0.50568200  0.32962500  1
  S  S18  1  0.37878600  0.77307500  0.87332600  1
  S  S19  1  0.62121400  0.22692500  0.12667400  1
  Br  Br20  1  0.87844700  0.94925200  0.66883800  1
  Br  Br21  1  0.12155300  0.05074800  0.33116200  1
  Br  Br22  1  0.10644800  0.69276100  0.51536900  1
  Br  Br23  1  0.89355200  0.30723900  0.48463100  1
  Br  Br24  1  0.67216900  0.84749100  0.22678500  1
  Br  Br25  1  0.32783100  0.15250900  0.77321500  1
  Br  Br26  1  0.78810800  0.31110400  0.83593500  1
  Br  Br27  1  0.21189200  0.68889600  0.16406500  1
