# generated using pymatgen
data_K3MnO3
_symmetry_space_group_name_H-M   'P 1'
_cell_length_a   6.73677576
_cell_length_b   6.83150335
_cell_length_c   11.67632100
_cell_angle_alpha   90.00010052
_cell_angle_beta   90.00015510
_cell_angle_gamma   96.06409427
_symmetry_Int_Tables_number   1
_chemical_formula_structural   K3MnO3
_chemical_formula_sum   'K12 Mn4 O12'
_cell_volume   534.36427412
_cell_formula_units_Z   4
loop_
 _symmetry_equiv_pos_site_id
 _symmetry_equiv_pos_as_xyz
  1  'x, y, z'
loop_
 _atom_site_type_symbol
 _atom_site_label
 _atom_site_symmetry_multiplicity
 _atom_site_fract_x
 _atom_site_fract_y
 _atom_site_fract_z
 _atom_site_occupancy
  K  K0  1  0.65271600  0.85855900  0.99026000  1
  K  K1  1  0.34726800  0.64143000  0.49025800  1
  K  K2  1  0.34726800  0.14142800  0.00974300  1
  K  K3  1  0.65271500  0.35856000  0.50973900  1
  K  K4  1  0.52676400  0.50756600  0.21218300  1
  K  K5  1  0.47321800  0.99241500  0.71217700  1
  K  K6  1  0.47321700  0.49241400  0.78782500  1
  K  K7  1  0.52676400  0.00756700  0.28781700  1
  K  K8  1  0.01983600  0.58004800  0.72605500  1
  K  K9  1  0.98014200  0.91993200  0.22606200  1
  K  K10  1  0.98014000  0.41993300  0.27393900  1
  K  K11  1  0.01983700  0.08004900  0.77394400  1
  Mn  Mn12  1  0.15849100  0.15893100  0.49630400  1
  Mn  Mn13  1  0.15848900  0.65892900  0.00369600  1
  Mn  Mn14  1  0.84155400  0.34111000  0.99629600  1
  Mn  Mn15  1  0.84155200  0.84111300  0.50370200  1
  O  O16  1  0.10932800  0.40049100  0.92611700  1
  O  O17  1  0.89068600  0.09951700  0.42611500  1
  O  O18  1  0.89068800  0.59951400  0.07388400  1
  O  O19  1  0.10932400  0.90049200  0.57388200  1
  O  O20  1  0.69939600  0.21667600  0.87200400  1
  O  O21  1  0.30060500  0.28332400  0.37200100  1
  O  O22  1  0.30060300  0.78332400  0.12799900  1
  O  O23  1  0.69939600  0.71667900  0.62799700  1
  O  O24  1  0.27686100  0.80586600  0.88018700  1
  O  O25  1  0.72314100  0.69413600  0.38018900  1
  O  O26  1  0.72314200  0.19413300  0.11981100  1
  O  O27  1  0.27686100  0.30586800  0.61981400  1
