# generated using pymatgen
data_Mn3AgAs3(HO6)2
_symmetry_space_group_name_H-M   'P 1'
_cell_length_a   9.00381610
_cell_length_b   9.00381610
_cell_length_c   7.02847327
_cell_angle_alpha   73.62363720
_cell_angle_beta   73.62363720
_cell_angle_gamma   91.02242942
_symmetry_Int_Tables_number   1
_chemical_formula_structural   Mn3AgAs3(HO6)2
_chemical_formula_sum   'Mn6 Ag2 As6 H4 O24'
_cell_volume   521.55417487
_cell_formula_units_Z   2
loop_
 _symmetry_equiv_pos_site_id
 _symmetry_equiv_pos_as_xyz
  1  'x, y, z'
loop_
 _atom_site_type_symbol
 _atom_site_label
 _atom_site_symmetry_multiplicity
 _atom_site_fract_x
 _atom_site_fract_y
 _atom_site_fract_z
 _atom_site_occupancy
  Mn  Mn0  1  0.71256200  0.28743800  0.75000000  1
  Mn  Mn1  1  0.28743800  0.71256200  0.25000000  1
  Mn  Mn2  1  0.63962300  0.95761700  0.61268400  1
  Mn  Mn3  1  0.04238300  0.36037700  0.88731600  1
  Mn  Mn4  1  0.36037700  0.04238300  0.38731600  1
  Mn  Mn5  1  0.95761700  0.63962300  0.11268400  1
  Ag  Ag6  1  0.99363800  0.00636200  0.25000000  1
  Ag  Ag7  1  0.00636200  0.99363800  0.75000000  1
  As  As8  1  0.31832500  0.68167500  0.75000000  1
  As  As9  1  0.68167500  0.31832500  0.25000000  1
  As  As10  1  0.33840200  0.10432900  0.88596100  1
  As  As11  1  0.89567100  0.66159800  0.61403900  1
  As  As12  1  0.66159800  0.89567100  0.11403900  1
  As  As13  1  0.10432900  0.33840200  0.38596100  1
  H  H14  1  0.59858800  0.62865300  0.70413900  1
  H  H15  1  0.37134700  0.40141200  0.79586100  1
  H  H16  1  0.40141200  0.37134700  0.29586100  1
  H  H17  1  0.62865300  0.59858800  0.20413900  1
  O  O18  1  0.71914500  0.21141200  0.47087700  1
  O  O19  1  0.78858800  0.28085500  0.02912300  1
  O  O20  1  0.28085500  0.78858800  0.52912300  1
  O  O21  1  0.21141200  0.71914500  0.97087700  1
  O  O22  1  0.51498600  0.71420000  0.73259400  1
  O  O23  1  0.28580000  0.48501400  0.76740600  1
  O  O24  1  0.48501400  0.28580000  0.26740600  1
  O  O25  1  0.71420000  0.51498600  0.23259400  1
  O  O26  1  0.66792800  0.02520500  0.87709300  1
  O  O27  1  0.97479500  0.33207200  0.62290700  1
  O  O28  1  0.33207200  0.97479500  0.12290700  1
  O  O29  1  0.02520500  0.66792800  0.37709300  1
  O  O30  1  0.72357400  0.54522500  0.66767500  1
  O  O31  1  0.45477500  0.27642600  0.83232500  1
  O  O32  1  0.27642600  0.45477500  0.33232500  1
  O  O33  1  0.54522500  0.72357400  0.16767500  1
  O  O34  1  0.40115300  0.02210400  0.68794600  1
  O  O35  1  0.97789600  0.59884700  0.81205400  1
  O  O36  1  0.59884700  0.97789600  0.31205400  1
  O  O37  1  0.02210400  0.40115300  0.18794600  1
  O  O38  1  0.85152200  0.85091900  0.59557200  1
  O  O39  1  0.14908100  0.14847800  0.90442800  1
  O  O40  1  0.14847800  0.14908100  0.40442800  1
  O  O41  1  0.85091900  0.85152200  0.09557200  1
