# generated using pymatgen
data_Tl3Ag3(SbS3)2
_symmetry_space_group_name_H-M   'P 1'
_cell_length_a   12.14193000
_cell_length_b   11.53770800
_cell_length_c   12.24557722
_cell_angle_alpha   60.21528494
_cell_angle_beta   90.00000000
_cell_angle_gamma   90.00000000
_symmetry_Int_Tables_number   1
_chemical_formula_structural   Tl3Ag3(SbS3)2
_chemical_formula_sum   'Tl12 Ag12 Sb8 S24'
_cell_volume   1488.86464798
_cell_formula_units_Z   4
loop_
 _symmetry_equiv_pos_site_id
 _symmetry_equiv_pos_as_xyz
  1  'x, y, z'
loop_
 _atom_site_type_symbol
 _atom_site_label
 _atom_site_symmetry_multiplicity
 _atom_site_fract_x
 _atom_site_fract_y
 _atom_site_fract_z
 _atom_site_occupancy
  Tl  Tl0  1  0.11522000  0.21503600  0.88811400  1
  Tl  Tl1  1  0.24648600  0.83811700  0.72910300  1
  Tl  Tl2  1  0.51034300  0.80575200  0.96537900  1
  Tl  Tl3  1  0.01034300  0.19424800  0.53462100  1
  Tl  Tl4  1  0.88478000  0.78496400  0.11188600  1
  Tl  Tl5  1  0.38478000  0.21503600  0.38811400  1
  Tl  Tl6  1  0.98965700  0.80575200  0.46537900  1
  Tl  Tl7  1  0.61522000  0.78496400  0.61188600  1
  Tl  Tl8  1  0.48965700  0.19424800  0.03462100  1
  Tl  Tl9  1  0.74648600  0.16188300  0.77089700  1
  Tl  Tl10  1  0.25351400  0.83811700  0.22910300  1
  Tl  Tl11  1  0.75351400  0.16188300  0.27089700  1
  Ag  Ag12  1  0.65342700  0.11009200  0.57096800  1
  Ag  Ag13  1  0.63484500  0.52678200  0.92540400  1
  Ag  Ag14  1  0.13484500  0.47321800  0.57459600  1
  Ag  Ag15  1  0.86515500  0.52678200  0.42540400  1
  Ag  Ag16  1  0.87488000  0.52683600  0.05078600  1
  Ag  Ag17  1  0.62512000  0.52683600  0.55078600  1
  Ag  Ag18  1  0.12512000  0.47316400  0.94921400  1
  Ag  Ag19  1  0.37488000  0.47316400  0.44921400  1
  Ag  Ag20  1  0.34657300  0.88990800  0.42903200  1
  Ag  Ag21  1  0.36515500  0.47321800  0.07459600  1
  Ag  Ag22  1  0.84657300  0.11009200  0.07096800  1
  Ag  Ag23  1  0.15342700  0.88990800  0.92903200  1
  Sb  Sb24  1  0.40966100  0.16924400  0.74053000  1
  Sb  Sb25  1  0.09033900  0.16924400  0.24053000  1
  Sb  Sb26  1  0.85335300  0.49796100  0.75529100  1
  Sb  Sb27  1  0.14664700  0.50203900  0.24470900  1
  Sb  Sb28  1  0.59033900  0.83075600  0.25947000  1
  Sb  Sb29  1  0.90966100  0.83075600  0.75947000  1
  Sb  Sb30  1  0.64664700  0.49796100  0.25529100  1
  Sb  Sb31  1  0.35335300  0.50203900  0.74470900  1
  S  S32  1  0.24883800  0.27083000  0.09903200  1
  S  S33  1  0.16312600  0.58394900  0.71194900  1
  S  S34  1  0.53176900  0.99448400  0.32185700  1
  S  S35  1  0.46823100  0.00551600  0.67814300  1
  S  S36  1  0.03176900  0.00551600  0.17814300  1
  S  S37  1  0.41789600  0.64512600  0.52596200  1
  S  S38  1  0.57420000  0.37112200  0.15710200  1
  S  S39  1  0.91789600  0.35487400  0.97403800  1
  S  S40  1  0.83687400  0.41605100  0.28805100  1
  S  S41  1  0.32121700  0.00413300  0.94334100  1
  S  S42  1  0.08210400  0.64512600  0.02596200  1
  S  S43  1  0.75116200  0.72917000  0.90096800  1
  S  S44  1  0.58210400  0.35487400  0.47403800  1
  S  S45  1  0.96823100  0.99448400  0.82185700  1
  S  S46  1  0.25116200  0.27083000  0.59903200  1
  S  S47  1  0.74883800  0.72917000  0.40096800  1
  S  S48  1  0.07420000  0.62887800  0.34289800  1
  S  S49  1  0.42580000  0.62887800  0.84289800  1
  S  S50  1  0.66312600  0.41605100  0.78805100  1
  S  S51  1  0.67878300  0.99586700  0.05665900  1
  S  S52  1  0.33687400  0.58394900  0.21194900  1
  S  S53  1  0.82121700  0.99586700  0.55665900  1
  S  S54  1  0.92580000  0.37112200  0.65710200  1
  S  S55  1  0.17878300  0.00413300  0.44334100  1
