# generated using pymatgen
data_KBaYSi2O7
_symmetry_space_group_name_H-M   'P 1'
_cell_length_a   5.78733300
_cell_length_b   9.88554100
_cell_length_c   14.40485704
_cell_angle_alpha   63.00460349
_cell_angle_beta   90.00000000
_cell_angle_gamma   90.00000000
_symmetry_Int_Tables_number   1
_chemical_formula_structural   KBaYSi2O7
_chemical_formula_sum   'K4 Ba4 Y4 Si8 O28'
_cell_volume   734.32198025
_cell_formula_units_Z   4
loop_
 _symmetry_equiv_pos_site_id
 _symmetry_equiv_pos_as_xyz
  1  'x, y, z'
loop_
 _atom_site_type_symbol
 _atom_site_label
 _atom_site_symmetry_multiplicity
 _atom_site_fract_x
 _atom_site_fract_y
 _atom_site_fract_z
 _atom_site_occupancy
  K  K0  1  0.76386200  0.00650100  0.36169400  1
  K  K1  1  0.26386200  0.99349900  0.13830600  1
  K  K2  1  0.73613800  0.00650100  0.86169400  1
  K  K3  1  0.23613800  0.99349900  0.63830600  1
  Ba  Ba4  1  0.26901400  0.53485000  0.32830700  1
  Ba  Ba5  1  0.23098600  0.53485000  0.82830700  1
  Ba  Ba6  1  0.73098600  0.46515000  0.67169300  1
  Ba  Ba7  1  0.76901400  0.46515000  0.17169300  1
  Y  Y8  1  0.24048000  0.73948200  0.02119300  1
  Y  Y9  1  0.75952000  0.26051800  0.97880700  1
  Y  Y10  1  0.25952000  0.73948200  0.52119300  1
  Y  Y11  1  0.74048000  0.26051800  0.47880700  1
  Si  Si12  1  0.22834100  0.32648000  0.62138100  1
  Si  Si13  1  0.74496900  0.82889200  0.64609300  1
  Si  Si14  1  0.25503100  0.17110800  0.35390700  1
  Si  Si15  1  0.75503100  0.82889200  0.14609300  1
  Si  Si16  1  0.77165900  0.67352000  0.37861900  1
  Si  Si17  1  0.72834100  0.67352000  0.87861900  1
  Si  Si18  1  0.24496900  0.17110800  0.85390700  1
  Si  Si19  1  0.27165900  0.32648000  0.12138100  1
  O  O20  1  0.99930200  0.25813200  0.84913200  1
  O  O21  1  0.24231000  0.48035300  0.63797800  1
  O  O22  1  0.46499000  0.70110600  0.90789700  1
  O  O23  1  0.76027400  0.00878600  0.06452700  1
  O  O24  1  0.74231000  0.51964700  0.86202200  1
  O  O25  1  0.53501000  0.29889400  0.09210300  1
  O  O26  1  0.50069800  0.25813200  0.34913200  1
  O  O27  1  0.79689200  0.82185200  0.76365200  1
  O  O28  1  0.58052200  0.67675900  0.46059800  1
  O  O29  1  0.26027400  0.99121400  0.43547300  1
  O  O30  1  0.70310800  0.82185200  0.26365200  1
  O  O31  1  0.49930200  0.74186800  0.65086800  1
  O  O32  1  0.29689200  0.17814800  0.73634800  1
  O  O33  1  0.08052200  0.32324100  0.03940200  1
  O  O34  1  0.46155400  0.26352900  0.87307400  1
  O  O35  1  0.96155400  0.73647100  0.62692600  1
  O  O36  1  0.03501000  0.70110600  0.40789700  1
  O  O37  1  0.96499000  0.29889400  0.59210300  1
  O  O38  1  0.91947800  0.67675900  0.96059800  1
  O  O39  1  0.53844600  0.73647100  0.12692600  1
  O  O40  1  0.20310800  0.17814800  0.23634800  1
  O  O41  1  0.03844600  0.26352900  0.37307400  1
  O  O42  1  0.00069800  0.74186800  0.15086800  1
  O  O43  1  0.41947800  0.32324100  0.53940200  1
  O  O44  1  0.25769000  0.48035300  0.13797800  1
  O  O45  1  0.75769000  0.51964700  0.36202200  1
  O  O46  1  0.73972600  0.00878600  0.56452700  1
  O  O47  1  0.23972600  0.99121400  0.93547300  1
