# generated using pymatgen
data_Cs3Ta5O14
_symmetry_space_group_name_H-M   'P 1'
_cell_length_a   7.49224000
_cell_length_b   7.53350100
_cell_length_c   26.61273200
_cell_angle_alpha   90.00000000
_cell_angle_beta   90.00000000
_cell_angle_gamma   90.00000000
_symmetry_Int_Tables_number   1
_chemical_formula_structural   Cs3Ta5O14
_chemical_formula_sum   'Cs12 Ta20 O56'
_cell_volume   1502.09704406
_cell_formula_units_Z   4
loop_
 _symmetry_equiv_pos_site_id
 _symmetry_equiv_pos_as_xyz
  1  'x, y, z'
loop_
 _atom_site_type_symbol
 _atom_site_label
 _atom_site_symmetry_multiplicity
 _atom_site_fract_x
 _atom_site_fract_y
 _atom_site_fract_z
 _atom_site_occupancy
  Cs  Cs0  1  0.00000000  0.33951200  0.79113200  1
  Cs  Cs1  1  0.00000000  0.66048800  0.20886800  1
  Cs  Cs2  1  0.50000000  0.84002400  0.62051100  1
  Cs  Cs3  1  0.00000000  0.16048800  0.29113200  1
  Cs  Cs4  1  0.50000000  0.25789100  0.52371200  1
  Cs  Cs5  1  0.00000000  0.83951200  0.70886800  1
  Cs  Cs6  1  0.50000000  0.15997600  0.37948900  1
  Cs  Cs7  1  0.50000000  0.24210900  0.02371200  1
  Cs  Cs8  1  0.50000000  0.74210900  0.47628800  1
  Cs  Cs9  1  0.50000000  0.34002400  0.87948900  1
  Cs  Cs10  1  0.50000000  0.75789100  0.97628800  1
  Cs  Cs11  1  0.50000000  0.65997600  0.12051100  1
  Ta  Ta12  1  0.74546700  0.83797500  0.84817500  1
  Ta  Ta13  1  0.00000000  0.42858700  0.05443000  1
  Ta  Ta14  1  0.50000000  0.59882400  0.74602600  1
  Ta  Ta15  1  0.25453300  0.16202500  0.15182500  1
  Ta  Ta16  1  0.00000000  0.07141300  0.55443000  1
  Ta  Ta17  1  0.00000000  0.41347800  0.44320400  1
  Ta  Ta18  1  0.74546700  0.16202500  0.15182500  1
  Ta  Ta19  1  0.50000000  0.90117600  0.24602600  1
  Ta  Ta20  1  0.50000000  0.40117600  0.25397400  1
  Ta  Ta21  1  0.00000000  0.57141300  0.94557000  1
  Ta  Ta22  1  0.00000000  0.91347800  0.05679600  1
  Ta  Ta23  1  0.25453300  0.66202500  0.34817500  1
  Ta  Ta24  1  0.00000000  0.08652200  0.94320400  1
  Ta  Ta25  1  0.74546700  0.66202500  0.34817500  1
  Ta  Ta26  1  0.00000000  0.58652200  0.55679600  1
  Ta  Ta27  1  0.50000000  0.09882400  0.75397400  1
  Ta  Ta28  1  0.00000000  0.92858700  0.44557000  1
  Ta  Ta29  1  0.25453300  0.83797500  0.84817500  1
  Ta  Ta30  1  0.74546700  0.33797500  0.65182500  1
  Ta  Ta31  1  0.25453300  0.33797500  0.65182500  1
  O  O32  1  0.18916200  0.34025000  0.09771900  1
  O  O33  1  0.00000000  0.16018200  0.01579500  1
  O  O34  1  0.50000000  0.85447400  0.72786500  1
  O  O35  1  0.50000000  0.65791400  0.37416400  1
  O  O36  1  0.00000000  0.33101900  0.91956200  1
  O  O37  1  0.00000000  0.86680100  0.83198800  1
  O  O38  1  0.50000000  0.64552600  0.22786500  1
  O  O39  1  0.81083800  0.65975000  0.90228100  1
  O  O40  1  0.00000000  0.33981800  0.51579500  1
  O  O41  1  0.31475900  0.45805600  0.30367200  1
  O  O42  1  0.50000000  0.14552600  0.27213500  1
  O  O43  1  0.69186900  0.33662700  0.20112600  1
  O  O44  1  0.82540600  0.00000000  0.50000000  1
  O  O45  1  0.69186900  0.83662700  0.29887400  1
  O  O46  1  0.00000000  0.36680100  0.66801200  1
  O  O47  1  0.20935000  0.97497900  0.08954100  1
  O  O48  1  0.82540600  0.50000000  0.00000000  1
  O  O49  1  0.68524100  0.45805600  0.30367200  1
  O  O50  1  0.30813100  0.83662700  0.29887400  1
  O  O51  1  0.30813100  0.16337300  0.70112600  1
  O  O52  1  0.81083800  0.34025000  0.09771900  1
  O  O53  1  0.69186900  0.66337300  0.79887400  1
  O  O54  1  0.30813100  0.33662700  0.20112600  1
  O  O55  1  0.00000000  0.83981800  0.98420500  1
  O  O56  1  0.20935000  0.02502100  0.91045900  1
  O  O57  1  0.31475900  0.95805600  0.19632800  1
  O  O58  1  0.50000000  0.35447400  0.77213500  1
  O  O59  1  0.00000000  0.13319900  0.16801200  1
  O  O60  1  0.18916200  0.65975000  0.90228100  1
  O  O61  1  0.81083800  0.15975000  0.59771900  1
  O  O62  1  0.00000000  0.83101900  0.58043800  1
  O  O63  1  0.30813100  0.66337300  0.79887400  1
  O  O64  1  0.50000000  0.84208600  0.87416400  1
  O  O65  1  0.68524100  0.04194400  0.80367200  1
  O  O66  1  0.31475900  0.54194400  0.69632800  1
  O  O67  1  0.79065000  0.47497900  0.41045900  1
  O  O68  1  0.79065000  0.52502100  0.58954100  1
  O  O69  1  0.00000000  0.66898100  0.08043800  1
  O  O70  1  0.00000000  0.66018200  0.48420500  1
  O  O71  1  0.69186900  0.16337300  0.70112600  1
  O  O72  1  0.68524100  0.95805600  0.19632800  1
  O  O73  1  0.00000000  0.63319900  0.33198800  1
  O  O74  1  0.50000000  0.15791400  0.12583600  1
  O  O75  1  0.68524100  0.54194400  0.69632800  1
  O  O76  1  0.17459400  0.00000000  0.50000000  1
  O  O77  1  0.79065000  0.97497900  0.08954100  1
  O  O78  1  0.81083800  0.84025000  0.40228100  1
  O  O79  1  0.50000000  0.34208600  0.62583600  1
  O  O80  1  0.79065000  0.02502100  0.91045900  1
  O  O81  1  0.18916200  0.84025000  0.40228100  1
  O  O82  1  0.20935000  0.52502100  0.58954100  1
  O  O83  1  0.18916200  0.15975000  0.59771900  1
  O  O84  1  0.00000000  0.16898100  0.41956200  1
  O  O85  1  0.20935000  0.47497900  0.41045900  1
  O  O86  1  0.31475900  0.04194400  0.80367200  1
  O  O87  1  0.17459400  0.50000000  0.00000000  1
