# generated using pymatgen
data_Cs2Si2O5
_symmetry_space_group_name_H-M   'P 1'
_cell_length_a   8.78692100
_cell_length_b   10.21839500
_cell_length_c   18.75051295
_cell_angle_alpha   57.26792759
_cell_angle_beta   90.00000000
_cell_angle_gamma   90.00000000
_symmetry_Int_Tables_number   1
_chemical_formula_structural   Cs2Si2O5
_chemical_formula_sum   'Cs16 Si16 O40'
_cell_volume   1416.23746745
_cell_formula_units_Z   8
loop_
 _symmetry_equiv_pos_site_id
 _symmetry_equiv_pos_as_xyz
  1  'x, y, z'
loop_
 _atom_site_type_symbol
 _atom_site_label
 _atom_site_symmetry_multiplicity
 _atom_site_fract_x
 _atom_site_fract_y
 _atom_site_fract_z
 _atom_site_occupancy
  Cs  Cs0  1  0.13286500  0.18040300  0.40970000  1
  Cs  Cs1  1  0.09850900  0.73534600  0.41805900  1
  Cs  Cs2  1  0.87449800  0.24235500  0.91603200  1
  Cs  Cs3  1  0.59850900  0.26465400  0.08194100  1
  Cs  Cs4  1  0.90149100  0.26465400  0.58194100  1
  Cs  Cs5  1  0.87948900  0.68161700  0.90845800  1
  Cs  Cs6  1  0.40149100  0.73534600  0.91805900  1
  Cs  Cs7  1  0.12051100  0.31838300  0.09154200  1
  Cs  Cs8  1  0.37449800  0.75764500  0.58396800  1
  Cs  Cs9  1  0.36713500  0.18040300  0.90970000  1
  Cs  Cs10  1  0.86713500  0.81959700  0.59030000  1
  Cs  Cs11  1  0.63286500  0.81959700  0.09030000  1
  Cs  Cs12  1  0.62051100  0.68161700  0.40845800  1
  Cs  Cs13  1  0.37948900  0.31838300  0.59154200  1
  Cs  Cs14  1  0.62550200  0.24235500  0.41603200  1
  Cs  Cs15  1  0.12550200  0.75764500  0.08396800  1
  Si  Si16  1  0.44045700  0.43879000  0.19835300  1
  Si  Si17  1  0.94045700  0.56121000  0.30164700  1
  Si  Si18  1  0.57703300  0.92614900  0.69690700  1
  Si  Si19  1  0.68566800  0.42468100  0.69289300  1
  Si  Si20  1  0.07703300  0.07385100  0.80309300  1
  Si  Si21  1  0.70146000  0.06214800  0.80445400  1
  Si  Si22  1  0.42296700  0.07385100  0.30309300  1
  Si  Si23  1  0.79854000  0.06214800  0.30445400  1
  Si  Si24  1  0.05954300  0.43879000  0.69835300  1
  Si  Si25  1  0.55954300  0.56121000  0.80164700  1
  Si  Si26  1  0.29854000  0.93785200  0.19554600  1
  Si  Si27  1  0.31433200  0.57531900  0.30710700  1
  Si  Si28  1  0.20146000  0.93785200  0.69554600  1
  Si  Si29  1  0.18566800  0.57531900  0.80710700  1
  Si  Si30  1  0.81433200  0.42468100  0.19289300  1
  Si  Si31  1  0.92296700  0.92614900  0.19690700  1
  O  O32  1  0.12389800  0.50697100  0.60534200  1
  O  O33  1  0.85604800  0.94460500  0.27396100  1
  O  O34  1  0.64395200  0.94460500  0.77396100  1
  O  O35  1  0.14395200  0.05539500  0.72603900  1
  O  O36  1  0.87418900  0.53840000  0.09864200  1
  O  O37  1  0.37610200  0.50697100  0.10534200  1
  O  O38  1  0.12856900  0.56610000  0.29627300  1
  O  O39  1  0.64632600  0.23976300  0.72775100  1
  O  O40  1  0.88985500  0.06206000  0.79823100  1
  O  O41  1  0.62856900  0.43390000  0.20372700  1
  O  O42  1  0.85367400  0.23976300  0.22775100  1
  O  O43  1  0.85385800  0.04352000  0.10536800  1
  O  O44  1  0.35367400  0.76023700  0.27224900  1
  O  O45  1  0.61630500  0.74181700  0.72939200  1
  O  O46  1  0.62389800  0.49302900  0.89465800  1
  O  O47  1  0.14614200  0.95648000  0.89463200  1
  O  O48  1  0.87143100  0.43390000  0.70372700  1
  O  O49  1  0.61014500  0.06206000  0.29823100  1
  O  O50  1  0.37143100  0.56610000  0.79627300  1
  O  O51  1  0.12581100  0.46160000  0.90135800  1
  O  O52  1  0.38985500  0.93794000  0.70176900  1
  O  O53  1  0.60937600  0.45284200  0.76442800  1
  O  O54  1  0.35385800  0.95648000  0.39463200  1
  O  O55  1  0.38369500  0.25818300  0.27060800  1
  O  O56  1  0.37418900  0.46160000  0.40135800  1
  O  O57  1  0.35604800  0.05539500  0.22603900  1
  O  O58  1  0.39062400  0.54715800  0.23557200  1
  O  O59  1  0.36005500  0.99530100  0.10324700  1
  O  O60  1  0.89062400  0.45284200  0.26442800  1
  O  O61  1  0.11014500  0.93794000  0.20176900  1
  O  O62  1  0.87610200  0.49302900  0.39465800  1
  O  O63  1  0.14632600  0.76023700  0.77224900  1
  O  O64  1  0.63994500  0.00469900  0.89675300  1
  O  O65  1  0.10937600  0.54715800  0.73557200  1
  O  O66  1  0.62581100  0.53840000  0.59864200  1
  O  O67  1  0.64614200  0.04352000  0.60536800  1
  O  O68  1  0.88369500  0.74181700  0.22939200  1
  O  O69  1  0.11630500  0.25818300  0.77060800  1
  O  O70  1  0.13994500  0.99530100  0.60324700  1
  O  O71  1  0.86005500  0.00469900  0.39675300  1
