# generated using pymatgen
data_NaSm(PS3)2
_symmetry_space_group_name_H-M   'P 1'
_cell_length_a   7.40384500
_cell_length_b   11.17418700
_cell_length_c   11.75623391
_cell_angle_alpha   68.77015902
_cell_angle_beta   90.00000000
_cell_angle_gamma   90.00000000
_symmetry_Int_Tables_number   1
_chemical_formula_structural   NaSm(PS3)2
_chemical_formula_sum   'Na4 Sm4 P8 S24'
_cell_volume   906.60986771
_cell_formula_units_Z   4
loop_
 _symmetry_equiv_pos_site_id
 _symmetry_equiv_pos_as_xyz
  1  'x, y, z'
loop_
 _atom_site_type_symbol
 _atom_site_label
 _atom_site_symmetry_multiplicity
 _atom_site_fract_x
 _atom_site_fract_y
 _atom_site_fract_z
 _atom_site_occupancy
  Na  Na0  1  0.10929400  0.12102900  0.63999600  1
  Na  Na1  1  0.39070600  0.62102900  0.63999600  1
  Na  Na2  1  0.60929400  0.37897100  0.36000400  1
  Na  Na3  1  0.89070600  0.87897100  0.36000400  1
  Sm  Sm4  1  0.38982600  0.09100200  0.15259100  1
  Sm  Sm5  1  0.11017400  0.59100200  0.15259100  1
  Sm  Sm6  1  0.88982600  0.40899800  0.84740900  1
  Sm  Sm7  1  0.61017400  0.90899800  0.84740900  1
  P  P8  1  0.61549300  0.25056300  0.69386300  1
  P  P9  1  0.38450700  0.74943700  0.30613700  1
  P  P10  1  0.11549300  0.24943700  0.30613700  1
  P  P11  1  0.88450700  0.75056300  0.69386300  1
  P  P12  1  0.60294600  0.74978800  0.17540100  1
  P  P13  1  0.10294600  0.75021200  0.82459900  1
  P  P14  1  0.89705400  0.24978800  0.17540100  1
  P  P15  1  0.39705400  0.25021200  0.82459900  1
  S  S16  1  0.81391600  0.43544800  0.09219500  1
  S  S17  1  0.49173300  0.83827200  0.41075700  1
  S  S18  1  0.70405500  0.13346700  0.28116500  1
  S  S19  1  0.29594500  0.86653300  0.71883500  1
  S  S20  1  0.68639900  0.64514800  0.80646900  1
  S  S21  1  0.68608400  0.93544800  0.09219500  1
  S  S22  1  0.81360100  0.14514800  0.80646900  1
  S  S23  1  0.52074400  0.31318100  0.94914700  1
  S  S24  1  0.02074400  0.18681900  0.05085300  1
  S  S25  1  0.79594500  0.63346700  0.28116500  1
  S  S26  1  0.50826700  0.16172800  0.58924300  1
  S  S27  1  0.31360100  0.35485200  0.19353100  1
  S  S28  1  0.31391600  0.06455200  0.90780500  1
  S  S29  1  0.70061100  0.43488600  0.62175000  1
  S  S30  1  0.79938900  0.93488600  0.62175000  1
  S  S31  1  0.18639900  0.85485200  0.19353100  1
  S  S32  1  0.20405500  0.36653300  0.71883500  1
  S  S33  1  0.20061100  0.06511400  0.37825000  1
  S  S34  1  0.47925600  0.68681900  0.05085300  1
  S  S35  1  0.29938900  0.56511400  0.37825000  1
  S  S36  1  0.18608400  0.56455200  0.90780500  1
  S  S37  1  0.97925600  0.81318100  0.94914700  1
  S  S38  1  0.99173300  0.66172800  0.58924300  1
  S  S39  1  0.00826700  0.33827200  0.41075700  1
