# generated using pymatgen
data_RbMoIO6
_symmetry_space_group_name_H-M   'P 1'
_cell_length_a   7.49920700
_cell_length_b   7.84686300
_cell_length_c   10.46506200
_cell_angle_alpha   90.00000000
_cell_angle_beta   90.00000000
_cell_angle_gamma   90.00000000
_symmetry_Int_Tables_number   1
_chemical_formula_structural   RbMoIO6
_chemical_formula_sum   'Rb4 Mo4 I4 O24'
_cell_volume   615.81918900
_cell_formula_units_Z   4
loop_
 _symmetry_equiv_pos_site_id
 _symmetry_equiv_pos_as_xyz
  1  'x, y, z'
loop_
 _atom_site_type_symbol
 _atom_site_label
 _atom_site_symmetry_multiplicity
 _atom_site_fract_x
 _atom_site_fract_y
 _atom_site_fract_z
 _atom_site_occupancy
  Rb  Rb0  1  0.86298500  0.01847900  0.61844200  1
  Rb  Rb1  1  0.36298500  0.98152100  0.38155800  1
  Rb  Rb2  1  0.86298500  0.51847900  0.88155800  1
  Rb  Rb3  1  0.36298500  0.48152100  0.11844200  1
  Mo  Mo4  1  0.09454500  0.50784800  0.52870600  1
  Mo  Mo5  1  0.59454500  0.49215200  0.47129400  1
  Mo  Mo6  1  0.09454500  0.00784800  0.97129400  1
  Mo  Mo7  1  0.59454500  0.99215200  0.02870600  1
  I  I8  1  0.43088700  0.27855500  0.74091200  1
  I  I9  1  0.93088700  0.22144500  0.24091200  1
  I  I10  1  0.93088700  0.72144500  0.25908800  1
  I  I11  1  0.43088700  0.77855500  0.75908800  1
  O  O12  1  0.04761100  0.27882400  0.38980800  1
  O  O13  1  0.63363900  0.36291900  0.65949000  1
  O  O14  1  0.04761100  0.77882400  0.11019200  1
  O  O15  1  0.53190900  0.13163300  0.15133400  1
  O  O16  1  0.13363900  0.13708100  0.15949000  1
  O  O17  1  0.03190900  0.86836700  0.84866600  1
  O  O18  1  0.13020300  0.70151900  0.60906000  1
  O  O19  1  0.33853900  0.43774600  0.51936500  1
  O  O20  1  0.54761100  0.72117600  0.61019200  1
  O  O21  1  0.63363900  0.86291900  0.84051000  1
  O  O22  1  0.63020300  0.79848100  0.10906000  1
  O  O23  1  0.03190900  0.36836700  0.65133400  1
  O  O24  1  0.53190900  0.63163300  0.34866600  1
  O  O25  1  0.42227200  0.57187400  0.84287500  1
  O  O26  1  0.42227200  0.07187400  0.65712500  1
  O  O27  1  0.83853900  0.56225400  0.48063500  1
  O  O28  1  0.92227200  0.42812600  0.15712500  1
  O  O29  1  0.33853900  0.93774600  0.98063500  1
  O  O30  1  0.54761100  0.22117600  0.88980800  1
  O  O31  1  0.92227200  0.92812600  0.34287500  1
  O  O32  1  0.13363900  0.63708100  0.34051000  1
  O  O33  1  0.13020300  0.20151900  0.89094000  1
  O  O34  1  0.83853900  0.06225400  0.01936500  1
  O  O35  1  0.63020300  0.29848100  0.39094000  1
