# generated using pymatgen
data_Nd4Al2O9
_symmetry_space_group_name_H-M   'P 1'
_cell_length_a   10.95350300
_cell_length_b   7.79194800
_cell_length_c   11.45141513
_cell_angle_alpha   70.64013470
_cell_angle_beta   90.00000000
_cell_angle_gamma   90.00000000
_symmetry_Int_Tables_number   1
_chemical_formula_structural   Nd4Al2O9
_chemical_formula_sum   'Nd16 Al8 O36'
_cell_volume   922.10307877
_cell_formula_units_Z   4
loop_
 _symmetry_equiv_pos_site_id
 _symmetry_equiv_pos_as_xyz
  1  'x, y, z'
loop_
 _atom_site_type_symbol
 _atom_site_label
 _atom_site_symmetry_multiplicity
 _atom_site_fract_x
 _atom_site_fract_y
 _atom_site_fract_z
 _atom_site_occupancy
  Nd  Nd0  1  0.37574700  0.33414400  0.07055600  1
  Nd  Nd1  1  0.39894100  0.52394300  0.71192800  1
  Nd  Nd2  1  0.89894100  0.47605700  0.78807200  1
  Nd  Nd3  1  0.62308300  0.16438300  0.91314600  1
  Nd  Nd4  1  0.91386100  0.97415800  0.81015100  1
  Nd  Nd5  1  0.10105900  0.52394300  0.21192800  1
  Nd  Nd6  1  0.87574700  0.66585600  0.42944400  1
  Nd  Nd7  1  0.08613900  0.02584200  0.18984900  1
  Nd  Nd8  1  0.60105900  0.47605700  0.28807200  1
  Nd  Nd9  1  0.12308300  0.83561700  0.58685400  1
  Nd  Nd10  1  0.58613900  0.97415800  0.31015100  1
  Nd  Nd11  1  0.12425300  0.33414400  0.57055600  1
  Nd  Nd12  1  0.87691700  0.16438300  0.41314600  1
  Nd  Nd13  1  0.62425300  0.66585600  0.92944400  1
  Nd  Nd14  1  0.37691700  0.83561700  0.08685400  1
  Nd  Nd15  1  0.41386100  0.02584200  0.68984900  1
  Al  Al16  1  0.18895700  0.65177100  0.88088500  1
  Al  Al17  1  0.80903500  0.77644200  0.12901700  1
  Al  Al18  1  0.81104300  0.34822900  0.11911500  1
  Al  Al19  1  0.19096500  0.22355800  0.87098300  1
  Al  Al20  1  0.69096500  0.77644200  0.62901700  1
  Al  Al21  1  0.31104300  0.65177100  0.38088500  1
  Al  Al22  1  0.68895700  0.34822900  0.61911500  1
  Al  Al23  1  0.30903500  0.22355800  0.37098300  1
  O  O24  1  0.00892100  0.56770500  0.60340600  1
  O  O25  1  0.99643100  0.07633700  0.60633100  1
  O  O26  1  0.27235300  0.64094700  0.53234400  1
  O  O27  1  0.22189200  0.78269100  0.25307700  1
  O  O28  1  0.74181300  0.56560400  0.61740200  1
  O  O29  1  0.00356900  0.92366300  0.39366900  1
  O  O30  1  0.72189200  0.21730900  0.24692300  1
  O  O31  1  0.77235300  0.35905300  0.96765600  1
  O  O32  1  0.53701600  0.29860600  0.67340600  1
  O  O33  1  0.26635600  0.07953000  0.51887800  1
  O  O34  1  0.25818700  0.43439600  0.38259800  1
  O  O35  1  0.03536400  0.21808200  0.83408100  1
  O  O36  1  0.24181300  0.43439600  0.88259800  1
  O  O37  1  0.49107900  0.56770500  0.10340600  1
  O  O38  1  0.53536400  0.78191800  0.66591900  1
  O  O39  1  0.72764700  0.35905300  0.46765600  1
  O  O40  1  0.75818700  0.56560400  0.11740200  1
  O  O41  1  0.72427900  0.76817800  0.26370200  1
  O  O42  1  0.22427900  0.23182200  0.23629800  1
  O  O43  1  0.76635600  0.92047000  0.98112200  1
  O  O44  1  0.77810800  0.21730900  0.74692300  1
  O  O45  1  0.22764700  0.64094700  0.03234400  1
  O  O46  1  0.49643100  0.92366300  0.89366900  1
  O  O47  1  0.99107900  0.43229500  0.39659400  1
  O  O48  1  0.03701600  0.70139400  0.82659400  1
  O  O49  1  0.73364400  0.92047000  0.48112200  1
  O  O50  1  0.50892100  0.43229500  0.89659400  1
  O  O51  1  0.46298400  0.70139400  0.32659400  1
  O  O52  1  0.27810800  0.78269100  0.75307700  1
  O  O53  1  0.96463600  0.78191800  0.16591900  1
  O  O54  1  0.50356900  0.07633700  0.10633100  1
  O  O55  1  0.23364400  0.07953000  0.01887800  1
  O  O56  1  0.46463600  0.21808200  0.33408100  1
  O  O57  1  0.77572100  0.76817800  0.76370200  1
  O  O58  1  0.96298400  0.29860600  0.17340600  1
  O  O59  1  0.27572100  0.23182200  0.73629800  1
