# generated using pymatgen
data_KZn4(PO4)3
_symmetry_space_group_name_H-M   'P 1'
_cell_length_a   8.26899200
_cell_length_b   9.78868600
_cell_length_c   14.06553800
_cell_angle_alpha   90.00000000
_cell_angle_beta   90.00000000
_cell_angle_gamma   90.00000000
_symmetry_Int_Tables_number   1
_chemical_formula_structural   KZn4(PO4)3
_chemical_formula_sum   'K4 Zn16 P12 O48'
_cell_volume   1138.50074105
_cell_formula_units_Z   4
loop_
 _symmetry_equiv_pos_site_id
 _symmetry_equiv_pos_as_xyz
  1  'x, y, z'
loop_
 _atom_site_type_symbol
 _atom_site_label
 _atom_site_symmetry_multiplicity
 _atom_site_fract_x
 _atom_site_fract_y
 _atom_site_fract_z
 _atom_site_occupancy
  K  K0  1  0.75000000  0.19399000  0.25000000  1
  K  K1  1  0.25000000  0.80601000  0.75000000  1
  K  K2  1  0.25000000  0.30601000  0.75000000  1
  K  K3  1  0.75000000  0.69399000  0.25000000  1
  Zn  Zn4  1  0.60547800  0.69210600  0.94894200  1
  Zn  Zn5  1  0.89452200  0.19210600  0.94894200  1
  Zn  Zn6  1  0.10547800  0.80789400  0.05105800  1
  Zn  Zn7  1  0.41269300  0.00334100  0.14524900  1
  Zn  Zn8  1  0.58730700  0.99665900  0.85475100  1
  Zn  Zn9  1  0.41269300  0.50334100  0.35475100  1
  Zn  Zn10  1  0.39452200  0.30789400  0.05105800  1
  Zn  Zn11  1  0.58730700  0.49665900  0.64524900  1
  Zn  Zn12  1  0.10547800  0.30789400  0.44894200  1
  Zn  Zn13  1  0.89452200  0.69210600  0.55105800  1
  Zn  Zn14  1  0.08730700  0.50334100  0.14524900  1
  Zn  Zn15  1  0.91269300  0.49665900  0.85475100  1
  Zn  Zn16  1  0.39452200  0.80789400  0.44894200  1
  Zn  Zn17  1  0.60547800  0.19210600  0.55105800  1
  Zn  Zn18  1  0.08730700  0.00334100  0.35475100  1
  Zn  Zn19  1  0.91269300  0.99665900  0.64524900  1
  P  P20  1  0.24584300  0.56560700  0.56479300  1
  P  P21  1  0.75415700  0.43439300  0.43520700  1
  P  P22  1  0.25415700  0.06560700  0.56479300  1
  P  P23  1  0.25000000  0.24602100  0.25000000  1
  P  P24  1  0.75000000  0.25397900  0.75000000  1
  P  P25  1  0.74584300  0.93439300  0.43520700  1
  P  P26  1  0.75000000  0.75397900  0.75000000  1
  P  P27  1  0.25415700  0.56560700  0.93520700  1
  P  P28  1  0.24584300  0.06560700  0.93520700  1
  P  P29  1  0.75415700  0.93439300  0.06479300  1
  P  P30  1  0.74584300  0.43439300  0.06479300  1
  P  P31  1  0.25000000  0.74602100  0.25000000  1
  O  O32  1  0.90255700  0.34220300  0.76284200  1
  O  O33  1  0.61860600  0.32409600  0.08742000  1
  O  O34  1  0.38139400  0.67590400  0.91258000  1
  O  O35  1  0.36747400  0.56369000  0.64863000  1
  O  O36  1  0.36747400  0.06369000  0.85137000  1
  O  O37  1  0.73551800  0.15640000  0.83917200  1
  O  O38  1  0.76448200  0.15640000  0.66082800  1
  O  O39  1  0.17082000  0.42385500  0.55154500  1
  O  O40  1  0.82918000  0.07614500  0.05154500  1
  O  O41  1  0.15896100  0.10872400  0.47074300  1
  O  O42  1  0.26448200  0.84360000  0.16082800  1
  O  O43  1  0.88139400  0.32409600  0.41258000  1
  O  O44  1  0.40255700  0.65779700  0.26284200  1
  O  O45  1  0.11860600  0.17590400  0.91258000  1
  O  O46  1  0.17082000  0.92385500  0.94845500  1
  O  O47  1  0.67082000  0.07614500  0.44845500  1
  O  O48  1  0.32918000  0.92385500  0.55154500  1
  O  O49  1  0.59744300  0.84220300  0.76284200  1
  O  O50  1  0.11860600  0.67590400  0.58742000  1
  O  O51  1  0.34103900  0.10872400  0.02925700  1
  O  O52  1  0.38139400  0.17590400  0.58742000  1
  O  O53  1  0.86747400  0.93631000  0.35137000  1
  O  O54  1  0.09744300  0.65779700  0.23715800  1
  O  O55  1  0.88139400  0.82409600  0.08742000  1
  O  O56  1  0.82918000  0.57614500  0.44845500  1
  O  O57  1  0.86747400  0.43631000  0.14863000  1
  O  O58  1  0.63252600  0.43631000  0.35137000  1
  O  O59  1  0.13252600  0.56369000  0.85137000  1
  O  O60  1  0.65896100  0.39127600  0.52925700  1
  O  O61  1  0.15896100  0.60872400  0.02925700  1
  O  O62  1  0.67082000  0.57614500  0.05154500  1
  O  O63  1  0.34103900  0.60872400  0.47074300  1
  O  O64  1  0.09744300  0.15779700  0.26284200  1
  O  O65  1  0.73551800  0.65640000  0.66082800  1
  O  O66  1  0.65896100  0.89127600  0.97074300  1
  O  O67  1  0.63252600  0.93631000  0.14863000  1
  O  O68  1  0.23551800  0.84360000  0.33917200  1
  O  O69  1  0.59744300  0.34220300  0.73715800  1
  O  O70  1  0.84103900  0.39127600  0.97074300  1
  O  O71  1  0.13252600  0.06369000  0.64863000  1
  O  O72  1  0.40255700  0.15779700  0.23715800  1
  O  O73  1  0.23551800  0.34360000  0.16082800  1
  O  O74  1  0.90255700  0.84220300  0.73715800  1
  O  O75  1  0.32918000  0.42385500  0.94845500  1
  O  O76  1  0.26448200  0.34360000  0.33917200  1
  O  O77  1  0.84103900  0.89127600  0.52925700  1
  O  O78  1  0.61860600  0.82409600  0.41258000  1
  O  O79  1  0.76448200  0.65640000  0.83917200  1
