# generated using pymatgen
data_NaNb2PO8
_symmetry_space_group_name_H-M   'P 1'
_cell_length_a   5.51119100
_cell_length_b   6.85178000
_cell_length_c   18.24685970
_cell_angle_alpha   89.76713436
_cell_angle_beta   90.00000000
_cell_angle_gamma   90.00000000
_symmetry_Int_Tables_number   1
_chemical_formula_structural   NaNb2PO8
_chemical_formula_sum   'Na4 Nb8 P4 O32'
_cell_volume   689.02252294
_cell_formula_units_Z   4
loop_
 _symmetry_equiv_pos_site_id
 _symmetry_equiv_pos_as_xyz
  1  'x, y, z'
loop_
 _atom_site_type_symbol
 _atom_site_label
 _atom_site_symmetry_multiplicity
 _atom_site_fract_x
 _atom_site_fract_y
 _atom_site_fract_z
 _atom_site_occupancy
  Na  Na0  1  0.71410700  0.28816100  0.71584800  1
  Na  Na1  1  0.24972000  0.78891500  0.78339300  1
  Na  Na2  1  0.74972000  0.21108500  0.21660700  1
  Na  Na3  1  0.21410700  0.71183900  0.28415200  1
  Nb  Nb4  1  0.23375400  0.48995300  0.62735800  1
  Nb  Nb5  1  0.74774900  0.33878500  0.03900900  1
  Nb  Nb6  1  0.74353800  0.16433100  0.53911000  1
  Nb  Nb7  1  0.24090000  0.00875900  0.12599000  1
  Nb  Nb8  1  0.24353800  0.83566900  0.46089000  1
  Nb  Nb9  1  0.73375400  0.51004700  0.37264200  1
  Nb  Nb10  1  0.74090000  0.99124100  0.87401000  1
  Nb  Nb11  1  0.24774900  0.66121500  0.96099100  1
  P  P12  1  0.72097700  0.69194600  0.18566800  1
  P  P13  1  0.22097700  0.30805400  0.81433200  1
  P  P14  1  0.73334300  0.80992400  0.68723000  1
  P  P15  1  0.23334300  0.19007600  0.31277000  1
  O  O16  1  0.74649000  0.99215700  0.63779300  1
  O  O17  1  0.23591100  0.84209700  0.04008100  1
  O  O18  1  0.22180500  0.65776800  0.54076300  1
  O  O19  1  0.24649000  0.00784300  0.36220700  1
  O  O20  1  0.46613800  0.78740600  0.18120200  1
  O  O21  1  0.46973100  0.66849000  0.39804700  1
  O  O22  1  0.94702600  0.52267000  0.99238600  1
  O  O23  1  0.96613800  0.21259400  0.81879800  1
  O  O24  1  0.46523700  0.31532600  0.31780700  1
  O  O25  1  0.96523700  0.68467400  0.68219300  1
  O  O26  1  0.71497400  0.88392700  0.76797100  1
  O  O27  1  0.47854900  0.32508000  0.59606400  1
  O  O28  1  0.96973100  0.33151000  0.60195300  1
  O  O29  1  0.44702600  0.47733000  0.00761400  1
  O  O30  1  0.25683400  0.37699400  0.73309000  1
  O  O31  1  0.50744100  0.80784100  0.90757400  1
  O  O32  1  0.42630900  0.16263500  0.83037800  1
  O  O33  1  0.00744100  0.19215900  0.09242600  1
  O  O34  1  0.01297700  0.84717400  0.89588700  1
  O  O35  1  0.73591100  0.15790300  0.95991900  1
  O  O36  1  0.73496100  0.50754600  0.13764000  1
  O  O37  1  0.49939500  0.69139400  0.67366300  1
  O  O38  1  0.51297700  0.15282600  0.10411300  1
  O  O39  1  0.75683400  0.62300600  0.26691000  1
  O  O40  1  0.00313500  0.01689000  0.49830900  1
  O  O41  1  0.21497400  0.11607300  0.23202900  1
  O  O42  1  0.99939500  0.30860600  0.32633700  1
  O  O43  1  0.97854900  0.67492000  0.40393600  1
  O  O44  1  0.50313500  0.98311000  0.50169100  1
  O  O45  1  0.23496100  0.49245400  0.86236000  1
  O  O46  1  0.72180500  0.34223200  0.45923700  1
  O  O47  1  0.92630900  0.83736500  0.16962200  1
