# generated using pymatgen
data_Cs2Sn2Hg3S8
_symmetry_space_group_name_H-M   'P 1'
_cell_length_a   6.96670300
_cell_length_b   8.14256839
_cell_length_c   9.53380994
_cell_angle_alpha   108.22884339
_cell_angle_beta   92.89387139
_cell_angle_gamma   108.64865145
_symmetry_Int_Tables_number   1
_chemical_formula_structural   Cs2Sn2Hg3S8
_chemical_formula_sum   'Cs2 Sn2 Hg3 S8'
_cell_volume   479.85674052
_cell_formula_units_Z   1
loop_
 _symmetry_equiv_pos_site_id
 _symmetry_equiv_pos_as_xyz
  1  'x, y, z'
loop_
 _atom_site_type_symbol
 _atom_site_label
 _atom_site_symmetry_multiplicity
 _atom_site_fract_x
 _atom_site_fract_y
 _atom_site_fract_z
 _atom_site_occupancy
  Cs  Cs0  1  0.11108800  0.45748100  0.74617300  1
  Cs  Cs1  1  0.88891200  0.54251900  0.25382700  1
  Sn  Sn2  1  0.74289100  0.83843600  0.74091000  1
  Sn  Sn3  1  0.25710900  0.16156400  0.25909000  1
  Hg  Hg4  1  0.33279700  0.08211000  0.88330900  1
  Hg  Hg5  1  0.50000000  0.00000000  0.50000000  1
  Hg  Hg6  1  0.66720300  0.91789000  0.11669100  1
  S  S7  1  0.92639400  0.13597100  0.33954600  1
  S  S8  1  0.33707700  0.35416100  0.10671300  1
  S  S9  1  0.49874700  0.29190800  0.49641400  1
  S  S10  1  0.72046500  0.13432000  0.88127400  1
  S  S11  1  0.50125300  0.70809200  0.50358600  1
  S  S12  1  0.27953500  0.86568000  0.11872600  1
  S  S13  1  0.07360600  0.86402900  0.66045400  1
  S  S14  1  0.66292300  0.64583900  0.89328700  1
