# generated using pymatgen
data_VZnSe2O7
_symmetry_space_group_name_H-M   'P 1'
_cell_length_a   12.79076100
_cell_length_b   7.57666200
_cell_length_c   7.88841066
_cell_angle_alpha   58.98008364
_cell_angle_beta   90.00000000
_cell_angle_gamma   90.00000000
_symmetry_Int_Tables_number   1
_chemical_formula_structural   VZnSe2O7
_chemical_formula_sum   'V4 Zn4 Se8 O28'
_cell_volume   655.14685486
_cell_formula_units_Z   4
loop_
 _symmetry_equiv_pos_site_id
 _symmetry_equiv_pos_as_xyz
  1  'x, y, z'
loop_
 _atom_site_type_symbol
 _atom_site_label
 _atom_site_symmetry_multiplicity
 _atom_site_fract_x
 _atom_site_fract_y
 _atom_site_fract_z
 _atom_site_occupancy
  V  V0  1  0.75444800  0.03709200  0.22297300  1
  V  V1  1  0.25444800  0.96290800  0.27702700  1
  V  V2  1  0.74555200  0.03709200  0.72297300  1
  V  V3  1  0.24555200  0.96290800  0.77702700  1
  Zn  Zn4  1  0.99225400  0.71590500  0.48709600  1
  Zn  Zn5  1  0.50774600  0.71590500  0.98709600  1
  Zn  Zn6  1  0.49225400  0.28409500  0.01290400  1
  Zn  Zn7  1  0.00774600  0.28409500  0.51290400  1
  Se  Se8  1  0.48828500  0.16170800  0.66095900  1
  Se  Se9  1  0.01171500  0.16170800  0.16095900  1
  Se  Se10  1  0.98828500  0.83829200  0.83904100  1
  Se  Se11  1  0.23049400  0.46352400  0.60827400  1
  Se  Se12  1  0.51171500  0.83829200  0.33904100  1
  Se  Se13  1  0.76950600  0.53647600  0.39172600  1
  Se  Se14  1  0.26950600  0.46352400  0.10827400  1
  Se  Se15  1  0.73049400  0.53647600  0.89172600  1
  O  O16  1  0.90459900  0.05810700  0.71263400  1
  O  O17  1  0.22836800  0.66193100  0.88062400  1
  O  O18  1  0.26910600  0.96645900  0.48551700  1
  O  O19  1  0.72836800  0.33806900  0.61937600  1
  O  O20  1  0.46315700  0.31638800  0.75208200  1
  O  O21  1  0.73089400  0.03354100  0.51448300  1
  O  O22  1  0.03684300  0.31638800  0.25208200  1
  O  O23  1  0.59343900  0.53264600  0.92310900  1
  O  O24  1  0.77163200  0.33806900  0.11937600  1
  O  O25  1  0.26334100  0.26402000  0.57278500  1
  O  O26  1  0.76910600  0.03354100  0.01448300  1
  O  O27  1  0.90656100  0.53264600  0.42310900  1
  O  O28  1  0.76334100  0.73598000  0.92721500  1
  O  O29  1  0.96315700  0.68361200  0.74791800  1
  O  O30  1  0.53684300  0.68361200  0.24791800  1
  O  O31  1  0.23665900  0.26402000  0.07278500  1
  O  O32  1  0.40459900  0.94189300  0.78736600  1
  O  O33  1  0.59540100  0.05810700  0.21263400  1
  O  O34  1  0.27163200  0.66193100  0.38062400  1
  O  O35  1  0.90792300  0.00325300  0.30656700  1
  O  O36  1  0.40656100  0.46735400  0.07689100  1
  O  O37  1  0.73665900  0.73598000  0.42721500  1
  O  O38  1  0.09540100  0.94189300  0.28736600  1
  O  O39  1  0.09207700  0.99674700  0.69343300  1
  O  O40  1  0.23089400  0.96645900  0.98551700  1
  O  O41  1  0.59207700  0.00325300  0.80656700  1
  O  O42  1  0.40792300  0.99674700  0.19343300  1
  O  O43  1  0.09343900  0.46735400  0.57689100  1
