# generated using pymatgen
data_Ba2ZrF8
_symmetry_space_group_name_H-M   'P 1'
_cell_length_a   5.72213900
_cell_length_b   10.00261900
_cell_length_c   12.04038200
_cell_angle_alpha   90.00000000
_cell_angle_beta   90.00000000
_cell_angle_gamma   90.00000000
_symmetry_Int_Tables_number   1
_chemical_formula_structural   Ba2ZrF8
_chemical_formula_sum   'Ba8 Zr4 F32'
_cell_volume   689.14783473
_cell_formula_units_Z   4
loop_
 _symmetry_equiv_pos_site_id
 _symmetry_equiv_pos_as_xyz
  1  'x, y, z'
loop_
 _atom_site_type_symbol
 _atom_site_label
 _atom_site_symmetry_multiplicity
 _atom_site_fract_x
 _atom_site_fract_y
 _atom_site_fract_z
 _atom_site_occupancy
  Ba  Ba0  1  0.25000000  0.45238600  0.84019700  1
  Ba  Ba1  1  0.75000000  0.54761400  0.15980300  1
  Ba  Ba2  1  0.25000000  0.95238600  0.65980300  1
  Ba  Ba3  1  0.75000000  0.04761400  0.34019700  1
  Ba  Ba4  1  0.25000000  0.86231400  0.05959400  1
  Ba  Ba5  1  0.75000000  0.13768600  0.94040600  1
  Ba  Ba6  1  0.25000000  0.36231400  0.44040600  1
  Ba  Ba7  1  0.75000000  0.63768600  0.55959400  1
  Zr  Zr8  1  0.25000000  0.24131200  0.14028300  1
  Zr  Zr9  1  0.75000000  0.75868800  0.85971700  1
  Zr  Zr10  1  0.25000000  0.74131200  0.35971700  1
  Zr  Zr11  1  0.75000000  0.25868800  0.64028300  1
  F  F12  1  0.25000000  0.14137800  0.30739300  1
  F  F13  1  0.75000000  0.85862200  0.69260700  1
  F  F14  1  0.25000000  0.64137800  0.19260700  1
  F  F15  1  0.75000000  0.35862200  0.80739300  1
  F  F16  1  0.25000000  0.14355900  0.97590600  1
  F  F17  1  0.75000000  0.85644100  0.02409400  1
  F  F18  1  0.25000000  0.64355900  0.52409400  1
  F  F19  1  0.75000000  0.35644100  0.47590600  1
  F  F20  1  0.98573400  0.65433200  0.75657400  1
  F  F21  1  0.48573400  0.34566800  0.24342600  1
  F  F22  1  0.51426600  0.15433200  0.74342600  1
  F  F23  1  0.01426600  0.84566800  0.25657400  1
  F  F24  1  0.01286900  0.40532600  0.63814700  1
  F  F25  1  0.51286900  0.59467400  0.36185300  1
  F  F26  1  0.48713100  0.90532600  0.86185300  1
  F  F27  1  0.98713100  0.09467400  0.13814700  1
  F  F28  1  0.98713100  0.59467400  0.36185300  1
  F  F29  1  0.48713100  0.40532600  0.63814700  1
  F  F30  1  0.51286900  0.09467400  0.13814700  1
  F  F31  1  0.01286900  0.90532600  0.86185300  1
  F  F32  1  0.48248900  0.35379300  0.03462800  1
  F  F33  1  0.98248900  0.64620700  0.96537200  1
  F  F34  1  0.01751100  0.85379300  0.46537200  1
  F  F35  1  0.51751100  0.14620700  0.53462800  1
  F  F36  1  0.51751100  0.64620700  0.96537200  1
  F  F37  1  0.01751100  0.35379300  0.03462800  1
  F  F38  1  0.98248900  0.14620700  0.53462800  1
  F  F39  1  0.48248900  0.85379300  0.46537200  1
  F  F40  1  0.98573400  0.15433200  0.74342600  1
  F  F41  1  0.48573400  0.84566800  0.25657400  1
  F  F42  1  0.51426600  0.65433200  0.75657400  1
  F  F43  1  0.01426600  0.34566800  0.24342600  1
