# generated using pymatgen
data_Ca3WCl2O5
_symmetry_space_group_name_H-M   'P 1'
_cell_length_a   5.68323000
_cell_length_b   11.29348700
_cell_length_c   11.94038900
_cell_angle_alpha   90.00000000
_cell_angle_beta   90.00000000
_cell_angle_gamma   90.00000000
_symmetry_Int_Tables_number   1
_chemical_formula_structural   Ca3WCl2O5
_chemical_formula_sum   'Ca12 W4 Cl8 O20'
_cell_volume   766.37576780
_cell_formula_units_Z   4
loop_
 _symmetry_equiv_pos_site_id
 _symmetry_equiv_pos_as_xyz
  1  'x, y, z'
loop_
 _atom_site_type_symbol
 _atom_site_label
 _atom_site_symmetry_multiplicity
 _atom_site_fract_x
 _atom_site_fract_y
 _atom_site_fract_z
 _atom_site_occupancy
  Ca  Ca0  1  0.75000000  0.83478200  0.86040500  1
  Ca  Ca1  1  0.25000000  0.16521800  0.13959500  1
  Ca  Ca2  1  0.75000000  0.66521800  0.36040500  1
  Ca  Ca3  1  0.75000000  0.32994500  0.83281600  1
  Ca  Ca4  1  0.25000000  0.91977800  0.34089300  1
  Ca  Ca5  1  0.25000000  0.82994500  0.66718400  1
  Ca  Ca6  1  0.75000000  0.41977800  0.15910700  1
  Ca  Ca7  1  0.25000000  0.58022200  0.84089300  1
  Ca  Ca8  1  0.25000000  0.33478200  0.63959500  1
  Ca  Ca9  1  0.75000000  0.08022200  0.65910700  1
  Ca  Ca10  1  0.75000000  0.17005500  0.33281600  1
  Ca  Ca11  1  0.25000000  0.67005500  0.16718400  1
  W  W12  1  0.25000000  0.41501400  0.30763400  1
  W  W13  1  0.25000000  0.08498600  0.80763400  1
  W  W14  1  0.75000000  0.91501400  0.19236600  1
  W  W15  1  0.75000000  0.58498600  0.69236600  1
  Cl  Cl16  1  0.25000000  0.71551000  0.46682600  1
  Cl  Cl17  1  0.75000000  0.28449000  0.53317400  1
  Cl  Cl18  1  0.25000000  0.08393600  0.52286900  1
  Cl  Cl19  1  0.25000000  0.41606400  0.02286900  1
  Cl  Cl20  1  0.75000000  0.21551000  0.03317400  1
  Cl  Cl21  1  0.75000000  0.91606400  0.47713100  1
  Cl  Cl22  1  0.25000000  0.78449000  0.96682600  1
  Cl  Cl23  1  0.75000000  0.58393600  0.97713100  1
  O  O24  1  0.75000000  0.59085400  0.54376200  1
  O  O25  1  0.25000000  0.09085400  0.95623800  1
  O  O26  1  0.98300300  0.03271100  0.23611300  1
  O  O27  1  0.51699700  0.03271100  0.23611300  1
  O  O28  1  0.47838300  0.29986200  0.25824900  1
  O  O29  1  0.25000000  0.40914600  0.45623800  1
  O  O30  1  0.51699700  0.46728900  0.73611300  1
  O  O31  1  0.48300300  0.96728900  0.76388700  1
  O  O32  1  0.75000000  0.90914600  0.04376200  1
  O  O33  1  0.47838300  0.20013800  0.75824900  1
  O  O34  1  0.01699700  0.96728900  0.76388700  1
  O  O35  1  0.52161700  0.70013800  0.74175100  1
  O  O36  1  0.02161700  0.29986200  0.25824900  1
  O  O37  1  0.52161700  0.79986200  0.24175100  1
  O  O38  1  0.02161700  0.20013800  0.75824900  1
  O  O39  1  0.97838300  0.70013800  0.74175100  1
  O  O40  1  0.98300300  0.46728900  0.73611300  1
  O  O41  1  0.97838300  0.79986200  0.24175100  1
  O  O42  1  0.01699700  0.53271100  0.26388700  1
  O  O43  1  0.48300300  0.53271100  0.26388700  1
