# generated using pymatgen
data_Tb5CoSb2
_symmetry_space_group_name_H-M   'P 1'
_cell_length_a   7.91746600
_cell_length_b   8.80884400
_cell_length_c   12.24302400
_cell_angle_alpha   90.00000000
_cell_angle_beta   90.00000000
_cell_angle_gamma   90.00000000
_symmetry_Int_Tables_number   1
_chemical_formula_structural   Tb5CoSb2
_chemical_formula_sum   'Tb20 Co4 Sb8'
_cell_volume   853.87407294
_cell_formula_units_Z   4
loop_
 _symmetry_equiv_pos_site_id
 _symmetry_equiv_pos_as_xyz
  1  'x, y, z'
loop_
 _atom_site_type_symbol
 _atom_site_label
 _atom_site_symmetry_multiplicity
 _atom_site_fract_x
 _atom_site_fract_y
 _atom_site_fract_z
 _atom_site_occupancy
  Tb  Tb0  1  0.15472200  0.75000000  0.20370900  1
  Tb  Tb1  1  0.65472200  0.25000000  0.29629100  1
  Tb  Tb2  1  0.84527800  0.25000000  0.79629100  1
  Tb  Tb3  1  0.34527800  0.75000000  0.70370900  1
  Tb  Tb4  1  0.45404700  0.75000000  0.99795600  1
  Tb  Tb5  1  0.95404700  0.25000000  0.50204400  1
  Tb  Tb6  1  0.54595300  0.25000000  0.00204400  1
  Tb  Tb7  1  0.04595300  0.75000000  0.49795600  1
  Tb  Tb8  1  0.62192800  0.75000000  0.30533400  1
  Tb  Tb9  1  0.12192800  0.25000000  0.19466600  1
  Tb  Tb10  1  0.37807200  0.25000000  0.69466600  1
  Tb  Tb11  1  0.87807200  0.75000000  0.80533400  1
  Tb  Tb12  1  0.82152600  0.96326800  0.06476400  1
  Tb  Tb13  1  0.32152600  0.03673200  0.43523600  1
  Tb  Tb14  1  0.17847400  0.46326800  0.93523600  1
  Tb  Tb15  1  0.67847400  0.53673200  0.56476400  1
  Tb  Tb16  1  0.17847400  0.03673200  0.93523600  1
  Tb  Tb17  1  0.67847400  0.96326800  0.56476400  1
  Tb  Tb18  1  0.82152600  0.53673200  0.06476400  1
  Tb  Tb19  1  0.32152600  0.46326800  0.43523600  1
  Co  Co20  1  0.42990400  0.75000000  0.48917000  1
  Co  Co21  1  0.92990400  0.25000000  0.01083000  1
  Co  Co22  1  0.57009600  0.25000000  0.51083000  1
  Co  Co23  1  0.07009600  0.75000000  0.98917000  1
  Sb  Sb24  1  0.92779200  0.99172000  0.32688900  1
  Sb  Sb25  1  0.42779200  0.00828000  0.17311100  1
  Sb  Sb26  1  0.07220800  0.49172000  0.67311100  1
  Sb  Sb27  1  0.57220800  0.50828000  0.82688900  1
  Sb  Sb28  1  0.07220800  0.00828000  0.67311100  1
  Sb  Sb29  1  0.57220800  0.99172000  0.82688900  1
  Sb  Sb30  1  0.92779200  0.50828000  0.32688900  1
  Sb  Sb31  1  0.42779200  0.49172000  0.17311100  1
