# generated using pymatgen
data_Na4TiAs2O9
_symmetry_space_group_name_H-M   'P 1'
_cell_length_a   8.83988747
_cell_length_b   8.83988747
_cell_length_c   7.85794001
_cell_angle_alpha   89.76576310
_cell_angle_beta   89.76576310
_cell_angle_gamma   48.53079081
_symmetry_Int_Tables_number   1
_chemical_formula_structural   Na4TiAs2O9
_chemical_formula_sum   'Na8 Ti2 As4 O18'
_cell_volume   460.10858028
_cell_formula_units_Z   2
loop_
 _symmetry_equiv_pos_site_id
 _symmetry_equiv_pos_as_xyz
  1  'x, y, z'
loop_
 _atom_site_type_symbol
 _atom_site_label
 _atom_site_symmetry_multiplicity
 _atom_site_fract_x
 _atom_site_fract_y
 _atom_site_fract_z
 _atom_site_occupancy
  Na  Na0  1  0.74504600  0.25495400  0.00000000  1
  Na  Na1  1  0.62577700  0.62577700  0.27869600  1
  Na  Na2  1  0.89285400  0.89285400  0.23838500  1
  Na  Na3  1  0.10714600  0.10714600  0.76161500  1
  Na  Na4  1  0.50000000  0.00000000  0.50000000  1
  Na  Na5  1  0.25495400  0.74504600  0.00000000  1
  Na  Na6  1  0.37422300  0.37422300  0.72130400  1
  Na  Na7  1  0.00000000  0.50000000  0.50000000  1
  Ti  Ti8  1  0.00000000  0.50000000  0.00000000  1
  Ti  Ti9  1  0.50000000  0.00000000  0.00000000  1
  As  As10  1  0.12948600  0.12948600  0.27646800  1
  As  As11  1  0.38769500  0.38769500  0.24013900  1
  As  As12  1  0.87051400  0.87051400  0.72353200  1
  As  As13  1  0.61230500  0.61230500  0.75986100  1
  O  O14  1  0.55428900  0.15852400  0.12915500  1
  O  O15  1  0.50767500  0.50767500  0.78399300  1
  O  O16  1  0.44571100  0.84147600  0.87084500  1
  O  O17  1  0.14085800  0.14085800  0.49040600  1
  O  O18  1  0.38203700  0.98248600  0.21091300  1
  O  O19  1  0.98248600  0.38203700  0.21091300  1
  O  O20  1  0.84147600  0.44571100  0.87084500  1
  O  O21  1  0.96542400  0.96542400  0.81693400  1
  O  O22  1  0.15852400  0.55428900  0.12915500  1
  O  O23  1  0.24183600  0.24183600  0.92980200  1
  O  O24  1  0.01751400  0.61796300  0.78908700  1
  O  O25  1  0.75816400  0.75816400  0.07019800  1
  O  O26  1  0.85914200  0.85914200  0.50959400  1
  O  O27  1  0.49232500  0.49232500  0.21600700  1
  O  O28  1  0.61796300  0.01751400  0.78908700  1
  O  O29  1  0.65603700  0.65603700  0.56313100  1
  O  O30  1  0.03457600  0.03457600  0.18306600  1
  O  O31  1  0.34396300  0.34396300  0.43686900  1
