# generated using pymatgen
data_Sc2Si2O7
_symmetry_space_group_name_H-M   'P 1'
_cell_length_a   5.40394172
_cell_length_b   5.40394172
_cell_length_c   4.73692347
_cell_angle_alpha   82.22976416
_cell_angle_beta   82.22976416
_cell_angle_gamma   105.28941146
_symmetry_Int_Tables_number   1
_chemical_formula_structural   Sc2Si2O7
_chemical_formula_sum   'Sc2 Si2 O7'
_cell_volume   130.07960051
_cell_formula_units_Z   1
loop_
 _symmetry_equiv_pos_site_id
 _symmetry_equiv_pos_as_xyz
  1  'x, y, z'
loop_
 _atom_site_type_symbol
 _atom_site_label
 _atom_site_symmetry_multiplicity
 _atom_site_fract_x
 _atom_site_fract_y
 _atom_site_fract_z
 _atom_site_occupancy
  Sc  Sc0  1  0.31027200  0.68972800  0.00000000  1
  Sc  Sc1  1  0.68972800  0.31027200  0.00000000  1
  Si  Si2  1  0.77628600  0.77628600  0.40663500  1
  Si  Si3  1  0.22371400  0.22371400  0.59336500  1
  O  O4  1  0.39229900  0.07737800  0.78845600  1
  O  O5  1  0.92262200  0.60770100  0.21154400  1
  O  O6  1  0.60770100  0.92262200  0.21154400  1
  O  O7  1  0.07737800  0.39229900  0.78845600  1
  O  O8  1  0.00000000  0.00000000  0.50000000  1
  O  O9  1  0.39462400  0.39462400  0.28036200  1
  O  O10  1  0.60537600  0.60537600  0.71963800  1
