# generated using pymatgen
data_GePbO3
_symmetry_space_group_name_H-M   'P 1'
_cell_length_a   9.48860066
_cell_length_b   9.48860066
_cell_length_c   9.48860110
_cell_angle_alpha   113.50180487
_cell_angle_beta   113.50180487
_cell_angle_gamma   113.50179792
_symmetry_Int_Tables_number   1
_chemical_formula_structural   GePbO3
_chemical_formula_sum   'Ge6 Pb6 O18'
_cell_volume   537.66024216
_cell_formula_units_Z   6
loop_
 _symmetry_equiv_pos_site_id
 _symmetry_equiv_pos_as_xyz
  1  'x, y, z'
loop_
 _atom_site_type_symbol
 _atom_site_label
 _atom_site_symmetry_multiplicity
 _atom_site_fract_x
 _atom_site_fract_y
 _atom_site_fract_z
 _atom_site_occupancy
  Ge  Ge0  1  0.52095900  0.25826100  0.65496100  1
  Ge  Ge1  1  0.65496100  0.52095900  0.25826100  1
  Ge  Ge2  1  0.47904100  0.74173900  0.34503900  1
  Ge  Ge3  1  0.74173900  0.34503900  0.47904100  1
  Ge  Ge4  1  0.34503900  0.47904100  0.74173900  1
  Ge  Ge5  1  0.25826100  0.65496100  0.52095900  1
  Pb  Pb6  1  0.98914400  0.29225800  0.82729600  1
  Pb  Pb7  1  0.70774200  0.17270400  0.01085600  1
  Pb  Pb8  1  0.17270400  0.01085600  0.70774200  1
  Pb  Pb9  1  0.29225800  0.82729600  0.98914400  1
  Pb  Pb10  1  0.01085600  0.70774200  0.17270400  1
  Pb  Pb11  1  0.82729600  0.98914400  0.29225800  1
  O  O12  1  0.52066900  0.21955000  0.45355800  1
  O  O13  1  0.73693600  0.31826100  0.84782100  1
  O  O14  1  0.03274800  0.53641000  0.28536800  1
  O  O15  1  0.15217900  0.26306400  0.68173900  1
  O  O16  1  0.71463200  0.96725200  0.46359000  1
  O  O17  1  0.21955000  0.45355800  0.52066900  1
  O  O18  1  0.31826100  0.84782100  0.73693600  1
  O  O19  1  0.28536800  0.03274800  0.53641000  1
  O  O20  1  0.26306400  0.68173900  0.15217900  1
  O  O21  1  0.84782100  0.73693600  0.31826100  1
  O  O22  1  0.45355800  0.52066900  0.21955000  1
  O  O23  1  0.54644200  0.47933100  0.78045000  1
  O  O24  1  0.46359000  0.71463200  0.96725200  1
  O  O25  1  0.78045000  0.54644200  0.47933100  1
  O  O26  1  0.68173900  0.15217900  0.26306400  1
  O  O27  1  0.47933100  0.78045000  0.54644200  1
  O  O28  1  0.96725200  0.46359000  0.71463200  1
  O  O29  1  0.53641000  0.28536800  0.03274800  1
