# generated using pymatgen
data_Ba3Ti20O40
_symmetry_space_group_name_H-M   'P 1'
_cell_length_a   10.34203683
_cell_length_b   10.34203683
_cell_length_c   10.13502755
_cell_angle_alpha   61.29340368
_cell_angle_beta   61.29340368
_cell_angle_gamma   92.27124119
_symmetry_Int_Tables_number   1
_chemical_formula_structural   Ba3Ti20O40
_chemical_formula_sum   'Ba3 Ti20 O40'
_cell_volume   780.73483103
_cell_formula_units_Z   1
loop_
 _symmetry_equiv_pos_site_id
 _symmetry_equiv_pos_as_xyz
  1  'x, y, z'
loop_
 _atom_site_type_symbol
 _atom_site_label
 _atom_site_symmetry_multiplicity
 _atom_site_fract_x
 _atom_site_fract_y
 _atom_site_fract_z
 _atom_site_occupancy
  Ba  Ba0  1  0.36604100  0.63395900  0.00000000  1
  Ba  Ba1  1  0.63395900  0.36604100  0.00000000  1
  Ba  Ba2  1  0.00000000  0.00000000  0.00000000  1
  Ti  Ti3  1  0.26264600  0.06572600  0.18269500  1
  Ti  Ti4  1  0.06572600  0.26264600  0.18269500  1
  Ti  Ti5  1  0.15310800  0.15310800  0.50873600  1
  Ti  Ti6  1  0.65530100  0.05764800  0.46903000  1
  Ti  Ti7  1  0.05764800  0.65530100  0.46903000  1
  Ti  Ti8  1  0.65917700  0.65917700  0.18199200  1
  Ti  Ti9  1  0.44942000  0.25236100  0.48333200  1
  Ti  Ti10  1  0.25236100  0.44942000  0.48333200  1
  Ti  Ti11  1  0.87309600  0.47126600  0.18076400  1
  Ti  Ti12  1  0.47126600  0.87309600  0.18076400  1
  Ti  Ti13  1  0.52873400  0.12690400  0.81923600  1
  Ti  Ti14  1  0.12690400  0.52873400  0.81923600  1
  Ti  Ti15  1  0.74763900  0.55058000  0.51666800  1
  Ti  Ti16  1  0.55058000  0.74763900  0.51666800  1
  Ti  Ti17  1  0.34082300  0.34082300  0.81800800  1
  Ti  Ti18  1  0.94235200  0.34469900  0.53097000  1
  Ti  Ti19  1  0.34469900  0.94235200  0.53097000  1
  Ti  Ti20  1  0.84689200  0.84689200  0.49126400  1
  Ti  Ti21  1  0.93427400  0.73735400  0.81730500  1
  Ti  Ti22  1  0.73735400  0.93427400  0.81730500  1
  O  O23  1  0.03816200  0.03816200  0.28232800  1
  O  O24  1  0.09733700  0.49785500  0.05101500  1
  O  O25  1  0.49785500  0.09733700  0.05101500  1
  O  O26  1  0.30241900  0.30241900  0.05128100  1
  O  O27  1  0.05795300  0.26000500  0.38077300  1
  O  O28  1  0.26000500  0.05795300  0.38077300  1
  O  O29  1  0.34526500  0.34526500  0.34845600  1
  O  O30  1  0.54130400  0.14117100  0.35596700  1
  O  O31  1  0.14117100  0.54130400  0.35596700  1
  O  O32  1  0.06051200  0.25723400  0.64285300  1
  O  O33  1  0.25723400  0.06051200  0.64285300  1
  O  O34  1  0.43893900  0.64278900  0.27983400  1
  O  O35  1  0.64278900  0.43893900  0.27983400  1
  O  O36  1  0.84129300  0.24275000  0.28501000  1
  O  O37  1  0.24275000  0.84129300  0.28501000  1
  O  O38  1  0.89411700  0.69817600  0.05197100  1
  O  O39  1  0.69817600  0.89411700  0.05197100  1
  O  O40  1  0.14319500  0.54448600  0.61543200  1
  O  O41  1  0.54448600  0.14319500  0.61543200  1
  O  O42  1  0.34275000  0.34275000  0.62074000  1
  O  O43  1  0.65725000  0.65725000  0.37926000  1
  O  O44  1  0.45551400  0.85680500  0.38456800  1
  O  O45  1  0.85680500  0.45551400  0.38456800  1
  O  O46  1  0.30182400  0.10588300  0.94802900  1
  O  O47  1  0.10588300  0.30182400  0.94802900  1
  O  O48  1  0.75725000  0.15870700  0.71499000  1
  O  O49  1  0.15870700  0.75725000  0.71499000  1
  O  O50  1  0.56106100  0.35721100  0.72016600  1
  O  O51  1  0.35721100  0.56106100  0.72016600  1
  O  O52  1  0.74276600  0.93948800  0.35714700  1
  O  O53  1  0.93948800  0.74276600  0.35714700  1
  O  O54  1  0.85882900  0.45869600  0.64403300  1
  O  O55  1  0.45869600  0.85882900  0.64403300  1
  O  O56  1  0.65473500  0.65473500  0.65154400  1
  O  O57  1  0.73999500  0.94204700  0.61922700  1
  O  O58  1  0.94204700  0.73999500  0.61922700  1
  O  O59  1  0.69758100  0.69758100  0.94871900  1
  O  O60  1  0.50214500  0.90266300  0.94898500  1
  O  O61  1  0.90266300  0.50214500  0.94898500  1
  O  O62  1  0.96183800  0.96183800  0.71767200  1
