# generated using pymatgen
data_CsHoZnTe3
_symmetry_space_group_name_H-M   'P 1'
_cell_length_a   9.00359149
_cell_length_b   9.00359149
_cell_length_c   11.70792000
_cell_angle_alpha   90.00000000
_cell_angle_beta   90.00000000
_cell_angle_gamma   151.55635226
_symmetry_Int_Tables_number   1
_chemical_formula_structural   CsHoZnTe3
_chemical_formula_sum   'Cs2 Ho2 Zn2 Te6'
_cell_volume   452.05012040
_cell_formula_units_Z   2
loop_
 _symmetry_equiv_pos_site_id
 _symmetry_equiv_pos_as_xyz
  1  'x, y, z'
loop_
 _atom_site_type_symbol
 _atom_site_label
 _atom_site_symmetry_multiplicity
 _atom_site_fract_x
 _atom_site_fract_y
 _atom_site_fract_z
 _atom_site_occupancy
  Cs  Cs0  1  0.25285500  0.74714500  0.75000000  1
  Cs  Cs1  1  0.74714500  0.25285500  0.25000000  1
  Ho  Ho2  1  0.00000000  0.00000000  0.00000000  1
  Ho  Ho3  1  0.00000000  0.00000000  0.50000000  1
  Zn  Zn4  1  0.46303100  0.53696900  0.25000000  1
  Zn  Zn5  1  0.53696900  0.46303100  0.75000000  1
  Te  Te6  1  0.94152100  0.05847900  0.75000000  1
  Te  Te7  1  0.61752000  0.38248000  0.94295500  1
  Te  Te8  1  0.38248000  0.61752000  0.44295500  1
  Te  Te9  1  0.38248000  0.61752000  0.05704500  1
  Te  Te10  1  0.05847900  0.94152100  0.25000000  1
  Te  Te11  1  0.61752000  0.38248000  0.55704500  1
