# generated using pymatgen
data_ICl
_symmetry_space_group_name_H-M   'P 1'
_cell_length_a   5.39071200
_cell_length_b   11.61393700
_cell_length_c   12.52418771
_cell_angle_alpha   66.62918136
_cell_angle_beta   90.00000000
_cell_angle_gamma   90.00000000
_symmetry_Int_Tables_number   1
_chemical_formula_structural   ICl
_chemical_formula_sum   'I8 Cl8'
_cell_volume   719.77605900
_cell_formula_units_Z   8
loop_
 _symmetry_equiv_pos_site_id
 _symmetry_equiv_pos_as_xyz
  1  'x, y, z'
loop_
 _atom_site_type_symbol
 _atom_site_label
 _atom_site_symmetry_multiplicity
 _atom_site_fract_x
 _atom_site_fract_y
 _atom_site_fract_z
 _atom_site_occupancy
  I  I0  1  0.09673300  0.35399600  0.71368600  1
  I  I1  1  0.40326700  0.85399600  0.71368600  1
  I  I2  1  0.13719000  0.89171200  0.19620500  1
  I  I3  1  0.59673300  0.14600400  0.28631400  1
  I  I4  1  0.86281000  0.10828800  0.80379500  1
  I  I5  1  0.90326700  0.64600400  0.28631400  1
  I  I6  1  0.36281000  0.39171200  0.19620500  1
  I  I7  1  0.63719000  0.60828800  0.80379500  1
  Cl  Cl8  1  0.17893700  0.83175200  0.55620600  1
  Cl  Cl9  1  0.32106300  0.33175200  0.55620600  1
  Cl  Cl10  1  0.82106300  0.16824800  0.44379400  1
  Cl  Cl11  1  0.85087800  0.39078000  0.89069300  1
  Cl  Cl12  1  0.14912200  0.60922000  0.10930700  1
  Cl  Cl13  1  0.35087800  0.10922000  0.10930700  1
  Cl  Cl14  1  0.67893700  0.66824800  0.44379400  1
  Cl  Cl15  1  0.64912200  0.89078000  0.89069300  1
