# generated using pymatgen
data_Cs2TlCl5
_symmetry_space_group_name_H-M   'P 1'
_cell_length_a   7.64795400
_cell_length_b   9.61388400
_cell_length_c   15.27837200
_cell_angle_alpha   90.00000000
_cell_angle_beta   90.00000000
_cell_angle_gamma   90.00000000
_symmetry_Int_Tables_number   1
_chemical_formula_structural   Cs2TlCl5
_chemical_formula_sum   'Cs8 Tl4 Cl20'
_cell_volume   1123.36586961
_cell_formula_units_Z   4
loop_
 _symmetry_equiv_pos_site_id
 _symmetry_equiv_pos_as_xyz
  1  'x, y, z'
loop_
 _atom_site_type_symbol
 _atom_site_label
 _atom_site_symmetry_multiplicity
 _atom_site_fract_x
 _atom_site_fract_y
 _atom_site_fract_z
 _atom_site_occupancy
  Cs  Cs0  1  0.25000000  0.46900700  0.29766000  1
  Cs  Cs1  1  0.75000000  0.53099300  0.70234000  1
  Cs  Cs2  1  0.25000000  0.96900700  0.20234000  1
  Cs  Cs3  1  0.75000000  0.03099300  0.79766000  1
  Cs  Cs4  1  0.75000000  0.32320100  0.07819500  1
  Cs  Cs5  1  0.25000000  0.67679900  0.92180500  1
  Cs  Cs6  1  0.75000000  0.82320100  0.42180500  1
  Cs  Cs7  1  0.25000000  0.17679900  0.57819500  1
  Tl  Tl8  1  0.75000000  0.31192900  0.42972400  1
  Tl  Tl9  1  0.25000000  0.68807100  0.57027600  1
  Tl  Tl10  1  0.75000000  0.81192900  0.07027600  1
  Tl  Tl11  1  0.25000000  0.18807100  0.92972400  1
  Cl  Cl12  1  0.50000000  0.50000000  0.50000000  1
  Cl  Cl13  1  0.00000000  0.50000000  0.50000000  1
  Cl  Cl14  1  0.00000000  0.00000000  0.00000000  1
  Cl  Cl15  1  0.50000000  0.00000000  0.00000000  1
  Cl  Cl16  1  0.00553900  0.15824300  0.37584700  1
  Cl  Cl17  1  0.50553900  0.84175700  0.62415300  1
  Cl  Cl18  1  0.49446100  0.65824300  0.12415300  1
  Cl  Cl19  1  0.99446100  0.34175700  0.87584700  1
  Cl  Cl20  1  0.99446100  0.84175700  0.62415300  1
  Cl  Cl21  1  0.49446100  0.15824300  0.37584700  1
  Cl  Cl22  1  0.50553900  0.34175700  0.87584700  1
  Cl  Cl23  1  0.00553900  0.65824300  0.12415300  1
  Cl  Cl24  1  0.75000000  0.20366000  0.58407700  1
  Cl  Cl25  1  0.25000000  0.79634000  0.41592300  1
  Cl  Cl26  1  0.75000000  0.70366000  0.91592300  1
  Cl  Cl27  1  0.25000000  0.29634000  0.08407700  1
  Cl  Cl28  1  0.75000000  0.47326300  0.29847900  1
  Cl  Cl29  1  0.25000000  0.52673700  0.70152100  1
  Cl  Cl30  1  0.75000000  0.97326300  0.20152100  1
  Cl  Cl31  1  0.25000000  0.02673700  0.79847900  1
