# generated using pymatgen
data_PrAl
_symmetry_space_group_name_H-M   'P 1'
_cell_length_a   6.05041141
_cell_length_b   6.05041141
_cell_length_c   5.76547600
_cell_angle_alpha   90.00000000
_cell_angle_beta   90.00000000
_cell_angle_gamma   101.13983386
_symmetry_Int_Tables_number   1
_chemical_formula_structural   PrAl
_chemical_formula_sum   'Pr4 Al4'
_cell_volume   207.08287574
_cell_formula_units_Z   4
loop_
 _symmetry_equiv_pos_site_id
 _symmetry_equiv_pos_as_xyz
  1  'x, y, z'
loop_
 _atom_site_type_symbol
 _atom_site_label
 _atom_site_symmetry_multiplicity
 _atom_site_fract_x
 _atom_site_fract_y
 _atom_site_fract_z
 _atom_site_occupancy
  Pr  Pr0  1  0.97916400  0.33895400  0.25000000  1
  Pr  Pr1  1  0.33895400  0.97916400  0.25000000  1
  Pr  Pr2  1  0.66104600  0.02083600  0.75000000  1
  Pr  Pr3  1  0.02083600  0.66104600  0.75000000  1
  Al  Al4  1  0.80207700  0.80207700  0.25000000  1
  Al  Al5  1  0.19792300  0.19792300  0.75000000  1
  Al  Al6  1  0.50000000  0.50000000  0.00000000  1
  Al  Al7  1  0.50000000  0.50000000  0.50000000  1
