# generated using pymatgen
data_NaAsS2
_symmetry_space_group_name_H-M   'P 1'
_cell_length_a   11.69652600
_cell_length_b   5.65593500
_cell_length_c   5.97274270
_cell_angle_alpha   89.51988053
_cell_angle_beta   90.00000000
_cell_angle_gamma   90.00000000
_symmetry_Int_Tables_number   1
_chemical_formula_structural   NaAsS2
_chemical_formula_sum   'Na4 As4 S8'
_cell_volume   395.11167105
_cell_formula_units_Z   4
loop_
 _symmetry_equiv_pos_site_id
 _symmetry_equiv_pos_as_xyz
  1  'x, y, z'
loop_
 _atom_site_type_symbol
 _atom_site_label
 _atom_site_symmetry_multiplicity
 _atom_site_fract_x
 _atom_site_fract_y
 _atom_site_fract_z
 _atom_site_occupancy
  Na  Na0  1  0.37466200  0.23839600  0.50807300  1
  Na  Na1  1  0.62533800  0.76160400  0.49192700  1
  Na  Na2  1  0.12533800  0.73839600  0.50807300  1
  Na  Na3  1  0.87466200  0.26160400  0.49192700  1
  As  As4  1  0.64541800  0.23930100  0.93478600  1
  As  As5  1  0.14541800  0.26069900  0.06521400  1
  As  As6  1  0.35458200  0.76069900  0.06521400  1
  As  As7  1  0.85458200  0.73930100  0.93478600  1
  S  S8  1  0.83956400  0.32676500  0.99791000  1
  S  S9  1  0.66043600  0.82676500  0.99791000  1
  S  S10  1  0.33956400  0.17323500  0.00209000  1
  S  S11  1  0.16043600  0.67323500  0.00209000  1
  S  S12  1  0.87412200  0.76139200  0.56885500  1
  S  S13  1  0.37412200  0.73860800  0.43114500  1
  S  S14  1  0.12587800  0.23860800  0.43114500  1
  S  S15  1  0.62587800  0.26139200  0.56885500  1
