# generated using pymatgen
data_NaTbMnWO6
_symmetry_space_group_name_H-M   'P 1'
_cell_length_a   5.67384900
_cell_length_b   5.48311000
_cell_length_c   8.00799356
_cell_angle_alpha   89.96428312
_cell_angle_beta   90.00000000
_cell_angle_gamma   90.00000000
_symmetry_Int_Tables_number   1
_chemical_formula_structural   NaTbMnWO6
_chemical_formula_sum   'Na2 Tb2 Mn2 W2 O12'
_cell_volume   249.13133935
_cell_formula_units_Z   2
loop_
 _symmetry_equiv_pos_site_id
 _symmetry_equiv_pos_as_xyz
  1  'x, y, z'
loop_
 _atom_site_type_symbol
 _atom_site_label
 _atom_site_symmetry_multiplicity
 _atom_site_fract_x
 _atom_site_fract_y
 _atom_site_fract_z
 _atom_site_occupancy
  Na  Na0  1  0.30593200  0.25116100  0.99905800  1
  Na  Na1  1  0.80593200  0.74883900  0.00094200  1
  Tb  Tb2  1  0.20944100  0.26530900  0.49850700  1
  Tb  Tb3  1  0.70944100  0.73469100  0.50149300  1
  Mn  Mn4  1  0.26545100  0.75200700  0.75821600  1
  Mn  Mn5  1  0.76545100  0.24799300  0.24178400  1
  W  W6  1  0.27523300  0.76171100  0.24382500  1
  W  W7  1  0.77523300  0.23828900  0.75617500  1
  O  O8  1  0.07974900  0.08926600  0.78279700  1
  O  O9  1  0.46682300  0.46963600  0.32013100  1
  O  O10  1  0.96682300  0.53036400  0.67986900  1
  O  O11  1  0.10810100  0.06043500  0.22531200  1
  O  O12  1  0.99984400  0.56665500  0.32162000  1
  O  O13  1  0.73771800  0.33005500  0.97968600  1
  O  O14  1  0.49984400  0.43334500  0.67838000  1
  O  O15  1  0.23771800  0.66994500  0.02031400  1
  O  O16  1  0.57974900  0.91073400  0.21720300  1
  O  O17  1  0.60810100  0.93956500  0.77468800  1
  O  O18  1  0.81610900  0.13678900  0.50694000  1
  O  O19  1  0.31610900  0.86321100  0.49306000  1
