# generated using pymatgen
data_SnHg6(P2Cl3)2
_symmetry_space_group_name_H-M   'P 1'
_cell_length_a   12.13392000
_cell_length_b   12.13392000
_cell_length_c   12.13392000
_cell_angle_alpha   90.00000000
_cell_angle_beta   90.00000000
_cell_angle_gamma   90.00000000
_symmetry_Int_Tables_number   1
_chemical_formula_structural   SnHg6(P2Cl3)2
_chemical_formula_sum   'Sn4 Hg24 P16 Cl24'
_cell_volume   1786.50148619
_cell_formula_units_Z   4
loop_
 _symmetry_equiv_pos_site_id
 _symmetry_equiv_pos_as_xyz
  1  'x, y, z'
loop_
 _atom_site_type_symbol
 _atom_site_label
 _atom_site_symmetry_multiplicity
 _atom_site_fract_x
 _atom_site_fract_y
 _atom_site_fract_z
 _atom_site_occupancy
  Sn  Sn0  1  0.72489400  0.72489400  0.72489400  1
  Sn  Sn1  1  0.77510600  0.27510600  0.22489400  1
  Sn  Sn2  1  0.22489400  0.77510600  0.27510600  1
  Sn  Sn3  1  0.27510600  0.22489400  0.77510600  1
  Hg  Hg4  1  0.97130200  0.01640300  0.76170100  1
  Hg  Hg5  1  0.97478600  0.76451400  0.46136600  1
  Hg  Hg6  1  0.52869800  0.98359700  0.26170100  1
  Hg  Hg7  1  0.48359700  0.23829900  0.47130200  1
  Hg  Hg8  1  0.73829900  0.02869800  0.51640300  1
  Hg  Hg9  1  0.26170100  0.52869800  0.98359700  1
  Hg  Hg10  1  0.98359700  0.26170100  0.52869800  1
  Hg  Hg11  1  0.02869800  0.51640300  0.73829900  1
  Hg  Hg12  1  0.02521400  0.26451400  0.03863400  1
  Hg  Hg13  1  0.52521400  0.23548600  0.96136600  1
  Hg  Hg14  1  0.51640300  0.73829900  0.02869800  1
  Hg  Hg15  1  0.23829900  0.47130200  0.48359700  1
  Hg  Hg16  1  0.26451400  0.03863400  0.02521400  1
  Hg  Hg17  1  0.01640300  0.76170100  0.97130200  1
  Hg  Hg18  1  0.53863400  0.47478600  0.73548600  1
  Hg  Hg19  1  0.47478600  0.73548600  0.53863400  1
  Hg  Hg20  1  0.03863400  0.02521400  0.26451400  1
  Hg  Hg21  1  0.76170100  0.97130200  0.01640300  1
  Hg  Hg22  1  0.73548600  0.53863400  0.47478600  1
  Hg  Hg23  1  0.46136600  0.97478600  0.76451400  1
  Hg  Hg24  1  0.23548600  0.96136600  0.52521400  1
  Hg  Hg25  1  0.47130200  0.48359700  0.23829900  1
  Hg  Hg26  1  0.76451400  0.46136600  0.97478600  1
  Hg  Hg27  1  0.96136600  0.52521400  0.23548600  1
  P  P28  1  0.43631900  0.93631900  0.56368100  1
  P  P29  1  0.56472000  0.93528000  0.06472000  1
  P  P30  1  0.95903300  0.95903300  0.95903300  1
  P  P31  1  0.54046200  0.54046200  0.54046200  1
  P  P32  1  0.93631900  0.56368100  0.43631900  1
  P  P33  1  0.43528000  0.43528000  0.43528000  1
  P  P34  1  0.45903300  0.54096700  0.04096700  1
  P  P35  1  0.04096700  0.45903300  0.54096700  1
  P  P36  1  0.56368100  0.43631900  0.93631900  1
  P  P37  1  0.93528000  0.06472000  0.56472000  1
  P  P38  1  0.06368100  0.06368100  0.06368100  1
  P  P39  1  0.45953800  0.04046200  0.95953800  1
  P  P40  1  0.06472000  0.56472000  0.93528000  1
  P  P41  1  0.95953800  0.45953800  0.04046200  1
  P  P42  1  0.04046200  0.95953800  0.45953800  1
  P  P43  1  0.54096700  0.04096700  0.45903300  1
  Cl  Cl44  1  0.02828400  0.26455000  0.29777600  1
  Cl  Cl45  1  0.52828400  0.23545000  0.70222400  1
  Cl  Cl46  1  0.74298700  0.29204600  0.43944400  1
  Cl  Cl47  1  0.06055600  0.25701300  0.79204600  1
  Cl  Cl48  1  0.70795400  0.93944400  0.75701300  1
  Cl  Cl49  1  0.29204600  0.43944400  0.74298700  1
  Cl  Cl50  1  0.25701300  0.79204600  0.06055600  1
  Cl  Cl51  1  0.73545000  0.79777600  0.47171600  1
  Cl  Cl52  1  0.70222400  0.52828400  0.23545000  1
  Cl  Cl53  1  0.79777600  0.47171600  0.73545000  1
  Cl  Cl54  1  0.75701300  0.70795400  0.93944400  1
  Cl  Cl55  1  0.24298700  0.20795400  0.56055600  1
  Cl  Cl56  1  0.43944400  0.74298700  0.29204600  1
  Cl  Cl57  1  0.97171600  0.76455000  0.20222400  1
  Cl  Cl58  1  0.23545000  0.70222400  0.52828400  1
  Cl  Cl59  1  0.76455000  0.20222400  0.97171600  1
  Cl  Cl60  1  0.47171600  0.73545000  0.79777600  1
  Cl  Cl61  1  0.79204600  0.06055600  0.25701300  1
  Cl  Cl62  1  0.29777600  0.02828400  0.26455000  1
  Cl  Cl63  1  0.56055600  0.24298700  0.20795400  1
  Cl  Cl64  1  0.93944400  0.75701300  0.70795400  1
  Cl  Cl65  1  0.26455000  0.29777600  0.02828400  1
  Cl  Cl66  1  0.20222400  0.97171600  0.76455000  1
  Cl  Cl67  1  0.20795400  0.56055600  0.24298700  1
