# generated using pymatgen
data_CrP2Pb5O13
_symmetry_space_group_name_H-M   'P 1'
_cell_length_a   9.62105800
_cell_length_b   10.49379700
_cell_length_c   13.71209500
_cell_angle_alpha   90.00000000
_cell_angle_beta   90.00000000
_cell_angle_gamma   90.00000000
_symmetry_Int_Tables_number   1
_chemical_formula_structural   CrP2Pb5O13
_chemical_formula_sum   'Cr4 P8 Pb20 O52'
_cell_volume   1384.39271370
_cell_formula_units_Z   4
loop_
 _symmetry_equiv_pos_site_id
 _symmetry_equiv_pos_as_xyz
  1  'x, y, z'
loop_
 _atom_site_type_symbol
 _atom_site_label
 _atom_site_symmetry_multiplicity
 _atom_site_fract_x
 _atom_site_fract_y
 _atom_site_fract_z
 _atom_site_occupancy
  Cr  Cr0  1  0.57054700  0.75000000  0.00082700  1
  Cr  Cr1  1  0.07054700  0.25000000  0.49917300  1
  Cr  Cr2  1  0.42945300  0.25000000  0.99917300  1
  Cr  Cr3  1  0.92945300  0.75000000  0.50082700  1
  P  P4  1  0.43035500  0.96673200  0.33999600  1
  P  P5  1  0.43035500  0.53326800  0.33999600  1
  P  P6  1  0.06964500  0.96673200  0.83999600  1
  P  P7  1  0.06964500  0.53326800  0.83999600  1
  P  P8  1  0.56964500  0.03326800  0.66000400  1
  P  P9  1  0.93035500  0.46673200  0.16000400  1
  P  P10  1  0.56964500  0.46673200  0.66000400  1
  P  P11  1  0.93035500  0.03326800  0.16000400  1
  Pb  Pb12  1  0.21337300  0.94334500  0.57584100  1
  Pb  Pb13  1  0.29617500  0.25000000  0.76432700  1
  Pb  Pb14  1  0.65774400  0.25000000  0.22062400  1
  Pb  Pb15  1  0.34225600  0.75000000  0.77937600  1
  Pb  Pb16  1  0.15774400  0.75000000  0.27937600  1
  Pb  Pb17  1  0.79617500  0.75000000  0.73567300  1
  Pb  Pb18  1  0.71337300  0.05665500  0.92415900  1
  Pb  Pb19  1  0.21337300  0.55665500  0.57584100  1
  Pb  Pb20  1  0.97121700  0.75000000  0.02366700  1
  Pb  Pb21  1  0.20382500  0.25000000  0.26432700  1
  Pb  Pb22  1  0.02878300  0.25000000  0.97633300  1
  Pb  Pb23  1  0.47121700  0.25000000  0.47633300  1
  Pb  Pb24  1  0.28662700  0.94334500  0.07584100  1
  Pb  Pb25  1  0.71337300  0.44334500  0.92415900  1
  Pb  Pb26  1  0.78662700  0.05665500  0.42415900  1
  Pb  Pb27  1  0.28662700  0.55665500  0.07584100  1
  Pb  Pb28  1  0.84225600  0.25000000  0.72062400  1
  Pb  Pb29  1  0.70382500  0.75000000  0.23567300  1
  Pb  Pb30  1  0.52878300  0.75000000  0.52366700  1
  Pb  Pb31  1  0.78662700  0.44334500  0.42415900  1
  O  O32  1  0.67510200  0.25000000  0.38741600  1
  O  O33  1  0.59239100  0.61293200  0.67136200  1
  O  O34  1  0.09239100  0.38706800  0.82863800  1
  O  O35  1  0.15460500  0.25000000  0.60622000  1
  O  O36  1  0.34769100  0.60492500  0.25888100  1
  O  O37  1  0.88018500  0.41914800  0.05784100  1
  O  O38  1  0.84769100  0.10492500  0.24111900  1
  O  O39  1  0.10718400  0.12150100  0.43315200  1
  O  O40  1  0.58943500  0.56260000  0.33146800  1
  O  O41  1  0.08943500  0.43740000  0.16853200  1
  O  O42  1  0.59239100  0.88706800  0.67136200  1
  O  O43  1  0.61981500  0.08085200  0.55784100  1
  O  O44  1  0.38018500  0.58085200  0.44215900  1
  O  O45  1  0.08943500  0.06260000  0.16853200  1
  O  O46  1  0.34539500  0.25000000  0.10622000  1
  O  O47  1  0.38018500  0.91914800  0.44215900  1
  O  O48  1  0.90760900  0.88706800  0.17136200  1
  O  O49  1  0.60152300  0.25000000  0.02055700  1
  O  O50  1  0.89847700  0.25000000  0.52055700  1
  O  O51  1  0.10152300  0.75000000  0.47944300  1
  O  O52  1  0.89281600  0.87849900  0.56684800  1
  O  O53  1  0.34769100  0.89507500  0.25888100  1
  O  O54  1  0.11981500  0.58085200  0.94215900  1
  O  O55  1  0.84539500  0.75000000  0.39378000  1
  O  O56  1  0.40760900  0.11293200  0.32863800  1
  O  O57  1  0.17510200  0.75000000  0.11258400  1
  O  O58  1  0.11981500  0.91914800  0.94215900  1
  O  O59  1  0.91056500  0.93740000  0.83146800  1
  O  O60  1  0.09239100  0.11293200  0.82863800  1
  O  O61  1  0.32489800  0.75000000  0.61258400  1
  O  O62  1  0.39281600  0.12150100  0.93315200  1
  O  O63  1  0.15230900  0.89507500  0.75888100  1
  O  O64  1  0.41056500  0.43740000  0.66853200  1
  O  O65  1  0.15230900  0.60492500  0.75888100  1
  O  O66  1  0.61981500  0.41914800  0.55784100  1
  O  O67  1  0.82489800  0.25000000  0.88741600  1
  O  O68  1  0.65230900  0.39507500  0.74111900  1
  O  O69  1  0.10718400  0.37849900  0.43315200  1
  O  O70  1  0.88018500  0.08085200  0.05784100  1
  O  O71  1  0.39281600  0.37849900  0.93315200  1
  O  O72  1  0.41056500  0.06260000  0.66853200  1
  O  O73  1  0.91056500  0.56260000  0.83146800  1
  O  O74  1  0.65460500  0.75000000  0.89378000  1
  O  O75  1  0.90760900  0.61293200  0.17136200  1
  O  O76  1  0.84769100  0.39507500  0.24111900  1
  O  O77  1  0.40760900  0.38706800  0.32863800  1
  O  O78  1  0.58943500  0.93740000  0.33146800  1
  O  O79  1  0.60718400  0.62150100  0.06684800  1
  O  O80  1  0.65230900  0.10492500  0.74111900  1
  O  O81  1  0.60718400  0.87849900  0.06684800  1
  O  O82  1  0.89281600  0.62150100  0.56684800  1
  O  O83  1  0.39847700  0.75000000  0.97944300  1
