# generated using pymatgen
data_Pr8(BCl)7
_symmetry_space_group_name_H-M   'P 1'
_cell_length_a   7.79377800
_cell_length_b   9.22605197
_cell_length_c   14.39302385
_cell_angle_alpha   91.55600318
_cell_angle_beta   97.81396885
_cell_angle_gamma   114.97643033
_symmetry_Int_Tables_number   1
_chemical_formula_structural   Pr8(BCl)7
_chemical_formula_sum   'Pr16 B14 Cl14'
_cell_volume   925.31531405
_cell_formula_units_Z   2
loop_
 _symmetry_equiv_pos_site_id
 _symmetry_equiv_pos_as_xyz
  1  'x, y, z'
loop_
 _atom_site_type_symbol
 _atom_site_label
 _atom_site_symmetry_multiplicity
 _atom_site_fract_x
 _atom_site_fract_y
 _atom_site_fract_z
 _atom_site_occupancy
  Pr  Pr0  1  0.95661100  0.83884800  0.19954200  1
  Pr  Pr1  1  0.48235000  0.83889900  0.19954700  1
  Pr  Pr2  1  0.78791300  0.28370900  0.58442300  1
  Pr  Pr3  1  0.72065400  0.72847500  0.42404200  1
  Pr  Pr4  1  0.23903300  0.57964200  0.74602900  1
  Pr  Pr5  1  0.60105000  0.71913500  0.96587600  1
  Pr  Pr6  1  0.51765000  0.16110100  0.80045300  1
  Pr  Pr7  1  0.27934600  0.27152500  0.57595800  1
  Pr  Pr8  1  0.76096700  0.42035800  0.25397100  1
  Pr  Pr9  1  0.09361400  0.70359500  0.96796200  1
  Pr  Pr10  1  0.28762400  0.42037200  0.25357400  1
  Pr  Pr11  1  0.04338900  0.16115200  0.80045800  1
  Pr  Pr12  1  0.90638600  0.29640500  0.03203800  1
  Pr  Pr13  1  0.71237600  0.57962800  0.74642600  1
  Pr  Pr14  1  0.39895000  0.28086500  0.03412400  1
  Pr  Pr15  1  0.21208700  0.71629100  0.41557700  1
  B  B16  1  0.25409500  0.46157400  0.93293700  1
  B  B17  1  0.67395200  0.46136400  0.93299900  1
  B  B18  1  0.82487200  0.42259400  0.87450200  1
  B  B19  1  0.17512800  0.57740600  0.12549800  1
  B  B20  1  0.12324000  0.63053300  0.23127600  1
  B  B21  1  0.36458600  0.35564600  0.74853600  1
  B  B22  1  0.74590500  0.53842600  0.06706300  1
  B  B23  1  0.87676000  0.36946700  0.76872400  1
  B  B24  1  0.63541400  0.64435400  0.25146400  1
  B  B25  1  0.57226300  0.57830200  0.13212000  1
  B  B26  1  0.42773700  0.42169800  0.86788000  1
  B  B27  1  0.03493900  0.42252700  0.87451400  1
  B  B28  1  0.32604800  0.53863600  0.06700100  1
  B  B29  1  0.96506100  0.57747300  0.12548600  1
  Cl  Cl30  1  0.36276000  0.11983500  0.21118200  1
  Cl  Cl31  1  0.86952300  0.13421200  0.20811200  1
  Cl  Cl32  1  0.63724000  0.88016500  0.78881800  1
  Cl  Cl33  1  0.08854300  0.96982400  0.39679600  1
  Cl  Cl34  1  0.96700500  0.63774700  0.57014300  1
  Cl  Cl35  1  0.13047700  0.86578800  0.79188800  1
  Cl  Cl36  1  0.03299500  0.36225300  0.42985700  1
  Cl  Cl37  1  0.00000000  0.00000000  0.00000000  1
  Cl  Cl38  1  0.91145700  0.03017600  0.60320400  1
  Cl  Cl39  1  0.45316100  0.63144300  0.56770000  1
  Cl  Cl40  1  0.54683900  0.36855700  0.43230000  1
  Cl  Cl41  1  0.42103100  0.03169100  0.60366300  1
  Cl  Cl42  1  0.50000000  0.00000000  0.00000000  1
  Cl  Cl43  1  0.57896900  0.96830900  0.39633700  1
