# generated using pymatgen
data_EuTaO4
_symmetry_space_group_name_H-M   'P 1'
_cell_length_a   5.68774100
_cell_length_b   5.25857700
_cell_length_c   5.42987512
_cell_angle_alpha   83.25478565
_cell_angle_beta   90.00000000
_cell_angle_gamma   90.00000000
_symmetry_Int_Tables_number   1
_chemical_formula_structural   EuTaO4
_chemical_formula_sum   'Eu2 Ta2 O8'
_cell_volume   161.28031787
_cell_formula_units_Z   2
loop_
 _symmetry_equiv_pos_site_id
 _symmetry_equiv_pos_as_xyz
  1  'x, y, z'
loop_
 _atom_site_type_symbol
 _atom_site_label
 _atom_site_symmetry_multiplicity
 _atom_site_fract_x
 _atom_site_fract_y
 _atom_site_fract_z
 _atom_site_occupancy
  Eu  Eu0  1  0.77805100  0.00000000  0.75000000  1
  Eu  Eu1  1  0.22194900  0.00000000  0.25000000  1
  Ta  Ta2  1  0.67917000  0.50000000  0.25000000  1
  Ta  Ta3  1  0.32083000  0.50000000  0.75000000  1
  O  O4  1  0.56971000  0.28036300  0.99318900  1
  O  O5  1  0.56971000  0.71963700  0.50681100  1
  O  O6  1  0.43029000  0.71963700  0.00681100  1
  O  O7  1  0.43029000  0.28036300  0.49318900  1
  O  O8  1  0.09955600  0.74678500  0.61274500  1
  O  O9  1  0.09955600  0.25321500  0.88725500  1
  O  O10  1  0.90044400  0.25321500  0.38725500  1
  O  O11  1  0.90044400  0.74678500  0.11274500  1
