# generated using pymatgen
data_Cs2SeO4
_symmetry_space_group_name_H-M   'P 1'
_cell_length_a   6.57430000
_cell_length_b   8.54940200
_cell_length_c   11.53184100
_cell_angle_alpha   90.00000000
_cell_angle_beta   90.00000000
_cell_angle_gamma   90.00000000
_symmetry_Int_Tables_number   1
_chemical_formula_structural   Cs2SeO4
_chemical_formula_sum   'Cs8 Se4 O16'
_cell_volume   648.16250191
_cell_formula_units_Z   4
loop_
 _symmetry_equiv_pos_site_id
 _symmetry_equiv_pos_as_xyz
  1  'x, y, z'
loop_
 _atom_site_type_symbol
 _atom_site_label
 _atom_site_symmetry_multiplicity
 _atom_site_fract_x
 _atom_site_fract_y
 _atom_site_fract_z
 _atom_site_occupancy
  Cs  Cs0  1  0.75000000  0.67646400  0.41085200  1
  Cs  Cs1  1  0.75000000  0.49047100  0.79565500  1
  Cs  Cs2  1  0.25000000  0.50952900  0.20434500  1
  Cs  Cs3  1  0.25000000  0.00952900  0.29565500  1
  Cs  Cs4  1  0.75000000  0.99047100  0.70434500  1
  Cs  Cs5  1  0.25000000  0.32353600  0.58914800  1
  Cs  Cs6  1  0.75000000  0.17646400  0.08914800  1
  Cs  Cs7  1  0.25000000  0.82353600  0.91085200  1
  Se  Se8  1  0.25000000  0.76559900  0.58055700  1
  Se  Se9  1  0.75000000  0.23440100  0.41944300  1
  Se  Se10  1  0.75000000  0.73440100  0.08055700  1
  Se  Se11  1  0.25000000  0.26559900  0.91944300  1
  O  O12  1  0.75000000  0.03862900  0.41731200  1
  O  O13  1  0.04105200  0.19768500  0.85181200  1
  O  O14  1  0.45894800  0.69768500  0.64818800  1
  O  O15  1  0.25000000  0.19870500  0.05697100  1
  O  O16  1  0.75000000  0.53862900  0.08268800  1
  O  O17  1  0.95894800  0.30231500  0.35181200  1
  O  O18  1  0.54105200  0.30231500  0.35181200  1
  O  O19  1  0.54105200  0.80231500  0.14818800  1
  O  O20  1  0.75000000  0.80129500  0.94302900  1
  O  O21  1  0.04105200  0.69768500  0.64818800  1
  O  O22  1  0.45894800  0.19768500  0.85181200  1
  O  O23  1  0.25000000  0.69870500  0.44302900  1
  O  O24  1  0.25000000  0.46137100  0.91731200  1
  O  O25  1  0.75000000  0.30129500  0.55697100  1
  O  O26  1  0.95894800  0.80231500  0.14818800  1
  O  O27  1  0.25000000  0.96137100  0.58268800  1
