# generated using pymatgen
data_K4U5Te2O21
_symmetry_space_group_name_H-M   'P 1'
_cell_length_a   7.11555000
_cell_length_b   7.18735213
_cell_length_c   11.55583442
_cell_angle_alpha   99.99402102
_cell_angle_beta   95.40133926
_cell_angle_gamma   99.77263653
_symmetry_Int_Tables_number   1
_chemical_formula_structural   K4U5Te2O21
_chemical_formula_sum   'K4 U5 Te2 O21'
_cell_volume   568.90519874
_cell_formula_units_Z   1
loop_
 _symmetry_equiv_pos_site_id
 _symmetry_equiv_pos_as_xyz
  1  'x, y, z'
loop_
 _atom_site_type_symbol
 _atom_site_label
 _atom_site_symmetry_multiplicity
 _atom_site_fract_x
 _atom_site_fract_y
 _atom_site_fract_z
 _atom_site_occupancy
  K  K0  1  0.56248100  0.29150200  0.08469500  1
  K  K1  1  0.30223600  0.16029300  0.73273900  1
  K  K2  1  0.43751900  0.70849800  0.91530500  1
  K  K3  1  0.69776400  0.83970700  0.26726100  1
  U  U4  1  0.77710800  0.87512500  0.68474400  1
  U  U5  1  0.22289200  0.12487500  0.31525600  1
  U  U6  1  0.12500000  0.56951000  0.18004800  1
  U  U7  1  0.87500000  0.43049000  0.81995200  1
  U  U8  1  0.00000000  0.00000000  0.00000000  1
  Te  Te9  1  0.67852900  0.31468800  0.51451700  1
  Te  Te10  1  0.32147100  0.68531200  0.48548300  1
  O  O11  1  0.08605600  0.87644500  0.16162200  1
  O  O12  1  0.75448500  0.98969800  0.04731000  1
  O  O13  1  0.41146300  0.23192600  0.50972800  1
  O  O14  1  0.00710800  0.87085800  0.62343300  1
  O  O15  1  0.91394400  0.12355500  0.83837800  1
  O  O16  1  0.11505300  0.47104300  0.76652900  1
  O  O17  1  0.37268700  0.61293200  0.13392400  1
  O  O18  1  0.12679800  0.24602000  0.15200200  1
  O  O19  1  0.24551500  0.01030200  0.95269000  1
  O  O20  1  0.88494700  0.52895700  0.23347100  1
  O  O21  1  0.23755500  0.82739700  0.37330600  1
  O  O22  1  0.76244500  0.17260300  0.62669400  1
  O  O23  1  0.71432100  0.52926200  0.64240100  1
  O  O24  1  0.53438400  0.87434000  0.73243100  1
  O  O25  1  0.58853700  0.76807400  0.49027200  1
  O  O26  1  0.00000000  0.50000000  0.00000000  1
  O  O27  1  0.99289200  0.12914200  0.37656700  1
  O  O28  1  0.87320200  0.75398000  0.84799800  1
  O  O29  1  0.46561600  0.12566000  0.26756900  1
  O  O30  1  0.62731300  0.38706800  0.86607500  1
  O  O31  1  0.28567900  0.47073800  0.35759900  1
