# generated using pymatgen
data_Cs2Hg27
_symmetry_space_group_name_H-M   'P 1'
_cell_length_a   15.31367087
_cell_length_b   15.31367087
_cell_length_c   15.31367087
_cell_angle_alpha   109.47122063
_cell_angle_beta   109.47122063
_cell_angle_gamma   109.47122063
_symmetry_Int_Tables_number   1
_chemical_formula_structural   Cs2Hg27
_chemical_formula_sum   'Cs6 Hg81'
_cell_volume   2764.49644413
_cell_formula_units_Z   3
loop_
 _symmetry_equiv_pos_site_id
 _symmetry_equiv_pos_as_xyz
  1  'x, y, z'
loop_
 _atom_site_type_symbol
 _atom_site_label
 _atom_site_symmetry_multiplicity
 _atom_site_fract_x
 _atom_site_fract_y
 _atom_site_fract_z
 _atom_site_occupancy
  Cs  Cs0  1  0.30414300  0.80414300  0.50000000  1
  Cs  Cs1  1  0.50000000  0.30414300  0.80414300  1
  Cs  Cs2  1  0.19585700  0.50000000  0.69585700  1
  Cs  Cs3  1  0.80414300  0.50000000  0.30414300  1
  Cs  Cs4  1  0.69585700  0.19585700  0.50000000  1
  Cs  Cs5  1  0.50000000  0.69585700  0.19585700  1
  Hg  Hg6  1  0.58777800  0.90578300  0.49356000  1
  Hg  Hg7  1  0.72538200  0.73422000  0.45960200  1
  Hg  Hg8  1  0.49356000  0.58777800  0.90578300  1
  Hg  Hg9  1  0.26578000  0.99116200  0.72538200  1
  Hg  Hg10  1  0.41222200  0.90578300  0.31800500  1
  Hg  Hg11  1  0.16719700  0.89488700  0.06208400  1
  Hg  Hg12  1  0.10511300  0.27231000  0.16719700  1
  Hg  Hg13  1  0.27461800  0.26578000  0.54039800  1
  Hg  Hg14  1  0.38494000  0.10023500  0.28470500  1
  Hg  Hg15  1  0.27461800  0.73422000  0.00883800  1
  Hg  Hg16  1  0.10511300  0.93791600  0.83280300  1
  Hg  Hg17  1  0.17582900  0.49558300  0.96732400  1
  Hg  Hg18  1  0.68024600  0.47174100  0.50441700  1
  Hg  Hg19  1  0.82417100  0.79149500  0.31975400  1
  Hg  Hg20  1  0.17582900  0.20850500  0.68024600  1
  Hg  Hg21  1  0.03267600  0.82417100  0.50441700  1
  Hg  Hg22  1  0.00000000  0.64955700  0.00000000  1
  Hg  Hg23  1  0.31800500  0.41222200  0.90578300  1
  Hg  Hg24  1  0.28470500  0.38494000  0.10023500  1
  Hg  Hg25  1  0.31975400  0.52825900  0.49558300  1
  Hg  Hg26  1  0.50644000  0.41222200  0.09421700  1
  Hg  Hg27  1  0.99116200  0.72538200  0.26578000  1
  Hg  Hg28  1  0.96732400  0.17582900  0.49558300  1
  Hg  Hg29  1  0.35044300  0.00000000  0.00000000  1
  Hg  Hg30  1  0.90578300  0.49356000  0.58777800  1
  Hg  Hg31  1  0.54039800  0.27461800  0.26578000  1
  Hg  Hg32  1  0.68024600  0.17582900  0.20850500  1
  Hg  Hg33  1  0.64955700  0.00000000  0.00000000  1
  Hg  Hg34  1  0.45960200  0.72538200  0.73422000  1
  Hg  Hg35  1  0.20850500  0.03267600  0.52825900  1
  Hg  Hg36  1  0.73422000  0.00883800  0.27461800  1
  Hg  Hg37  1  0.81553100  0.10023500  0.71529500  1
  Hg  Hg38  1  0.47174100  0.79149500  0.96732400  1
  Hg  Hg39  1  0.64955700  0.64955700  0.64955700  1
  Hg  Hg40  1  0.10023500  0.28470500  0.38494000  1
  Hg  Hg41  1  0.00000000  0.00000000  0.35044300  1
  Hg  Hg42  1  0.93791600  0.83280300  0.10511300  1
  Hg  Hg43  1  0.58777800  0.09421700  0.68199500  1
  Hg  Hg44  1  0.09421700  0.50644000  0.41222200  1
  Hg  Hg45  1  0.31975400  0.82417100  0.79149500  1
  Hg  Hg46  1  0.00883800  0.27461800  0.73422000  1
  Hg  Hg47  1  0.06208400  0.16719700  0.89488700  1
  Hg  Hg48  1  0.79149500  0.96732400  0.47174100  1
  Hg  Hg49  1  0.09421700  0.68199500  0.58777800  1
  Hg  Hg50  1  0.73422000  0.45960200  0.72538200  1
  Hg  Hg51  1  0.89488700  0.06208400  0.16719700  1
  Hg  Hg52  1  0.03267600  0.52825900  0.20850500  1
  Hg  Hg53  1  0.96732400  0.47174100  0.79149500  1
  Hg  Hg54  1  0.83280300  0.89488700  0.72769000  1
  Hg  Hg55  1  0.72769000  0.83280300  0.89488700  1
  Hg  Hg56  1  0.49558300  0.31975400  0.52825900  1
  Hg  Hg57  1  0.35044300  0.35044300  0.35044300  1
  Hg  Hg58  1  0.18446900  0.89976500  0.28470500  1
  Hg  Hg59  1  0.89976500  0.71529500  0.61506000  1
  Hg  Hg60  1  0.10023500  0.71529500  0.81553100  1
  Hg  Hg61  1  0.00000000  0.00000000  0.64955700  1
  Hg  Hg62  1  0.71529500  0.61506000  0.89976500  1
  Hg  Hg63  1  0.83280300  0.10511300  0.93791600  1
  Hg  Hg64  1  0.89488700  0.72769000  0.83280300  1
  Hg  Hg65  1  0.47174100  0.50441700  0.68024600  1
  Hg  Hg66  1  0.50441700  0.03267600  0.82417100  1
  Hg  Hg67  1  0.41222200  0.09421700  0.50644000  1
  Hg  Hg68  1  0.52825900  0.49558300  0.31975400  1
  Hg  Hg69  1  0.72538200  0.26578000  0.99116200  1
  Hg  Hg70  1  0.79149500  0.31975400  0.82417100  1
  Hg  Hg71  1  0.82417100  0.50441700  0.03267600  1
  Hg  Hg72  1  0.00000000  0.35044300  0.00000000  1
  Hg  Hg73  1  0.61506000  0.89976500  0.71529500  1
  Hg  Hg74  1  0.28470500  0.18446900  0.89976500  1
  Hg  Hg75  1  0.68199500  0.58777800  0.09421700  1
  Hg  Hg76  1  0.50441700  0.68024600  0.47174100  1
  Hg  Hg77  1  0.52825900  0.20850500  0.03267600  1
  Hg  Hg78  1  0.49558300  0.96732400  0.17582900  1
  Hg  Hg79  1  0.00000000  0.00000000  0.00000000  1
  Hg  Hg80  1  0.27231000  0.16719700  0.10511300  1
  Hg  Hg81  1  0.90578300  0.31800500  0.41222200  1
  Hg  Hg82  1  0.20850500  0.68024600  0.17582900  1
  Hg  Hg83  1  0.26578000  0.54039800  0.27461800  1
  Hg  Hg84  1  0.89976500  0.28470500  0.18446900  1
  Hg  Hg85  1  0.71529500  0.81553100  0.10023500  1
  Hg  Hg86  1  0.16719700  0.10511300  0.27231000  1
