# generated using pymatgen
data_PbI2
_symmetry_space_group_name_H-M   'P 1'
_cell_length_a   4.67829894
_cell_length_b   4.67829894
_cell_length_c   31.58383900
_cell_angle_alpha   90.00000000
_cell_angle_beta   90.00000000
_cell_angle_gamma   120.00001329
_symmetry_Int_Tables_number   1
_chemical_formula_structural   PbI2
_chemical_formula_sum   'Pb4 I8'
_cell_volume   598.64785349
_cell_formula_units_Z   4
loop_
 _symmetry_equiv_pos_site_id
 _symmetry_equiv_pos_as_xyz
  1  'x, y, z'
loop_
 _atom_site_type_symbol
 _atom_site_label
 _atom_site_symmetry_multiplicity
 _atom_site_fract_x
 _atom_site_fract_y
 _atom_site_fract_z
 _atom_site_occupancy
  Pb  Pb0  1  0.66666700  0.33333300  0.25013100  1
  Pb  Pb1  1  0.66666700  0.33333300  0.49988100  1
  Pb  Pb2  1  0.33333300  0.66666700  0.75013100  1
  Pb  Pb3  1  0.33333300  0.66666700  0.99988100  1
  I  I4  1  0.66666700  0.33333300  0.69123900  1
  I  I5  1  0.00000000  0.00000000  0.30911800  1
  I  I6  1  0.00000000  0.00000000  0.55862900  1
  I  I7  1  0.33333300  0.66666700  0.44100200  1
  I  I8  1  0.33333300  0.66666700  0.19123900  1
  I  I9  1  0.00000000  0.00000000  0.80911800  1
  I  I10  1  0.66666700  0.33333300  0.94100200  1
  I  I11  1  0.00000000  0.00000000  0.05862900  1
