# generated using pymatgen
data_RbCr2BiO8
_symmetry_space_group_name_H-M   'P 1'
_cell_length_a   5.76568700
_cell_length_b   10.25961600
_cell_length_c   13.45428100
_cell_angle_alpha   90.00000000
_cell_angle_beta   90.00000000
_cell_angle_gamma   90.00000000
_symmetry_Int_Tables_number   1
_chemical_formula_structural   RbCr2BiO8
_chemical_formula_sum   'Rb4 Cr8 Bi4 O32'
_cell_volume   795.87096746
_cell_formula_units_Z   4
loop_
 _symmetry_equiv_pos_site_id
 _symmetry_equiv_pos_as_xyz
  1  'x, y, z'
loop_
 _atom_site_type_symbol
 _atom_site_label
 _atom_site_symmetry_multiplicity
 _atom_site_fract_x
 _atom_site_fract_y
 _atom_site_fract_z
 _atom_site_occupancy
  Rb  Rb0  1  0.25000000  0.58037400  0.75000000  1
  Rb  Rb1  1  0.25000000  0.91962600  0.25000000  1
  Rb  Rb2  1  0.75000000  0.08037400  0.75000000  1
  Rb  Rb3  1  0.75000000  0.41962600  0.25000000  1
  Cr  Cr4  1  0.73463500  0.41454200  0.91737200  1
  Cr  Cr5  1  0.26536500  0.58545800  0.08262800  1
  Cr  Cr6  1  0.73463500  0.08545800  0.08262800  1
  Cr  Cr7  1  0.26536500  0.91454200  0.91737200  1
  Cr  Cr8  1  0.23463500  0.91454200  0.58262800  1
  Cr  Cr9  1  0.76536500  0.41454200  0.58262800  1
  Cr  Cr10  1  0.76536500  0.08545800  0.41737200  1
  Cr  Cr11  1  0.23463500  0.58545800  0.41737200  1
  Bi  Bi12  1  0.29573700  0.25000000  0.50000000  1
  Bi  Bi13  1  0.79573700  0.75000000  0.00000000  1
  Bi  Bi14  1  0.20426300  0.25000000  0.00000000  1
  Bi  Bi15  1  0.70426300  0.75000000  0.50000000  1
  O  O16  1  0.47265800  0.34038800  0.90042100  1
  O  O17  1  0.81676800  0.10234600  0.96689800  1
  O  O18  1  0.05963600  0.65505200  0.14999700  1
  O  O19  1  0.94036400  0.15505200  0.14999700  1
  O  O20  1  0.21085300  0.42590100  0.38992700  1
  O  O21  1  0.97265800  0.84038800  0.59957900  1
  O  O22  1  0.28914700  0.07409900  0.88992700  1
  O  O23  1  0.31676800  0.60234600  0.53310200  1
  O  O24  1  0.18323200  0.89765400  0.03310200  1
  O  O25  1  0.55963600  0.34494800  0.64999700  1
  O  O26  1  0.81676800  0.39765400  0.03310200  1
  O  O27  1  0.68323200  0.39765400  0.46689800  1
  O  O28  1  0.52734200  0.84038800  0.90042100  1
  O  O29  1  0.55963600  0.15505200  0.35000300  1
  O  O30  1  0.44036400  0.65505200  0.35000300  1
  O  O31  1  0.21085300  0.07409900  0.61007300  1
  O  O32  1  0.18323200  0.60234600  0.96689800  1
  O  O33  1  0.71085300  0.92590100  0.11007300  1
  O  O34  1  0.47265800  0.15961200  0.09957900  1
  O  O35  1  0.97265800  0.65961200  0.40042100  1
  O  O36  1  0.94036400  0.34494800  0.85000300  1
  O  O37  1  0.78914700  0.92590100  0.38992700  1
  O  O38  1  0.78914700  0.57409900  0.61007300  1
  O  O39  1  0.05963600  0.84494800  0.85000300  1
  O  O40  1  0.68323200  0.10234600  0.53310200  1
  O  O41  1  0.02734200  0.34038800  0.59957900  1
  O  O42  1  0.28914700  0.42590100  0.11007300  1
  O  O43  1  0.44036400  0.84494800  0.64999700  1
  O  O44  1  0.02734200  0.15961200  0.40042100  1
  O  O45  1  0.71085300  0.57409900  0.88992700  1
  O  O46  1  0.31676800  0.89765400  0.46689800  1
  O  O47  1  0.52734200  0.65961200  0.09957900  1
