# generated using pymatgen
data_KUP3O11
_symmetry_space_group_name_H-M   'P 1'
_cell_length_a   8.70180900
_cell_length_b   15.09259200
_cell_length_c   20.23639112
_cell_angle_alpha   48.40880428
_cell_angle_beta   90.00000000
_cell_angle_gamma   90.00000000
_symmetry_Int_Tables_number   1
_chemical_formula_structural   KUP3O11
_chemical_formula_sum   'K8 U8 P24 O88'
_cell_volume   1987.69633072
_cell_formula_units_Z   8
loop_
 _symmetry_equiv_pos_site_id
 _symmetry_equiv_pos_as_xyz
  1  'x, y, z'
loop_
 _atom_site_type_symbol
 _atom_site_label
 _atom_site_symmetry_multiplicity
 _atom_site_fract_x
 _atom_site_fract_y
 _atom_site_fract_z
 _atom_site_occupancy
  K  K0  1  0.40984500  0.03958200  0.22032500  1
  K  K1  1  0.84686200  0.50064200  0.77511200  1
  K  K2  1  0.09015500  0.03958200  0.72032500  1
  K  K3  1  0.65313800  0.50064200  0.27511300  1
  K  K4  1  0.90984500  0.96041800  0.27967500  1
  K  K5  1  0.15313800  0.49935800  0.22488800  1
  K  K6  1  0.59015500  0.96041800  0.77967500  1
  K  K7  1  0.34686200  0.49935800  0.72488800  1
  U  U8  1  0.38927100  0.27178600  0.48539300  1
  U  U9  1  0.16939900  0.75955700  0.25872800  1
  U  U10  1  0.83060100  0.24044300  0.74127200  1
  U  U11  1  0.33060100  0.75955700  0.75872800  1
  U  U12  1  0.88927100  0.72821400  0.01460700  1
  U  U13  1  0.11072900  0.27178600  0.98539300  1
  U  U14  1  0.66939900  0.24044300  0.24127200  1
  U  U15  1  0.61072900  0.72821400  0.51460700  1
  P  P16  1  0.17723000  0.12262400  0.89717200  1
  P  P17  1  0.82277000  0.87737600  0.10282800  1
  P  P18  1  0.39912800  0.20008000  0.76121400  1
  P  P19  1  0.22751500  0.85827000  0.03897400  1
  P  P20  1  0.19999600  0.35956700  0.60713000  1
  P  P21  1  0.89912800  0.79992000  0.73878600  1
  P  P22  1  0.10087200  0.20008000  0.26121400  1
  P  P23  1  0.53542600  0.27822000  0.95962600  1
  P  P24  1  0.46457400  0.72178000  0.04037400  1
  P  P25  1  0.67723000  0.87737600  0.60282800  1
  P  P26  1  0.75333800  0.38244600  0.00898000  1
  P  P27  1  0.69999600  0.64043300  0.89287000  1
  P  P28  1  0.27248500  0.85827000  0.53897400  1
  P  P29  1  0.30000400  0.35956700  0.10713000  1
  P  P30  1  0.77248500  0.14173000  0.96102600  1
  P  P31  1  0.96457400  0.27822000  0.45962600  1
  P  P32  1  0.03542600  0.72178000  0.54037400  1
  P  P33  1  0.74666200  0.38244600  0.50898000  1
  P  P34  1  0.32277000  0.12262400  0.39717200  1
  P  P35  1  0.80000400  0.64043300  0.39287000  1
  P  P36  1  0.24666200  0.61755400  0.99102000  1
  P  P37  1  0.25333800  0.61755400  0.49102000  1
  P  P38  1  0.72751500  0.14173000  0.46102600  1
  P  P39  1  0.60087200  0.79992000  0.23878600  1
  O  O40  1  0.88049100  0.23402400  0.94252900  1
  O  O41  1  0.67896700  0.01552200  0.55350000  1
  O  O42  1  0.28920000  0.35612700  0.54535300  1
  O  O43  1  0.35425300  0.39591600  0.36885500  1
  O  O44  1  0.36124700  0.70974300  0.97944700  1
  O  O45  1  0.55511500  0.38183200  0.86391300  1
  O  O46  1  0.85108000  0.89504000  0.73805300  1
  O  O47  1  0.71080000  0.64387300  0.45464700  1
  O  O48  1  0.85425300  0.60408400  0.13114500  1
  O  O49  1  0.43839200  0.14612200  0.59838500  1
  O  O50  1  0.61950900  0.23402400  0.44252900  1
  O  O51  1  0.93839200  0.85387800  0.90161500  1
  O  O52  1  0.14892000  0.10496000  0.26194700  1
  O  O53  1  0.35108000  0.10496000  0.76194700  1
  O  O54  1  0.05732600  0.17746200  0.82641900  1
  O  O55  1  0.30930300  0.32509000  0.68607100  1
  O  O56  1  0.64574700  0.60408400  0.63114500  1
  O  O57  1  0.15996300  0.49460100  0.56020400  1
  O  O58  1  0.06491500  0.76545000  0.74863900  1
  O  O59  1  0.39295100  0.84233000  0.01234600  1
  O  O60  1  0.10704900  0.84233000  0.51234600  1
  O  O61  1  0.32267600  0.89395600  0.74174800  1
  O  O62  1  0.76335900  0.34952500  0.09682200  1
  O  O63  1  0.06160800  0.14612200  0.09838500  1
  O  O64  1  0.37921100  0.23858300  0.00368000  1
  O  O65  1  0.55732600  0.82253800  0.67358100  1
  O  O66  1  0.33262800  0.13805300  0.46293100  1
  O  O67  1  0.83262800  0.86194700  0.03706900  1
  O  O68  1  0.65658000  0.37528400  0.22212900  1
  O  O69  1  0.59799100  0.39212000  0.46623000  1
  O  O70  1  0.62078900  0.76141700  0.99632000  1
  O  O71  1  0.56491500  0.23455000  0.75136100  1
  O  O72  1  0.32103300  0.98447800  0.44650000  1
  O  O73  1  0.74453000  0.13383400  0.39140800  1
  O  O74  1  0.73664100  0.34952500  0.59682200  1
  O  O75  1  0.34003700  0.49460100  0.06020400  1
  O  O76  1  0.26335900  0.65047500  0.40317800  1
  O  O77  1  0.65661900  0.82827300  0.14930800  1
  O  O78  1  0.17732400  0.89395600  0.24174800  1
  O  O79  1  0.67732400  0.10604400  0.25825200  1
  O  O80  1  0.60704900  0.15767000  0.98765400  1
  O  O81  1  0.17896700  0.98447800  0.94650000  1
  O  O82  1  0.55245200  0.70937200  0.85418000  1
  O  O83  1  0.43508500  0.76545000  0.24863900  1
  O  O84  1  0.94488500  0.38183200  0.36391300  1
  O  O85  1  0.05245200  0.29062800  0.64582000  1
  O  O86  1  0.84342000  0.37528400  0.72212900  1
  O  O87  1  0.15661900  0.17172700  0.35069200  1
  O  O88  1  0.82267600  0.10604400  0.75825200  1
  O  O89  1  0.80930300  0.67491000  0.81392900  1
  O  O90  1  0.44754800  0.29062800  0.14582000  1
  O  O91  1  0.94267400  0.82253800  0.17358100  1
  O  O92  1  0.14574700  0.39591600  0.86885500  1
  O  O93  1  0.69069700  0.67491000  0.31392900  1
  O  O94  1  0.12078900  0.23858300  0.50368000  1
  O  O95  1  0.66737200  0.86194700  0.53706900  1
  O  O96  1  0.63875300  0.29025700  0.02055300  1
  O  O97  1  0.84338100  0.82827300  0.64930800  1
  O  O98  1  0.93508500  0.23455000  0.25136100  1
  O  O99  1  0.16737200  0.13805300  0.96293100  1
  O  O100  1  0.05511500  0.61816800  0.63608700  1
  O  O101  1  0.38049100  0.76597600  0.55747100  1
  O  O102  1  0.90200900  0.39212000  0.96623000  1
  O  O103  1  0.21080000  0.35612700  0.04535300  1
  O  O104  1  0.15658000  0.62471600  0.27787100  1
  O  O105  1  0.23664100  0.65047500  0.90317800  1
  O  O106  1  0.19069700  0.32509000  0.18607100  1
  O  O107  1  0.34342000  0.62471600  0.77787100  1
  O  O108  1  0.09799100  0.60788000  0.03377000  1
  O  O109  1  0.78920000  0.64387300  0.95464700  1
  O  O110  1  0.25547000  0.86616600  0.60859200  1
  O  O111  1  0.40200900  0.60788000  0.53377000  1
  O  O112  1  0.24453000  0.86616600  0.10859200  1
  O  O113  1  0.89295100  0.15767000  0.48765400  1
  O  O114  1  0.56160800  0.85387800  0.40161500  1
  O  O115  1  0.75547000  0.13383400  0.89140800  1
  O  O116  1  0.44267400  0.17746200  0.32641900  1
  O  O117  1  0.87921100  0.76141700  0.49632000  1
  O  O118  1  0.13875300  0.70974300  0.47944700  1
  O  O119  1  0.65996300  0.50539900  0.93979600  1
  O  O120  1  0.44488500  0.61816800  0.13608700  1
  O  O121  1  0.82103300  0.01552200  0.05350000  1
  O  O122  1  0.94754800  0.70937200  0.35418000  1
  O  O123  1  0.11950900  0.76597600  0.05747100  1
  O  O124  1  0.34338100  0.17172700  0.85069200  1
  O  O125  1  0.64892000  0.89504000  0.23805300  1
  O  O126  1  0.84003700  0.50539900  0.43979600  1
  O  O127  1  0.86124700  0.29025700  0.52055300  1
