# generated using pymatgen
data_Li3Er(NO3)6
_symmetry_space_group_name_H-M   'P 1'
_cell_length_a   7.64576400
_cell_length_b   7.92331900
_cell_length_c   25.60829939
_cell_angle_alpha   72.99376047
_cell_angle_beta   90.00000000
_cell_angle_gamma   90.00000000
_symmetry_Int_Tables_number   1
_chemical_formula_structural   Li3Er(NO3)6
_chemical_formula_sum   'Li12 Er4 N24 O72'
_cell_volume   1483.51049101
_cell_formula_units_Z   4
loop_
 _symmetry_equiv_pos_site_id
 _symmetry_equiv_pos_as_xyz
  1  'x, y, z'
loop_
 _atom_site_type_symbol
 _atom_site_label
 _atom_site_symmetry_multiplicity
 _atom_site_fract_x
 _atom_site_fract_y
 _atom_site_fract_z
 _atom_site_occupancy
  Li  Li0  1  0.31517300  0.57749100  0.13555100  1
  Li  Li1  1  0.44043800  0.75609100  0.74536000  1
  Li  Li2  1  0.21128400  0.28188500  0.97532400  1
  Li  Li3  1  0.94043800  0.24390900  0.75464000  1
  Li  Li4  1  0.05956200  0.75609100  0.24536000  1
  Li  Li5  1  0.55956200  0.24390900  0.25464000  1
  Li  Li6  1  0.78871600  0.71811500  0.02467600  1
  Li  Li7  1  0.68482700  0.42250900  0.86444900  1
  Li  Li8  1  0.81517300  0.42250900  0.36444900  1
  Li  Li9  1  0.18482700  0.57749100  0.63555100  1
  Li  Li10  1  0.71128400  0.71811500  0.52467600  1
  Li  Li11  1  0.28871600  0.28188500  0.47532400  1
  Er  Er12  1  0.30475800  0.86602900  0.39056200  1
  Er  Er13  1  0.69524200  0.13397100  0.60943800  1
  Er  Er14  1  0.19524200  0.86602900  0.89056200  1
  Er  Er15  1  0.80475800  0.13397100  0.10943800  1
  N  N16  1  0.87744300  0.95983600  0.93562700  1
  N  N17  1  0.79897900  0.49979000  0.26463800  1
  N  N18  1  0.88300100  0.82228300  0.60598000  1
  N  N19  1  0.61699900  0.82228300  0.10598000  1
  N  N20  1  0.12255700  0.04016400  0.06437300  1
  N  N21  1  0.50296100  0.70293400  0.94559400  1
  N  N22  1  0.30203200  0.96723600  0.27217300  1
  N  N23  1  0.69796800  0.03276400  0.72782700  1
  N  N24  1  0.49619400  0.45316800  0.59779500  1
  N  N25  1  0.11699900  0.17771700  0.39402000  1
  N  N26  1  0.50380600  0.54683200  0.40220500  1
  N  N27  1  0.38300100  0.17771700  0.89402000  1
  N  N28  1  0.62255700  0.95983600  0.43562700  1
  N  N29  1  0.00296100  0.29706600  0.55440600  1
  N  N30  1  0.19796800  0.96723600  0.77217300  1
  N  N31  1  0.37744300  0.04016400  0.56437300  1
  N  N32  1  0.99619400  0.54683200  0.90220500  1
  N  N33  1  0.49703900  0.29706600  0.05440600  1
  N  N34  1  0.00380600  0.45316800  0.09779500  1
  N  N35  1  0.29897900  0.50021000  0.23536200  1
  N  N36  1  0.70102100  0.49979000  0.76463800  1
  N  N37  1  0.99703900  0.70293400  0.44559400  1
  N  N38  1  0.20102100  0.50021000  0.73536200  1
  N  N39  1  0.80203200  0.03276400  0.22782700  1
  O  O40  1  0.20381900  0.45936200  0.78584900  1
  O  O41  1  0.86169800  0.45881000  0.07015600  1
  O  O42  1  0.36240800  0.36368700  0.02939000  1
  O  O43  1  0.89675600  0.95363200  0.20044900  1
  O  O44  1  0.90204400  0.41439000  0.90982100  1
  O  O45  1  0.25752900  0.00490100  0.04336600  1
  O  O46  1  0.38904700  0.78197500  0.96693000  1
  O  O47  1  0.92529200  0.03740900  0.88733000  1
  O  O48  1  0.59795600  0.41439000  0.40982100  1
  O  O49  1  0.86240800  0.63631300  0.47061000  1
  O  O50  1  0.96684200  0.69437800  0.60064900  1
  O  O51  1  0.48091500  0.16669300  0.53628100  1
  O  O52  1  0.74016500  0.86916200  0.57870300  1
  O  O53  1  0.75983500  0.86916200  0.07870300  1
  O  O54  1  0.10798000  0.41567500  0.70946700  1
  O  O55  1  0.07086800  0.08628000  0.36314600  1
  O  O56  1  0.88904700  0.21802500  0.53307000  1
  O  O57  1  0.80027100  0.99144800  0.27774400  1
  O  O58  1  0.98091500  0.83330700  0.96371900  1
  O  O59  1  0.11095300  0.78197500  0.46693000  1
  O  O60  1  0.07470800  0.96259100  0.11267000  1
  O  O61  1  0.39202000  0.41567500  0.20946700  1
  O  O62  1  0.04076900  0.30575600  0.13228700  1
  O  O63  1  0.42913200  0.08628000  0.86314600  1
  O  O64  1  0.01908500  0.16669300  0.03628100  1
  O  O65  1  0.53315800  0.69437800  0.10064900  1
  O  O66  1  0.24016500  0.13083800  0.92129700  1
  O  O67  1  0.79618100  0.54063800  0.21415100  1
  O  O68  1  0.19972900  0.00855200  0.72225600  1
  O  O69  1  0.54076900  0.69424400  0.36771300  1
  O  O70  1  0.57470800  0.03740900  0.38733000  1
  O  O71  1  0.95923100  0.69424400  0.86771300  1
  O  O72  1  0.57086800  0.91372000  0.13685400  1
  O  O73  1  0.02855700  0.69597400  0.39739200  1
  O  O74  1  0.29201100  0.83911100  0.80200700  1
  O  O75  1  0.79201100  0.16088900  0.69799300  1
  O  O76  1  0.25983500  0.13083800  0.42129700  1
  O  O77  1  0.46684200  0.30562200  0.89935100  1
  O  O78  1  0.20798900  0.83911100  0.30200700  1
  O  O79  1  0.70980400  0.37027300  0.29473400  1
  O  O80  1  0.70798900  0.16088900  0.19799300  1
  O  O81  1  0.63759200  0.63631300  0.97061000  1
  O  O82  1  0.13759200  0.36368700  0.52939000  1
  O  O83  1  0.79019600  0.37027300  0.79473400  1
  O  O84  1  0.52855700  0.30402600  0.10260800  1
  O  O85  1  0.45923100  0.30575600  0.63228700  1
  O  O86  1  0.20980400  0.62972700  0.20526600  1
  O  O87  1  0.09795600  0.58561000  0.09017900  1
  O  O88  1  0.40204400  0.58561000  0.59017900  1
  O  O89  1  0.60798000  0.58432500  0.79053300  1
  O  O90  1  0.36169800  0.54119000  0.42984400  1
  O  O91  1  0.74247100  0.99509900  0.95663400  1
  O  O92  1  0.51908500  0.83330700  0.46371900  1
  O  O93  1  0.92913200  0.91372000  0.63685400  1
  O  O94  1  0.10324400  0.04636800  0.79955100  1
  O  O95  1  0.47144300  0.69597400  0.89739200  1
  O  O96  1  0.29618100  0.45936200  0.28584900  1
  O  O97  1  0.03315800  0.30562200  0.39935100  1
  O  O98  1  0.63830200  0.45881000  0.57015600  1
  O  O99  1  0.29019600  0.62972700  0.70526600  1
  O  O100  1  0.97144300  0.30402600  0.60260800  1
  O  O101  1  0.39675600  0.04636800  0.29955100  1
  O  O102  1  0.42529200  0.96259100  0.61267000  1
  O  O103  1  0.13830200  0.54119000  0.92984400  1
  O  O104  1  0.24247100  0.00490100  0.54336600  1
  O  O105  1  0.30027100  0.00855200  0.22225600  1
  O  O106  1  0.75752900  0.99509900  0.45663400  1
  O  O107  1  0.69972900  0.99144800  0.77774400  1
  O  O108  1  0.89202000  0.58432500  0.29053300  1
  O  O109  1  0.60324400  0.95363200  0.70044900  1
  O  O110  1  0.61095300  0.21802500  0.03307000  1
  O  O111  1  0.70381900  0.54063800  0.71415100  1
