# generated using pymatgen
data_Zr6NCl15
_symmetry_space_group_name_H-M   'P 1'
_cell_length_a   18.71649426
_cell_length_b   18.71649426
_cell_length_c   18.71649426
_cell_angle_alpha   109.47122063
_cell_angle_beta   109.47122063
_cell_angle_gamma   109.47122063
_symmetry_Int_Tables_number   1
_chemical_formula_structural   Zr6NCl15
_chemical_formula_sum   'Zr48 N8 Cl120'
_cell_volume   5047.21291320
_cell_formula_units_Z   8
loop_
 _symmetry_equiv_pos_site_id
 _symmetry_equiv_pos_as_xyz
  1  'x, y, z'
loop_
 _atom_site_type_symbol
 _atom_site_label
 _atom_site_symmetry_multiplicity
 _atom_site_fract_x
 _atom_site_fract_y
 _atom_site_fract_z
 _atom_site_occupancy
  Zr  Zr0  1  0.59529900  0.98097200  0.95463500  1
  Zr  Zr1  1  0.59529900  0.11432700  0.64066400  1
  Zr  Zr2  1  0.51902800  0.90470100  0.54536500  1
  Zr  Zr3  1  0.09529900  0.45463500  0.48097200  1
  Zr  Zr4  1  0.09529900  0.14066400  0.61432700  1
  Zr  Zr5  1  0.01902800  0.04536500  0.40470100  1
  Zr  Zr6  1  0.64066400  0.54536500  0.52633700  1
  Zr  Zr7  1  0.95463500  0.85933600  0.97366300  1
  Zr  Zr8  1  0.97366300  0.95463500  0.85933600  1
  Zr  Zr9  1  0.85933600  0.38567300  0.90470100  1
  Zr  Zr10  1  0.95463500  0.59529900  0.98097200  1
  Zr  Zr11  1  0.97366300  0.51902800  0.11432700  1
  Zr  Zr12  1  0.14066400  0.02633700  0.04536500  1
  Zr  Zr13  1  0.45463500  0.47366300  0.35933600  1
  Zr  Zr14  1  0.47366300  0.35933600  0.45463500  1
  Zr  Zr15  1  0.35933600  0.40470100  0.88567300  1
  Zr  Zr16  1  0.45463500  0.48097200  0.09529900  1
  Zr  Zr17  1  0.47366300  0.61432700  0.01902800  1
  Zr  Zr18  1  0.11432700  0.97366300  0.51902800  1
  Zr  Zr19  1  0.98097200  0.52633700  0.38567300  1
  Zr  Zr20  1  0.11432700  0.64066400  0.59529900  1
  Zr  Zr21  1  0.61432700  0.01902800  0.47366300  1
  Zr  Zr22  1  0.48097200  0.88567300  0.02633700  1
  Zr  Zr23  1  0.61432700  0.09529900  0.14066400  1
  Zr  Zr24  1  0.38567300  0.90470100  0.85933600  1
  Zr  Zr25  1  0.51902800  0.11432700  0.97366300  1
  Zr  Zr26  1  0.38567300  0.98097200  0.52633700  1
  Zr  Zr27  1  0.88567300  0.35933600  0.40470100  1
  Zr  Zr28  1  0.01902800  0.47366300  0.61432700  1
  Zr  Zr29  1  0.88567300  0.02633700  0.48097200  1
  Zr  Zr30  1  0.52633700  0.38567300  0.98097200  1
  Zr  Zr31  1  0.54536500  0.51902800  0.90470100  1
  Zr  Zr32  1  0.64066400  0.59529900  0.11432700  1
  Zr  Zr33  1  0.52633700  0.64066400  0.54536500  1
  Zr  Zr34  1  0.54536500  0.52633700  0.64066400  1
  Zr  Zr35  1  0.85933600  0.97366300  0.95463500  1
  Zr  Zr36  1  0.02633700  0.48097200  0.88567300  1
  Zr  Zr37  1  0.04536500  0.40470100  0.01902800  1
  Zr  Zr38  1  0.14066400  0.61432700  0.09529900  1
  Zr  Zr39  1  0.02633700  0.04536500  0.14066400  1
  Zr  Zr40  1  0.04536500  0.14066400  0.02633700  1
  Zr  Zr41  1  0.35933600  0.45463500  0.47366300  1
  Zr  Zr42  1  0.98097200  0.95463500  0.59529900  1
  Zr  Zr43  1  0.90470100  0.85933600  0.38567300  1
  Zr  Zr44  1  0.90470100  0.54536500  0.51902800  1
  Zr  Zr45  1  0.48097200  0.09529900  0.45463500  1
  Zr  Zr46  1  0.40470100  0.88567300  0.35933600  1
  Zr  Zr47  1  0.40470100  0.01902800  0.04536500  1
  N  N48  1  0.00000000  0.50000000  0.50000000  1
  N  N49  1  0.00000000  0.00000000  0.50000000  1
  N  N50  1  0.00000000  0.50000000  0.00000000  1
  N  N51  1  0.00000000  0.00000000  0.00000000  1
  N  N52  1  0.50000000  0.50000000  0.50000000  1
  N  N53  1  0.50000000  0.00000000  0.50000000  1
  N  N54  1  0.50000000  0.50000000  0.00000000  1
  N  N55  1  0.50000000  0.00000000  0.00000000  1
  Cl  Cl56  1  0.05210600  0.44789400  0.75000000  1
  Cl  Cl57  1  0.73111100  0.08877600  0.10359500  1
  Cl  Cl58  1  0.41122400  0.76888900  0.39640500  1
  Cl  Cl59  1  0.73111100  0.14233400  0.62751600  1
  Cl  Cl60  1  0.55210600  0.25000000  0.94789400  1
  Cl  Cl61  1  0.23111100  0.60359500  0.58877600  1
  Cl  Cl62  1  0.91122400  0.89640500  0.26888900  1
  Cl  Cl63  1  0.23111100  0.12751600  0.64233400  1
  Cl  Cl64  1  0.30210600  0.75000000  0.19789400  1
  Cl  Cl65  1  0.62751600  0.39640500  0.48518100  1
  Cl  Cl66  1  0.01481900  0.10359500  0.87248400  1
  Cl  Cl67  1  0.39486400  0.02123600  0.81615900  1
  Cl  Cl68  1  0.10359500  0.87248400  0.01481900  1
  Cl  Cl69  1  0.80210600  0.69789400  0.25000000  1
  Cl  Cl70  1  0.87248400  0.35766600  0.76888900  1
  Cl  Cl71  1  0.10359500  0.73111100  0.08877600  1
  Cl  Cl72  1  0.01481900  0.41122400  0.14233400  1
  Cl  Cl73  1  0.12751600  0.98518100  0.89640500  1
  Cl  Cl74  1  0.51481900  0.37248400  0.60359500  1
  Cl  Cl75  1  0.47876400  0.10513600  0.68384100  1
  Cl  Cl76  1  0.39486400  0.87362800  0.57870500  1
  Cl  Cl77  1  0.05210600  0.10421300  0.30210600  1
  Cl  Cl78  1  0.47876400  0.87362800  0.79492300  1
  Cl  Cl79  1  0.89486400  0.31615900  0.52123600  1
  Cl  Cl80  1  0.62637200  0.10513600  0.92129500  1
  Cl  Cl81  1  0.60359500  0.51481900  0.37248400  1
  Cl  Cl82  1  0.10421300  0.30210600  0.05210600  1
  Cl  Cl83  1  0.37248400  0.26888900  0.85766600  1
  Cl  Cl84  1  0.51481900  0.64233400  0.91122400  1
  Cl  Cl85  1  0.60359500  0.58877600  0.23111100  1
  Cl  Cl86  1  0.14233400  0.01481900  0.41122400  1
  Cl  Cl87  1  0.14233400  0.62751600  0.73111100  1
  Cl  Cl88  1  0.97876400  0.18384100  0.60513600  1
  Cl  Cl89  1  0.62637200  0.02123600  0.70507700  1
  Cl  Cl90  1  0.89486400  0.07870500  0.37362800  1
  Cl  Cl91  1  0.55210600  0.80210600  0.60421300  1
  Cl  Cl92  1  0.97876400  0.29492300  0.37362800  1
  Cl  Cl93  1  0.57870500  0.68384100  0.70507700  1
  Cl  Cl94  1  0.12637200  0.42129500  0.60513600  1
  Cl  Cl95  1  0.08877600  0.48518100  0.35766600  1
  Cl  Cl96  1  0.60421300  0.55210600  0.80210600  1
  Cl  Cl97  1  0.57870500  0.39486400  0.87362800  1
  Cl  Cl98  1  0.70507700  0.62637200  0.02123600  1
  Cl  Cl99  1  0.68384100  0.47876400  0.10513600  1
  Cl  Cl100  1  0.64233400  0.91122400  0.51481900  1
  Cl  Cl101  1  0.64233400  0.23111100  0.12751600  1
  Cl  Cl102  1  0.79492300  0.81615900  0.92129500  1
  Cl  Cl103  1  0.12637200  0.20507700  0.52123600  1
  Cl  Cl104  1  0.81615900  0.92129500  0.79492300  1
  Cl  Cl105  1  0.19789400  0.39578700  0.44789400  1
  Cl  Cl106  1  0.75000000  0.05210600  0.44789400  1
  Cl  Cl107  1  0.75000000  0.19789400  0.30210600  1
  Cl  Cl108  1  0.30210600  0.05210600  0.10421300  1
  Cl  Cl109  1  0.68384100  0.70507700  0.57870500  1
  Cl  Cl110  1  0.07870500  0.20507700  0.18384100  1
  Cl  Cl111  1  0.70507700  0.57870500  0.68384100  1
  Cl  Cl112  1  0.58877600  0.85766600  0.98518100  1
  Cl  Cl113  1  0.07870500  0.37362800  0.89486400  1
  Cl  Cl114  1  0.18384100  0.60513600  0.97876400  1
  Cl  Cl115  1  0.20507700  0.52123600  0.12637200  1
  Cl  Cl116  1  0.79492300  0.47876400  0.87362800  1
  Cl  Cl117  1  0.81615900  0.39486400  0.02123600  1
  Cl  Cl118  1  0.92129500  0.62637200  0.10513600  1
  Cl  Cl119  1  0.41122400  0.14233400  0.01481900  1
  Cl  Cl120  1  0.29492300  0.42129500  0.31615900  1
  Cl  Cl121  1  0.92129500  0.79492300  0.81615900  1
  Cl  Cl122  1  0.31615900  0.29492300  0.42129500  1
  Cl  Cl123  1  0.69789400  0.94789400  0.89578700  1
  Cl  Cl124  1  0.25000000  0.80210600  0.69789400  1
  Cl  Cl125  1  0.25000000  0.94789400  0.55210600  1
  Cl  Cl126  1  0.80210600  0.60421300  0.55210600  1
  Cl  Cl127  1  0.18384100  0.07870500  0.20507700  1
  Cl  Cl128  1  0.87362800  0.79492300  0.47876400  1
  Cl  Cl129  1  0.20507700  0.18384100  0.07870500  1
  Cl  Cl130  1  0.35766600  0.76888900  0.87248400  1
  Cl  Cl131  1  0.35766600  0.08877600  0.48518100  1
  Cl  Cl132  1  0.31615900  0.52123600  0.89486400  1
  Cl  Cl133  1  0.29492300  0.37362800  0.97876400  1
  Cl  Cl134  1  0.42129500  0.60513600  0.12637200  1
  Cl  Cl135  1  0.39578700  0.44789400  0.19789400  1
  Cl  Cl136  1  0.91122400  0.51481900  0.64233400  1
  Cl  Cl137  1  0.87362800  0.57870500  0.39486400  1
  Cl  Cl138  1  0.42129500  0.31615900  0.29492300  1
  Cl  Cl139  1  0.02123600  0.70507700  0.62637200  1
  Cl  Cl140  1  0.44789400  0.19789400  0.39578700  1
  Cl  Cl141  1  0.10513600  0.92129500  0.62637200  1
  Cl  Cl142  1  0.37362800  0.97876400  0.29492300  1
  Cl  Cl143  1  0.02123600  0.81615900  0.39486400  1
  Cl  Cl144  1  0.85766600  0.37248400  0.26888900  1
  Cl  Cl145  1  0.85766600  0.98518100  0.58877600  1
  Cl  Cl146  1  0.39640500  0.41122400  0.76888900  1
  Cl  Cl147  1  0.48518100  0.35766600  0.08877600  1
  Cl  Cl148  1  0.62751600  0.73111100  0.14233400  1
  Cl  Cl149  1  0.89578700  0.69789400  0.94789400  1
  Cl  Cl150  1  0.39640500  0.48518100  0.62751600  1
  Cl  Cl151  1  0.37362800  0.89486400  0.07870500  1
  Cl  Cl152  1  0.10513600  0.68384100  0.47876400  1
  Cl  Cl153  1  0.52123600  0.12637200  0.20507700  1
  Cl  Cl154  1  0.94789400  0.89578700  0.69789400  1
  Cl  Cl155  1  0.60513600  0.12637200  0.42129500  1
  Cl  Cl156  1  0.52123600  0.89486400  0.31615900  1
  Cl  Cl157  1  0.48518100  0.62751600  0.39640500  1
  Cl  Cl158  1  0.87248400  0.01481900  0.10359500  1
  Cl  Cl159  1  0.98518100  0.58877600  0.85766600  1
  Cl  Cl160  1  0.89640500  0.26888900  0.91122400  1
  Cl  Cl161  1  0.12751600  0.64233400  0.23111100  1
  Cl  Cl162  1  0.19789400  0.30210600  0.75000000  1
  Cl  Cl163  1  0.89640500  0.12751600  0.98518100  1
  Cl  Cl164  1  0.60513600  0.97876400  0.18384100  1
  Cl  Cl165  1  0.98518100  0.89640500  0.12751600  1
  Cl  Cl166  1  0.37248400  0.60359500  0.51481900  1
  Cl  Cl167  1  0.69789400  0.25000000  0.80210600  1
  Cl  Cl168  1  0.76888900  0.87248400  0.35766600  1
  Cl  Cl169  1  0.08877600  0.10359500  0.73111100  1
  Cl  Cl170  1  0.76888900  0.39640500  0.41122400  1
  Cl  Cl171  1  0.44789400  0.75000000  0.05210600  1
  Cl  Cl172  1  0.26888900  0.85766600  0.37248400  1
  Cl  Cl173  1  0.58877600  0.23111100  0.60359500  1
  Cl  Cl174  1  0.26888900  0.91122400  0.89640500  1
  Cl  Cl175  1  0.94789400  0.55210600  0.25000000  1
