# generated using pymatgen
data_Ca(CuSn)2
_symmetry_space_group_name_H-M   'P 1'
_cell_length_a   5.89567991
_cell_length_b   5.89567991
_cell_length_c   4.87702696
_cell_angle_alpha   73.43398050
_cell_angle_beta   73.43398050
_cell_angle_gamma   42.25904862
_symmetry_Int_Tables_number   1
_chemical_formula_structural   Ca(CuSn)2
_chemical_formula_sum   'Ca1 Cu2 Sn2'
_cell_volume   108.54361066
_cell_formula_units_Z   1
loop_
 _symmetry_equiv_pos_site_id
 _symmetry_equiv_pos_as_xyz
  1  'x, y, z'
loop_
 _atom_site_type_symbol
 _atom_site_label
 _atom_site_symmetry_multiplicity
 _atom_site_fract_x
 _atom_site_fract_y
 _atom_site_fract_z
 _atom_site_occupancy
  Ca  Ca0  1  0.00000000  0.00000000  0.00000000  1
  Cu  Cu1  1  0.73674500  0.73674500  0.86672600  1
  Cu  Cu2  1  0.26325500  0.26325500  0.13327400  1
  Sn  Sn3  1  0.35698500  0.35698500  0.56817600  1
  Sn  Sn4  1  0.64301500  0.64301500  0.43182400  1
