# generated using pymatgen
data_Tl3Ag3(AsS3)2
_symmetry_space_group_name_H-M   'P 1'
_cell_length_a   12.00955500
_cell_length_b   11.36361100
_cell_length_c   12.12779793
_cell_angle_alpha   59.74760451
_cell_angle_beta   90.00000000
_cell_angle_gamma   90.00000000
_symmetry_Int_Tables_number   1
_chemical_formula_structural   Tl3Ag3(AsS3)2
_chemical_formula_sum   'Tl12 Ag12 As8 S24'
_cell_volume   1429.70253362
_cell_formula_units_Z   4
loop_
 _symmetry_equiv_pos_site_id
 _symmetry_equiv_pos_as_xyz
  1  'x, y, z'
loop_
 _atom_site_type_symbol
 _atom_site_label
 _atom_site_symmetry_multiplicity
 _atom_site_fract_x
 _atom_site_fract_y
 _atom_site_fract_z
 _atom_site_occupancy
  Tl  Tl0  1  0.98513800  0.80018400  0.47659600  1
  Tl  Tl1  1  0.11610300  0.21623800  0.88694200  1
  Tl  Tl2  1  0.75274200  0.16180200  0.27325600  1
  Tl  Tl3  1  0.48513800  0.19981600  0.02340400  1
  Tl  Tl4  1  0.51486200  0.80018400  0.97659600  1
  Tl  Tl5  1  0.01486200  0.19981600  0.52340400  1
  Tl  Tl6  1  0.38389700  0.21623800  0.38694200  1
  Tl  Tl7  1  0.61610300  0.78376200  0.61305800  1
  Tl  Tl8  1  0.25274200  0.83819800  0.22674400  1
  Tl  Tl9  1  0.24725800  0.83819800  0.72674400  1
  Tl  Tl10  1  0.74725800  0.16180200  0.77325600  1
  Tl  Tl11  1  0.88389700  0.78376200  0.11305800  1
  Ag  Ag12  1  0.62542900  0.53286100  0.54586400  1
  Ag  Ag13  1  0.87457100  0.53286100  0.04586400  1
  Ag  Ag14  1  0.12542900  0.46713900  0.95413600  1
  Ag  Ag15  1  0.34702600  0.88558000  0.42876200  1
  Ag  Ag16  1  0.35890700  0.47037500  0.07283700  1
  Ag  Ag17  1  0.84702600  0.11442000  0.07123800  1
  Ag  Ag18  1  0.15297400  0.88558000  0.92876200  1
  Ag  Ag19  1  0.37457100  0.46713900  0.45413600  1
  Ag  Ag20  1  0.64109300  0.52962500  0.92716300  1
  Ag  Ag21  1  0.65297400  0.11442000  0.57123800  1
  Ag  Ag22  1  0.85890700  0.52962500  0.42716300  1
  Ag  Ag23  1  0.14109300  0.47037500  0.57283700  1
  As  As24  1  0.90314400  0.84206200  0.75609700  1
  As  As25  1  0.59685600  0.84206200  0.25609700  1
  As  As26  1  0.14446900  0.50621700  0.24405300  1
  As  As27  1  0.40314400  0.15793800  0.74390300  1
  As  As28  1  0.35553100  0.50621700  0.74405300  1
  As  As29  1  0.85553100  0.49378300  0.75594700  1
  As  As30  1  0.64446900  0.49378300  0.25594700  1
  As  As31  1  0.09685600  0.15793800  0.24390300  1
  S  S32  1  0.82296000  0.99462900  0.56188700  1
  S  S33  1  0.57558100  0.37890100  0.16005400  1
  S  S34  1  0.75544800  0.74474200  0.89094100  1
  S  S35  1  0.41604300  0.63693200  0.53710900  1
  S  S36  1  0.82484800  0.42551800  0.28355900  1
  S  S37  1  0.96785900  0.99366000  0.81237100  1
  S  S38  1  0.25544800  0.25525800  0.60905900  1
  S  S39  1  0.03214100  0.00634000  0.18762900  1
  S  S40  1  0.53214100  0.99366000  0.31237100  1
  S  S41  1  0.24455200  0.25525800  0.10905900  1
  S  S42  1  0.92441900  0.37890100  0.66005400  1
  S  S43  1  0.67515200  0.42551800  0.78355900  1
  S  S44  1  0.42441900  0.62109900  0.83994600  1
  S  S45  1  0.67704000  0.99462900  0.06188700  1
  S  S46  1  0.17704000  0.00537100  0.43811300  1
  S  S47  1  0.46785900  0.00634000  0.68762900  1
  S  S48  1  0.58395700  0.36306800  0.46289100  1
  S  S49  1  0.17515200  0.57448200  0.71644100  1
  S  S50  1  0.32296000  0.00537100  0.93811300  1
  S  S51  1  0.07558100  0.62109900  0.33994600  1
  S  S52  1  0.91604300  0.36306800  0.96289100  1
  S  S53  1  0.74455200  0.74474200  0.39094100  1
  S  S54  1  0.32484800  0.57448200  0.21644100  1
  S  S55  1  0.08395700  0.63693200  0.03710900  1
