# generated using pymatgen
data_Er3(CuGe)4
_symmetry_space_group_name_H-M   'P 1'
_cell_length_a   7.94960730
_cell_length_b   7.94960730
_cell_length_c   7.94960730
_cell_angle_alpha   149.55570867
_cell_angle_beta   130.61942190
_cell_angle_gamma   59.12586879
_symmetry_Int_Tables_number   1
_chemical_formula_structural   Er3(CuGe)4
_chemical_formula_sum   'Er3 Cu4 Ge4'
_cell_volume   191.70514078
_cell_formula_units_Z   1
loop_
 _symmetry_equiv_pos_site_id
 _symmetry_equiv_pos_as_xyz
  1  'x, y, z'
loop_
 _atom_site_type_symbol
 _atom_site_label
 _atom_site_symmetry_multiplicity
 _atom_site_fract_x
 _atom_site_fract_y
 _atom_site_fract_z
 _atom_site_occupancy
  Er  Er0  1  0.87100600  0.37100600  0.50000000  1
  Er  Er1  1  0.12899400  0.62899400  0.50000000  1
  Er  Er2  1  0.50000000  0.50000000  0.00000000  1
  Cu  Cu3  1  0.13705700  0.82886000  0.30819600  1
  Cu  Cu4  1  0.52066400  0.82886000  0.69180400  1
  Cu  Cu5  1  0.86294300  0.17114000  0.69180400  1
  Cu  Cu6  1  0.47933600  0.17114000  0.30819600  1
  Ge  Ge7  1  0.80660000  0.00000000  0.80660000  1
  Ge  Ge8  1  0.28355500  0.28355500  0.00000000  1
  Ge  Ge9  1  0.71644500  0.71644500  0.00000000  1
  Ge  Ge10  1  0.19340000  0.00000000  0.19340000  1
