# generated using pymatgen
data_OsOF5
_symmetry_space_group_name_H-M   'P 1'
_cell_length_a   5.23789500
_cell_length_b   8.92127100
_cell_length_c   9.69459900
_cell_angle_alpha   90.00000000
_cell_angle_beta   90.00000000
_cell_angle_gamma   90.00000000
_symmetry_Int_Tables_number   1
_chemical_formula_structural   OsOF5
_chemical_formula_sum   'Os4 O4 F20'
_cell_volume   453.01582181
_cell_formula_units_Z   4
loop_
 _symmetry_equiv_pos_site_id
 _symmetry_equiv_pos_as_xyz
  1  'x, y, z'
loop_
 _atom_site_type_symbol
 _atom_site_label
 _atom_site_symmetry_multiplicity
 _atom_site_fract_x
 _atom_site_fract_y
 _atom_site_fract_z
 _atom_site_occupancy
  Os  Os0  1  0.92632300  0.75000000  0.11547400  1
  Os  Os1  1  0.42632300  0.25000000  0.38452600  1
  Os  Os2  1  0.07367700  0.25000000  0.88452600  1
  Os  Os3  1  0.57367700  0.75000000  0.61547400  1
  O  O4  1  0.18995800  0.75000000  0.01421700  1
  O  O5  1  0.68995800  0.25000000  0.48578300  1
  O  O6  1  0.81004200  0.25000000  0.98578300  1
  O  O7  1  0.31004200  0.75000000  0.51421700  1
  F  F8  1  0.62504800  0.75000000  0.22577000  1
  F  F9  1  0.12504800  0.25000000  0.27423000  1
  F  F10  1  0.37495200  0.25000000  0.77423000  1
  F  F11  1  0.87495200  0.75000000  0.72577000  1
  F  F12  1  0.75562400  0.89912700  0.01329400  1
  F  F13  1  0.25562400  0.10087300  0.48670600  1
  F  F14  1  0.24437600  0.39912700  0.98670600  1
  F  F15  1  0.74437600  0.60087300  0.51329400  1
  F  F16  1  0.24437600  0.10087300  0.98670600  1
  F  F17  1  0.74437600  0.89912700  0.51329400  1
  F  F18  1  0.75562400  0.60087300  0.01329400  1
  F  F19  1  0.25562400  0.39912700  0.48670600  1
  F  F20  1  0.04365600  0.89795900  0.23790400  1
  F  F21  1  0.54365600  0.10204100  0.26209600  1
  F  F22  1  0.95634400  0.39795900  0.76209600  1
  F  F23  1  0.45634400  0.60204100  0.73790400  1
  F  F24  1  0.95634400  0.10204100  0.76209600  1
  F  F25  1  0.45634400  0.89795900  0.73790400  1
  F  F26  1  0.04365600  0.60204100  0.23790400  1
  F  F27  1  0.54365600  0.39795900  0.26209600  1
