# generated using pymatgen
data_NaNb2AsO8
_symmetry_space_group_name_H-M   'P 1'
_cell_length_a   8.75968100
_cell_length_b   4.98166100
_cell_length_c   15.35174143
_cell_angle_alpha   79.84965846
_cell_angle_beta   90.00000000
_cell_angle_gamma   90.00000000
_symmetry_Int_Tables_number   1
_chemical_formula_structural   NaNb2AsO8
_chemical_formula_sum   'Na4 Nb8 As4 O32'
_cell_volume   659.43058848
_cell_formula_units_Z   4
loop_
 _symmetry_equiv_pos_site_id
 _symmetry_equiv_pos_as_xyz
  1  'x, y, z'
loop_
 _atom_site_type_symbol
 _atom_site_label
 _atom_site_symmetry_multiplicity
 _atom_site_fract_x
 _atom_site_fract_y
 _atom_site_fract_z
 _atom_site_occupancy
  Na  Na0  1  0.02191000  0.46302900  0.61927400  1
  Na  Na1  1  0.52191000  0.53697100  0.88072600  1
  Na  Na2  1  0.97809000  0.53697100  0.38072600  1
  Na  Na3  1  0.47809000  0.46302900  0.11927400  1
  Nb  Nb4  1  0.79304800  0.94881700  0.01896500  1
  Nb  Nb5  1  0.20695200  0.05118300  0.98103500  1
  Nb  Nb6  1  0.29304800  0.05118300  0.48103500  1
  Nb  Nb7  1  0.70695200  0.94881700  0.51896500  1
  Nb  Nb8  1  0.57124200  0.54594000  0.36066400  1
  Nb  Nb9  1  0.92875800  0.54594000  0.86066400  1
  Nb  Nb10  1  0.07124200  0.45406000  0.13933600  1
  Nb  Nb11  1  0.42875800  0.45406000  0.63933600  1
  As  As12  1  0.73891700  0.10999700  0.73440800  1
  As  As13  1  0.23891700  0.89000300  0.76559200  1
  As  As14  1  0.76108300  0.10999700  0.23440800  1
  As  As15  1  0.26108300  0.89000300  0.26559200  1
  O  O16  1  0.62470000  0.77703300  0.99556300  1
  O  O17  1  0.55763400  0.22991100  0.74632400  1
  O  O18  1  0.37920700  0.67386300  0.74243600  1
  O  O19  1  0.12079300  0.67386300  0.24243600  1
  O  O20  1  0.04823000  0.18500600  0.06247900  1
  O  O21  1  0.89223900  0.65209000  0.10735400  1
  O  O22  1  0.37530000  0.22296700  0.00443700  1
  O  O23  1  0.71286600  0.30377200  0.43339900  1
  O  O24  1  0.10776100  0.34791000  0.89264600  1
  O  O25  1  0.87920700  0.32613700  0.75756400  1
  O  O26  1  0.24398700  0.20551300  0.70079200  1
  O  O27  1  0.78337900  0.10266600  0.62459300  1
  O  O28  1  0.87530000  0.77703300  0.49556300  1
  O  O29  1  0.60776100  0.65209000  0.60735400  1
  O  O30  1  0.45177000  0.18500600  0.56247900  1
  O  O31  1  0.21286600  0.69622800  0.06660100  1
  O  O32  1  0.28713400  0.69622800  0.56660100  1
  O  O33  1  0.21662100  0.89733400  0.37540700  1
  O  O34  1  0.75601300  0.79448700  0.29920800  1
  O  O35  1  0.94236600  0.22991100  0.24632400  1
  O  O36  1  0.05763400  0.77008900  0.75367600  1
  O  O37  1  0.12470000  0.22296700  0.50443700  1
  O  O38  1  0.44236600  0.77008900  0.25367600  1
  O  O39  1  0.25601300  0.20551300  0.20079200  1
  O  O40  1  0.71662100  0.10266600  0.12459300  1
  O  O41  1  0.62079300  0.32613700  0.25756400  1
  O  O42  1  0.78713400  0.30377200  0.93339900  1
  O  O43  1  0.54823000  0.81499400  0.43752100  1
  O  O44  1  0.95177000  0.81499400  0.93752100  1
  O  O45  1  0.74398700  0.79448700  0.79920800  1
  O  O46  1  0.28337900  0.89733400  0.87540700  1
  O  O47  1  0.39223900  0.34791000  0.39264600  1
