# generated using pymatgen
data_Cs(MoS)3
_symmetry_space_group_name_H-M   'P 1'
_cell_length_a   9.52286251
_cell_length_b   9.52286251
_cell_length_c   4.46259600
_cell_angle_alpha   90.00000000
_cell_angle_beta   90.00000000
_cell_angle_gamma   120.00000356
_symmetry_Int_Tables_number   1
_chemical_formula_structural   Cs(MoS)3
_chemical_formula_sum   'Cs2 Mo6 S6'
_cell_volume   350.47191073
_cell_formula_units_Z   2
loop_
 _symmetry_equiv_pos_site_id
 _symmetry_equiv_pos_as_xyz
  1  'x, y, z'
loop_
 _atom_site_type_symbol
 _atom_site_label
 _atom_site_symmetry_multiplicity
 _atom_site_fract_x
 _atom_site_fract_y
 _atom_site_fract_z
 _atom_site_occupancy
  Cs  Cs0  1  0.33333300  0.66666700  0.75000000  1
  Cs  Cs1  1  0.66666700  0.33333300  0.25000000  1
  Mo  Mo2  1  0.14984400  0.97771500  0.75000000  1
  Mo  Mo3  1  0.97771500  0.82787100  0.25000000  1
  Mo  Mo4  1  0.17212900  0.14984400  0.25000000  1
  Mo  Mo5  1  0.85015600  0.02228500  0.25000000  1
  Mo  Mo6  1  0.02228500  0.17212900  0.75000000  1
  Mo  Mo7  1  0.82787100  0.85015600  0.75000000  1
  S  S8  1  0.32236000  0.27879300  0.75000000  1
  S  S9  1  0.27879300  0.95643400  0.25000000  1
  S  S10  1  0.04356600  0.32236000  0.25000000  1
  S  S11  1  0.67764000  0.72120700  0.25000000  1
  S  S12  1  0.95643400  0.67764000  0.75000000  1
  S  S13  1  0.72120700  0.04356600  0.75000000  1
