# generated using pymatgen
data_CaMn4(SiO3)5
_symmetry_space_group_name_H-M   'P 1'
_cell_length_a   6.80630000
_cell_length_b   7.82216762
_cell_length_c   11.99545103
_cell_angle_alpha   105.69900489
_cell_angle_beta   92.42464279
_cell_angle_gamma   93.97864901
_symmetry_Int_Tables_number   1
_chemical_formula_structural   CaMn4(SiO3)5
_chemical_formula_sum   'Ca2 Mn8 Si10 O30'
_cell_volume   612.09115639
_cell_formula_units_Z   2
loop_
 _symmetry_equiv_pos_site_id
 _symmetry_equiv_pos_as_xyz
  1  'x, y, z'
loop_
 _atom_site_type_symbol
 _atom_site_label
 _atom_site_symmetry_multiplicity
 _atom_site_fract_x
 _atom_site_fract_y
 _atom_site_fract_z
 _atom_site_occupancy
  Ca  Ca0  1  0.63516100  0.04545100  0.69316700  1
  Ca  Ca1  1  0.36483900  0.95454900  0.30683300  1
  Mn  Mn2  1  0.03134000  0.11762700  0.14830600  1
  Mn  Mn3  1  0.12539000  0.31664900  0.44531200  1
  Mn  Mn4  1  0.79640800  0.30526100  0.97791200  1
  Mn  Mn5  1  0.20359200  0.69473900  0.02208800  1
  Mn  Mn6  1  0.81266000  0.49234900  0.27051300  1
  Mn  Mn7  1  0.96866000  0.88237300  0.85169400  1
  Mn  Mn8  1  0.87461000  0.68335100  0.55468800  1
  Mn  Mn9  1  0.18734000  0.50765100  0.72948700  1
  Si  Si10  1  0.29049000  0.53897000  0.26126900  1
  Si  Si11  1  0.49555000  0.22205700  0.12557300  1
  Si  Si12  1  0.84467200  0.92705300  0.34520900  1
  Si  Si13  1  0.15532800  0.07294700  0.65479100  1
  Si  Si14  1  0.75508800  0.74659400  0.08923500  1
  Si  Si15  1  0.50445000  0.77794300  0.87442700  1
  Si  Si16  1  0.24491200  0.25340600  0.91076500  1
  Si  Si17  1  0.63862600  0.27005100  0.47040500  1
  Si  Si18  1  0.70951000  0.46103000  0.73873100  1
  Si  Si19  1  0.36137400  0.72994900  0.52959500  1
  O  O20  1  0.30125400  0.94345200  0.56639700  1
  O  O21  1  0.88308500  0.75293000  0.38861800  1
  O  O22  1  0.10476900  0.39928900  0.26822600  1
  O  O23  1  0.25472100  0.67302400  0.18322000  1
  O  O24  1  0.26656600  0.79556600  0.86878300  1
  O  O25  1  0.29924500  0.13532300  0.77885300  1
  O  O26  1  0.63508000  0.31601500  0.61302100  1
  O  O27  1  0.96152200  0.95438300  0.67686100  1
  O  O28  1  0.11691500  0.24707000  0.61138200  1
  O  O29  1  0.41885800  0.25620600  0.41347000  1
  O  O30  1  0.05707000  0.15665700  0.95936500  1
  O  O31  1  0.70075500  0.86467700  0.22114700  1
  O  O32  1  0.80962100  0.40115700  0.43644100  1
  O  O33  1  0.89523100  0.60071100  0.73177400  1
  O  O34  1  0.03847800  0.04561700  0.32313900  1
  O  O35  1  0.94293000  0.84334300  0.04063500  1
  O  O36  1  0.19037900  0.59884300  0.56355900  1
  O  O37  1  0.58114200  0.74379400  0.58653000  1
  O  O38  1  0.80711100  0.55311400  0.10003300  1
  O  O39  1  0.44472700  0.25697900  0.99590000  1
  O  O40  1  0.55527300  0.74302100  0.00410000  1
  O  O41  1  0.19288900  0.44688600  0.89996700  1
  O  O42  1  0.51729000  0.57834900  0.77844900  1
  O  O43  1  0.74527900  0.32697600  0.81678000  1
  O  O44  1  0.69874600  0.05654800  0.43360300  1
  O  O45  1  0.65850700  0.92858300  0.85152600  1
  O  O46  1  0.36492000  0.68398500  0.38697900  1
  O  O47  1  0.48271000  0.42165100  0.22155100  1
  O  O48  1  0.73343400  0.20443400  0.13121700  1
  O  O49  1  0.34149300  0.07141700  0.14847400  1
