# generated using pymatgen
data_Ru(OF3)2
_symmetry_space_group_name_H-M   'P 1'
_cell_length_a   9.24851911
_cell_length_b   9.24851911
_cell_length_c   9.24851911
_cell_angle_alpha   109.47122063
_cell_angle_beta   109.47122063
_cell_angle_gamma   109.47122063
_symmetry_Int_Tables_number   1
_chemical_formula_structural   Ru(OF3)2
_chemical_formula_sum   'Ru4 O8 F24'
_cell_volume   608.96832621
_cell_formula_units_Z   4
loop_
 _symmetry_equiv_pos_site_id
 _symmetry_equiv_pos_as_xyz
  1  'x, y, z'
loop_
 _atom_site_type_symbol
 _atom_site_label
 _atom_site_symmetry_multiplicity
 _atom_site_fract_x
 _atom_site_fract_y
 _atom_site_fract_z
 _atom_site_occupancy
  Ru  Ru0  1  0.00000000  0.00000000  0.00000000  1
  Ru  Ru1  1  0.50000000  0.50000000  0.00000000  1
  Ru  Ru2  1  0.00000000  0.50000000  0.50000000  1
  Ru  Ru3  1  0.50000000  0.00000000  0.50000000  1
  O  O4  1  0.56463900  0.56463900  0.56463900  1
  O  O5  1  0.93536100  0.50000000  0.00000000  1
  O  O6  1  0.00000000  0.93536100  0.50000000  1
  O  O7  1  0.50000000  0.00000000  0.93536100  1
  O  O8  1  0.43536100  0.43536100  0.43536100  1
  O  O9  1  0.06463900  0.50000000  0.00000000  1
  O  O10  1  0.00000000  0.06463900  0.50000000  1
  O  O11  1  0.50000000  0.00000000  0.06463900  1
  F  F12  1  0.07767300  0.04204200  0.23223800  1
  F  F13  1  0.45795800  0.53563000  0.19019600  1
  F  F14  1  0.96437000  0.42232700  0.65456600  1
  F  F15  1  0.84543400  0.26776200  0.30980400  1
  F  F16  1  0.53563000  0.19019600  0.45795800  1
  F  F17  1  0.65456600  0.96437000  0.42232700  1
  F  F18  1  0.26776200  0.30980400  0.84543400  1
  F  F19  1  0.23223800  0.07767300  0.04204200  1
  F  F20  1  0.04204200  0.23223800  0.07767300  1
  F  F21  1  0.19019600  0.45795800  0.53563000  1
  F  F22  1  0.42232700  0.65456600  0.96437000  1
  F  F23  1  0.30980400  0.84543400  0.26776200  1
  F  F24  1  0.92232700  0.95795800  0.76776200  1
  F  F25  1  0.54204200  0.46437000  0.80980400  1
  F  F26  1  0.03563000  0.57767300  0.34543400  1
  F  F27  1  0.15456600  0.73223800  0.69019600  1
  F  F28  1  0.46437000  0.80980400  0.54204200  1
  F  F29  1  0.34543400  0.03563000  0.57767300  1
  F  F30  1  0.73223800  0.69019600  0.15456600  1
  F  F31  1  0.76776200  0.92232700  0.95795800  1
  F  F32  1  0.95795800  0.76776200  0.92232700  1
  F  F33  1  0.80980400  0.54204200  0.46437000  1
  F  F34  1  0.57767300  0.34543400  0.03563000  1
  F  F35  1  0.69019600  0.15456600  0.73223800  1
