# generated using pymatgen
data_AgHgSBr
_symmetry_space_group_name_H-M   'P 1'
_cell_length_a   4.67754400
_cell_length_b   9.80469500
_cell_length_c   9.96308200
_cell_angle_alpha   90.00000000
_cell_angle_beta   90.00000000
_cell_angle_gamma   90.00000000
_symmetry_Int_Tables_number   1
_chemical_formula_structural   AgHgSBr
_chemical_formula_sum   'Ag4 Hg4 S4 Br4'
_cell_volume   456.92579335
_cell_formula_units_Z   4
loop_
 _symmetry_equiv_pos_site_id
 _symmetry_equiv_pos_as_xyz
  1  'x, y, z'
loop_
 _atom_site_type_symbol
 _atom_site_label
 _atom_site_symmetry_multiplicity
 _atom_site_fract_x
 _atom_site_fract_y
 _atom_site_fract_z
 _atom_site_occupancy
  Ag  Ag0  1  0.00000000  0.20932800  0.41521200  1
  Ag  Ag1  1  0.00000000  0.79067200  0.58478800  1
  Ag  Ag2  1  0.00000000  0.20932800  0.08478800  1
  Ag  Ag3  1  0.00000000  0.79067200  0.91521200  1
  Hg  Hg4  1  0.50000000  0.22930000  0.75000000  1
  Hg  Hg5  1  0.50000000  0.77070000  0.25000000  1
  Hg  Hg6  1  0.50000000  0.50000000  0.00000000  1
  Hg  Hg7  1  0.50000000  0.50000000  0.50000000  1
  S  S8  1  0.50000000  0.25425200  0.99167100  1
  S  S9  1  0.50000000  0.74574800  0.00832900  1
  S  S10  1  0.50000000  0.74574800  0.49167100  1
  S  S11  1  0.50000000  0.25425200  0.50832900  1
  Br  Br12  1  0.00000000  0.01243300  0.75000000  1
  Br  Br13  1  0.00000000  0.53521900  0.75000000  1
  Br  Br14  1  0.00000000  0.46478100  0.25000000  1
  Br  Br15  1  0.00000000  0.98756700  0.25000000  1
