# generated using pymatgen
data_KAlCo(PO4)2
_symmetry_space_group_name_H-M   'P 1'
_cell_length_a   9.44275924
_cell_length_b   9.44275924
_cell_length_c   8.86254410
_cell_angle_alpha   82.58222967
_cell_angle_beta   82.58222967
_cell_angle_gamma   88.94198860
_symmetry_Int_Tables_number   1
_chemical_formula_structural   KAlCo(PO4)2
_chemical_formula_sum   'K4 Al4 Co4 P8 O32'
_cell_volume   777.06232902
_cell_formula_units_Z   4
loop_
 _symmetry_equiv_pos_site_id
 _symmetry_equiv_pos_as_xyz
  1  'x, y, z'
loop_
 _atom_site_type_symbol
 _atom_site_label
 _atom_site_symmetry_multiplicity
 _atom_site_fract_x
 _atom_site_fract_y
 _atom_site_fract_z
 _atom_site_occupancy
  K  K0  1  0.91980200  0.45243000  0.77959700  1
  K  K1  1  0.58474000  0.06518000  0.71875400  1
  K  K2  1  0.45243000  0.91980200  0.27959700  1
  K  K3  1  0.06518000  0.58474000  0.21875400  1
  Al  Al4  1  0.44823700  0.70025500  0.95178100  1
  Al  Al5  1  0.19181200  0.06982300  0.61382700  1
  Al  Al6  1  0.70025500  0.44823700  0.45178100  1
  Al  Al7  1  0.06982300  0.19181200  0.11382700  1
  Co  Co8  1  0.93670600  0.80567200  0.87955000  1
  Co  Co9  1  0.29721800  0.53853100  0.55621600  1
  Co  Co10  1  0.80567200  0.93670600  0.37955000  1
  Co  Co11  1  0.53853100  0.29721800  0.05621600  1
  P  P12  1  0.21383900  0.93805500  0.96771500  1
  P  P13  1  0.27832700  0.42366500  0.91777400  1
  P  P14  1  0.57797900  0.70700100  0.59144300  1
  P  P15  1  0.06505900  0.78955100  0.51945100  1
  P  P16  1  0.93805500  0.21383900  0.46771500  1
  P  P17  1  0.42366500  0.27832700  0.41777400  1
  P  P18  1  0.70700100  0.57797900  0.09144300  1
  P  P19  1  0.78955100  0.06505900  0.01945100  1
  O  O20  1  0.85143000  0.64175400  0.01826100  1
  O  O21  1  0.83311500  0.97967700  0.88343300  1
  O  O22  1  0.10177300  0.82073000  0.99354300  1
  O  O23  1  0.32329800  0.55887900  0.98788900  1
  O  O24  1  0.65695700  0.14907800  0.97484400  1
  O  O25  1  0.40333100  0.31869400  0.90485400  1
  O  O26  1  0.53469800  0.71863100  0.76465500  1
  O  O27  1  0.96912700  0.75390400  0.67389400  1
  O  O28  1  0.22072100  0.02539000  0.80658100  1
  O  O29  1  0.21926800  0.46773300  0.76539800  1
  O  O30  1  0.68558700  0.57857400  0.58029400  1
  O  O31  1  0.64175400  0.85143000  0.51826100  1
  O  O32  1  0.86675900  0.36320500  0.48694900  1
  O  O33  1  0.44841100  0.67878800  0.51177600  1
  O  O34  1  0.17163600  0.91400100  0.52995000  1
  O  O35  1  0.04551600  0.18876500  0.58825400  1
  O  O36  1  0.97967700  0.83311500  0.38343300  1
  O  O37  1  0.82073000  0.10177300  0.49354300  1
  O  O38  1  0.55887900  0.32329800  0.48788900  1
  O  O39  1  0.14907800  0.65695700  0.47484400  1
  O  O40  1  0.35730400  0.14938200  0.53331800  1
  O  O41  1  0.31869400  0.40333100  0.40485400  1
  O  O42  1  0.71863100  0.53469800  0.26465500  1
  O  O43  1  0.75390400  0.96912700  0.17389400  1
  O  O44  1  0.02539000  0.22072100  0.30658100  1
  O  O45  1  0.46773300  0.21926800  0.26539800  1
  O  O46  1  0.57857400  0.68558700  0.08029400  1
  O  O47  1  0.36320500  0.86675900  0.98694900  1
  O  O48  1  0.67878800  0.44841100  0.01177600  1
  O  O49  1  0.91400100  0.17163600  0.02995000  1
  O  O50  1  0.18876500  0.04551600  0.08825400  1
  O  O51  1  0.14938200  0.35730400  0.03331800  1
