# generated using pymatgen
data_Cs2Sn(GeO3)3
_symmetry_space_group_name_H-M   'P 1'
_cell_length_a   7.40594654
_cell_length_b   7.40594654
_cell_length_c   10.62795200
_cell_angle_alpha   90.00000000
_cell_angle_beta   90.00000000
_cell_angle_gamma   120.00000483
_symmetry_Int_Tables_number   1
_chemical_formula_structural   Cs2Sn(GeO3)3
_chemical_formula_sum   'Cs4 Sn2 Ge6 O18'
_cell_volume   504.82556557
_cell_formula_units_Z   2
loop_
 _symmetry_equiv_pos_site_id
 _symmetry_equiv_pos_as_xyz
  1  'x, y, z'
loop_
 _atom_site_type_symbol
 _atom_site_label
 _atom_site_symmetry_multiplicity
 _atom_site_fract_x
 _atom_site_fract_y
 _atom_site_fract_z
 _atom_site_occupancy
  Cs  Cs0  1  0.33333300  0.66666700  0.06007800  1
  Cs  Cs1  1  0.66666700  0.33333300  0.56007800  1
  Cs  Cs2  1  0.66666700  0.33333300  0.93992200  1
  Cs  Cs3  1  0.33333300  0.66666700  0.43992200  1
  Sn  Sn4  1  0.00000000  0.00000000  0.00000000  1
  Sn  Sn5  1  0.00000000  0.00000000  0.50000000  1
  Ge  Ge6  1  0.37431200  0.23354100  0.25000000  1
  Ge  Ge7  1  0.14077200  0.37431200  0.75000000  1
  Ge  Ge8  1  0.23354100  0.85922800  0.75000000  1
  Ge  Ge9  1  0.76645900  0.14077200  0.25000000  1
  Ge  Ge10  1  0.85922800  0.62568800  0.25000000  1
  Ge  Ge11  1  0.62568800  0.76645900  0.75000000  1
  O  O12  1  0.49411000  0.07470100  0.25000000  1
  O  O13  1  0.41941000  0.49411000  0.75000000  1
  O  O14  1  0.07470100  0.58059000  0.75000000  1
  O  O15  1  0.92529900  0.41941000  0.25000000  1
  O  O16  1  0.58059000  0.50589000  0.25000000  1
  O  O17  1  0.50589000  0.92529900  0.75000000  1
  O  O18  1  0.24723300  0.21830300  0.10879400  1
  O  O19  1  0.02893000  0.24723300  0.60879400  1
  O  O20  1  0.21830300  0.97107000  0.60879400  1
  O  O21  1  0.78169700  0.02893000  0.10879400  1
  O  O22  1  0.97107000  0.75276700  0.10879400  1
  O  O23  1  0.75276700  0.78169700  0.60879400  1
  O  O24  1  0.75276700  0.78169700  0.89120600  1
  O  O25  1  0.97107000  0.75276700  0.39120600  1
  O  O26  1  0.78169700  0.02893000  0.39120600  1
  O  O27  1  0.21830300  0.97107000  0.89120600  1
  O  O28  1  0.02893000  0.24723300  0.89120600  1
  O  O29  1  0.24723300  0.21830300  0.39120600  1
