# generated using pymatgen
data_K2ScSi4O10F
_symmetry_space_group_name_H-M   'P 1'
_cell_length_a   9.01900828
_cell_length_b   9.01900828
_cell_length_c   9.01900828
_cell_angle_alpha   102.12896461
_cell_angle_beta   102.12896461
_cell_angle_gamma   125.43467210
_symmetry_Int_Tables_number   1
_chemical_formula_structural   K2ScSi4O10F
_chemical_formula_sum   'K4 Sc2 Si8 O20 F2'
_cell_volume   531.24847919
_cell_formula_units_Z   2
loop_
 _symmetry_equiv_pos_site_id
 _symmetry_equiv_pos_as_xyz
  1  'x, y, z'
loop_
 _atom_site_type_symbol
 _atom_site_label
 _atom_site_symmetry_multiplicity
 _atom_site_fract_x
 _atom_site_fract_y
 _atom_site_fract_z
 _atom_site_occupancy
  K  K0  1  0.31580100  0.68425400  0.00005600  1
  K  K1  1  0.68425400  0.68419800  0.36845300  1
  K  K2  1  0.68419900  0.31574600  0.99994400  1
  K  K3  1  0.31574600  0.31580200  0.63154700  1
  Sc  Sc4  1  0.24497700  0.24497700  0.00000000  1
  Sc  Sc5  1  0.75502300  0.75502300  0.00000000  1
  Si  Si6  1  0.20230800  0.50507200  0.32439400  1
  Si  Si7  1  0.18067800  0.87791400  0.67560600  1
  Si  Si8  1  0.49492800  0.81932200  0.69723600  1
  Si  Si9  1  0.12208600  0.79769200  0.30276400  1
  Si  Si10  1  0.81932200  0.12208600  0.32439400  1
  Si  Si11  1  0.50507200  0.18067800  0.30276400  1
  Si  Si12  1  0.87791400  0.20230800  0.69723600  1
  Si  Si13  1  0.79769200  0.49492800  0.67560600  1
  O  O14  1  0.31728800  0.94794400  0.26523200  1
  O  O15  1  0.73412700  0.91943000  0.18288300  1
  O  O16  1  0.59199400  0.32157000  0.50105000  1
  O  O17  1  0.44875600  0.26587300  0.18530300  1
  O  O18  1  0.26345300  0.44875600  0.18288300  1
  O  O19  1  0.09094400  0.59199400  0.27042400  1
  O  O20  1  0.32157000  0.82052000  0.72957600  1
  O  O21  1  0.91943000  0.73654700  0.18530300  1
  O  O22  1  0.68271200  0.05205600  0.73476800  1
  O  O23  1  0.90905600  0.40800600  0.72957600  1
  O  O24  1  0.17948000  0.90905600  0.50105000  1
  O  O25  1  0.67843000  0.17948000  0.27042400  1
  O  O26  1  0.05205600  0.31728800  0.36934400  1
  O  O27  1  0.73654700  0.55124400  0.81711700  1
  O  O28  1  0.55124400  0.73412700  0.81469700  1
  O  O29  1  0.26587300  0.08057000  0.81711700  1
  O  O30  1  0.08057000  0.26345300  0.81469700  1
  O  O31  1  0.94794400  0.68271200  0.63065600  1
  O  O32  1  0.40800600  0.67843000  0.49895000  1
  O  O33  1  0.82052000  0.09094400  0.49895000  1
  F  F34  1  0.00000000  0.00000000  0.00000000  1
  F  F35  1  0.50000000  0.50000000  0.00000000  1
