# generated using pymatgen
data_Dy(NiP)2
_symmetry_space_group_name_H-M   'P 1'
_cell_length_a   5.43082586
_cell_length_b   5.43082586
_cell_length_c   5.43082586
_cell_angle_alpha   138.24636500
_cell_angle_beta   138.24636500
_cell_angle_gamma   60.52588799
_symmetry_Int_Tables_number   1
_chemical_formula_structural   Dy(NiP)2
_chemical_formula_sum   'Dy1 Ni2 P2'
_cell_volume   70.27636582
_cell_formula_units_Z   1
loop_
 _symmetry_equiv_pos_site_id
 _symmetry_equiv_pos_as_xyz
  1  'x, y, z'
loop_
 _atom_site_type_symbol
 _atom_site_label
 _atom_site_symmetry_multiplicity
 _atom_site_fract_x
 _atom_site_fract_y
 _atom_site_fract_z
 _atom_site_occupancy
  Dy  Dy0  1  0.00000000  0.00000000  0.00000000  1
  Ni  Ni1  1  0.25000000  0.75000000  0.50000000  1
  Ni  Ni2  1  0.75000000  0.25000000  0.50000000  1
  P  P3  1  0.62285400  0.62285400  0.00000000  1
  P  P4  1  0.37714600  0.37714600  0.00000000  1
