# generated using pymatgen
data_CeNi3
_symmetry_space_group_name_H-M   'P 1'
_cell_length_a   4.93653190
_cell_length_b   4.93653190
_cell_length_c   16.52026700
_cell_angle_alpha   90.00000000
_cell_angle_beta   90.00000000
_cell_angle_gamma   119.99999862
_symmetry_Int_Tables_number   1
_chemical_formula_structural   CeNi3
_chemical_formula_sum   'Ce6 Ni18'
_cell_volume   348.65154567
_cell_formula_units_Z   6
loop_
 _symmetry_equiv_pos_site_id
 _symmetry_equiv_pos_as_xyz
  1  'x, y, z'
loop_
 _atom_site_type_symbol
 _atom_site_label
 _atom_site_symmetry_multiplicity
 _atom_site_fract_x
 _atom_site_fract_y
 _atom_site_fract_z
 _atom_site_occupancy
  Ce  Ce0  1  0.33333300  0.66666700  0.45839800  1
  Ce  Ce1  1  0.66666700  0.33333300  0.95839800  1
  Ce  Ce2  1  0.66666700  0.33333300  0.54160200  1
  Ce  Ce3  1  0.33333300  0.66666700  0.04160200  1
  Ce  Ce4  1  0.33333300  0.66666700  0.25000000  1
  Ce  Ce5  1  0.66666700  0.33333300  0.75000000  1
  Ni  Ni6  1  0.83383000  0.16617000  0.37328800  1
  Ni  Ni7  1  0.16617000  0.83383000  0.87328800  1
  Ni  Ni8  1  0.83383000  0.66766100  0.12671200  1
  Ni  Ni9  1  0.16617000  0.33233900  0.62671200  1
  Ni  Ni10  1  0.00000000  0.00000000  0.50000000  1
  Ni  Ni11  1  0.66766100  0.83383000  0.87328800  1
  Ni  Ni12  1  0.83383000  0.66766100  0.37328800  1
  Ni  Ni13  1  0.16617000  0.33233900  0.87328800  1
  Ni  Ni14  1  0.33233900  0.16617000  0.12671200  1
  Ni  Ni15  1  0.66666700  0.33333300  0.25000000  1
  Ni  Ni16  1  0.83383000  0.16617000  0.12671200  1
  Ni  Ni17  1  0.00000000  0.00000000  0.75000000  1
  Ni  Ni18  1  0.66766100  0.83383000  0.62671200  1
  Ni  Ni19  1  0.33233900  0.16617000  0.37328800  1
  Ni  Ni20  1  0.00000000  0.00000000  0.00000000  1
  Ni  Ni21  1  0.16617000  0.83383000  0.62671200  1
  Ni  Ni22  1  0.33333300  0.66666700  0.75000000  1
  Ni  Ni23  1  0.00000000  0.00000000  0.25000000  1
