# generated using pymatgen
data_EuHSO5
_symmetry_space_group_name_H-M   'P 1'
_cell_length_a   12.49186900
_cell_length_b   4.52402800
_cell_length_c   7.15768622
_cell_angle_alpha   69.17839614
_cell_angle_beta   90.00000000
_cell_angle_gamma   90.00000000
_symmetry_Int_Tables_number   1
_chemical_formula_structural   EuHSO5
_chemical_formula_sum   'Eu4 H4 S4 O20'
_cell_volume   378.08874883
_cell_formula_units_Z   4
loop_
 _symmetry_equiv_pos_site_id
 _symmetry_equiv_pos_as_xyz
  1  'x, y, z'
loop_
 _atom_site_type_symbol
 _atom_site_label
 _atom_site_symmetry_multiplicity
 _atom_site_fract_x
 _atom_site_fract_y
 _atom_site_fract_z
 _atom_site_occupancy
  Eu  Eu0  1  0.56153400  0.83666100  0.30091100  1
  Eu  Eu1  1  0.43846600  0.16333900  0.69908900  1
  Eu  Eu2  1  0.93846600  0.83666100  0.80091100  1
  Eu  Eu3  1  0.06153400  0.16333900  0.19908900  1
  H  H4  1  0.34487600  0.78510400  0.48424700  1
  H  H5  1  0.65512400  0.21489600  0.51575300  1
  H  H6  1  0.84487600  0.21489600  0.01575300  1
  H  H7  1  0.15512400  0.78510400  0.98424700  1
  S  S8  1  0.85237000  0.58804100  0.39184600  1
  S  S9  1  0.35237000  0.41195900  0.10815400  1
  S  S10  1  0.64763000  0.58804100  0.89184600  1
  S  S11  1  0.14763000  0.41195900  0.60815400  1
  O  O12  1  0.42892000  0.20106400  0.04971400  1
  O  O13  1  0.59998400  0.52045200  0.72132600  1
  O  O14  1  0.74979400  0.76014400  0.82827900  1
  O  O15  1  0.07108000  0.20106400  0.54971400  1
  O  O16  1  0.08334400  0.76320100  0.04391900  1
  O  O17  1  0.90001600  0.52045200  0.22132600  1
  O  O18  1  0.92892000  0.79893600  0.45028600  1
  O  O19  1  0.83333800  0.29685700  0.56466000  1
  O  O20  1  0.25020600  0.23985600  0.17172100  1
  O  O21  1  0.58334400  0.23679900  0.45608100  1
  O  O22  1  0.57108000  0.79893600  0.95028600  1
  O  O23  1  0.41665600  0.76320100  0.54391900  1
  O  O24  1  0.16666200  0.70314300  0.43534000  1
  O  O25  1  0.33333800  0.70314300  0.93534000  1
  O  O26  1  0.66666200  0.29685700  0.06466000  1
  O  O27  1  0.24979400  0.23985600  0.67172100  1
  O  O28  1  0.91665600  0.23679900  0.95608100  1
  O  O29  1  0.09998400  0.47954800  0.77867400  1
  O  O30  1  0.40001600  0.47954800  0.27867400  1
  O  O31  1  0.75020600  0.76014400  0.32827900  1
