# generated using pymatgen
data_K(Sn3Au2)2
_symmetry_space_group_name_H-M   'P 1'
_cell_length_a   13.39556001
_cell_length_b   13.14899616
_cell_length_c   6.79330044
_cell_angle_alpha   77.19199868
_cell_angle_beta   73.17039002
_cell_angle_gamma   29.63761130
_symmetry_Int_Tables_number   1
_chemical_formula_structural   K(Sn3Au2)2
_chemical_formula_sum   'K2 Sn12 Au8'
_cell_volume   565.23464005
_cell_formula_units_Z   2
loop_
 _symmetry_equiv_pos_site_id
 _symmetry_equiv_pos_as_xyz
  1  'x, y, z'
loop_
 _atom_site_type_symbol
 _atom_site_label
 _atom_site_symmetry_multiplicity
 _atom_site_fract_x
 _atom_site_fract_y
 _atom_site_fract_z
 _atom_site_occupancy
  K  K0  1  0.00000000  0.00000000  0.00000000  1
  K  K1  1  0.25000000  0.25000000  0.25000000  1
  Sn  Sn2  1  0.61700100  0.11453100  0.88671800  1
  Sn  Sn3  1  0.64558800  0.35441200  0.64558800  1
  Sn  Sn4  1  0.88671800  0.38175000  0.61700100  1
  Sn  Sn5  1  0.13546900  0.63299900  0.86825000  1
  Sn  Sn6  1  0.63299900  0.13546900  0.36328200  1
  Sn  Sn7  1  0.89558800  0.60441200  0.89558800  1
  Sn  Sn8  1  0.86825000  0.36328200  0.13546900  1
  Sn  Sn9  1  0.11453100  0.61700100  0.38175000  1
  Sn  Sn10  1  0.60441200  0.89558800  0.60441200  1
  Sn  Sn11  1  0.35441200  0.64558800  0.35441200  1
  Sn  Sn12  1  0.38175000  0.88671800  0.11453100  1
  Sn  Sn13  1  0.36328200  0.86825000  0.63299900  1
  Au  Au14  1  0.19294000  0.19294000  0.80706000  1
  Au  Au15  1  0.56246000  0.56246000  0.93754000  1
  Au  Au16  1  0.68754000  0.68754000  0.31246000  1
  Au  Au17  1  0.93754000  0.93754000  0.56246000  1
  Au  Au18  1  0.44294000  0.44294000  0.05706000  1
  Au  Au19  1  0.80706000  0.80706000  0.19294000  1
  Au  Au20  1  0.31246000  0.31246000  0.68754000  1
  Au  Au21  1  0.05706000  0.05706000  0.44294000  1
