# generated using pymatgen
data_RbTeF5
_symmetry_space_group_name_H-M   'P 1'
_cell_length_a   6.38456300
_cell_length_b   11.74297300
_cell_length_c   14.29783200
_cell_angle_alpha   90.00000000
_cell_angle_beta   90.00000000
_cell_angle_gamma   90.00000000
_symmetry_Int_Tables_number   1
_chemical_formula_structural   RbTeF5
_chemical_formula_sum   'Rb8 Te8 F40'
_cell_volume   1071.96209515
_cell_formula_units_Z   8
loop_
 _symmetry_equiv_pos_site_id
 _symmetry_equiv_pos_as_xyz
  1  'x, y, z'
loop_
 _atom_site_type_symbol
 _atom_site_label
 _atom_site_symmetry_multiplicity
 _atom_site_fract_x
 _atom_site_fract_y
 _atom_site_fract_z
 _atom_site_occupancy
  Rb  Rb0  1  0.75000000  0.50637300  0.09686700  1
  Rb  Rb1  1  0.25000000  0.66180400  0.60014800  1
  Rb  Rb2  1  0.75000000  0.16180400  0.89985200  1
  Rb  Rb3  1  0.75000000  0.99362700  0.59686700  1
  Rb  Rb4  1  0.25000000  0.83819600  0.10014800  1
  Rb  Rb5  1  0.25000000  0.49362700  0.90313300  1
  Rb  Rb6  1  0.75000000  0.33819600  0.39985200  1
  Rb  Rb7  1  0.25000000  0.00637300  0.40313300  1
  Te  Te8  1  0.75000000  0.78555100  0.92415500  1
  Te  Te9  1  0.75000000  0.71444900  0.42415500  1
  Te  Te10  1  0.25000000  0.21444900  0.07584500  1
  Te  Te11  1  0.25000000  0.28555100  0.57584500  1
  Te  Te12  1  0.75000000  0.03811000  0.24135900  1
  Te  Te13  1  0.25000000  0.53811000  0.25864100  1
  Te  Te14  1  0.25000000  0.96189000  0.75864100  1
  Te  Te15  1  0.75000000  0.46189000  0.74135900  1
  F  F16  1  0.75000000  0.01675000  0.37600900  1
  F  F17  1  0.96690600  0.90913300  0.92118700  1
  F  F18  1  0.75000000  0.48325000  0.87600900  1
  F  F19  1  0.52390100  0.58141700  0.75395400  1
  F  F20  1  0.47609900  0.08141700  0.74604600  1
  F  F21  1  0.02514200  0.17981000  0.52600300  1
  F  F22  1  0.75000000  0.67259800  0.55400500  1
  F  F23  1  0.47485800  0.32019000  0.02600300  1
  F  F24  1  0.25000000  0.17259800  0.94599500  1
  F  F25  1  0.02514200  0.32019000  0.02600300  1
  F  F26  1  0.75000000  0.82740200  0.05400500  1
  F  F27  1  0.02390100  0.41858300  0.24604600  1
  F  F28  1  0.52390100  0.91858300  0.25395400  1
  F  F29  1  0.47609900  0.41858300  0.24604600  1
  F  F30  1  0.96690600  0.59086700  0.42118700  1
  F  F31  1  0.03309400  0.40913300  0.57881300  1
  F  F32  1  0.97485800  0.82019000  0.47399700  1
  F  F33  1  0.02390100  0.08141700  0.74604600  1
  F  F34  1  0.53309400  0.59086700  0.42118700  1
  F  F35  1  0.03364400  0.84648100  0.72094100  1
  F  F36  1  0.25000000  0.51675000  0.12399100  1
  F  F37  1  0.25000000  0.98325000  0.62399100  1
  F  F38  1  0.52514200  0.82019000  0.47399700  1
  F  F39  1  0.53309400  0.90913300  0.92118700  1
  F  F40  1  0.96635600  0.15351900  0.27905900  1
  F  F41  1  0.97485800  0.67981000  0.97399700  1
  F  F42  1  0.52514200  0.67981000  0.97399700  1
  F  F43  1  0.97609900  0.58141700  0.75395400  1
  F  F44  1  0.53364400  0.15351900  0.27905900  1
  F  F45  1  0.97609900  0.91858300  0.25395400  1
  F  F46  1  0.46635600  0.84648100  0.72094100  1
  F  F47  1  0.53364400  0.34648100  0.77905900  1
  F  F48  1  0.03364400  0.65351900  0.22094100  1
  F  F49  1  0.03309400  0.09086700  0.07881300  1
  F  F50  1  0.47485800  0.17981000  0.52600300  1
  F  F51  1  0.25000000  0.32740200  0.44599500  1
  F  F52  1  0.46690600  0.40913300  0.57881300  1
  F  F53  1  0.46690600  0.09086700  0.07881300  1
  F  F54  1  0.96635600  0.34648100  0.77905900  1
  F  F55  1  0.46635600  0.65351900  0.22094100  1
