# generated using pymatgen
data_Na4Zr2Ti(CO4)4
_symmetry_space_group_name_H-M   'P 1'
_cell_length_a   6.15794281
_cell_length_b   6.15794281
_cell_length_c   18.19713098
_cell_angle_alpha   86.59703821
_cell_angle_beta   86.59703821
_cell_angle_gamma   66.25483965
_symmetry_Int_Tables_number   1
_chemical_formula_structural   Na4Zr2Ti(CO4)4
_chemical_formula_sum   'Na8 Zr4 Ti2 C8 O32'
_cell_volume   630.03636369
_cell_formula_units_Z   2
loop_
 _symmetry_equiv_pos_site_id
 _symmetry_equiv_pos_as_xyz
  1  'x, y, z'
loop_
 _atom_site_type_symbol
 _atom_site_label
 _atom_site_symmetry_multiplicity
 _atom_site_fract_x
 _atom_site_fract_y
 _atom_site_fract_z
 _atom_site_occupancy
  Na  Na0  1  0.54308100  0.66242400  0.91830800  1
  Na  Na1  1  0.04136800  0.21477400  0.93371600  1
  Na  Na2  1  0.66242400  0.54308100  0.41830800  1
  Na  Na3  1  0.45691900  0.33757600  0.08169200  1
  Na  Na4  1  0.95863200  0.78522600  0.06628400  1
  Na  Na5  1  0.33757600  0.45691900  0.58169200  1
  Na  Na6  1  0.78522600  0.95863200  0.56628400  1
  Na  Na7  1  0.21477400  0.04136800  0.43371600  1
  Zr  Zr8  1  0.99563100  0.61975600  0.74777000  1
  Zr  Zr9  1  0.38024400  0.00436900  0.75223000  1
  Zr  Zr10  1  0.61975600  0.99563100  0.24777000  1
  Zr  Zr11  1  0.00436900  0.38024400  0.25223000  1
  Ti  Ti12  1  0.30742700  0.69257300  0.25000000  1
  Ti  Ti13  1  0.69257300  0.30742700  0.75000000  1
  C  C14  1  0.74033300  0.07041900  0.38341000  1
  C  C15  1  0.07041900  0.74033300  0.88341000  1
  C  C16  1  0.79786800  0.50184800  0.60051600  1
  C  C17  1  0.92958100  0.25966700  0.11659000  1
  C  C18  1  0.20213200  0.49815200  0.39948400  1
  C  C19  1  0.50184800  0.79786800  0.10051600  1
  C  C20  1  0.49815200  0.20213200  0.89948400  1
  C  C21  1  0.25966700  0.92958100  0.61659000  1
  O  O22  1  0.58589700  0.72415000  0.03753600  1
  O  O23  1  0.05164700  0.38770600  0.12727300  1
  O  O24  1  0.94835300  0.61229400  0.87272700  1
  O  O25  1  0.09537800  0.80741500  0.94501600  1
  O  O26  1  0.78821700  0.16992800  0.32163400  1
  O  O27  1  0.16992800  0.78821700  0.82163400  1
  O  O28  1  0.27031300  0.65429000  0.36461300  1
  O  O29  1  0.36120300  0.36773000  0.73993200  1
  O  O30  1  0.41410300  0.27585000  0.96246400  1
  O  O31  1  0.65429000  0.27031300  0.86461300  1
  O  O32  1  0.05723600  0.42525600  0.36751200  1
  O  O33  1  0.98490400  0.74284800  0.23712000  1
  O  O34  1  0.34571000  0.72968700  0.13538700  1
  O  O35  1  0.19258500  0.90462200  0.55498400  1
  O  O36  1  0.72415000  0.58589700  0.53753600  1
  O  O37  1  0.57474400  0.94276400  0.13248800  1
  O  O38  1  0.72968700  0.34571000  0.63538700  1
  O  O39  1  0.01509600  0.25715200  0.76288000  1
  O  O40  1  0.94276400  0.57474400  0.63248800  1
  O  O41  1  0.90462200  0.19258500  0.05498400  1
  O  O42  1  0.83007200  0.21178300  0.17836600  1
  O  O43  1  0.25715200  0.01509600  0.26288000  1
  O  O44  1  0.42525600  0.05723600  0.86751200  1
  O  O45  1  0.63227000  0.63879700  0.76006800  1
  O  O46  1  0.38770600  0.05164700  0.62727300  1
  O  O47  1  0.36773000  0.36120300  0.23993200  1
  O  O48  1  0.63879700  0.63227000  0.26006800  1
  O  O49  1  0.21178300  0.83007200  0.67836600  1
  O  O50  1  0.27585000  0.41410300  0.46246400  1
  O  O51  1  0.74284800  0.98490400  0.73712000  1
  O  O52  1  0.80741500  0.09537800  0.44501600  1
  O  O53  1  0.61229400  0.94835300  0.37272700  1
