# generated using pymatgen
data_Sr3(LiSb)4
_symmetry_space_group_name_H-M   'P 1'
_cell_length_a   9.12748644
_cell_length_b   9.12748644
_cell_length_c   9.12748644
_cell_angle_alpha   149.17364060
_cell_angle_beta   131.17074582
_cell_angle_gamma   58.86679759
_symmetry_Int_Tables_number   1
_chemical_formula_structural   Sr3(LiSb)4
_chemical_formula_sum   'Sr3 Li4 Sb4'
_cell_volume   291.01716443
_cell_formula_units_Z   1
loop_
 _symmetry_equiv_pos_site_id
 _symmetry_equiv_pos_as_xyz
  1  'x, y, z'
loop_
 _atom_site_type_symbol
 _atom_site_label
 _atom_site_symmetry_multiplicity
 _atom_site_fract_x
 _atom_site_fract_y
 _atom_site_fract_z
 _atom_site_occupancy
  Sr  Sr0  1  0.62989600  0.62989600  0.00000000  1
  Sr  Sr1  1  0.00000000  0.50000000  0.50000000  1
  Sr  Sr2  1  0.37010400  0.37010400  0.00000000  1
  Li  Li3  1  0.98357800  0.17727700  0.80630100  1
  Li  Li4  1  0.37097600  0.17727700  0.19369900  1
  Li  Li5  1  0.62902400  0.82272300  0.80630100  1
  Li  Li6  1  0.01642200  0.82272300  0.19369900  1
  Sb  Sb7  1  0.78641300  0.28641300  0.50000000  1
  Sb  Sb8  1  0.21358700  0.71358700  0.50000000  1
  Sb  Sb9  1  0.30882200  0.00000000  0.30882200  1
  Sb  Sb10  1  0.69117800  0.00000000  0.69117800  1
