# generated using pymatgen
data_Cs2GeP4O13
_symmetry_space_group_name_H-M   'P 1'
_cell_length_a   5.05580300
_cell_length_b   8.02060772
_cell_length_c   16.22953845
_cell_angle_alpha   84.53636002
_cell_angle_beta   84.30805611
_cell_angle_gamma   80.84309379
_symmetry_Int_Tables_number   1
_chemical_formula_structural   Cs2GeP4O13
_chemical_formula_sum   'Cs4 Ge2 P8 O26'
_cell_volume   644.41055407
_cell_formula_units_Z   2
loop_
 _symmetry_equiv_pos_site_id
 _symmetry_equiv_pos_as_xyz
  1  'x, y, z'
loop_
 _atom_site_type_symbol
 _atom_site_label
 _atom_site_symmetry_multiplicity
 _atom_site_fract_x
 _atom_site_fract_y
 _atom_site_fract_z
 _atom_site_occupancy
  Cs  Cs0  1  0.27177600  0.29487300  0.02895800  1
  Cs  Cs1  1  0.67446700  0.74331400  0.48859700  1
  Cs  Cs2  1  0.72822400  0.70512700  0.97104200  1
  Cs  Cs3  1  0.32553300  0.25668600  0.51140300  1
  Ge  Ge4  1  0.55086800  0.93825300  0.24173500  1
  Ge  Ge5  1  0.44913200  0.06174700  0.75826500  1
  P  P6  1  0.66337300  0.40686800  0.69647800  1
  P  P7  1  0.31505200  0.68390500  0.78656500  1
  P  P8  1  0.33662700  0.59313200  0.30352200  1
  P  P9  1  0.68494800  0.31609500  0.21343500  1
  P  P10  1  0.98304000  0.08757000  0.33522500  1
  P  P11  1  0.01696000  0.91243000  0.66477500  1
  P  P12  1  0.11491400  0.78454000  0.15285100  1
  P  P13  1  0.88508600  0.21546000  0.84714900  1
  O  O14  1  0.80805300  0.42022600  0.61267500  1
  O  O15  1  0.55118000  0.71171200  0.29044900  1
  O  O16  1  0.20444600  0.70780200  0.07273100  1
  O  O17  1  0.88733200  0.15227800  0.41767700  1
  O  O18  1  0.94689400  0.24135700  0.26059000  1
  O  O19  1  0.44633500  0.83485800  0.80642400  1
  O  O20  1  0.27729900  0.92446900  0.17161800  1
  O  O21  1  0.82669000  0.94930800  0.31144200  1
  O  O22  1  0.28983200  0.02164600  0.32835600  1
  O  O23  1  0.14298600  0.63822700  0.23013400  1
  O  O24  1  0.74510200  0.43321500  0.14055000  1
  O  O25  1  0.71016800  0.97835400  0.67164400  1
  O  O26  1  0.48796200  0.40527400  0.28652700  1
  O  O27  1  0.18928800  0.14184100  0.84382600  1
  O  O28  1  0.51203800  0.59472600  0.71347300  1
  O  O29  1  0.11266800  0.84772200  0.58232300  1
  O  O30  1  0.72270100  0.07553100  0.82838200  1
  O  O31  1  0.05310600  0.75864300  0.73941000  1
  O  O32  1  0.19194700  0.57977400  0.38732500  1
  O  O33  1  0.81071200  0.85815900  0.15617400  1
  O  O34  1  0.25489800  0.56678500  0.85945000  1
  O  O35  1  0.17331000  0.05069200  0.68855800  1
  O  O36  1  0.85701400  0.36177300  0.76986600  1
  O  O37  1  0.55366500  0.16514200  0.19357600  1
  O  O38  1  0.79555400  0.29219800  0.92726900  1
  O  O39  1  0.44882000  0.28828800  0.70955100  1
