# generated using pymatgen
data_HfB2O5
_symmetry_space_group_name_H-M   'P 1'
_cell_length_a   6.94852900
_cell_length_b   4.41155900
_cell_length_c   9.02944896
_cell_angle_alpha   89.31731024
_cell_angle_beta   90.00000000
_cell_angle_gamma   90.00000000
_symmetry_Int_Tables_number   1
_chemical_formula_structural   HfB2O5
_chemical_formula_sum   'Hf4 B8 O20'
_cell_volume   276.76768681
_cell_formula_units_Z   4
loop_
 _symmetry_equiv_pos_site_id
 _symmetry_equiv_pos_as_xyz
  1  'x, y, z'
loop_
 _atom_site_type_symbol
 _atom_site_label
 _atom_site_symmetry_multiplicity
 _atom_site_fract_x
 _atom_site_fract_y
 _atom_site_fract_z
 _atom_site_occupancy
  Hf  Hf0  1  0.88814900  0.99908500  0.67040500  1
  Hf  Hf1  1  0.11185100  0.00091500  0.32959500  1
  Hf  Hf2  1  0.61185100  0.99908500  0.17040500  1
  Hf  Hf3  1  0.38814900  0.00091500  0.82959500  1
  B  B4  1  0.58692400  0.53518000  0.66661800  1
  B  B5  1  0.41307600  0.46482000  0.33338200  1
  B  B6  1  0.08692400  0.46482000  0.83338200  1
  B  B7  1  0.72907500  0.47256200  0.92349100  1
  B  B8  1  0.91307600  0.53518000  0.16661800  1
  B  B9  1  0.27092500  0.52743800  0.07650900  1
  B  B10  1  0.77092500  0.47256200  0.42349100  1
  B  B11  1  0.22907500  0.52743800  0.57650900  1
  O  O12  1  0.10490100  0.67073400  0.15085900  1
  O  O13  1  0.59698000  0.23053900  0.96818100  1
  O  O14  1  0.39509900  0.67073400  0.65085900  1
  O  O15  1  0.15501900  0.30443800  0.69191000  1
  O  O16  1  0.09698000  0.76946100  0.53181900  1
  O  O17  1  0.09011800  0.78758000  0.82007500  1
  O  O18  1  0.72203800  0.65275600  0.55487000  1
  O  O19  1  0.89509900  0.32926600  0.84914100  1
  O  O20  1  0.60490100  0.32926600  0.34914100  1
  O  O21  1  0.77796200  0.65275600  0.05487000  1
  O  O22  1  0.90988200  0.21242000  0.17992500  1
  O  O23  1  0.59011800  0.21242000  0.67992500  1
  O  O24  1  0.27796200  0.34724400  0.44513000  1
  O  O25  1  0.65501900  0.69556200  0.80809000  1
  O  O26  1  0.84498100  0.69556200  0.30809000  1
  O  O27  1  0.34498100  0.30443800  0.19191000  1
  O  O28  1  0.90302000  0.23053900  0.46818100  1
  O  O29  1  0.22203800  0.34724400  0.94513000  1
  O  O30  1  0.40988200  0.78758000  0.32007500  1
  O  O31  1  0.40302000  0.76946100  0.03181900  1
