# generated using pymatgen
data_CoTeMoO6
_symmetry_space_group_name_H-M   'P 1'
_cell_length_a   5.11611513
_cell_length_b   5.33199836
_cell_length_c   9.18593502
_cell_angle_alpha   90.01099808
_cell_angle_beta   89.99646012
_cell_angle_gamma   90.00615388
_symmetry_Int_Tables_number   1
_chemical_formula_structural   CoTeMoO6
_chemical_formula_sum   'Co2 Te2 Mo2 O12'
_cell_volume   250.58419426
_cell_formula_units_Z   2
loop_
 _symmetry_equiv_pos_site_id
 _symmetry_equiv_pos_as_xyz
  1  'x, y, z'
loop_
 _atom_site_type_symbol
 _atom_site_label
 _atom_site_symmetry_multiplicity
 _atom_site_fract_x
 _atom_site_fract_y
 _atom_site_fract_z
 _atom_site_occupancy
  Co  Co0  1  0.50001500  0.50000800  0.52594800  1
  Co  Co1  1  0.00000600  0.99996200  0.47405000  1
  Te  Te2  1  0.99996300  0.49998800  0.26033500  1
  Te  Te3  1  0.50004100  0.00000900  0.73971200  1
  Mo  Mo4  1  0.49998800  0.99996200  0.19800600  1
  Mo  Mo5  1  0.99999500  0.49999100  0.80196600  1
  O  O6  1  0.24200200  0.81523000  0.29968900  1
  O  O7  1  0.75793100  0.18477200  0.29970800  1
  O  O8  1  0.74203300  0.68481700  0.70031700  1
  O  O9  1  0.25801800  0.31520600  0.70031900  1
  O  O10  1  0.28127000  0.82084200  0.60369400  1
  O  O11  1  0.71879500  0.17918800  0.60372200  1
  O  O12  1  0.78126700  0.67914400  0.39633800  1
  O  O13  1  0.21872600  0.32084700  0.39631200  1
  O  O14  1  0.66089300  0.79137100  0.08352900  1
  O  O15  1  0.16096200  0.70865400  0.91643100  1
  O  O16  1  0.83907000  0.29135600  0.91641700  1
  O  O17  1  0.33902500  0.20865300  0.08350700  1
