# generated using pymatgen
data_SrFe2(PO4)2
_symmetry_space_group_name_H-M   'P 1'
_cell_length_a   6.95984600
_cell_length_b   9.53211400
_cell_length_c   10.69631585
_cell_angle_alpha   70.20809994
_cell_angle_beta   90.00000000
_cell_angle_gamma   90.00000000
_symmetry_Int_Tables_number   1
_chemical_formula_structural   SrFe2(PO4)2
_chemical_formula_sum   'Sr4 Fe8 P8 O32'
_cell_volume   667.69752662
_cell_formula_units_Z   4
loop_
 _symmetry_equiv_pos_site_id
 _symmetry_equiv_pos_as_xyz
  1  'x, y, z'
loop_
 _atom_site_type_symbol
 _atom_site_label
 _atom_site_symmetry_multiplicity
 _atom_site_fract_x
 _atom_site_fract_y
 _atom_site_fract_z
 _atom_site_occupancy
  Sr  Sr0  1  0.88025900  0.30499700  0.98246000  1
  Sr  Sr1  1  0.38025900  0.69500300  0.51754000  1
  Sr  Sr2  1  0.11974100  0.69500300  0.01754000  1
  Sr  Sr3  1  0.61974100  0.30499700  0.48246000  1
  Fe  Fe4  1  0.34847200  0.07949600  0.88216500  1
  Fe  Fe5  1  0.84847200  0.92050400  0.61783500  1
  Fe  Fe6  1  0.65152800  0.92050400  0.11783500  1
  Fe  Fe7  1  0.15152800  0.07949600  0.38216500  1
  Fe  Fe8  1  0.10725000  0.28791400  0.66654900  1
  Fe  Fe9  1  0.60725000  0.71208600  0.83345100  1
  Fe  Fe10  1  0.89275000  0.71208600  0.33345100  1
  Fe  Fe11  1  0.39275000  0.28791400  0.16654900  1
  P  P12  1  0.82589100  0.03536200  0.82725500  1
  P  P13  1  0.32589100  0.96463800  0.67274500  1
  P  P14  1  0.17410900  0.96463800  0.17274500  1
  P  P15  1  0.67410900  0.03536200  0.32725500  1
  P  P16  1  0.14520200  0.42209600  0.38030800  1
  P  P17  1  0.64520200  0.57790400  0.11969200  1
  P  P18  1  0.85479800  0.57790400  0.61969200  1
  P  P19  1  0.35479800  0.42209600  0.88030800  1
  O  O20  1  0.78719900  0.10711100  0.67564100  1
  O  O21  1  0.28719900  0.89288900  0.82435900  1
  O  O22  1  0.21280100  0.89288900  0.32435900  1
  O  O23  1  0.71280100  0.10711100  0.17564100  1
  O  O24  1  0.00793400  0.11141600  0.85911700  1
  O  O25  1  0.50793400  0.88858400  0.64088300  1
  O  O26  1  0.99206600  0.88858400  0.14088300  1
  O  O27  1  0.49206600  0.11141600  0.35911700  1
  O  O28  1  0.34676700  0.13533500  0.64496700  1
  O  O29  1  0.84676700  0.86466500  0.85503300  1
  O  O30  1  0.65323300  0.86466500  0.35503300  1
  O  O31  1  0.15323300  0.13533500  0.14496700  1
  O  O32  1  0.65640400  0.06152400  0.91376500  1
  O  O33  1  0.15640400  0.93847600  0.58623500  1
  O  O34  1  0.34359600  0.93847600  0.08623500  1
  O  O35  1  0.84359600  0.06152400  0.41376500  1
  O  O36  1  0.91952500  0.43159600  0.72612500  1
  O  O37  1  0.41952500  0.56840400  0.77387500  1
  O  O38  1  0.08047500  0.56840400  0.27387500  1
  O  O39  1  0.58047500  0.43159600  0.22612500  1
  O  O40  1  0.31427800  0.44866100  0.46379600  1
  O  O41  1  0.81427800  0.55133900  0.03620400  1
  O  O42  1  0.68572200  0.55133900  0.53620400  1
  O  O43  1  0.18572200  0.44866100  0.96379600  1
  O  O44  1  0.98347500  0.34521000  0.48136600  1
  O  O45  1  0.48347500  0.65479000  0.01863400  1
  O  O46  1  0.01652500  0.65479000  0.51863400  1
  O  O47  1  0.51652500  0.34521000  0.98136600  1
  O  O48  1  0.30289300  0.30651700  0.80953500  1
  O  O49  1  0.80289300  0.69348300  0.69046500  1
  O  O50  1  0.69710700  0.69348300  0.19046500  1
  O  O51  1  0.19710700  0.30651700  0.30953500  1
