# generated using pymatgen
data_KV3(SeO6)2
_symmetry_space_group_name_H-M   'P 1'
_cell_length_a   7.15859961
_cell_length_b   7.15859961
_cell_length_c   11.93219100
_cell_angle_alpha   90.00000000
_cell_angle_beta   90.00000000
_cell_angle_gamma   119.99999635
_symmetry_Int_Tables_number   1
_chemical_formula_structural   KV3(SeO6)2
_chemical_formula_sum   'K2 V6 Se4 O24'
_cell_volume   529.55001968
_cell_formula_units_Z   2
loop_
 _symmetry_equiv_pos_site_id
 _symmetry_equiv_pos_as_xyz
  1  'x, y, z'
loop_
 _atom_site_type_symbol
 _atom_site_label
 _atom_site_symmetry_multiplicity
 _atom_site_fract_x
 _atom_site_fract_y
 _atom_site_fract_z
 _atom_site_occupancy
  K  K0  1  0.33333300  0.66666700  0.94916300  1
  K  K1  1  0.66666700  0.33333300  0.44916300  1
  V  V2  1  0.79343600  0.12651400  0.78414800  1
  V  V3  1  0.66692200  0.79343600  0.28414800  1
  V  V4  1  0.12651400  0.33307800  0.28414800  1
  V  V5  1  0.87348600  0.66692200  0.78414800  1
  V  V6  1  0.33307800  0.20656400  0.78414800  1
  V  V7  1  0.20656400  0.87348600  0.28414800  1
  Se  Se8  1  0.33333300  0.66666700  0.50556300  1
  Se  Se9  1  0.66666700  0.33333300  0.00556300  1
  Se  Se10  1  0.00000000  0.00000000  0.06615100  1
  Se  Se11  1  0.00000000  0.00000000  0.56615100  1
  O  O12  1  0.80057700  0.21344800  0.94468600  1
  O  O13  1  0.58712900  0.80057700  0.44468600  1
  O  O14  1  0.21344800  0.41287100  0.44468600  1
  O  O15  1  0.78655200  0.58712900  0.94468600  1
  O  O16  1  0.41287100  0.19942300  0.94468600  1
  O  O17  1  0.19942300  0.78655200  0.44468600  1
  O  O18  1  0.87759000  0.13191700  0.62844900  1
  O  O19  1  0.74567200  0.87759000  0.12844900  1
  O  O20  1  0.13191700  0.25432800  0.12844900  1
  O  O21  1  0.86808300  0.74567200  0.62844900  1
  O  O22  1  0.25432800  0.12241000  0.62844900  1
  O  O23  1  0.12241000  0.86808300  0.12844900  1
  O  O24  1  0.74780500  0.87445400  0.81541700  1
  O  O25  1  0.87335100  0.74780500  0.31541700  1
  O  O26  1  0.87445400  0.12664900  0.31541700  1
  O  O27  1  0.12554600  0.87335100  0.81541700  1
  O  O28  1  0.12664900  0.25219500  0.81541700  1
  O  O29  1  0.25219500  0.12554600  0.31541700  1
  O  O30  1  0.54106000  0.08262100  0.75935900  1
  O  O31  1  0.45843900  0.54106000  0.25935900  1
  O  O32  1  0.08262100  0.54156100  0.25935900  1
  O  O33  1  0.91737900  0.45843900  0.75935900  1
  O  O34  1  0.54156100  0.45894000  0.75935900  1
  O  O35  1  0.45894000  0.91737900  0.25935900  1
