# generated using pymatgen
data_SrZn(SeO3)2
_symmetry_space_group_name_H-M   'P 1'
_cell_length_a   15.17288900
_cell_length_b   4.58023400
_cell_length_c   10.18503074
_cell_angle_alpha   68.75616590
_cell_angle_beta   90.00000000
_cell_angle_gamma   90.00000000
_symmetry_Int_Tables_number   1
_chemical_formula_structural   SrZn(SeO3)2
_chemical_formula_sum   'Sr4 Zn4 Se8 O24'
_cell_volume   659.71451939
_cell_formula_units_Z   4
loop_
 _symmetry_equiv_pos_site_id
 _symmetry_equiv_pos_as_xyz
  1  'x, y, z'
loop_
 _atom_site_type_symbol
 _atom_site_label
 _atom_site_symmetry_multiplicity
 _atom_site_fract_x
 _atom_site_fract_y
 _atom_site_fract_z
 _atom_site_occupancy
  Sr  Sr0  1  0.11666400  0.28753700  0.45922100  1
  Sr  Sr1  1  0.38333600  0.28753700  0.95922100  1
  Sr  Sr2  1  0.88333600  0.71246300  0.54077900  1
  Sr  Sr3  1  0.61666400  0.71246300  0.04077900  1
  Zn  Zn4  1  0.84868000  0.50797100  0.22266500  1
  Zn  Zn5  1  0.65132000  0.50797100  0.72266500  1
  Zn  Zn6  1  0.34868000  0.49202900  0.27733500  1
  Zn  Zn7  1  0.15132000  0.49202900  0.77733500  1
  Se  Se8  1  0.30235200  0.64025500  0.56350800  1
  Se  Se9  1  0.00520200  0.97328200  0.77946100  1
  Se  Se10  1  0.80235200  0.35974500  0.93649200  1
  Se  Se11  1  0.19764800  0.64025500  0.06350800  1
  Se  Se12  1  0.99479800  0.02671800  0.22053900  1
  Se  Se13  1  0.49479800  0.97328200  0.27946100  1
  Se  Se14  1  0.50520200  0.02671800  0.72053900  1
  Se  Se15  1  0.69764800  0.35974500  0.43649200  1
  O  O16  1  0.81006300  0.27371100  0.42612800  1
  O  O17  1  0.18752700  0.37157300  0.22882200  1
  O  O18  1  0.98019000  0.40183700  0.22048200  1
  O  O19  1  0.79046600  0.59366200  0.03851100  1
  O  O20  1  0.31006300  0.72628900  0.07387200  1
  O  O21  1  0.53432400  0.16328100  0.11052600  1
  O  O22  1  0.81247300  0.62842700  0.77117800  1
  O  O23  1  0.03432400  0.83671900  0.38947400  1
  O  O24  1  0.46567600  0.83671900  0.88947400  1
  O  O25  1  0.38344900  0.07966400  0.25650300  1
  O  O26  1  0.01981000  0.59816300  0.77951800  1
  O  O27  1  0.70953400  0.59366200  0.53851100  1
  O  O28  1  0.96567600  0.16328100  0.61052600  1
  O  O29  1  0.68993700  0.27371100  0.92612800  1
  O  O30  1  0.18993700  0.72628900  0.57387200  1
  O  O31  1  0.48019000  0.59816300  0.27951800  1
  O  O32  1  0.51981000  0.40183700  0.72048200  1
  O  O33  1  0.20953400  0.40633800  0.96148900  1
  O  O34  1  0.11655100  0.07966400  0.75650300  1
  O  O35  1  0.61655100  0.92033600  0.74349700  1
  O  O36  1  0.31247300  0.37157300  0.72882200  1
  O  O37  1  0.88344900  0.92033600  0.24349700  1
  O  O38  1  0.29046600  0.40633800  0.46148900  1
  O  O39  1  0.68752700  0.62842700  0.27117800  1
