# generated using pymatgen
data_Na2Sn3Au
_symmetry_space_group_name_H-M   'P 1'
_cell_length_a   9.82414959
_cell_length_b   9.82414959
_cell_length_c   7.60651400
_cell_angle_alpha   90.00000000
_cell_angle_beta   90.00000000
_cell_angle_gamma   119.99999726
_symmetry_Int_Tables_number   1
_chemical_formula_structural   Na2Sn3Au
_chemical_formula_sum   'Na8 Sn12 Au4'
_cell_volume   635.77909872
_cell_formula_units_Z   4
loop_
 _symmetry_equiv_pos_site_id
 _symmetry_equiv_pos_as_xyz
  1  'x, y, z'
loop_
 _atom_site_type_symbol
 _atom_site_label
 _atom_site_symmetry_multiplicity
 _atom_site_fract_x
 _atom_site_fract_y
 _atom_site_fract_z
 _atom_site_occupancy
  Na  Na0  1  0.53200100  0.06400100  0.25000000  1
  Na  Na1  1  0.06400100  0.53200100  0.75000000  1
  Na  Na2  1  0.46799900  0.53200100  0.75000000  1
  Na  Na3  1  0.53200100  0.46799900  0.25000000  1
  Na  Na4  1  0.46799900  0.93599900  0.75000000  1
  Na  Na5  1  0.93599900  0.46799900  0.25000000  1
  Na  Na6  1  0.00000000  0.00000000  0.75000000  1
  Na  Na7  1  0.00000000  0.00000000  0.25000000  1
  Sn  Sn8  1  0.17113700  0.82886300  0.05257100  1
  Sn  Sn9  1  0.82886300  0.65772600  0.55257100  1
  Sn  Sn10  1  0.34227400  0.17113700  0.55257100  1
  Sn  Sn11  1  0.82886300  0.17113700  0.94742900  1
  Sn  Sn12  1  0.82886300  0.65772600  0.94742900  1
  Sn  Sn13  1  0.82886300  0.17113700  0.55257100  1
  Sn  Sn14  1  0.34227400  0.17113700  0.94742900  1
  Sn  Sn15  1  0.65772600  0.82886300  0.05257100  1
  Sn  Sn16  1  0.65772600  0.82886300  0.44742900  1
  Sn  Sn17  1  0.17113700  0.34227400  0.44742900  1
  Sn  Sn18  1  0.17113700  0.82886300  0.44742900  1
  Sn  Sn19  1  0.17113700  0.34227400  0.05257100  1
  Au  Au20  1  0.33333300  0.66666700  0.45813400  1
  Au  Au21  1  0.66666700  0.33333300  0.54186600  1
  Au  Au22  1  0.66666700  0.33333300  0.95813400  1
  Au  Au23  1  0.33333300  0.66666700  0.04186600  1
