# generated using pymatgen
data_Tb4CdCo
_symmetry_space_group_name_H-M   'P 1'
_cell_length_a   9.53818034
_cell_length_b   9.53818034
_cell_length_c   9.53818034
_cell_angle_alpha   60.00000000
_cell_angle_beta   60.00000000
_cell_angle_gamma   60.00000000
_symmetry_Int_Tables_number   1
_chemical_formula_structural   Tb4CdCo
_chemical_formula_sum   'Tb16 Cd4 Co4'
_cell_volume   613.59468745
_cell_formula_units_Z   4
loop_
 _symmetry_equiv_pos_site_id
 _symmetry_equiv_pos_as_xyz
  1  'x, y, z'
loop_
 _atom_site_type_symbol
 _atom_site_label
 _atom_site_symmetry_multiplicity
 _atom_site_fract_x
 _atom_site_fract_y
 _atom_site_fract_z
 _atom_site_occupancy
  Tb  Tb0  1  0.43854200  0.43854200  0.06145800  1
  Tb  Tb1  1  0.59648900  0.59648900  0.59648900  1
  Tb  Tb2  1  0.18830200  0.81169800  0.81169800  1
  Tb  Tb3  1  0.06145800  0.06145800  0.43854200  1
  Tb  Tb4  1  0.43854200  0.06145800  0.06145800  1
  Tb  Tb5  1  0.81169800  0.18830200  0.81169800  1
  Tb  Tb6  1  0.43854200  0.06145800  0.43854200  1
  Tb  Tb7  1  0.59648900  0.21053300  0.59648900  1
  Tb  Tb8  1  0.81169800  0.81169800  0.18830200  1
  Tb  Tb9  1  0.21053300  0.59648900  0.59648900  1
  Tb  Tb10  1  0.81169800  0.18830200  0.18830200  1
  Tb  Tb11  1  0.06145800  0.43854200  0.43854200  1
  Tb  Tb12  1  0.18830200  0.81169800  0.18830200  1
  Tb  Tb13  1  0.59648900  0.59648900  0.21053300  1
  Tb  Tb14  1  0.18830200  0.18830200  0.81169800  1
  Tb  Tb15  1  0.06145800  0.43854200  0.06145800  1
  Cd  Cd16  1  0.83032800  0.83032800  0.50901500  1
  Cd  Cd17  1  0.83032800  0.83032800  0.83032800  1
  Cd  Cd18  1  0.50901500  0.83032800  0.83032800  1
  Cd  Cd19  1  0.83032800  0.50901500  0.83032800  1
  Co  Co20  1  0.39103500  0.39103500  0.39103500  1
  Co  Co21  1  0.82689600  0.39103500  0.39103500  1
  Co  Co22  1  0.39103500  0.82689600  0.39103500  1
  Co  Co23  1  0.39103500  0.39103500  0.82689600  1
