# generated using pymatgen
data_La3CuSiS7
_symmetry_space_group_name_H-M   'P 1'
_cell_length_a   10.36158403
_cell_length_b   10.36158403
_cell_length_c   5.85549200
_cell_angle_alpha   90.00000000
_cell_angle_beta   90.00000000
_cell_angle_gamma   120.00000018
_symmetry_Int_Tables_number   1
_chemical_formula_structural   La3CuSiS7
_chemical_formula_sum   'La6 Cu2 Si2 S14'
_cell_volume   544.43536683
_cell_formula_units_Z   2
loop_
 _symmetry_equiv_pos_site_id
 _symmetry_equiv_pos_as_xyz
  1  'x, y, z'
loop_
 _atom_site_type_symbol
 _atom_site_label
 _atom_site_symmetry_multiplicity
 _atom_site_fract_x
 _atom_site_fract_y
 _atom_site_fract_z
 _atom_site_occupancy
  La  La0  1  0.12276300  0.35643500  0.24935100  1
  La  La1  1  0.76632900  0.12276300  0.74935100  1
  La  La2  1  0.35643500  0.23367100  0.74935100  1
  La  La3  1  0.64356500  0.76632900  0.24935100  1
  La  La4  1  0.23367100  0.87723700  0.24935100  1
  La  La5  1  0.87723700  0.64356500  0.74935100  1
  Cu  Cu6  1  0.00000000  0.00000000  0.27543800  1
  Cu  Cu7  1  0.00000000  0.00000000  0.77543800  1
  Si  Si8  1  0.33333300  0.66666700  0.66373100  1
  Si  Si9  1  0.66666700  0.33333300  0.16373100  1
  S  S10  1  0.08454400  0.24810300  0.76222000  1
  S  S11  1  0.83644100  0.08454400  0.26222000  1
  S  S12  1  0.24810300  0.16355900  0.26222000  1
  S  S13  1  0.75189700  0.83644100  0.76222000  1
  S  S14  1  0.16355900  0.91545600  0.76222000  1
  S  S15  1  0.91545600  0.75189700  0.26222000  1
  S  S16  1  0.40997000  0.52533700  0.52302700  1
  S  S17  1  0.88463300  0.40997000  0.02302700  1
  S  S18  1  0.52533700  0.11536700  0.02302700  1
  S  S19  1  0.47466300  0.88463300  0.52302700  1
  S  S20  1  0.11536700  0.59003000  0.52302700  1
  S  S21  1  0.59003000  0.47466300  0.02302700  1
  S  S22  1  0.33333300  0.66666700  0.02503700  1
  S  S23  1  0.66666700  0.33333300  0.52503700  1
