# generated using pymatgen
data_Pr2Sc3Si4
_symmetry_space_group_name_H-M   'P 1'
_cell_length_a   7.25102500
_cell_length_b   7.55038700
_cell_length_c   14.25646200
_cell_angle_alpha   90.00000000
_cell_angle_beta   90.00000000
_cell_angle_gamma   90.00000000
_symmetry_Int_Tables_number   1
_chemical_formula_structural   Pr2Sc3Si4
_chemical_formula_sum   'Pr8 Sc12 Si16'
_cell_volume   780.51342164
_cell_formula_units_Z   4
loop_
 _symmetry_equiv_pos_site_id
 _symmetry_equiv_pos_as_xyz
  1  'x, y, z'
loop_
 _atom_site_type_symbol
 _atom_site_label
 _atom_site_symmetry_multiplicity
 _atom_site_fract_x
 _atom_site_fract_y
 _atom_site_fract_z
 _atom_site_occupancy
  Pr  Pr0  1  0.01200200  0.17240200  0.40240600  1
  Pr  Pr1  1  0.51200200  0.32759800  0.40240600  1
  Pr  Pr2  1  0.48799800  0.67240200  0.90240600  1
  Pr  Pr3  1  0.48799800  0.67240200  0.59759400  1
  Pr  Pr4  1  0.98799800  0.82759800  0.59759400  1
  Pr  Pr5  1  0.98799800  0.82759800  0.90240600  1
  Pr  Pr6  1  0.51200200  0.32759800  0.09759400  1
  Pr  Pr7  1  0.01200200  0.17240200  0.09759400  1
  Sc  Sc8  1  0.32902500  0.17568200  0.62512300  1
  Sc  Sc9  1  0.67097500  0.82431800  0.37487700  1
  Sc  Sc10  1  0.66182000  0.99982000  0.75000000  1
  Sc  Sc11  1  0.17097500  0.67568200  0.37487700  1
  Sc  Sc12  1  0.82902500  0.32431800  0.87487700  1
  Sc  Sc13  1  0.82902500  0.32431800  0.62512300  1
  Sc  Sc14  1  0.83818000  0.49982000  0.25000000  1
  Sc  Sc15  1  0.33818000  0.00018000  0.25000000  1
  Sc  Sc16  1  0.32902500  0.17568200  0.87487700  1
  Sc  Sc17  1  0.17097500  0.67568200  0.12512300  1
  Sc  Sc18  1  0.67097500  0.82431800  0.12512300  1
  Sc  Sc19  1  0.16182000  0.50018000  0.75000000  1
  Si  Si20  1  0.28718600  0.88254700  0.75000000  1
  Si  Si21  1  0.46500400  0.62465400  0.25000000  1
  Si  Si22  1  0.03499600  0.12465400  0.75000000  1
  Si  Si23  1  0.53499600  0.37534600  0.75000000  1
  Si  Si24  1  0.15137500  0.46305500  0.53966400  1
  Si  Si25  1  0.96500400  0.87534600  0.25000000  1
  Si  Si26  1  0.71281400  0.11745300  0.25000000  1
  Si  Si27  1  0.84862500  0.53694500  0.03966400  1
  Si  Si28  1  0.34862500  0.96305500  0.03966400  1
  Si  Si29  1  0.15137500  0.46305500  0.96033600  1
  Si  Si30  1  0.65137500  0.03694500  0.53966400  1
  Si  Si31  1  0.34862500  0.96305500  0.46033600  1
  Si  Si32  1  0.84862500  0.53694500  0.46033600  1
  Si  Si33  1  0.78718600  0.61745300  0.75000000  1
  Si  Si34  1  0.21281400  0.38254700  0.25000000  1
  Si  Si35  1  0.65137500  0.03694500  0.96033600  1
