# generated using pymatgen
data_ThSe2O7
_symmetry_space_group_name_H-M   'P 1'
_cell_length_a   9.66737000
_cell_length_b   7.14157200
_cell_length_c   9.16590241
_cell_angle_alpha   76.72696613
_cell_angle_beta   90.00000000
_cell_angle_gamma   90.00000000
_symmetry_Int_Tables_number   1
_chemical_formula_structural   ThSe2O7
_chemical_formula_sum   'Th4 Se8 O28'
_cell_volume   615.91152103
_cell_formula_units_Z   4
loop_
 _symmetry_equiv_pos_site_id
 _symmetry_equiv_pos_as_xyz
  1  'x, y, z'
loop_
 _atom_site_type_symbol
 _atom_site_label
 _atom_site_symmetry_multiplicity
 _atom_site_fract_x
 _atom_site_fract_y
 _atom_site_fract_z
 _atom_site_occupancy
  Th  Th0  1  0.46043000  0.20777000  0.13415400  1
  Th  Th1  1  0.03957000  0.20777000  0.63415400  1
  Th  Th2  1  0.53957000  0.79223000  0.86584600  1
  Th  Th3  1  0.96043000  0.79223000  0.36584600  1
  Se  Se4  1  0.59586600  0.67218800  0.24864000  1
  Se  Se5  1  0.90413400  0.67218800  0.74864000  1
  Se  Se6  1  0.18206400  0.87905800  0.01751400  1
  Se  Se7  1  0.68206400  0.12094200  0.48248600  1
  Se  Se8  1  0.40413400  0.32781200  0.75136000  1
  Se  Se9  1  0.31793600  0.87905800  0.51751400  1
  Se  Se10  1  0.81793600  0.12094200  0.98248600  1
  Se  Se11  1  0.09586600  0.32781200  0.25136000  1
  O  O12  1  0.08556100  0.95358500  0.86508200  1
  O  O13  1  0.81018800  0.25425000  0.52502100  1
  O  O14  1  0.94038200  0.89596100  0.62498600  1
  O  O15  1  0.93920300  0.55061700  0.60718300  1
  O  O16  1  0.41443900  0.95358500  0.36508200  1
  O  O17  1  0.06079700  0.44938300  0.39281700  1
  O  O18  1  0.77320900  0.66311000  0.25714500  1
  O  O19  1  0.68981200  0.25425000  0.02502100  1
  O  O20  1  0.91259200  0.26911300  0.85174000  1
  O  O21  1  0.31018800  0.74575000  0.97497900  1
  O  O22  1  0.72679100  0.66311000  0.75714500  1
  O  O23  1  0.27320900  0.33689000  0.24285500  1
  O  O24  1  0.26483000  0.05985300  0.59242600  1
  O  O25  1  0.76483000  0.94014700  0.90757400  1
  O  O26  1  0.05961800  0.10403900  0.37501400  1
  O  O27  1  0.18981200  0.74575000  0.47497900  1
  O  O28  1  0.43920300  0.44938300  0.89281700  1
  O  O29  1  0.08740800  0.73088700  0.14826000  1
  O  O30  1  0.41259200  0.73088700  0.64826000  1
  O  O31  1  0.55961800  0.89596100  0.12498600  1
  O  O32  1  0.58740800  0.26911300  0.35174000  1
  O  O33  1  0.56079700  0.55061700  0.10718300  1
  O  O34  1  0.44038200  0.10403900  0.87501400  1
  O  O35  1  0.58556100  0.04641500  0.63491800  1
  O  O36  1  0.73517000  0.94014700  0.40757400  1
  O  O37  1  0.91443900  0.04641500  0.13491800  1
  O  O38  1  0.23517000  0.05985300  0.09242600  1
  O  O39  1  0.22679100  0.33689000  0.74285500  1
