# generated using pymatgen
data_Na3NiF6
_symmetry_space_group_name_H-M   'P 1'
_cell_length_a   5.78268400
_cell_length_b   5.51243000
_cell_length_c   9.63657659
_cell_angle_alpha   55.77575986
_cell_angle_beta   90.00000000
_cell_angle_gamma   90.00000000
_symmetry_Int_Tables_number   1
_chemical_formula_structural   Na3NiF6
_chemical_formula_sum   'Na6 Ni2 F12'
_cell_volume   253.99093786
_cell_formula_units_Z   2
loop_
 _symmetry_equiv_pos_site_id
 _symmetry_equiv_pos_as_xyz
  1  'x, y, z'
loop_
 _atom_site_type_symbol
 _atom_site_label
 _atom_site_symmetry_multiplicity
 _atom_site_fract_x
 _atom_site_fract_y
 _atom_site_fract_z
 _atom_site_occupancy
  Na  Na0  1  0.55917100  0.72124700  0.25763400  1
  Na  Na1  1  0.05917100  0.27875300  0.24236600  1
  Na  Na2  1  0.44082900  0.27875300  0.74236600  1
  Na  Na3  1  0.94082900  0.72124700  0.75763400  1
  Na  Na4  1  0.50000000  0.50000000  0.00000000  1
  Na  Na5  1  0.00000000  0.50000000  0.50000000  1
  Ni  Ni6  1  0.50000000  0.00000000  0.50000000  1
  Ni  Ni7  1  0.00000000  0.00000000  0.00000000  1
  F  F8  1  0.22778300  0.75314700  0.57623700  1
  F  F9  1  0.72778300  0.24685300  0.92376300  1
  F  F10  1  0.77221700  0.24685300  0.42376300  1
  F  F11  1  0.27221700  0.75314700  0.07623700  1
  F  F12  1  0.32103900  0.33059600  0.45121200  1
  F  F13  1  0.82103900  0.66940400  0.04878800  1
  F  F14  1  0.67896100  0.66940400  0.54878800  1
  F  F15  1  0.17896100  0.33059600  0.95121200  1
  F  F16  1  0.05952200  0.10423600  0.77667900  1
  F  F17  1  0.55952200  0.89576400  0.72332100  1
  F  F18  1  0.94047800  0.89576400  0.22332100  1
  F  F19  1  0.44047800  0.10423600  0.27667900  1
