# generated using pymatgen
data_Ag5Hg4P8Cl5
_symmetry_space_group_name_H-M   'P 1'
_cell_length_a   9.20537698
_cell_length_b   9.20537698
_cell_length_c   6.36098065
_cell_angle_alpha   79.22836993
_cell_angle_beta   79.22836993
_cell_angle_gamma   74.55611629
_symmetry_Int_Tables_number   1
_chemical_formula_structural   Ag5Hg4P8Cl5
_chemical_formula_sum   'Ag5 Hg4 P8 Cl5'
_cell_volume   505.02478592
_cell_formula_units_Z   1
loop_
 _symmetry_equiv_pos_site_id
 _symmetry_equiv_pos_as_xyz
  1  'x, y, z'
loop_
 _atom_site_type_symbol
 _atom_site_label
 _atom_site_symmetry_multiplicity
 _atom_site_fract_x
 _atom_site_fract_y
 _atom_site_fract_z
 _atom_site_occupancy
  Ag  Ag0  1  0.14652300  0.85347700  0.00000000  1
  Ag  Ag1  1  0.79550400  0.79550400  0.94533900  1
  Ag  Ag2  1  0.20449600  0.20449600  0.05466100  1
  Ag  Ag3  1  0.85347700  0.14652300  0.00000000  1
  Ag  Ag4  1  0.50000000  0.50000000  0.00000000  1
  Hg  Hg5  1  0.48213600  0.82508400  0.46702400  1
  Hg  Hg6  1  0.51786400  0.17491600  0.53297600  1
  Hg  Hg7  1  0.82508400  0.48213600  0.46702400  1
  Hg  Hg8  1  0.17491600  0.51786400  0.53297600  1
  P  P9  1  0.09848500  0.79615500  0.40031400  1
  P  P10  1  0.20384500  0.90151500  0.59968600  1
  P  P11  1  0.85824100  0.85824100  0.55425500  1
  P  P12  1  0.79615500  0.09848500  0.40031400  1
  P  P13  1  0.75963600  0.75963600  0.34116100  1
  P  P14  1  0.14175900  0.14175900  0.44574500  1
  P  P15  1  0.90151500  0.20384500  0.59968600  1
  P  P16  1  0.24036400  0.24036400  0.65883900  1
  Cl  Cl17  1  0.19643000  0.52629200  0.02303700  1
  Cl  Cl18  1  0.80357000  0.47370800  0.97696300  1
  Cl  Cl19  1  0.47370800  0.80357000  0.97696300  1
  Cl  Cl20  1  0.52629200  0.19643000  0.02303700  1
  Cl  Cl21  1  0.50000000  0.50000000  0.50000000  1
