# generated using pymatgen
data_K4Sn9
_symmetry_space_group_name_H-M   'P 1'
_cell_length_a   8.46889000
_cell_length_b   14.46634000
_cell_length_c   16.72447316
_cell_angle_alpha   84.88814153
_cell_angle_beta   90.00000000
_cell_angle_gamma   90.00000000
_symmetry_Int_Tables_number   1
_chemical_formula_structural   K4Sn9
_chemical_formula_sum   'K16 Sn36'
_cell_volume   2040.82994711
_cell_formula_units_Z   4
loop_
 _symmetry_equiv_pos_site_id
 _symmetry_equiv_pos_as_xyz
  1  'x, y, z'
loop_
 _atom_site_type_symbol
 _atom_site_label
 _atom_site_symmetry_multiplicity
 _atom_site_fract_x
 _atom_site_fract_y
 _atom_site_fract_z
 _atom_site_occupancy
  K  K0  1  0.97000200  0.61200800  0.35718700  1
  K  K1  1  0.56067400  0.50894700  0.61569300  1
  K  K2  1  0.52999800  0.61200800  0.85718700  1
  K  K3  1  0.43932600  0.49105300  0.38430700  1
  K  K4  1  0.42942400  0.07533900  0.23814000  1
  K  K5  1  0.57057600  0.92466100  0.76186000  1
  K  K6  1  0.47000200  0.38799200  0.14281300  1
  K  K7  1  0.56497300  0.83725800  0.44730200  1
  K  K8  1  0.93502700  0.83725800  0.94730200  1
  K  K9  1  0.07057600  0.07533900  0.73814000  1
  K  K10  1  0.43502700  0.16274200  0.55269800  1
  K  K11  1  0.06067400  0.49105300  0.88430700  1
  K  K12  1  0.02999800  0.38799200  0.64281300  1
  K  K13  1  0.06497300  0.16274200  0.05269800  1
  K  K14  1  0.92942400  0.92466100  0.26186000  1
  K  K15  1  0.93932600  0.50894700  0.11569300  1
  Sn  Sn16  1  0.75645300  0.07427700  0.40791200  1
  Sn  Sn17  1  0.82489000  0.18152700  0.24716700  1
  Sn  Sn18  1  0.10977000  0.32804100  0.43146500  1
  Sn  Sn19  1  0.92608700  0.25258200  0.85672100  1
  Sn  Sn20  1  0.25645300  0.92572300  0.09208800  1
  Sn  Sn21  1  0.39023000  0.32804100  0.93146500  1
  Sn  Sn22  1  0.62096000  0.70753500  0.24122700  1
  Sn  Sn23  1  0.23380100  0.64474900  0.52565900  1
  Sn  Sn24  1  0.57391300  0.25258200  0.35672100  1
  Sn  Sn25  1  0.37904000  0.29246500  0.75877300  1
  Sn  Sn26  1  0.60977000  0.67195900  0.06853500  1
  Sn  Sn27  1  0.76619900  0.35525100  0.47434100  1
  Sn  Sn28  1  0.93074200  0.17444500  0.53107700  1
  Sn  Sn29  1  0.74354700  0.07427700  0.90791200  1
  Sn  Sn30  1  0.32016600  0.60992800  0.20184400  1
  Sn  Sn31  1  0.06925800  0.82555500  0.46892300  1
  Sn  Sn32  1  0.42608700  0.74741800  0.64327900  1
  Sn  Sn33  1  0.24354700  0.92572300  0.59208800  1
  Sn  Sn34  1  0.17511000  0.81847300  0.75283300  1
  Sn  Sn35  1  0.87904000  0.70753500  0.74122700  1
  Sn  Sn36  1  0.10161300  0.12255500  0.37969600  1
  Sn  Sn37  1  0.56925800  0.17444500  0.03107700  1
  Sn  Sn38  1  0.32489000  0.81847300  0.25283300  1
  Sn  Sn39  1  0.67983400  0.39007200  0.79815600  1
  Sn  Sn40  1  0.26619900  0.64474900  0.02565900  1
  Sn  Sn41  1  0.39838700  0.12255500  0.87969600  1
  Sn  Sn42  1  0.43074200  0.82555500  0.96892300  1
  Sn  Sn43  1  0.17983400  0.60992800  0.70184400  1
  Sn  Sn44  1  0.73380100  0.35525100  0.97434100  1
  Sn  Sn45  1  0.12096000  0.29246500  0.25877300  1
  Sn  Sn46  1  0.89023000  0.67195900  0.56853500  1
  Sn  Sn47  1  0.67511000  0.18152700  0.74716700  1
  Sn  Sn48  1  0.82016600  0.39007200  0.29815600  1
  Sn  Sn49  1  0.60161300  0.87744500  0.12030400  1
  Sn  Sn50  1  0.89838700  0.87744500  0.62030400  1
  Sn  Sn51  1  0.07391300  0.74741800  0.14327900  1
