# generated using pymatgen
data_Ba3SrTa2O9
_symmetry_space_group_name_H-M   'P 1'
_cell_length_a   6.15079995
_cell_length_b   6.15079995
_cell_length_c   15.61389000
_cell_angle_alpha   90.00000000
_cell_angle_beta   90.00000000
_cell_angle_gamma   119.99999950
_symmetry_Int_Tables_number   1
_chemical_formula_structural   Ba3SrTa2O9
_chemical_formula_sum   'Ba6 Sr2 Ta4 O18'
_cell_volume   511.56986562
_cell_formula_units_Z   2
loop_
 _symmetry_equiv_pos_site_id
 _symmetry_equiv_pos_as_xyz
  1  'x, y, z'
loop_
 _atom_site_type_symbol
 _atom_site_label
 _atom_site_symmetry_multiplicity
 _atom_site_fract_x
 _atom_site_fract_y
 _atom_site_fract_z
 _atom_site_occupancy
  Ba  Ba0  1  0.00000000  0.00000000  0.25000000  1
  Ba  Ba1  1  0.00000000  0.00000000  0.75000000  1
  Ba  Ba2  1  0.33333300  0.66666700  0.11916900  1
  Ba  Ba3  1  0.66666700  0.33333300  0.61916900  1
  Ba  Ba4  1  0.66666700  0.33333300  0.88083100  1
  Ba  Ba5  1  0.33333300  0.66666700  0.38083100  1
  Sr  Sr6  1  0.00000000  0.00000000  0.00000000  1
  Sr  Sr7  1  0.00000000  0.00000000  0.50000000  1
  Ta  Ta8  1  0.33333300  0.66666700  0.84552100  1
  Ta  Ta9  1  0.66666700  0.33333300  0.34552100  1
  Ta  Ta10  1  0.66666700  0.33333300  0.15447900  1
  Ta  Ta11  1  0.33333300  0.66666700  0.65447900  1
  O  O12  1  0.57046600  0.04559700  0.25000000  1
  O  O13  1  0.52486900  0.57046600  0.75000000  1
  O  O14  1  0.04559700  0.47513100  0.75000000  1
  O  O15  1  0.95440300  0.52486900  0.25000000  1
  O  O16  1  0.47513100  0.42953400  0.25000000  1
  O  O17  1  0.42953400  0.95440300  0.75000000  1
  O  O18  1  0.75875800  0.64400600  0.09812500  1
  O  O19  1  0.11475100  0.75875800  0.59812500  1
  O  O20  1  0.64400600  0.88524900  0.59812500  1
  O  O21  1  0.35599400  0.11475100  0.09812500  1
  O  O22  1  0.88524900  0.24124200  0.09812500  1
  O  O23  1  0.24124200  0.35599400  0.59812500  1
  O  O24  1  0.24124200  0.35599400  0.90187500  1
  O  O25  1  0.88524900  0.24124200  0.40187500  1
  O  O26  1  0.35599400  0.11475100  0.40187500  1
  O  O27  1  0.64400600  0.88524900  0.90187500  1
  O  O28  1  0.11475100  0.75875800  0.90187500  1
  O  O29  1  0.75875800  0.64400600  0.40187500  1
