# generated using pymatgen
data_BaNaNdSi2O7
_symmetry_space_group_name_H-M   'P 1'
_cell_length_a   9.42899700
_cell_length_b   10.64910100
_cell_length_c   14.36834600
_cell_angle_alpha   90.00000000
_cell_angle_beta   90.00000000
_cell_angle_gamma   90.00000000
_symmetry_Int_Tables_number   1
_chemical_formula_structural   BaNaNdSi2O7
_chemical_formula_sum   'Ba8 Na8 Nd8 Si16 O56'
_cell_volume   1442.73052695
_cell_formula_units_Z   8
loop_
 _symmetry_equiv_pos_site_id
 _symmetry_equiv_pos_as_xyz
  1  'x, y, z'
loop_
 _atom_site_type_symbol
 _atom_site_label
 _atom_site_symmetry_multiplicity
 _atom_site_fract_x
 _atom_site_fract_y
 _atom_site_fract_z
 _atom_site_occupancy
  Ba  Ba0  1  0.08330900  0.82104700  0.39526300  1
  Ba  Ba1  1  0.58330900  0.67895300  0.39526300  1
  Ba  Ba2  1  0.91669100  0.67895300  0.89526300  1
  Ba  Ba3  1  0.41669100  0.82104700  0.89526300  1
  Ba  Ba4  1  0.41669100  0.32104700  0.60473700  1
  Ba  Ba5  1  0.91669100  0.17895300  0.60473700  1
  Ba  Ba6  1  0.08330900  0.32104700  0.10473700  1
  Ba  Ba7  1  0.58330900  0.17895300  0.10473700  1
  Na  Na8  1  0.56165800  0.58697700  0.69475200  1
  Na  Na9  1  0.43834200  0.41302300  0.30524800  1
  Na  Na10  1  0.93834200  0.58697700  0.19475200  1
  Na  Na11  1  0.43834200  0.91302300  0.19475200  1
  Na  Na12  1  0.56165800  0.08697700  0.80524800  1
  Na  Na13  1  0.06165800  0.91302300  0.69475200  1
  Na  Na14  1  0.06165800  0.41302300  0.80524800  1
  Na  Na15  1  0.93834200  0.08697700  0.30524800  1
  Nd  Nd16  1  0.89937200  0.08192400  0.89594600  1
  Nd  Nd17  1  0.10062800  0.91807600  0.10405400  1
  Nd  Nd18  1  0.89937200  0.58192400  0.60405400  1
  Nd  Nd19  1  0.60062800  0.08192400  0.39594600  1
  Nd  Nd20  1  0.60062800  0.58192400  0.10405400  1
  Nd  Nd21  1  0.39937200  0.91807600  0.60405400  1
  Nd  Nd22  1  0.39937200  0.41807600  0.89594600  1
  Nd  Nd23  1  0.10062800  0.41807600  0.39594600  1
  Si  Si24  1  0.27941900  0.10608500  0.98311400  1
  Si  Si25  1  0.72058100  0.39391500  0.48311400  1
  Si  Si26  1  0.75289400  0.85223500  0.22285300  1
  Si  Si27  1  0.22058100  0.10608500  0.48311400  1
  Si  Si28  1  0.22058100  0.60608500  0.01688600  1
  Si  Si29  1  0.77941900  0.39391500  0.98311400  1
  Si  Si30  1  0.25289400  0.64776500  0.22285300  1
  Si  Si31  1  0.24710600  0.14776500  0.77714700  1
  Si  Si32  1  0.72058100  0.89391500  0.01688600  1
  Si  Si33  1  0.74710600  0.35223500  0.77714700  1
  Si  Si34  1  0.27941900  0.60608500  0.51688600  1
  Si  Si35  1  0.75289400  0.35223500  0.27714700  1
  Si  Si36  1  0.24710600  0.64776500  0.72285300  1
  Si  Si37  1  0.25289400  0.14776500  0.27714700  1
  Si  Si38  1  0.74710600  0.85223500  0.72285300  1
  Si  Si39  1  0.77941900  0.89391500  0.51688600  1
  O  O40  1  0.10516400  0.59977800  0.50866900  1
  O  O41  1  0.26529800  0.30032800  0.78748500  1
  O  O42  1  0.57996800  0.89184200  0.72960200  1
  O  O43  1  0.15813400  0.98923500  0.54451700  1
  O  O44  1  0.85295100  0.40022400  0.69435400  1
  O  O45  1  0.76529800  0.69967200  0.71251500  1
  O  O46  1  0.67732700  0.42255400  0.37147400  1
  O  O47  1  0.34029300  0.74522800  0.49008500  1
  O  O48  1  0.35295100  0.59977600  0.80564600  1
  O  O49  1  0.92003200  0.89184200  0.22960200  1
  O  O50  1  0.57996800  0.39184200  0.77039800  1
  O  O51  1  0.39483600  0.09977800  0.49133100  1
  O  O52  1  0.34186600  0.48923500  0.45548300  1
  O  O53  1  0.39483600  0.59977800  0.00866900  1
  O  O54  1  0.34029300  0.24522800  0.00991500  1
  O  O55  1  0.67732700  0.92255400  0.12852600  1
  O  O56  1  0.14704900  0.59977600  0.30564600  1
  O  O57  1  0.84029300  0.25477200  0.00991500  1
  O  O58  1  0.15813400  0.48923500  0.95548300  1
  O  O59  1  0.85295100  0.90022400  0.80564600  1
  O  O60  1  0.23470200  0.80032800  0.21251500  1
  O  O61  1  0.26529800  0.80032800  0.71251500  1
  O  O62  1  0.65813400  0.51076500  0.54451700  1
  O  O63  1  0.14704900  0.09977600  0.19435400  1
  O  O64  1  0.84186600  0.51076500  0.04451700  1
  O  O65  1  0.64704900  0.90022400  0.30564600  1
  O  O66  1  0.82267300  0.42255400  0.87147400  1
  O  O67  1  0.73470200  0.69967200  0.21251500  1
  O  O68  1  0.89483600  0.90022200  0.00866900  1
  O  O69  1  0.17732700  0.07744600  0.37147400  1
  O  O70  1  0.10516400  0.09977800  0.99133100  1
  O  O71  1  0.15970700  0.24522800  0.50991500  1
  O  O72  1  0.60516400  0.40022200  0.99133100  1
  O  O73  1  0.32267300  0.07744600  0.87147400  1
  O  O74  1  0.07996800  0.60815800  0.72960200  1
  O  O75  1  0.76529800  0.19967200  0.78748500  1
  O  O76  1  0.73470200  0.19967200  0.28748500  1
  O  O77  1  0.15970700  0.74522800  0.99008500  1
  O  O78  1  0.65813400  0.01076500  0.95548300  1
  O  O79  1  0.32267300  0.57744600  0.62852600  1
  O  O80  1  0.07996800  0.10815800  0.77039800  1
  O  O81  1  0.23470200  0.30032800  0.28748500  1
  O  O82  1  0.64704900  0.40022400  0.19435400  1
  O  O83  1  0.65970700  0.75477200  0.99008500  1
  O  O84  1  0.35295100  0.09977600  0.69435400  1
  O  O85  1  0.65970700  0.25477200  0.50991500  1
  O  O86  1  0.34186600  0.98923500  0.04451700  1
  O  O87  1  0.89483600  0.40022200  0.49133100  1
  O  O88  1  0.92003200  0.39184200  0.27039800  1
  O  O89  1  0.42003200  0.60815800  0.22960200  1
  O  O90  1  0.17732700  0.57744600  0.12852600  1
  O  O91  1  0.60516400  0.90022200  0.50866900  1
  O  O92  1  0.82267300  0.92255400  0.62852600  1
  O  O93  1  0.84186600  0.01076500  0.45548300  1
  O  O94  1  0.42003200  0.10815800  0.27039800  1
  O  O95  1  0.84029300  0.75477200  0.49008500  1
