# generated using pymatgen
data_CsAlF4
_symmetry_space_group_name_H-M   'P 1'
_cell_length_a   6.85267400
_cell_length_b   10.78666600
_cell_length_c   17.86152900
_cell_angle_alpha   90.00000000
_cell_angle_beta   90.00000000
_cell_angle_gamma   90.00000000
_symmetry_Int_Tables_number   1
_chemical_formula_structural   CsAlF4
_chemical_formula_sum   'Cs12 Al12 F48'
_cell_volume   1320.27967068
_cell_formula_units_Z   12
loop_
 _symmetry_equiv_pos_site_id
 _symmetry_equiv_pos_as_xyz
  1  'x, y, z'
loop_
 _atom_site_type_symbol
 _atom_site_label
 _atom_site_symmetry_multiplicity
 _atom_site_fract_x
 _atom_site_fract_y
 _atom_site_fract_z
 _atom_site_occupancy
  Cs  Cs0  1  0.25000000  0.38105600  0.95695900  1
  Cs  Cs1  1  0.25000000  0.69122100  0.31637500  1
  Cs  Cs2  1  0.75000000  0.61894400  0.04304100  1
  Cs  Cs3  1  0.75000000  0.92968300  0.22768200  1
  Cs  Cs4  1  0.75000000  0.42968300  0.27231800  1
  Cs  Cs5  1  0.75000000  0.80877900  0.81637500  1
  Cs  Cs6  1  0.25000000  0.07031700  0.77231800  1
  Cs  Cs7  1  0.25000000  0.88105600  0.54304100  1
  Cs  Cs8  1  0.25000000  0.19122100  0.18362500  1
  Cs  Cs9  1  0.75000000  0.11894400  0.45695900  1
  Cs  Cs10  1  0.25000000  0.57031700  0.72768200  1
  Cs  Cs11  1  0.75000000  0.30877900  0.68362500  1
  Al  Al12  1  0.25000000  0.24056100  0.57539500  1
  Al  Al13  1  0.75000000  0.69954100  0.62598800  1
  Al  Al14  1  0.75000000  0.25943900  0.07539500  1
  Al  Al15  1  0.25000000  0.80045900  0.12598800  1
  Al  Al16  1  0.25000000  0.74056100  0.92460500  1
  Al  Al17  1  0.75000000  0.75943900  0.42460500  1
  Al  Al18  1  0.25000000  0.30045900  0.37401200  1
  Al  Al19  1  0.50000000  0.00000000  0.00000000  1
  Al  Al20  1  0.75000000  0.19954100  0.87401200  1
  Al  Al21  1  0.50000000  0.50000000  0.50000000  1
  Al  Al22  1  0.00000000  0.50000000  0.50000000  1
  Al  Al23  1  0.00000000  0.00000000  0.00000000  1
  F  F24  1  0.06115200  0.41288300  0.41678000  1
  F  F25  1  0.56115200  0.08711700  0.91678000  1
  F  F26  1  0.56124000  0.63162600  0.44182800  1
  F  F27  1  0.94607900  0.29217400  0.84175400  1
  F  F28  1  0.05746500  0.13206700  0.58516500  1
  F  F29  1  0.75000000  0.71174000  0.32849600  1
  F  F30  1  0.44607900  0.70782600  0.15824600  1
  F  F31  1  0.06124000  0.36837400  0.55817200  1
  F  F32  1  0.25000000  0.40043200  0.29346500  1
  F  F33  1  0.75000000  0.27697500  0.96939300  1
  F  F34  1  0.25000000  0.28826000  0.67150400  1
  F  F35  1  0.43884800  0.41288300  0.41678000  1
  F  F36  1  0.05392100  0.70782600  0.15824600  1
  F  F37  1  0.25000000  0.22302500  0.46939300  1
  F  F38  1  0.93876000  0.13162600  0.05817200  1
  F  F39  1  0.25000000  0.56009700  0.50671000  1
  F  F40  1  0.25000000  0.78826000  0.82849600  1
  F  F41  1  0.55746500  0.36793300  0.08516500  1
  F  F42  1  0.43876000  0.86837400  0.94182800  1
  F  F43  1  0.55746500  0.86793300  0.41483500  1
  F  F44  1  0.05746500  0.63206700  0.91483500  1
  F  F45  1  0.43884800  0.91288300  0.08322000  1
  F  F46  1  0.56124000  0.13162600  0.05817200  1
  F  F47  1  0.94607900  0.79217400  0.65824600  1
  F  F48  1  0.75000000  0.77697500  0.53060700  1
  F  F49  1  0.93884800  0.08711700  0.91678000  1
  F  F50  1  0.44253500  0.63206700  0.91483500  1
  F  F51  1  0.43876000  0.36837400  0.55817200  1
  F  F52  1  0.56115200  0.58711700  0.58322000  1
  F  F53  1  0.94253500  0.36793300  0.08516500  1
  F  F54  1  0.94253500  0.86793300  0.41483500  1
  F  F55  1  0.25000000  0.90043200  0.20653500  1
  F  F56  1  0.75000000  0.43990300  0.49329000  1
  F  F57  1  0.06115200  0.91288300  0.08322000  1
  F  F58  1  0.93884800  0.58711700  0.58322000  1
  F  F59  1  0.06124000  0.86837400  0.94182800  1
  F  F60  1  0.75000000  0.59956800  0.70653500  1
  F  F61  1  0.44607900  0.20782600  0.34175400  1
  F  F62  1  0.25000000  0.72302500  0.03060700  1
  F  F63  1  0.44253500  0.13206700  0.58516500  1
  F  F64  1  0.75000000  0.09956800  0.79346500  1
  F  F65  1  0.75000000  0.21174000  0.17150400  1
  F  F66  1  0.25000000  0.06009700  0.99329000  1
  F  F67  1  0.93876000  0.63162600  0.44182800  1
  F  F68  1  0.05392100  0.20782600  0.34175400  1
  F  F69  1  0.55392100  0.29217400  0.84175400  1
  F  F70  1  0.75000000  0.93990300  0.00671000  1
  F  F71  1  0.55392100  0.79217400  0.65824600  1
