# generated using pymatgen
data_Na2(ReS2)3
_symmetry_space_group_name_H-M   'P 1'
_cell_length_a   9.39215914
_cell_length_b   9.39215914
_cell_length_c   11.65418939
_cell_angle_alpha   87.68502764
_cell_angle_beta   87.68502764
_cell_angle_gamma   62.43360701
_symmetry_Int_Tables_number   1
_chemical_formula_structural   Na2(ReS2)3
_chemical_formula_sum   'Na8 Re12 S24'
_cell_volume   910.32103683
_cell_formula_units_Z   4
loop_
 _symmetry_equiv_pos_site_id
 _symmetry_equiv_pos_as_xyz
  1  'x, y, z'
loop_
 _atom_site_type_symbol
 _atom_site_label
 _atom_site_symmetry_multiplicity
 _atom_site_fract_x
 _atom_site_fract_y
 _atom_site_fract_z
 _atom_site_occupancy
  Na  Na0  1  0.57278600  0.42721400  0.25000000  1
  Na  Na1  1  0.42721400  0.57278600  0.75000000  1
  Na  Na2  1  0.21112900  0.78887100  0.25000000  1
  Na  Na3  1  0.78887100  0.21112900  0.75000000  1
  Na  Na4  1  0.35489200  0.89673800  0.99201800  1
  Na  Na5  1  0.10326200  0.64510800  0.50798200  1
  Na  Na6  1  0.64510800  0.10326200  0.00798200  1
  Na  Na7  1  0.89673800  0.35489200  0.49201800  1
  Re  Re8  1  0.59828100  0.80665600  0.58537800  1
  Re  Re9  1  0.19334400  0.40171900  0.91462200  1
  Re  Re10  1  0.40171900  0.19334400  0.41462200  1
  Re  Re11  1  0.80665600  0.59828100  0.08537800  1
  Re  Re12  1  0.52071300  0.88503700  0.36731800  1
  Re  Re13  1  0.11496300  0.47928700  0.13268200  1
  Re  Re14  1  0.47928700  0.11496300  0.63268200  1
  Re  Re15  1  0.88503700  0.52071300  0.86731800  1
  Re  Re16  1  0.69930900  0.98911400  0.46785700  1
  Re  Re17  1  0.01088600  0.30069100  0.03214300  1
  Re  Re18  1  0.30069100  0.01088600  0.53214300  1
  Re  Re19  1  0.98911400  0.69930900  0.96785700  1
  S  S20  1  0.75330000  0.91992000  0.66796200  1
  S  S21  1  0.08008000  0.24670000  0.83203800  1
  S  S22  1  0.24670000  0.08008000  0.33203800  1
  S  S23  1  0.91992000  0.75330000  0.16796200  1
  S  S24  1  0.57896600  0.27226500  0.51337300  1
  S  S25  1  0.72773500  0.42103400  0.98662700  1
  S  S26  1  0.42103400  0.72773500  0.48662700  1
  S  S27  1  0.27226500  0.57896600  0.01337300  1
  S  S28  1  0.61247100  0.06392200  0.27113100  1
  S  S29  1  0.93607800  0.38752900  0.22886900  1
  S  S30  1  0.38752900  0.93607800  0.72886900  1
  S  S31  1  0.06392200  0.61247100  0.77113100  1
  S  S32  1  0.79116200  0.70663800  0.42681500  1
  S  S33  1  0.29336200  0.20883800  0.07318500  1
  S  S34  1  0.20883800  0.29336200  0.57318500  1
  S  S35  1  0.70663800  0.79116200  0.92681500  1
  S  S36  1  0.73190900  0.54093600  0.69218500  1
  S  S37  1  0.45906400  0.26809100  0.80781500  1
  S  S38  1  0.26809100  0.45906400  0.30781500  1
  S  S39  1  0.54093600  0.73190900  0.19218500  1
  S  S40  1  0.96149800  0.97515200  0.42275300  1
  S  S41  1  0.02484800  0.03850200  0.07724700  1
  S  S42  1  0.03850200  0.02484800  0.57724700  1
  S  S43  1  0.97515200  0.96149800  0.92275300  1
