# generated using pymatgen
data_KFeAs2O7
_symmetry_space_group_name_H-M   'P 1'
_cell_length_a   7.83032300
_cell_length_b   8.58273068
_cell_length_c   10.30904999
_cell_angle_alpha   89.80741590
_cell_angle_beta   89.60140706
_cell_angle_gamma   73.36068190
_symmetry_Int_Tables_number   1
_chemical_formula_structural   KFeAs2O7
_chemical_formula_sum   'K4 Fe4 As8 O28'
_cell_volume   663.79750637
_cell_formula_units_Z   4
loop_
 _symmetry_equiv_pos_site_id
 _symmetry_equiv_pos_as_xyz
  1  'x, y, z'
loop_
 _atom_site_type_symbol
 _atom_site_label
 _atom_site_symmetry_multiplicity
 _atom_site_fract_x
 _atom_site_fract_y
 _atom_site_fract_z
 _atom_site_occupancy
  K  K0  1  0.16399300  0.46041700  0.67619600  1
  K  K1  1  0.82417400  0.06140700  0.17471900  1
  K  K2  1  0.83600700  0.53958300  0.32380400  1
  K  K3  1  0.17582600  0.93859300  0.82528100  1
  Fe  Fe4  1  0.76593300  0.26447800  0.59536400  1
  Fe  Fe5  1  0.23406700  0.73552200  0.40463600  1
  Fe  Fe6  1  0.76477500  0.77026400  0.90086500  1
  Fe  Fe7  1  0.23522500  0.22973600  0.09913500  1
  As  As8  1  0.12449600  0.66469700  0.10285300  1
  As  As9  1  0.55853000  0.67973600  0.64511400  1
  As  As10  1  0.44596100  0.79697300  0.13032400  1
  As  As11  1  0.87550400  0.33530300  0.89714700  1
  As  As12  1  0.84758500  0.84887000  0.57964500  1
  As  As13  1  0.44147000  0.32026400  0.35488600  1
  As  As14  1  0.55403900  0.20302700  0.86967600  1
  As  As15  1  0.15241500  0.15113000  0.42035500  1
  O  O16  1  0.32661100  0.98199400  0.07350400  1
  O  O17  1  0.10798300  0.47383800  0.12113700  1
  O  O18  1  0.44613300  0.75707400  0.29313100  1
  O  O19  1  0.28161700  0.49973200  0.37417300  1
  O  O20  1  0.89201700  0.52616200  0.87886300  1
  O  O21  1  0.66250700  0.73800500  0.07798100  1
  O  O22  1  0.08030200  0.77823100  0.24239600  1
  O  O23  1  0.45361100  0.24137700  0.20129000  1
  O  O24  1  0.18434700  0.95811800  0.47174500  1
  O  O25  1  0.71838300  0.50026800  0.62582700  1
  O  O26  1  0.36304700  0.18512000  0.45743700  1
  O  O27  1  0.63695300  0.81488000  0.54256300  1
  O  O28  1  0.99119100  0.78308600  0.98849000  1
  O  O29  1  0.10183500  0.19208400  0.26106200  1
  O  O30  1  0.81565300  0.04188200  0.52825500  1
  O  O31  1  0.35415000  0.68106300  0.59085900  1
  O  O32  1  0.65354200  0.34400300  0.94865600  1
  O  O33  1  0.33749300  0.26199500  0.92201900  1
  O  O34  1  0.91969800  0.22176900  0.75760400  1
  O  O35  1  0.64585000  0.31893700  0.40914100  1
  O  O36  1  0.34645800  0.65599700  0.05134400  1
  O  O37  1  0.55386700  0.24292600  0.70686900  1
  O  O38  1  0.00209300  0.71056800  0.48964800  1
  O  O39  1  0.00880900  0.21691400  0.01151000  1
  O  O40  1  0.89816500  0.80791600  0.73893800  1
  O  O41  1  0.54638900  0.75862300  0.79871000  1
  O  O42  1  0.67338900  0.01800600  0.92649600  1
  O  O43  1  0.99790700  0.28943200  0.51035200  1
