# generated using pymatgen
data_Cs4Ba(PO3)6
_symmetry_space_group_name_H-M   'P 1'
_cell_length_a   11.74606862
_cell_length_b   11.74606862
_cell_length_c   9.26490800
_cell_angle_alpha   90.00000000
_cell_angle_beta   90.00000000
_cell_angle_gamma   120.00000350
_symmetry_Int_Tables_number   1
_chemical_formula_structural   Cs4Ba(PO3)6
_chemical_formula_sum   'Cs8 Ba2 P12 O36'
_cell_volume   1107.02338453
_cell_formula_units_Z   2
loop_
 _symmetry_equiv_pos_site_id
 _symmetry_equiv_pos_as_xyz
  1  'x, y, z'
loop_
 _atom_site_type_symbol
 _atom_site_label
 _atom_site_symmetry_multiplicity
 _atom_site_fract_x
 _atom_site_fract_y
 _atom_site_fract_z
 _atom_site_occupancy
  Cs  Cs0  1  0.00758500  0.23693400  0.00917800  1
  Cs  Cs1  1  0.23693400  0.00758500  0.50917800  1
  Cs  Cs2  1  0.99241500  0.22935000  0.50917800  1
  Cs  Cs3  1  0.76306600  0.77065000  0.00917800  1
  Cs  Cs4  1  0.77065000  0.76306600  0.50917800  1
  Cs  Cs5  1  0.22935000  0.99241500  0.00917800  1
  Cs  Cs6  1  0.66666700  0.33333300  0.74983200  1
  Cs  Cs7  1  0.33333300  0.66666700  0.24983200  1
  Ba  Ba8  1  0.33333300  0.66666700  0.75936600  1
  Ba  Ba9  1  0.66666700  0.33333300  0.25936600  1
  P  P10  1  0.54496200  0.99661000  0.49434900  1
  P  P11  1  0.28571900  0.30879300  0.74625600  1
  P  P12  1  0.45503800  0.45164700  0.99434900  1
  P  P13  1  0.30879300  0.28571900  0.24625600  1
  P  P14  1  0.99661000  0.54496200  0.99434900  1
  P  P15  1  0.69120700  0.97692600  0.74625600  1
  P  P16  1  0.71428100  0.02307400  0.24625600  1
  P  P17  1  0.00339000  0.54835300  0.49434900  1
  P  P18  1  0.02307400  0.71428100  0.74625600  1
  P  P19  1  0.45164700  0.45503800  0.49434900  1
  P  P20  1  0.54835300  0.00339000  0.99434900  1
  P  P21  1  0.97692600  0.69120700  0.24625600  1
  O  O22  1  0.67582400  0.02289700  0.58481600  1
  O  O23  1  0.02289700  0.67582400  0.08481600  1
  O  O24  1  0.95246700  0.57691000  0.83919400  1
  O  O25  1  0.37555700  0.42309000  0.33919400  1
  O  O26  1  0.34707300  0.32417600  0.58481600  1
  O  O27  1  0.32417600  0.34707300  0.08481600  1
  O  O28  1  0.57691000  0.95246700  0.33919400  1
  O  O29  1  0.57677900  0.45500100  0.04912800  1
  O  O30  1  0.42322100  0.87822200  0.54912800  1
  O  O31  1  0.95372800  0.78977900  0.77456200  1
  O  O32  1  0.97710300  0.65292700  0.58481600  1
  O  O33  1  0.12593200  0.54890200  0.98073100  1
  O  O34  1  0.12177800  0.54499900  0.54912800  1
  O  O35  1  0.78977900  0.95372800  0.27456200  1
  O  O36  1  0.16394900  0.21022100  0.27456200  1
  O  O37  1  0.87406800  0.42297000  0.48073100  1
  O  O38  1  0.38898900  0.21941700  0.26198700  1
  O  O39  1  0.65292700  0.97710300  0.08481600  1
  O  O40  1  0.45109800  0.57703000  0.98073100  1
  O  O41  1  0.87822200  0.42322100  0.04912800  1
  O  O42  1  0.57703000  0.45109800  0.48073100  1
  O  O43  1  0.45500100  0.57677900  0.54912800  1
  O  O44  1  0.21022100  0.16394900  0.77456200  1
  O  O45  1  0.04753300  0.62444300  0.33919400  1
  O  O46  1  0.61101100  0.83042800  0.76198700  1
  O  O47  1  0.54890200  0.12593200  0.48073100  1
  O  O48  1  0.54499900  0.12177800  0.04912800  1
  O  O49  1  0.78058300  0.16957200  0.26198700  1
  O  O50  1  0.16957200  0.78058300  0.76198700  1
  O  O51  1  0.62444300  0.04753300  0.83919400  1
  O  O52  1  0.83042800  0.61101100  0.26198700  1
  O  O53  1  0.42297000  0.87406800  0.98073100  1
  O  O54  1  0.42309000  0.37555700  0.83919400  1
  O  O55  1  0.21941700  0.38898900  0.76198700  1
  O  O56  1  0.04627200  0.83605100  0.27456200  1
  O  O57  1  0.83605100  0.04627200  0.77456200  1
