# generated using pymatgen
data_Ba2CaCr2CuF14
_symmetry_space_group_name_H-M   'P 1'
_cell_length_a   7.55176803
_cell_length_b   7.55176803
_cell_length_c   15.03463656
_cell_angle_alpha   88.74209333
_cell_angle_beta   88.74209333
_cell_angle_gamma   42.08455356
_symmetry_Int_Tables_number   1
_chemical_formula_structural   Ba2CaCr2CuF14
_chemical_formula_sum   'Ba4 Ca2 Cr4 Cu2 F28'
_cell_volume   574.50218295
_cell_formula_units_Z   2
loop_
 _symmetry_equiv_pos_site_id
 _symmetry_equiv_pos_as_xyz
  1  'x, y, z'
loop_
 _atom_site_type_symbol
 _atom_site_label
 _atom_site_symmetry_multiplicity
 _atom_site_fract_x
 _atom_site_fract_y
 _atom_site_fract_z
 _atom_site_occupancy
  Ba  Ba0  1  0.74335000  0.88246400  0.62186000  1
  Ba  Ba1  1  0.88246400  0.74335000  0.12186000  1
  Ba  Ba2  1  0.25665000  0.11753600  0.37814000  1
  Ba  Ba3  1  0.11753600  0.25665000  0.87814000  1
  Ca  Ca4  1  0.57808600  0.42191400  0.25000000  1
  Ca  Ca5  1  0.42191400  0.57808600  0.75000000  1
  Cr  Cr6  1  0.90083300  0.85566700  0.37490500  1
  Cr  Cr7  1  0.85566700  0.90083300  0.87490500  1
  Cr  Cr8  1  0.09916700  0.14433300  0.62509500  1
  Cr  Cr9  1  0.14433300  0.09916700  0.12509500  1
  Cu  Cu10  1  0.50000000  0.50000000  0.00000000  1
  Cu  Cu11  1  0.50000000  0.50000000  0.50000000  1
  F  F12  1  0.34939600  0.15535500  0.09796200  1
  F  F13  1  0.65060400  0.84464500  0.90203800  1
  F  F14  1  0.06997300  0.91532900  0.65464000  1
  F  F15  1  0.08467100  0.93002700  0.84536000  1
  F  F16  1  0.12884100  0.70111500  0.48040700  1
  F  F17  1  0.82397300  0.41363000  0.70977100  1
  F  F18  1  0.58637000  0.17602700  0.79022900  1
  F  F19  1  0.15535500  0.34939600  0.59796200  1
  F  F20  1  0.91532900  0.06997300  0.15464000  1
  F  F21  1  0.60131600  0.11984800  0.45459000  1
  F  F22  1  0.11984800  0.60131600  0.95459000  1
  F  F23  1  0.50858400  0.38476500  0.61472100  1
  F  F24  1  0.93002700  0.08467100  0.34536000  1
  F  F25  1  0.41363000  0.82397300  0.20977100  1
  F  F26  1  0.96478100  0.35611800  0.22199900  1
  F  F27  1  0.84464500  0.65060400  0.40203800  1
  F  F28  1  0.70111500  0.12884100  0.98040700  1
  F  F29  1  0.88015200  0.39868400  0.04541000  1
  F  F30  1  0.64388200  0.03521900  0.27800100  1
  F  F31  1  0.35611800  0.96478100  0.72199900  1
  F  F32  1  0.61523500  0.49141600  0.88527900  1
  F  F33  1  0.38476500  0.50858400  0.11472100  1
  F  F34  1  0.39868400  0.88015200  0.54541000  1
  F  F35  1  0.87115900  0.29888500  0.51959300  1
  F  F36  1  0.29888500  0.87115900  0.01959300  1
  F  F37  1  0.03521900  0.64388200  0.77800100  1
  F  F38  1  0.17602700  0.58637000  0.29022900  1
  F  F39  1  0.49141600  0.61523500  0.38527900  1
