# generated using pymatgen
data_Rb(SnSe2)2
_symmetry_space_group_name_H-M   'P 1'
_cell_length_a   20.04669200
_cell_length_b   7.79091500
_cell_length_c   14.61823277
_cell_angle_alpha   62.73255519
_cell_angle_beta   90.00000000
_cell_angle_gamma   90.00000000
_symmetry_Int_Tables_number   1
_chemical_formula_structural   Rb(SnSe2)2
_chemical_formula_sum   'Rb8 Sn16 Se32'
_cell_volume   2029.40190521
_cell_formula_units_Z   8
loop_
 _symmetry_equiv_pos_site_id
 _symmetry_equiv_pos_as_xyz
  1  'x, y, z'
loop_
 _atom_site_type_symbol
 _atom_site_label
 _atom_site_symmetry_multiplicity
 _atom_site_fract_x
 _atom_site_fract_y
 _atom_site_fract_z
 _atom_site_occupancy
  Rb  Rb0  1  0.55872900  0.66239400  0.58079900  1
  Rb  Rb1  1  0.44127100  0.33760600  0.41920100  1
  Rb  Rb2  1  0.19981000  0.58984900  0.58350700  1
  Rb  Rb3  1  0.69981000  0.41015100  0.91649300  1
  Rb  Rb4  1  0.30019000  0.58984900  0.08350700  1
  Rb  Rb5  1  0.94127100  0.66239400  0.08079900  1
  Rb  Rb6  1  0.80019000  0.41015100  0.41649300  1
  Rb  Rb7  1  0.05872900  0.33760600  0.91920100  1
  Sn  Sn8  1  0.53576000  0.85553900  0.82524300  1
  Sn  Sn9  1  0.63870100  0.89482600  0.24246600  1
  Sn  Sn10  1  0.67892900  0.12088200  0.71021200  1
  Sn  Sn11  1  0.87582100  0.44656900  0.69268100  1
  Sn  Sn12  1  0.13870100  0.10517400  0.25753400  1
  Sn  Sn13  1  0.62417900  0.44656900  0.19268100  1
  Sn  Sn14  1  0.03576000  0.14446100  0.67475700  1
  Sn  Sn15  1  0.36129900  0.10517400  0.75753400  1
  Sn  Sn16  1  0.12417900  0.55343100  0.30731900  1
  Sn  Sn17  1  0.46424000  0.14446100  0.17475700  1
  Sn  Sn18  1  0.37582100  0.55343100  0.80731900  1
  Sn  Sn19  1  0.17892900  0.87911800  0.78978800  1
  Sn  Sn20  1  0.96424000  0.85553900  0.32524300  1
  Sn  Sn21  1  0.82107100  0.12088200  0.21021200  1
  Sn  Sn22  1  0.86129900  0.89482600  0.74246600  1
  Sn  Sn23  1  0.32107100  0.87911800  0.28978800  1
  Se  Se24  1  0.71659400  0.45354500  0.66386400  1
  Se  Se25  1  0.97843700  0.52721800  0.33718400  1
  Se  Se26  1  0.93946300  0.11143900  0.13574100  1
  Se  Se27  1  0.13343900  0.92656400  0.14977400  1
  Se  Se28  1  0.12200800  0.46702500  0.14339200  1
  Se  Se29  1  0.55776900  0.04162400  0.08773400  1
  Se  Se30  1  0.24820400  0.06482500  0.36232500  1
  Se  Se31  1  0.21659400  0.54645500  0.83613600  1
  Se  Se32  1  0.56053700  0.11143900  0.63574100  1
  Se  Se33  1  0.63343900  0.07343600  0.35022600  1
  Se  Se34  1  0.94223100  0.04162400  0.58773400  1
  Se  Se35  1  0.47843700  0.47278200  0.16281600  1
  Se  Se36  1  0.28340600  0.54645500  0.33613600  1
  Se  Se37  1  0.36656100  0.92656400  0.64977400  1
  Se  Se38  1  0.85022000  0.88900000  0.40225900  1
  Se  Se39  1  0.06053700  0.88856100  0.86425900  1
  Se  Se40  1  0.44223100  0.95837600  0.91226600  1
  Se  Se41  1  0.74820400  0.93517500  0.13767500  1
  Se  Se42  1  0.52156300  0.52721800  0.83718400  1
  Se  Se43  1  0.14978000  0.11100000  0.59774100  1
  Se  Se44  1  0.64978000  0.88900000  0.90225900  1
  Se  Se45  1  0.02156300  0.47278200  0.66281600  1
  Se  Se46  1  0.43946300  0.88856100  0.36425900  1
  Se  Se47  1  0.05776900  0.95837600  0.41226600  1
  Se  Se48  1  0.35022000  0.11100000  0.09774100  1
  Se  Se49  1  0.25179600  0.06482500  0.86232500  1
  Se  Se50  1  0.75179600  0.93517500  0.63767500  1
  Se  Se51  1  0.86656100  0.07343600  0.85022600  1
  Se  Se52  1  0.78340600  0.45354500  0.16386400  1
  Se  Se53  1  0.37799200  0.46702500  0.64339200  1
  Se  Se54  1  0.87799200  0.53297500  0.85660800  1
  Se  Se55  1  0.62200800  0.53297500  0.35660800  1
