# generated using pymatgen
data_NaUO3
_symmetry_space_group_name_H-M   'P 1'
_cell_length_a   5.82449400
_cell_length_b   5.96318000
_cell_length_c   8.34654600
_cell_angle_alpha   90.00000000
_cell_angle_beta   90.00000000
_cell_angle_gamma   90.00000000
_symmetry_Int_Tables_number   1
_chemical_formula_structural   NaUO3
_chemical_formula_sum   'Na4 U4 O12'
_cell_volume   289.89646012
_cell_formula_units_Z   4
loop_
 _symmetry_equiv_pos_site_id
 _symmetry_equiv_pos_as_xyz
  1  'x, y, z'
loop_
 _atom_site_type_symbol
 _atom_site_label
 _atom_site_symmetry_multiplicity
 _atom_site_fract_x
 _atom_site_fract_y
 _atom_site_fract_z
 _atom_site_occupancy
  Na  Na0  1  0.50662500  0.52994200  0.25000000  1
  Na  Na1  1  0.00662500  0.97005800  0.75000000  1
  Na  Na2  1  0.99337500  0.02994200  0.25000000  1
  Na  Na3  1  0.49337500  0.47005800  0.75000000  1
  U  U4  1  0.00000000  0.50000000  0.00000000  1
  U  U5  1  0.50000000  0.00000000  0.00000000  1
  U  U6  1  0.50000000  0.00000000  0.50000000  1
  U  U7  1  0.00000000  0.50000000  0.50000000  1
  O  O8  1  0.70086900  0.29672300  0.45084200  1
  O  O9  1  0.20086900  0.20327700  0.54915800  1
  O  O10  1  0.79913100  0.79672300  0.04915800  1
  O  O11  1  0.29913100  0.70327700  0.95084200  1
  O  O12  1  0.29913100  0.70327700  0.54915800  1
  O  O13  1  0.79913100  0.79672300  0.45084200  1
  O  O14  1  0.20086900  0.20327700  0.95084200  1
  O  O15  1  0.70086900  0.29672300  0.04915800  1
  O  O16  1  0.09427800  0.46955200  0.25000000  1
  O  O17  1  0.59427800  0.03044800  0.75000000  1
  O  O18  1  0.40572200  0.96955200  0.25000000  1
  O  O19  1  0.90572200  0.53044800  0.75000000  1
