# generated using pymatgen
data_Mg2As2O7
_symmetry_space_group_name_H-M   'P 1'
_cell_length_a   5.46197930
_cell_length_b   5.46197930
_cell_length_c   4.84531105
_cell_angle_alpha   82.00590686
_cell_angle_beta   82.00590686
_cell_angle_gamma   105.36117493
_symmetry_Int_Tables_number   1
_chemical_formula_structural   Mg2As2O7
_chemical_formula_sum   'Mg2 As2 O7'
_cell_volume   135.67024936
_cell_formula_units_Z   1
loop_
 _symmetry_equiv_pos_site_id
 _symmetry_equiv_pos_as_xyz
  1  'x, y, z'
loop_
 _atom_site_type_symbol
 _atom_site_label
 _atom_site_symmetry_multiplicity
 _atom_site_fract_x
 _atom_site_fract_y
 _atom_site_fract_z
 _atom_site_occupancy
  Mg  Mg0  1  0.68927400  0.31072600  0.50000000  1
  Mg  Mg1  1  0.31072600  0.68927400  0.50000000  1
  As  As2  1  0.23611500  0.23611500  0.10079400  1
  As  As3  1  0.76388500  0.76388500  0.89920600  1
  O  O4  1  0.39856900  0.06943100  0.29306900  1
  O  O5  1  0.93056900  0.60143100  0.70693100  1
  O  O6  1  0.60143100  0.93056900  0.70693100  1
  O  O7  1  0.06943100  0.39856900  0.29306900  1
  O  O8  1  0.00000000  0.00000000  0.00000000  1
  O  O9  1  0.40524000  0.40524000  0.77415700  1
  O  O10  1  0.59476000  0.59476000  0.22584300  1
