# generated using pymatgen
data_Ca3(SiAs2)2
_symmetry_space_group_name_H-M   'P 1'
_cell_length_a   17.79863600
_cell_length_b   7.19163300
_cell_length_c   7.32646335
_cell_angle_alpha   68.34881013
_cell_angle_beta   90.00000000
_cell_angle_gamma   90.00000000
_symmetry_Int_Tables_number   1
_chemical_formula_structural   Ca3(SiAs2)2
_chemical_formula_sum   'Ca12 Si8 As16'
_cell_volume   871.63237451
_cell_formula_units_Z   4
loop_
 _symmetry_equiv_pos_site_id
 _symmetry_equiv_pos_as_xyz
  1  'x, y, z'
loop_
 _atom_site_type_symbol
 _atom_site_label
 _atom_site_symmetry_multiplicity
 _atom_site_fract_x
 _atom_site_fract_y
 _atom_site_fract_z
 _atom_site_occupancy
  Ca  Ca0  1  0.05949100  0.01216000  0.74506900  1
  Ca  Ca1  1  0.55949100  0.48784000  0.25493100  1
  Ca  Ca2  1  0.94050900  0.98784000  0.25493100  1
  Ca  Ca3  1  0.44050900  0.51216000  0.74506900  1
  Ca  Ca4  1  0.06001000  0.49763400  0.26151600  1
  Ca  Ca5  1  0.56001000  0.00236600  0.73848400  1
  Ca  Ca6  1  0.93999000  0.50236600  0.73848400  1
  Ca  Ca7  1  0.43999000  0.99763400  0.26151600  1
  Ca  Ca8  1  0.18390100  0.51353800  0.78192500  1
  Ca  Ca9  1  0.68390100  0.98646200  0.21807500  1
  Ca  Ca10  1  0.81609900  0.48646200  0.21807500  1
  Ca  Ca11  1  0.31609900  0.01353800  0.78192500  1
  Si  Si12  1  0.25957100  0.57946900  0.31632000  1
  Si  Si13  1  0.75957100  0.92053100  0.68368000  1
  Si  Si14  1  0.74042900  0.42053100  0.68368000  1
  Si  Si15  1  0.24042900  0.07946900  0.31632000  1
  Si  Si16  1  0.62975800  0.52958100  0.78763600  1
  Si  Si17  1  0.12975800  0.97041900  0.21236400  1
  Si  Si18  1  0.37024200  0.47041900  0.21236400  1
  Si  Si19  1  0.87024200  0.02958100  0.78763600  1
  As  As20  1  0.19664100  0.27058800  0.50576000  1
  As  As21  1  0.69664100  0.22941200  0.49424000  1
  As  As22  1  0.80335900  0.72941200  0.49424000  1
  As  As23  1  0.30335900  0.77058800  0.50576000  1
  As  As24  1  0.31294400  0.27804900  0.03722300  1
  As  As25  1  0.81294400  0.22195100  0.96277700  1
  As  As26  1  0.68705600  0.72195100  0.96277700  1
  As  As27  1  0.18705600  0.77804900  0.03722300  1
  As  As28  1  0.06135000  0.24938600  0.00729000  1
  As  As29  1  0.56135000  0.25061400  0.99271000  1
  As  As30  1  0.93865000  0.75061400  0.99271000  1
  As  As31  1  0.43865000  0.74938600  0.00729000  1
  As  As32  1  0.06802600  0.75725200  0.49941200  1
  As  As33  1  0.56802600  0.74274800  0.50058800  1
  As  As34  1  0.93197400  0.24274800  0.50058800  1
  As  As35  1  0.43197400  0.25725200  0.49941200  1
