# generated using pymatgen
data_HfGa
_symmetry_space_group_name_H-M   'P 1'
_cell_length_a   5.67772300
_cell_length_b   8.55330000
_cell_length_c   9.21114000
_cell_angle_alpha   90.00000000
_cell_angle_beta   90.00000000
_cell_angle_gamma   90.00000000
_symmetry_Int_Tables_number   1
_chemical_formula_structural   HfGa
_chemical_formula_sum   'Hf12 Ga12'
_cell_volume   447.32306166
_cell_formula_units_Z   12
loop_
 _symmetry_equiv_pos_site_id
 _symmetry_equiv_pos_as_xyz
  1  'x, y, z'
loop_
 _atom_site_type_symbol
 _atom_site_label
 _atom_site_symmetry_multiplicity
 _atom_site_fract_x
 _atom_site_fract_y
 _atom_site_fract_z
 _atom_site_occupancy
  Hf  Hf0  1  0.00000000  0.75000000  0.11123000  1
  Hf  Hf1  1  0.50000000  0.25000000  0.88877000  1
  Hf  Hf2  1  0.00000000  0.25000000  0.88877000  1
  Hf  Hf3  1  0.50000000  0.75000000  0.11123000  1
  Hf  Hf4  1  0.75000000  0.47340100  0.61737600  1
  Hf  Hf5  1  0.25000000  0.52659900  0.38262400  1
  Hf  Hf6  1  0.75000000  0.97340100  0.38262400  1
  Hf  Hf7  1  0.25000000  0.02659900  0.61737600  1
  Hf  Hf8  1  0.75000000  0.36347800  0.19230900  1
  Hf  Hf9  1  0.25000000  0.63652200  0.80769100  1
  Hf  Hf10  1  0.75000000  0.86347800  0.80769100  1
  Hf  Hf11  1  0.25000000  0.13652200  0.19230900  1
  Ga  Ga12  1  0.00000000  0.75000000  0.56544600  1
  Ga  Ga13  1  0.50000000  0.25000000  0.43455400  1
  Ga  Ga14  1  0.00000000  0.25000000  0.43455400  1
  Ga  Ga15  1  0.50000000  0.75000000  0.56544600  1
  Ga  Ga16  1  0.75000000  0.04805800  0.08579400  1
  Ga  Ga17  1  0.25000000  0.95194200  0.91420600  1
  Ga  Ga18  1  0.75000000  0.54805800  0.91420600  1
  Ga  Ga19  1  0.25000000  0.45194200  0.08579400  1
  Ga  Ga20  1  0.75000000  0.13207800  0.65099300  1
  Ga  Ga21  1  0.25000000  0.86792200  0.34900700  1
  Ga  Ga22  1  0.75000000  0.63207800  0.34900700  1
  Ga  Ga23  1  0.25000000  0.36792200  0.65099300  1
