# generated using pymatgen
data_Na3Fe2P2O8F3
_symmetry_space_group_name_H-M   'P 1'
_cell_length_a   10.79922100
_cell_length_b   12.95190700
_cell_length_c   12.95589200
_cell_angle_alpha   90.00000000
_cell_angle_beta   90.00000000
_cell_angle_gamma   90.00000000
_symmetry_Int_Tables_number   1
_chemical_formula_structural   Na3Fe2P2O8F3
_chemical_formula_sum   'Na24 Fe16 P16 O64 F24'
_cell_volume   1812.14717056
_cell_formula_units_Z   8
loop_
 _symmetry_equiv_pos_site_id
 _symmetry_equiv_pos_as_xyz
  1  'x, y, z'
loop_
 _atom_site_type_symbol
 _atom_site_label
 _atom_site_symmetry_multiplicity
 _atom_site_fract_x
 _atom_site_fract_y
 _atom_site_fract_z
 _atom_site_occupancy
  Na  Na0  1  0.50000000  0.12509100  0.13248500  1
  Na  Na1  1  0.00000000  0.13043100  0.87838800  1
  Na  Na2  1  0.50000000  0.90789500  0.62465400  1
  Na  Na3  1  0.50000000  0.40789500  0.87534600  1
  Na  Na4  1  0.00000000  0.34072000  0.62382300  1
  Na  Na5  1  0.00000000  0.87692100  0.59052800  1
  Na  Na6  1  0.00000000  0.12307900  0.40947200  1
  Na  Na7  1  0.00000000  0.62307900  0.09052800  1
  Na  Na8  1  0.50000000  0.09210500  0.37534600  1
  Na  Na9  1  0.00000000  0.63043100  0.62161200  1
  Na  Na10  1  0.50000000  0.87927500  0.15574200  1
  Na  Na11  1  0.00000000  0.37692100  0.90947200  1
  Na  Na12  1  0.50000000  0.59210500  0.12465400  1
  Na  Na13  1  0.50000000  0.87490900  0.86751500  1
  Na  Na14  1  0.00000000  0.65928000  0.37617700  1
  Na  Na15  1  0.50000000  0.12072500  0.84425800  1
  Na  Na16  1  0.00000000  0.15928000  0.12382300  1
  Na  Na17  1  0.00000000  0.84072000  0.87617700  1
  Na  Na18  1  0.50000000  0.37490900  0.63248500  1
  Na  Na19  1  0.50000000  0.62509100  0.36751500  1
  Na  Na20  1  0.00000000  0.36956900  0.37838800  1
  Na  Na21  1  0.00000000  0.86956900  0.12161200  1
  Na  Na22  1  0.50000000  0.62072500  0.65574200  1
  Na  Na23  1  0.50000000  0.37927500  0.34425800  1
  Fe  Fe24  1  0.68926800  0.24847000  0.49723100  1
  Fe  Fe25  1  0.68926800  0.74847000  0.00276900  1
  Fe  Fe26  1  0.18908300  0.00221100  0.25147400  1
  Fe  Fe27  1  0.81091700  0.00221100  0.25147400  1
  Fe  Fe28  1  0.68926800  0.25153000  0.99723100  1
  Fe  Fe29  1  0.31073200  0.25153000  0.99723100  1
  Fe  Fe30  1  0.18908300  0.50221100  0.24852600  1
  Fe  Fe31  1  0.81091700  0.49778900  0.75147400  1
  Fe  Fe32  1  0.18908300  0.49778900  0.75147400  1
  Fe  Fe33  1  0.31073200  0.74847000  0.00276900  1
  Fe  Fe34  1  0.31073200  0.24847000  0.49723100  1
  Fe  Fe35  1  0.18908300  0.99778900  0.74852600  1
  Fe  Fe36  1  0.68926800  0.75153000  0.50276900  1
  Fe  Fe37  1  0.81091700  0.50221100  0.24852600  1
  Fe  Fe38  1  0.31073200  0.75153000  0.50276900  1
  Fe  Fe39  1  0.81091700  0.99778900  0.74852600  1
  P  P40  1  0.74996800  0.75080000  0.74866700  1
  P  P41  1  0.25003200  0.24920000  0.25133300  1
  P  P42  1  0.24999000  0.00000000  0.00000000  1
  P  P43  1  0.24976100  0.50000000  0.00000000  1
  P  P44  1  0.75001000  0.50000000  0.50000000  1
  P  P45  1  0.25003200  0.25080000  0.75133300  1
  P  P46  1  0.75023900  0.00000000  0.50000000  1
  P  P47  1  0.74996800  0.74920000  0.24866700  1
  P  P48  1  0.24976100  0.00000000  0.50000000  1
  P  P49  1  0.74996800  0.24920000  0.25133300  1
  P  P50  1  0.24999000  0.50000000  0.50000000  1
  P  P51  1  0.75001000  0.00000000  0.00000000  1
  P  P52  1  0.25003200  0.75080000  0.74866700  1
  P  P53  1  0.75023900  0.50000000  0.00000000  1
  P  P54  1  0.25003200  0.74920000  0.24866700  1
  P  P55  1  0.74996800  0.25080000  0.75133300  1
  O  O56  1  0.67462800  0.25699200  0.65014400  1
  O  O57  1  0.67462800  0.74300800  0.34985600  1
  O  O58  1  0.15653400  0.65807900  0.24191900  1
  O  O59  1  0.83698800  0.01084700  0.09504300  1
  O  O60  1  0.66490800  0.09587900  0.49770000  1
  O  O61  1  0.84346600  0.15807900  0.25808100  1
  O  O62  1  0.16428900  0.00140500  0.59584800  1
  O  O63  1  0.16301200  0.01084700  0.09504300  1
  O  O64  1  0.84346600  0.34192100  0.75808100  1
  O  O65  1  0.33692400  0.40490100  0.48940700  1
  O  O66  1  0.66490800  0.40412100  0.99770000  1
  O  O67  1  0.83698800  0.51084700  0.40495700  1
  O  O68  1  0.82708100  0.15056800  0.75866900  1
  O  O69  1  0.33692400  0.59509900  0.51059300  1
  O  O70  1  0.32537200  0.74300800  0.34985600  1
  O  O71  1  0.15653400  0.34192100  0.75808100  1
  O  O72  1  0.17291900  0.15056800  0.75866900  1
  O  O73  1  0.65486300  0.75638900  0.65867500  1
  O  O74  1  0.16301200  0.51084700  0.40495700  1
  O  O75  1  0.65486300  0.74361100  0.15867500  1
  O  O76  1  0.15653400  0.84192100  0.74191900  1
  O  O77  1  0.17291900  0.65056800  0.74133100  1
  O  O78  1  0.82708100  0.84943200  0.24133100  1
  O  O79  1  0.15653400  0.15807900  0.25808100  1
  O  O80  1  0.65486300  0.24361100  0.34132500  1
  O  O81  1  0.33692400  0.90490100  0.01059300  1
  O  O82  1  0.32537200  0.24300800  0.15014400  1
  O  O83  1  0.82708100  0.65056800  0.74133100  1
  O  O84  1  0.33509200  0.90412100  0.50230000  1
  O  O85  1  0.33692400  0.09509900  0.98940700  1
  O  O86  1  0.32537200  0.25699200  0.65014400  1
  O  O87  1  0.83571100  0.99859500  0.40415200  1
  O  O88  1  0.82708100  0.34943200  0.25866900  1
  O  O89  1  0.83571100  0.00140500  0.59584800  1
  O  O90  1  0.67462800  0.24300800  0.15014400  1
  O  O91  1  0.16428900  0.49859500  0.09584800  1
  O  O92  1  0.66307600  0.09509900  0.98940700  1
  O  O93  1  0.83571100  0.49859500  0.09584800  1
  O  O94  1  0.34513700  0.75638900  0.65867500  1
  O  O95  1  0.84346600  0.84192100  0.74191900  1
  O  O96  1  0.16428900  0.50140500  0.90415200  1
  O  O97  1  0.16301200  0.48915300  0.59504300  1
  O  O98  1  0.17291900  0.34943200  0.25866900  1
  O  O99  1  0.67462800  0.75699200  0.84985600  1
  O  O100  1  0.83571100  0.50140500  0.90415200  1
  O  O101  1  0.32537200  0.75699200  0.84985600  1
  O  O102  1  0.33509200  0.40412100  0.99770000  1
  O  O103  1  0.34513700  0.24361100  0.34132500  1
  O  O104  1  0.83698800  0.48915300  0.59504300  1
  O  O105  1  0.33509200  0.59587900  0.00230000  1
  O  O106  1  0.84346600  0.65807900  0.24191900  1
  O  O107  1  0.65486300  0.25638900  0.84132500  1
  O  O108  1  0.66307600  0.40490100  0.48940700  1
  O  O109  1  0.83698800  0.98915300  0.90495700  1
  O  O110  1  0.33509200  0.09587900  0.49770000  1
  O  O111  1  0.66490800  0.90412100  0.50230000  1
  O  O112  1  0.66307600  0.59509900  0.51059300  1
  O  O113  1  0.66490800  0.59587900  0.00230000  1
  O  O114  1  0.16428900  0.99859500  0.40415200  1
  O  O115  1  0.16301200  0.98915300  0.90495700  1
  O  O116  1  0.34513700  0.74361100  0.15867500  1
  O  O117  1  0.17291900  0.84943200  0.24133100  1
  O  O118  1  0.34513700  0.25638900  0.84132500  1
  O  O119  1  0.66307600  0.90490100  0.01059300  1
  F  F120  1  0.36903700  0.51221900  0.25747600  1
  F  F121  1  0.86921400  0.75691900  0.01221200  1
  F  F122  1  0.00000000  0.49781800  0.74652500  1
  F  F123  1  0.36903700  0.48778100  0.74252400  1
  F  F124  1  0.00000000  0.99781800  0.75347500  1
  F  F125  1  0.13078600  0.25691900  0.48778800  1
  F  F126  1  0.00000000  0.00218200  0.24652500  1
  F  F127  1  0.00000000  0.50218200  0.25347500  1
  F  F128  1  0.36903700  0.98778100  0.75747600  1
  F  F129  1  0.63096300  0.98778100  0.75747600  1
  F  F130  1  0.13078600  0.24308100  0.98778800  1
  F  F131  1  0.50000000  0.75312500  0.00102700  1
  F  F132  1  0.36903700  0.01221900  0.24252400  1
  F  F133  1  0.50000000  0.74687500  0.50102700  1
  F  F134  1  0.50000000  0.24687500  0.99897300  1
  F  F135  1  0.63096300  0.48778100  0.74252400  1
  F  F136  1  0.86921400  0.24308100  0.98778800  1
  F  F137  1  0.13078600  0.74308100  0.51221200  1
  F  F138  1  0.50000000  0.25312500  0.49897300  1
  F  F139  1  0.86921400  0.25691900  0.48778800  1
  F  F140  1  0.86921400  0.74308100  0.51221200  1
  F  F141  1  0.63096300  0.01221900  0.24252400  1
  F  F142  1  0.63096300  0.51221900  0.25747600  1
  F  F143  1  0.13078600  0.75691900  0.01221200  1
