# generated using pymatgen
data_CsAuSe3
_symmetry_space_group_name_H-M   'P 1'
_cell_length_a   7.79002154
_cell_length_b   7.79002154
_cell_length_c   7.79786313
_cell_angle_alpha   80.84174341
_cell_angle_beta   80.84174341
_cell_angle_gamma   129.00930121
_symmetry_Int_Tables_number   1
_chemical_formula_structural   CsAuSe3
_chemical_formula_sum   'Cs2 Au2 Se6'
_cell_volume   341.64276687
_cell_formula_units_Z   2
loop_
 _symmetry_equiv_pos_site_id
 _symmetry_equiv_pos_as_xyz
  1  'x, y, z'
loop_
 _atom_site_type_symbol
 _atom_site_label
 _atom_site_symmetry_multiplicity
 _atom_site_fract_x
 _atom_site_fract_y
 _atom_site_fract_z
 _atom_site_occupancy
  Cs  Cs0  1  0.14699200  0.85300800  0.25000000  1
  Cs  Cs1  1  0.85300800  0.14699200  0.75000000  1
  Au  Au2  1  0.57670100  0.42329900  0.75000000  1
  Au  Au3  1  0.42329900  0.57670100  0.25000000  1
  Se  Se4  1  0.19440000  0.37241400  0.05771100  1
  Se  Se5  1  0.37241400  0.19440000  0.55771100  1
  Se  Se6  1  0.80560000  0.62758600  0.94228900  1
  Se  Se7  1  0.62758600  0.80560000  0.44228900  1
  Se  Se8  1  0.80712300  0.19287700  0.25000000  1
  Se  Se9  1  0.19287700  0.80712300  0.75000000  1
