# generated using pymatgen
data_Na5CrP2(O4F)2
_symmetry_space_group_name_H-M   'P 1'
_cell_length_a   10.71576190
_cell_length_b   10.71576190
_cell_length_c   6.76644900
_cell_angle_alpha   90.00000000
_cell_angle_beta   90.00000000
_cell_angle_gamma   119.99999940
_symmetry_Int_Tables_number   1
_chemical_formula_structural   Na5CrP2(O4F)2
_chemical_formula_sum   'Na15 Cr3 P6 O24 F6'
_cell_volume   672.87990354
_cell_formula_units_Z   3
loop_
 _symmetry_equiv_pos_site_id
 _symmetry_equiv_pos_as_xyz
  1  'x, y, z'
loop_
 _atom_site_type_symbol
 _atom_site_label
 _atom_site_symmetry_multiplicity
 _atom_site_fract_x
 _atom_site_fract_y
 _atom_site_fract_z
 _atom_site_occupancy
  Na  Na0  1  0.66666700  0.33333300  0.57265000  1
  Na  Na1  1  0.00000000  0.00000000  0.50000000  1
  Na  Na2  1  0.33333300  0.66666700  0.42735000  1
  Na  Na3  1  0.66666700  0.33333300  0.01569100  1
  Na  Na4  1  0.17180300  0.85581900  0.23989700  1
  Na  Na5  1  0.31598400  0.17180300  0.76010300  1
  Na  Na6  1  0.50000000  0.50000000  0.50000000  1
  Na  Na7  1  0.14418100  0.31598400  0.23989700  1
  Na  Na8  1  0.82819700  0.14418100  0.76010300  1
  Na  Na9  1  0.68401600  0.82819700  0.23989700  1
  Na  Na10  1  0.50000000  0.00000000  0.50000000  1
  Na  Na11  1  0.33333300  0.66666700  0.98430900  1
  Na  Na12  1  0.00000000  0.00000000  0.00000000  1
  Na  Na13  1  0.85581900  0.68401600  0.76010300  1
  Na  Na14  1  0.00000000  0.50000000  0.50000000  1
  Cr  Cr15  1  0.00000000  0.50000000  0.00000000  1
  Cr  Cr16  1  0.50000000  0.50000000  0.00000000  1
  Cr  Cr17  1  0.50000000  0.00000000  0.00000000  1
  P  P18  1  0.81416000  0.18273900  0.25068500  1
  P  P19  1  0.81726100  0.63142100  0.25068500  1
  P  P20  1  0.36857900  0.18584000  0.25068500  1
  P  P21  1  0.18273900  0.36857900  0.74931500  1
  P  P22  1  0.63142100  0.81416000  0.74931500  1
  P  P23  1  0.18584000  0.81726100  0.74931500  1
  O  O24  1  0.74028600  0.17091400  0.44989900  1
  O  O25  1  0.42247700  0.07510400  0.21207500  1
  O  O26  1  0.82908600  0.56937200  0.44989900  1
  O  O27  1  0.34737300  0.42247700  0.78792500  1
  O  O28  1  0.89299800  0.09497400  0.24561900  1
  O  O29  1  0.17091400  0.43062800  0.55010100  1
  O  O30  1  0.25971400  0.82908600  0.55010100  1
  O  O31  1  0.79802300  0.89299800  0.75438100  1
  O  O32  1  0.43062800  0.25971400  0.44989900  1
  O  O33  1  0.56681600  0.70391600  0.92591800  1
  O  O34  1  0.43318400  0.29608400  0.07408200  1
  O  O35  1  0.56937200  0.74028600  0.55010100  1
  O  O36  1  0.70391600  0.13710100  0.07408200  1
  O  O37  1  0.65262700  0.57752300  0.21207500  1
  O  O38  1  0.92489600  0.34737300  0.21207500  1
  O  O39  1  0.57752300  0.92489600  0.78792500  1
  O  O40  1  0.90502600  0.79802300  0.24561900  1
  O  O41  1  0.86289900  0.56681600  0.07408200  1
  O  O42  1  0.10700200  0.90502600  0.75438100  1
  O  O43  1  0.07510400  0.65262700  0.78792500  1
  O  O44  1  0.09497400  0.20197700  0.75438100  1
  O  O45  1  0.13710100  0.43318400  0.92591800  1
  O  O46  1  0.29608400  0.86289900  0.92591800  1
  O  O47  1  0.20197700  0.10700200  0.24561900  1
  F  F48  1  0.62276400  0.48141100  0.79845800  1
  F  F49  1  0.37723600  0.51858900  0.20154200  1
  F  F50  1  0.85864600  0.37723600  0.79845800  1
  F  F51  1  0.48141100  0.85864600  0.20154200  1
  F  F52  1  0.51858900  0.14135400  0.79845800  1
  F  F53  1  0.14135400  0.62276400  0.20154200  1
