# generated using pymatgen
data_Ba3(CdSb2)2
_symmetry_space_group_name_H-M   'P 1'
_cell_length_a   9.40844835
_cell_length_b   9.40844835
_cell_length_c   7.82919625
_cell_angle_alpha   68.74738422
_cell_angle_beta   68.74738422
_cell_angle_gamma   30.43045164
_symmetry_Int_Tables_number   1
_chemical_formula_structural   Ba3(CdSb2)2
_chemical_formula_sum   'Ba3 Cd2 Sb4'
_cell_volume   325.30761612
_cell_formula_units_Z   1
loop_
 _symmetry_equiv_pos_site_id
 _symmetry_equiv_pos_as_xyz
  1  'x, y, z'
loop_
 _atom_site_type_symbol
 _atom_site_label
 _atom_site_symmetry_multiplicity
 _atom_site_fract_x
 _atom_site_fract_y
 _atom_site_fract_z
 _atom_site_occupancy
  Ba  Ba0  1  0.85790900  0.85790900  0.59064900  1
  Ba  Ba1  1  0.14209100  0.14209100  0.40935100  1
  Ba  Ba2  1  0.00000000  0.00000000  0.00000000  1
  Cd  Cd3  1  0.33186900  0.33186900  0.97165900  1
  Cd  Cd4  1  0.66813100  0.66813100  0.02834100  1
  Sb  Sb5  1  0.49787700  0.49787700  0.68549900  1
  Sb  Sb6  1  0.79244800  0.79244800  0.19736100  1
  Sb  Sb7  1  0.50212300  0.50212300  0.31450100  1
  Sb  Sb8  1  0.20755200  0.20755200  0.80263900  1
