# generated using pymatgen
data_GaRe(Cl3O)2
_symmetry_space_group_name_H-M   'P 1'
_cell_length_a   8.66396400
_cell_length_b   11.69776000
_cell_length_c   12.45684844
_cell_angle_alpha   69.20614331
_cell_angle_beta   90.00000000
_cell_angle_gamma   90.00000000
_symmetry_Int_Tables_number   1
_chemical_formula_structural   GaRe(Cl3O)2
_chemical_formula_sum   'Ga4 Re4 Cl24 O8'
_cell_volume   1180.25498849
_cell_formula_units_Z   4
loop_
 _symmetry_equiv_pos_site_id
 _symmetry_equiv_pos_as_xyz
  1  'x, y, z'
loop_
 _atom_site_type_symbol
 _atom_site_label
 _atom_site_symmetry_multiplicity
 _atom_site_fract_x
 _atom_site_fract_y
 _atom_site_fract_z
 _atom_site_occupancy
  Ga  Ga0  1  0.64638100  0.37370000  0.24648600  1
  Ga  Ga1  1  0.35361900  0.62630000  0.75351400  1
  Ga  Ga2  1  0.85361900  0.87370000  0.24648600  1
  Ga  Ga3  1  0.14638100  0.12630000  0.75351400  1
  Re  Re4  1  0.22290500  0.37461000  0.25715800  1
  Re  Re5  1  0.27709500  0.87461000  0.25715800  1
  Re  Re6  1  0.77709500  0.62539000  0.74284200  1
  Re  Re7  1  0.72290500  0.12539000  0.74284200  1
  Cl  Cl8  1  0.46992300  0.22430000  0.33348600  1
  Cl  Cl9  1  0.28263000  0.17409900  0.87548000  1
  Cl  Cl10  1  0.74094700  0.68536900  0.89538700  1
  Cl  Cl11  1  0.96992300  0.27570000  0.66651400  1
  Cl  Cl12  1  0.46621700  0.51850100  0.15630900  1
  Cl  Cl13  1  0.03378300  0.01850100  0.15630900  1
  Cl  Cl14  1  0.73158200  0.92613200  0.37196400  1
  Cl  Cl15  1  0.78263000  0.32590100  0.12452000  1
  Cl  Cl16  1  0.23158200  0.57386800  0.62803600  1
  Cl  Cl17  1  0.24094700  0.81463100  0.10461300  1
  Cl  Cl18  1  0.20032800  0.93248200  0.40461100  1
  Cl  Cl19  1  0.75905300  0.18536900  0.89538700  1
  Cl  Cl20  1  0.70032800  0.56751800  0.59538900  1
  Cl  Cl21  1  0.21737000  0.67409900  0.87548000  1
  Cl  Cl22  1  0.25905300  0.31463100  0.10461300  1
  Cl  Cl23  1  0.76841800  0.42613200  0.37196400  1
  Cl  Cl24  1  0.03007700  0.72430000  0.33348600  1
  Cl  Cl25  1  0.71737000  0.82590100  0.12452000  1
  Cl  Cl26  1  0.26841800  0.07386800  0.62803600  1
  Cl  Cl27  1  0.53007700  0.77570000  0.66651400  1
  Cl  Cl28  1  0.53378300  0.48149900  0.84369100  1
  Cl  Cl29  1  0.79967200  0.06751800  0.59538900  1
  Cl  Cl30  1  0.96621700  0.98149900  0.84369100  1
  Cl  Cl31  1  0.29967200  0.43248200  0.40461100  1
  O  O32  1  0.39709800  0.99522600  0.19157500  1
  O  O33  1  0.60290200  0.00477400  0.80842500  1
  O  O34  1  0.89553300  0.74253400  0.66557200  1
  O  O35  1  0.39553300  0.75746600  0.33442800  1
  O  O36  1  0.60446700  0.24253400  0.66557200  1
  O  O37  1  0.10290200  0.49522600  0.19157500  1
  O  O38  1  0.89709800  0.50477400  0.80842500  1
  O  O39  1  0.10446700  0.25746600  0.33442800  1
