# generated using pymatgen
data_Na3Dy(Si2O5)3
_symmetry_space_group_name_H-M   'P 1'
_cell_length_a   11.65177109
_cell_length_b   11.65177109
_cell_length_c   10.63756700
_cell_angle_alpha   90.00000000
_cell_angle_beta   90.00000000
_cell_angle_gamma   101.14408668
_symmetry_Int_Tables_number   1
_chemical_formula_structural   Na3Dy(Si2O5)3
_chemical_formula_sum   'Na12 Dy4 Si24 O60'
_cell_volume   1416.96477294
_cell_formula_units_Z   4
loop_
 _symmetry_equiv_pos_site_id
 _symmetry_equiv_pos_as_xyz
  1  'x, y, z'
loop_
 _atom_site_type_symbol
 _atom_site_label
 _atom_site_symmetry_multiplicity
 _atom_site_fract_x
 _atom_site_fract_y
 _atom_site_fract_z
 _atom_site_occupancy
  Na  Na0  1  0.92780500  0.07219500  0.75047700  1
  Na  Na1  1  0.76182200  0.76182200  0.00000000  1
  Na  Na2  1  0.47296600  0.02703400  0.75000000  1
  Na  Na3  1  0.52703400  0.97296600  0.25000000  1
  Na  Na4  1  0.42780500  0.57219500  0.74952300  1
  Na  Na5  1  0.97296600  0.52703400  0.75000000  1
  Na  Na6  1  0.26182200  0.26182200  0.50000000  1
  Na  Na7  1  0.02703400  0.47296600  0.25000000  1
  Na  Na8  1  0.23817800  0.23817800  0.00000000  1
  Na  Na9  1  0.57219500  0.42780500  0.25047700  1
  Na  Na10  1  0.07219500  0.92780500  0.24952300  1
  Na  Na11  1  0.73817800  0.73817800  0.50000000  1
  Dy  Dy12  1  0.33993800  0.16006200  0.25000000  1
  Dy  Dy13  1  0.16006200  0.33993800  0.75000000  1
  Dy  Dy14  1  0.83993800  0.66006200  0.25000000  1
  Dy  Dy15  1  0.66006200  0.83993800  0.75000000  1
  Si  Si16  1  0.69179400  0.52774600  0.70031300  1
  Si  Si17  1  0.97225400  0.80820600  0.79968700  1
  Si  Si18  1  0.47169000  0.74177400  0.02011200  1
  Si  Si19  1  0.25822600  0.52831000  0.02011200  1
  Si  Si20  1  0.52774600  0.69179400  0.29968700  1
  Si  Si21  1  0.41643600  0.79651600  0.53401200  1
  Si  Si22  1  0.97169000  0.24177400  0.47988800  1
  Si  Si23  1  0.30820600  0.47225400  0.29968700  1
  Si  Si24  1  0.20348400  0.58356400  0.53401200  1
  Si  Si25  1  0.74177400  0.47169000  0.97988800  1
  Si  Si26  1  0.79651600  0.41643600  0.46598800  1
  Si  Si27  1  0.52831000  0.25822600  0.97988800  1
  Si  Si28  1  0.24177400  0.97169000  0.52011200  1
  Si  Si29  1  0.19179400  0.02774600  0.79968700  1
  Si  Si30  1  0.70348400  0.08356400  0.96598800  1
  Si  Si31  1  0.47225400  0.30820600  0.70031300  1
  Si  Si32  1  0.58356400  0.20348400  0.46598800  1
  Si  Si33  1  0.08356400  0.70348400  0.03401200  1
  Si  Si34  1  0.29651600  0.91643600  0.03401200  1
  Si  Si35  1  0.91643600  0.29651600  0.96598800  1
  Si  Si36  1  0.80820600  0.97225400  0.20031300  1
  Si  Si37  1  0.02774600  0.19179400  0.20031300  1
  Si  Si38  1  0.75822600  0.02831000  0.47988800  1
  Si  Si39  1  0.02831000  0.75822600  0.52011200  1
  O  O40  1  0.07806900  0.25090200  0.57580800  1
  O  O41  1  0.38952700  0.61047300  0.00818000  1
  O  O42  1  0.39060800  0.83816400  0.98638800  1
  O  O43  1  0.65604200  0.65260600  0.68153000  1
  O  O44  1  0.65260600  0.65604200  0.31847000  1
  O  O45  1  0.76526500  0.51528700  0.83147400  1
  O  O46  1  0.84108800  0.48937100  0.34228200  1
  O  O47  1  0.75090200  0.57806900  0.07580800  1
  O  O48  1  0.42193200  0.24909800  0.07580800  1
  O  O49  1  0.15260600  0.15604200  0.18153000  1
  O  O50  1  0.78047100  0.50028900  0.58810100  1
  O  O51  1  0.07159400  0.92840600  0.79764000  1
  O  O52  1  0.25090200  0.07806900  0.42419200  1
  O  O53  1  0.10939200  0.66183600  0.48638800  1
  O  O54  1  0.60939200  0.16183600  0.01361200  1
  O  O55  1  0.89060800  0.33816400  0.51361200  1
  O  O56  1  0.11047300  0.88952700  0.50818000  1
  O  O57  1  0.33251900  0.66748100  0.56332900  1
  O  O58  1  0.98937100  0.34108800  0.84228200  1
  O  O59  1  0.98471300  0.73473500  0.66852600  1
  O  O60  1  0.21952900  0.49971100  0.41189900  1
  O  O61  1  0.50028900  0.78047100  0.41189900  1
  O  O62  1  0.48471300  0.23473500  0.83147400  1
  O  O63  1  0.74909800  0.92193100  0.57580800  1
  O  O64  1  0.65891200  0.01062900  0.84228200  1
  O  O65  1  0.34739400  0.34395800  0.68153000  1
  O  O66  1  0.26526500  0.01528700  0.66852600  1
  O  O67  1  0.84739400  0.84395800  0.81847000  1
  O  O68  1  0.51528700  0.76526500  0.16852600  1
  O  O69  1  0.73473500  0.98471300  0.33147400  1
  O  O70  1  0.88952700  0.11047300  0.49182000  1
  O  O71  1  0.92193200  0.74909800  0.42419200  1
  O  O72  1  0.01528700  0.26526500  0.33147400  1
  O  O73  1  0.28047100  0.00028900  0.91189900  1
  O  O74  1  0.92840600  0.07159400  0.20236000  1
  O  O75  1  0.84395800  0.84739400  0.18153000  1
  O  O76  1  0.66183600  0.10939200  0.51361200  1
  O  O77  1  0.33816400  0.89060800  0.48638800  1
  O  O78  1  0.51062900  0.15891200  0.34228200  1
  O  O79  1  0.16748100  0.83251900  0.06332900  1
  O  O80  1  0.57806900  0.75090200  0.92419200  1
  O  O81  1  0.15891200  0.51062900  0.65771800  1
  O  O82  1  0.99971100  0.71952900  0.91189900  1
  O  O83  1  0.66748100  0.33251900  0.43667100  1
  O  O84  1  0.48937100  0.84108800  0.65771800  1
  O  O85  1  0.83816400  0.39060800  0.01361200  1
  O  O86  1  0.16183600  0.60939200  0.98638800  1
  O  O87  1  0.57159400  0.42840600  0.70236000  1
  O  O88  1  0.83251900  0.16748100  0.93667100  1
  O  O89  1  0.71952900  0.99971100  0.08810100  1
  O  O90  1  0.61047300  0.38952700  0.99182000  1
  O  O91  1  0.49971100  0.21952900  0.58810100  1
  O  O92  1  0.01062900  0.65891200  0.15771800  1
  O  O93  1  0.24909800  0.42193100  0.92419200  1
  O  O94  1  0.23473500  0.48471300  0.16852600  1
  O  O95  1  0.34108800  0.98937100  0.15771800  1
  O  O96  1  0.00028900  0.28047100  0.08810100  1
  O  O97  1  0.34395800  0.34739400  0.31847000  1
  O  O98  1  0.15604200  0.15260600  0.81847000  1
  O  O99  1  0.42840600  0.57159400  0.29764000  1
