# generated using pymatgen
data_Ba3Zn5In2O11
_symmetry_space_group_name_H-M   'P 1'
_cell_length_a   9.59234755
_cell_length_b   9.59234755
_cell_length_c   9.59234755
_cell_angle_alpha   60.00000000
_cell_angle_beta   60.00000000
_cell_angle_gamma   60.00000000
_symmetry_Int_Tables_number   1
_chemical_formula_structural   Ba3Zn5In2O11
_chemical_formula_sum   'Ba6 Zn10 In4 O22'
_cell_volume   624.10795664
_cell_formula_units_Z   2
loop_
 _symmetry_equiv_pos_site_id
 _symmetry_equiv_pos_as_xyz
  1  'x, y, z'
loop_
 _atom_site_type_symbol
 _atom_site_label
 _atom_site_symmetry_multiplicity
 _atom_site_fract_x
 _atom_site_fract_y
 _atom_site_fract_z
 _atom_site_occupancy
  Ba  Ba0  1  0.95677500  0.54322500  0.54322500  1
  Ba  Ba1  1  0.95677500  0.54322500  0.95677500  1
  Ba  Ba2  1  0.54322500  0.54322500  0.95677500  1
  Ba  Ba3  1  0.54322500  0.95677500  0.95677500  1
  Ba  Ba4  1  0.95677500  0.95677500  0.54322500  1
  Ba  Ba5  1  0.54322500  0.95677500  0.54322500  1
  Zn  Zn6  1  0.16699800  0.49900500  0.16699800  1
  Zn  Zn7  1  0.16699800  0.16699800  0.16699800  1
  Zn  Zn8  1  0.16699800  0.16699800  0.49900500  1
  Zn  Zn9  1  0.83164100  0.16835900  0.16835900  1
  Zn  Zn10  1  0.16835900  0.83164100  0.83164100  1
  Zn  Zn11  1  0.16835900  0.16835900  0.83164100  1
  Zn  Zn12  1  0.83164100  0.16835900  0.83164100  1
  Zn  Zn13  1  0.49900500  0.16699800  0.16699800  1
  Zn  Zn14  1  0.16835900  0.83164100  0.16835900  1
  Zn  Zn15  1  0.83164100  0.83164100  0.16835900  1
  In  In16  1  0.41532600  0.75402300  0.41532600  1
  In  In17  1  0.41532600  0.41532600  0.75402300  1
  In  In18  1  0.41532600  0.41532600  0.41532600  1
  In  In19  1  0.75402300  0.41532600  0.41532600  1
  O  O20  1  0.90808200  0.90808200  0.90808200  1
  O  O21  1  0.25250300  0.25250300  0.91639500  1
  O  O22  1  0.90808200  0.27575500  0.90808200  1
  O  O23  1  0.91639500  0.25250300  0.57859900  1
  O  O24  1  0.91639500  0.57859900  0.25250300  1
  O  O25  1  0.57859900  0.91639500  0.25250300  1
  O  O26  1  0.58134000  0.25598100  0.58134000  1
  O  O27  1  0.25250300  0.91639500  0.57859900  1
  O  O28  1  0.27575500  0.90808200  0.90808200  1
  O  O29  1  0.25250300  0.25250300  0.57859900  1
  O  O30  1  0.25250300  0.57859900  0.25250300  1
  O  O31  1  0.75000000  0.75000000  0.75000000  1
  O  O32  1  0.57859900  0.25250300  0.25250300  1
  O  O33  1  0.58134000  0.58134000  0.58134000  1
  O  O34  1  0.58134000  0.58134000  0.25598100  1
  O  O35  1  0.90808200  0.90808200  0.27575500  1
  O  O36  1  0.25250300  0.91639500  0.25250300  1
  O  O37  1  0.91639500  0.25250300  0.25250300  1
  O  O38  1  0.25000000  0.25000000  0.25000000  1
  O  O39  1  0.25250300  0.57859900  0.91639500  1
  O  O40  1  0.57859900  0.25250300  0.91639500  1
  O  O41  1  0.25598100  0.58134000  0.58134000  1
