# generated using pymatgen
data_RbP2WO8
_symmetry_space_group_name_H-M   'P 1'
_cell_length_a   12.21013600
_cell_length_b   5.20395300
_cell_length_c   12.93196879
_cell_angle_alpha   67.10330311
_cell_angle_beta   90.00000000
_cell_angle_gamma   90.00000000
_symmetry_Int_Tables_number   1
_chemical_formula_structural   RbP2WO8
_chemical_formula_sum   'Rb4 P8 W4 O32'
_cell_volume   756.96559146
_cell_formula_units_Z   4
loop_
 _symmetry_equiv_pos_site_id
 _symmetry_equiv_pos_as_xyz
  1  'x, y, z'
loop_
 _atom_site_type_symbol
 _atom_site_label
 _atom_site_symmetry_multiplicity
 _atom_site_fract_x
 _atom_site_fract_y
 _atom_site_fract_z
 _atom_site_occupancy
  Rb  Rb0  1  0.12268500  0.29862800  0.46125800  1
  Rb  Rb1  1  0.62268500  0.70137200  0.03874200  1
  Rb  Rb2  1  0.87731500  0.70137200  0.53874200  1
  Rb  Rb3  1  0.37731500  0.29862800  0.96125800  1
  P  P4  1  0.42884900  0.38312200  0.37299400  1
  P  P5  1  0.92884900  0.61687800  0.12700600  1
  P  P6  1  0.57115100  0.61687800  0.62700600  1
  P  P7  1  0.07115100  0.38312200  0.87299400  1
  P  P8  1  0.29513000  0.60248500  0.16485500  1
  P  P9  1  0.79513000  0.39751500  0.33514500  1
  P  P10  1  0.70487000  0.39751500  0.83514500  1
  P  P11  1  0.20487000  0.60248500  0.66485500  1
  W  W12  1  0.10788600  0.08819400  0.17074400  1
  W  W13  1  0.60788600  0.91180600  0.32925600  1
  W  W14  1  0.89211400  0.91180600  0.82925600  1
  W  W15  1  0.39211400  0.08819400  0.67074400  1
  O  O16  1  0.10596900  0.98164200  0.31741100  1
  O  O17  1  0.60596900  0.01835800  0.18258900  1
  O  O18  1  0.89403100  0.01835800  0.68258900  1
  O  O19  1  0.39403100  0.98164200  0.81741100  1
  O  O20  1  0.24859500  0.88301500  0.16099100  1
  O  O21  1  0.74859500  0.11698500  0.33900900  1
  O  O22  1  0.75140500  0.11698500  0.83900900  1
  O  O23  1  0.25140500  0.88301500  0.66099100  1
  O  O24  1  0.20436300  0.43449400  0.13695800  1
  O  O25  1  0.70436300  0.56550600  0.36304200  1
  O  O26  1  0.79563700  0.56550600  0.86304200  1
  O  O27  1  0.29563700  0.43449400  0.63695800  1
  O  O28  1  0.01448400  0.75878200  0.17232900  1
  O  O29  1  0.51448400  0.24121800  0.32767100  1
  O  O30  1  0.98551600  0.24121800  0.82767100  1
  O  O31  1  0.48551600  0.75878200  0.67232900  1
  O  O32  1  0.96645100  0.32398200  0.14052100  1
  O  O33  1  0.46645100  0.67601800  0.35947900  1
  O  O34  1  0.03354900  0.67601800  0.85947900  1
  O  O35  1  0.53354900  0.32398200  0.64052100  1
  O  O36  1  0.11044200  0.20961900  0.99124200  1
  O  O37  1  0.61044200  0.79038100  0.50875800  1
  O  O38  1  0.88955800  0.79038100  0.00875800  1
  O  O39  1  0.38955800  0.20961900  0.49124200  1
  O  O40  1  0.31900600  0.42233100  0.29883200  1
  O  O41  1  0.81900600  0.57766900  0.20116800  1
  O  O42  1  0.68099400  0.57766900  0.70116800  1
  O  O43  1  0.18099400  0.42233100  0.79883200  1
  O  O44  1  0.39696300  0.64174600  0.09664900  1
  O  O45  1  0.89696300  0.35825400  0.40335100  1
  O  O46  1  0.60303700  0.35825400  0.90335100  1
  O  O47  1  0.10303700  0.64174600  0.59664900  1
