# generated using pymatgen
data_Ba7Al4Ge9
_symmetry_space_group_name_H-M   'P 1'
_cell_length_a   14.02028841
_cell_length_b   13.73195447
_cell_length_c   6.80160139
_cell_angle_alpha   78.18110462
_cell_angle_beta   73.46990215
_cell_angle_gamma   28.34899323
_symmetry_Int_Tables_number   1
_chemical_formula_structural   Ba7Al4Ge9
_chemical_formula_sum   'Ba7 Al4 Ge9'
_cell_volume   593.10294391
_cell_formula_units_Z   1
loop_
 _symmetry_equiv_pos_site_id
 _symmetry_equiv_pos_as_xyz
  1  'x, y, z'
loop_
 _atom_site_type_symbol
 _atom_site_label
 _atom_site_symmetry_multiplicity
 _atom_site_fract_x
 _atom_site_fract_y
 _atom_site_fract_z
 _atom_site_occupancy
  Ba  Ba0  1  0.37215300  0.62784700  0.62784700  1
  Ba  Ba1  1  0.38105600  0.41281100  0.16957500  1
  Ba  Ba2  1  0.45588000  0.04412000  0.04412000  1
  Ba  Ba3  1  0.83042500  0.96344200  0.61894400  1
  Ba  Ba4  1  0.58718900  0.61894400  0.96344200  1
  Ba  Ba5  1  0.95588000  0.54412000  0.54412000  1
  Ba  Ba6  1  0.03655800  0.16957500  0.41281100  1
  Al  Al7  1  0.41275800  0.98830300  0.58724200  1
  Al  Al8  1  0.01169700  0.58724200  0.98830300  1
  Al  Al9  1  0.94102900  0.93801600  0.05897100  1
  Al  Al10  1  0.06198400  0.05897100  0.93801600  1
  Ge  Ge11  1  0.29975900  0.41074700  0.70024100  1
  Ge  Ge12  1  0.89903200  0.50661100  0.10096800  1
  Ge  Ge13  1  0.78824000  0.21176000  0.82688000  1
  Ge  Ge14  1  0.80610800  0.88268800  0.19389200  1
  Ge  Ge15  1  0.11731200  0.19389200  0.88268800  1
  Ge  Ge16  1  0.17312000  0.82688000  0.21176000  1
  Ge  Ge17  1  0.76135900  0.23864100  0.23864100  1
  Ge  Ge18  1  0.58925300  0.70024100  0.41074700  1
  Ge  Ge19  1  0.49338900  0.10096800  0.50661100  1
