# generated using pymatgen
data_Ag3AsS3
_symmetry_space_group_name_H-M   'P 1'
_cell_length_a   6.88608505
_cell_length_b   6.88608505
_cell_length_c   17.21505651
_cell_angle_alpha   72.21621343
_cell_angle_beta   72.21621343
_cell_angle_gamma   55.46682928
_symmetry_Int_Tables_number   1
_chemical_formula_structural   Ag3AsS3
_chemical_formula_sum   'Ag12 As4 S12'
_cell_volume   631.16738055
_cell_formula_units_Z   4
loop_
 _symmetry_equiv_pos_site_id
 _symmetry_equiv_pos_as_xyz
  1  'x, y, z'
loop_
 _atom_site_type_symbol
 _atom_site_label
 _atom_site_symmetry_multiplicity
 _atom_site_fract_x
 _atom_site_fract_y
 _atom_site_fract_z
 _atom_site_occupancy
  Ag  Ag0  1  0.89493900  0.83028400  0.21537500  1
  Ag  Ag1  1  0.16971600  0.10506100  0.28462500  1
  Ag  Ag2  1  0.68333100  0.59858000  0.13425800  1
  Ag  Ag3  1  0.31666900  0.40142000  0.86574200  1
  Ag  Ag4  1  0.01121000  0.85871400  0.93761500  1
  Ag  Ag5  1  0.85871400  0.01121000  0.43761500  1
  Ag  Ag6  1  0.10506100  0.16971600  0.78462500  1
  Ag  Ag7  1  0.14128600  0.98879000  0.56238500  1
  Ag  Ag8  1  0.40142000  0.31666900  0.36574200  1
  Ag  Ag9  1  0.98879000  0.14128600  0.06238500  1
  Ag  Ag10  1  0.83028400  0.89493900  0.71537500  1
  Ag  Ag11  1  0.59858000  0.68333100  0.63425800  1
  As  As12  1  0.41022200  0.30233400  0.07199000  1
  As  As13  1  0.69766600  0.58977800  0.42801000  1
  As  As14  1  0.30233400  0.41022200  0.57199000  1
  As  As15  1  0.58977800  0.69766600  0.92801000  1
  S  S16  1  0.34587200  0.96343400  0.41420300  1
  S  S17  1  0.57421700  0.28290800  0.17329100  1
  S  S18  1  0.97803000  0.69103100  0.35921200  1
  S  S19  1  0.30896900  0.02197000  0.14078800  1
  S  S20  1  0.71709200  0.42578300  0.32670900  1
  S  S21  1  0.02197000  0.30896900  0.64078800  1
  S  S22  1  0.69103100  0.97803000  0.85921200  1
  S  S23  1  0.42578300  0.71709200  0.82670900  1
  S  S24  1  0.96343400  0.34587200  0.91420300  1
  S  S25  1  0.03656600  0.65412800  0.08579700  1
  S  S26  1  0.65412800  0.03656600  0.58579700  1
  S  S27  1  0.28290800  0.57421700  0.67329100  1
