# generated using pymatgen
data_K3Cu11Te16
_symmetry_space_group_name_H-M   'P 1'
_cell_length_a   15.87074294
_cell_length_b   15.87074294
_cell_length_c   15.87074294
_cell_angle_alpha   154.59447555
_cell_angle_beta   103.17934950
_cell_angle_gamma   82.45563237
_symmetry_Int_Tables_number   1
_chemical_formula_structural   K3Cu11Te16
_chemical_formula_sum   'K6 Cu22 Te32'
_cell_volume   1642.97145482
_cell_formula_units_Z   2
loop_
 _symmetry_equiv_pos_site_id
 _symmetry_equiv_pos_as_xyz
  1  'x, y, z'
loop_
 _atom_site_type_symbol
 _atom_site_label
 _atom_site_symmetry_multiplicity
 _atom_site_fract_x
 _atom_site_fract_y
 _atom_site_fract_z
 _atom_site_occupancy
  K  K0  1  0.40224100  0.82294500  0.72518600  1
  K  K1  1  0.09775900  0.82294500  0.42070400  1
  K  K2  1  0.00000000  0.50000000  0.50000000  1
  K  K3  1  0.59775900  0.17705500  0.27481400  1
  K  K4  1  0.50000000  0.00000000  0.50000000  1
  K  K5  1  0.90224100  0.17705500  0.57929600  1
  Cu  Cu6  1  0.47638000  0.38598400  0.68391800  1
  Cu  Cu7  1  0.79793400  0.70753800  0.68391800  1
  Cu  Cu8  1  0.98743400  0.90447700  0.70620200  1
  Cu  Cu9  1  0.70206600  0.38598400  0.90960400  1
  Cu  Cu10  1  0.75000000  0.89881800  0.14881800  1
  Cu  Cu11  1  0.80172500  0.09552300  0.08295600  1
  Cu  Cu12  1  0.01256600  0.09552300  0.29379800  1
  Cu  Cu13  1  0.51256600  0.21876800  0.91704400  1
  Cu  Cu14  1  0.29793400  0.61401600  0.09039600  1
  Cu  Cu15  1  0.69827500  0.78123200  0.29379800  1
  Cu  Cu16  1  0.97638000  0.29246200  0.09039600  1
  Cu  Cu17  1  0.20206600  0.29246200  0.31608200  1
  Cu  Cu18  1  0.25000000  0.10118200  0.85118200  1
  Cu  Cu19  1  0.30172500  0.21876800  0.70620200  1
  Cu  Cu20  1  0.85629400  0.35629400  0.00000000  1
  Cu  Cu21  1  0.48743400  0.78123200  0.08295600  1
  Cu  Cu22  1  0.52362000  0.61401600  0.31608200  1
  Cu  Cu23  1  0.64370600  0.64370600  0.50000000  1
  Cu  Cu24  1  0.19827500  0.90447700  0.91704400  1
  Cu  Cu25  1  0.02362000  0.70753800  0.90960400  1
  Cu  Cu26  1  0.35629400  0.35629400  0.50000000  1
  Cu  Cu27  1  0.14370600  0.64370600  0.00000000  1
  Te  Te28  1  0.73566000  0.04526300  0.66160600  1
  Te  Te29  1  0.88365600  0.57405400  0.33839400  1
  Te  Te30  1  0.15167100  0.32118700  0.79486100  1
  Te  Te31  1  0.64169300  0.34980300  0.70811000  1
  Te  Te32  1  0.47367400  0.67881300  0.83048400  1
  Te  Te33  1  0.34764500  0.35345800  0.20110300  1
  Te  Te34  1  0.85830700  0.56641700  0.70811000  1
  Te  Te35  1  0.84832900  0.67881300  0.20513900  1
  Te  Te36  1  0.35830700  0.65019700  0.29189000  1
  Te  Te37  1  0.76434000  0.42594600  0.30960300  1
  Te  Te38  1  0.14169300  0.43358300  0.29189000  1
  Te  Te39  1  0.38365600  0.04526300  0.30960300  1
  Te  Te40  1  0.35029300  0.05426100  0.70396800  1
  Te  Te41  1  0.65167100  0.85681000  0.83048400  1
  Te  Te42  1  0.84764500  0.64654200  0.99418700  1
  Te  Te43  1  0.42568200  0.50000000  0.92568200  1
  Te  Te44  1  0.64970700  0.94573900  0.29603200  1
  Te  Te45  1  0.57431800  0.50000000  0.07431800  1
  Te  Te46  1  0.11634400  0.42594600  0.66160600  1
  Te  Te47  1  0.34832900  0.14319000  0.16951600  1
  Te  Te48  1  0.15235500  0.35345800  0.00581300  1
  Te  Te49  1  0.65235500  0.64654200  0.79889700  1
  Te  Te50  1  0.85029300  0.14632400  0.29603200  1
  Te  Te51  1  0.92568200  0.00000000  0.92568200  1
  Te  Te52  1  0.52632600  0.32118700  0.16951600  1
  Te  Te53  1  0.14970700  0.85367600  0.70396800  1
  Te  Te54  1  0.02632600  0.85681000  0.20513900  1
  Te  Te55  1  0.97367400  0.14319000  0.79486100  1
  Te  Te56  1  0.61634400  0.95473700  0.69039700  1
  Te  Te57  1  0.26434000  0.95473700  0.33839400  1
  Te  Te58  1  0.07431800  0.00000000  0.07431800  1
  Te  Te59  1  0.23566000  0.57405400  0.69039700  1
