# generated using pymatgen
data_Na4Cd2Si3O10
_symmetry_space_group_name_H-M   'P 1'
_cell_length_a   5.82945647
_cell_length_b   5.82945647
_cell_length_c   17.90612222
_cell_angle_alpha   81.53553723
_cell_angle_beta   81.53553723
_cell_angle_gamma   61.07790779
_symmetry_Int_Tables_number   1
_chemical_formula_structural   Na4Cd2Si3O10
_chemical_formula_sum   'Na8 Cd4 Si6 O20'
_cell_volume   524.76743703
_cell_formula_units_Z   2
loop_
 _symmetry_equiv_pos_site_id
 _symmetry_equiv_pos_as_xyz
  1  'x, y, z'
loop_
 _atom_site_type_symbol
 _atom_site_label
 _atom_site_symmetry_multiplicity
 _atom_site_fract_x
 _atom_site_fract_y
 _atom_site_fract_z
 _atom_site_occupancy
  Na  Na0  1  0.22108300  0.43192700  0.24357100  1
  Na  Na1  1  0.43192700  0.22108300  0.74357100  1
  Na  Na2  1  0.77891700  0.56807300  0.75642900  1
  Na  Na3  1  0.68342600  0.82464300  0.93990400  1
  Na  Na4  1  0.56807300  0.77891700  0.25642900  1
  Na  Na5  1  0.17535700  0.31657400  0.56009600  1
  Na  Na6  1  0.31657400  0.17535700  0.06009600  1
  Na  Na7  1  0.82464300  0.68342600  0.43990400  1
  Cd  Cd8  1  0.00007800  0.80396600  0.08516900  1
  Cd  Cd9  1  0.80396600  0.00007800  0.58516900  1
  Cd  Cd10  1  0.19603400  0.99992200  0.41483100  1
  Cd  Cd11  1  0.99992200  0.19603400  0.91483100  1
  Si  Si12  1  0.88109000  0.11891000  0.25000000  1
  Si  Si13  1  0.32990000  0.54049300  0.89831800  1
  Si  Si14  1  0.45950700  0.67010000  0.60168200  1
  Si  Si15  1  0.67010000  0.45950700  0.10168200  1
  Si  Si16  1  0.11891000  0.88109000  0.75000000  1
  Si  Si17  1  0.54049300  0.32990000  0.39831800  1
  O  O18  1  0.20504000  0.61547600  0.81287400  1
  O  O19  1  0.08381000  0.13520200  0.78680000  1
  O  O20  1  0.61324900  0.54110700  0.88450200  1
  O  O21  1  0.54110700  0.61324900  0.38450200  1
  O  O22  1  0.77021200  0.10828800  0.45215700  1
  O  O23  1  0.74942300  0.64603600  0.57254400  1
  O  O24  1  0.13520200  0.08381000  0.28680000  1
  O  O25  1  0.38452400  0.79496000  0.68712600  1
  O  O26  1  0.61547600  0.20504000  0.31287400  1
  O  O27  1  0.10828800  0.77021200  0.95215700  1
  O  O28  1  0.35396400  0.25057700  0.92745600  1
  O  O29  1  0.79496000  0.38452400  0.18712600  1
  O  O30  1  0.91619000  0.86479800  0.21320000  1
  O  O31  1  0.25057700  0.35396400  0.42745600  1
  O  O32  1  0.89171200  0.22978800  0.04784300  1
  O  O33  1  0.64603600  0.74942300  0.07254400  1
  O  O34  1  0.22978800  0.89171200  0.54784300  1
  O  O35  1  0.86479800  0.91619000  0.71320000  1
  O  O36  1  0.38675100  0.45889300  0.11549800  1
  O  O37  1  0.45889300  0.38675100  0.61549800  1
