# generated using pymatgen
data_K2SrV3O9
_symmetry_space_group_name_H-M   'P 1'
_cell_length_a   5.50696400
_cell_length_b   10.43427300
_cell_length_c   16.37073100
_cell_angle_alpha   90.00000000
_cell_angle_beta   90.00000000
_cell_angle_gamma   90.00000000
_symmetry_Int_Tables_number   1
_chemical_formula_structural   K2SrV3O9
_chemical_formula_sum   'K8 Sr4 V12 O36'
_cell_volume   940.68128788
_cell_formula_units_Z   4
loop_
 _symmetry_equiv_pos_site_id
 _symmetry_equiv_pos_as_xyz
  1  'x, y, z'
loop_
 _atom_site_type_symbol
 _atom_site_label
 _atom_site_symmetry_multiplicity
 _atom_site_fract_x
 _atom_site_fract_y
 _atom_site_fract_z
 _atom_site_occupancy
  K  K0  1  0.25000000  0.52861000  0.06816500  1
  K  K1  1  0.75000000  0.47139000  0.93183500  1
  K  K2  1  0.25000000  0.02861000  0.43183500  1
  K  K3  1  0.75000000  0.97139000  0.56816500  1
  K  K4  1  0.25000000  0.47134000  0.78859000  1
  K  K5  1  0.25000000  0.97134000  0.71141000  1
  K  K6  1  0.75000000  0.02866000  0.28859000  1
  K  K7  1  0.75000000  0.52866000  0.21141000  1
  Sr  Sr8  1  0.25000000  0.46656100  0.38442400  1
  Sr  Sr9  1  0.75000000  0.03343900  0.88442400  1
  Sr  Sr10  1  0.75000000  0.53343900  0.61557600  1
  Sr  Sr11  1  0.25000000  0.96656100  0.11557600  1
  V  V12  1  0.75000000  0.20883900  0.09414400  1
  V  V13  1  0.25000000  0.29116100  0.59414400  1
  V  V14  1  0.75000000  0.70883900  0.40585600  1
  V  V15  1  0.75000000  0.80975000  0.04297300  1
  V  V16  1  0.75000000  0.24880100  0.72749800  1
  V  V17  1  0.75000000  0.30975000  0.45702700  1
  V  V18  1  0.25000000  0.69025000  0.54297300  1
  V  V19  1  0.25000000  0.75119900  0.27250200  1
  V  V20  1  0.25000000  0.79116100  0.90585600  1
  V  V21  1  0.25000000  0.19025000  0.95702700  1
  V  V22  1  0.75000000  0.74880100  0.77250200  1
  V  V23  1  0.25000000  0.25119900  0.22749800  1
  O  O24  1  0.50221400  0.17320300  0.17924500  1
  O  O25  1  0.00221400  0.82679700  0.82075500  1
  O  O26  1  0.98964600  0.14069500  0.01426100  1
  O  O27  1  0.75000000  0.08548000  0.71842800  1
  O  O28  1  0.00221400  0.32679700  0.67924500  1
  O  O29  1  0.75000000  0.40307500  0.37012800  1
  O  O30  1  0.25000000  0.72596000  0.16984000  1
  O  O31  1  0.99778600  0.67320300  0.32075500  1
  O  O32  1  0.25000000  0.13335500  0.58200800  1
  O  O33  1  0.25000000  0.63335500  0.91799200  1
  O  O34  1  0.75000000  0.36664500  0.08200800  1
  O  O35  1  0.25000000  0.41452000  0.21842800  1
  O  O36  1  0.25000000  0.84997600  0.56001000  1
  O  O37  1  0.01035400  0.35930500  0.51426100  1
  O  O38  1  0.50221400  0.67320300  0.32075500  1
  O  O39  1  0.75000000  0.77404000  0.66984000  1
  O  O40  1  0.75000000  0.86664500  0.41799200  1
  O  O41  1  0.75000000  0.58548000  0.78157200  1
  O  O42  1  0.25000000  0.09692500  0.87012800  1
  O  O43  1  0.49778600  0.82679700  0.82075500  1
  O  O44  1  0.25000000  0.22596000  0.33016000  1
  O  O45  1  0.25000000  0.34997600  0.93999000  1
  O  O46  1  0.25000000  0.59692500  0.62987200  1
  O  O47  1  0.75000000  0.27404000  0.83016000  1
  O  O48  1  0.51035400  0.14069500  0.01426100  1
  O  O49  1  0.99778600  0.17320300  0.17924500  1
  O  O50  1  0.48964600  0.85930500  0.98573900  1
  O  O51  1  0.51035400  0.64069500  0.48573900  1
  O  O52  1  0.25000000  0.91452000  0.28157200  1
  O  O53  1  0.49778600  0.32679700  0.67924500  1
  O  O54  1  0.75000000  0.65002400  0.06001000  1
  O  O55  1  0.01035400  0.85930500  0.98573900  1
  O  O56  1  0.98964600  0.64069500  0.48573900  1
  O  O57  1  0.75000000  0.15002400  0.43999000  1
  O  O58  1  0.75000000  0.90307500  0.12987200  1
  O  O59  1  0.48964600  0.35930500  0.51426100  1
