# generated using pymatgen
data_Cs(TeO3)2
_symmetry_space_group_name_H-M   'P 1'
_cell_length_a   7.50973475
_cell_length_b   7.50973475
_cell_length_c   7.50973491
_cell_angle_alpha   59.21724060
_cell_angle_beta   59.21724060
_cell_angle_gamma   59.21724469
_symmetry_Int_Tables_number   1
_chemical_formula_structural   Cs(TeO3)2
_chemical_formula_sum   'Cs2 Te4 O12'
_cell_volume   294.13348733
_cell_formula_units_Z   2
loop_
 _symmetry_equiv_pos_site_id
 _symmetry_equiv_pos_as_xyz
  1  'x, y, z'
loop_
 _atom_site_type_symbol
 _atom_site_label
 _atom_site_symmetry_multiplicity
 _atom_site_fract_x
 _atom_site_fract_y
 _atom_site_fract_z
 _atom_site_occupancy
  Cs  Cs0  1  0.87757800  0.87757800  0.87757800  1
  Cs  Cs1  1  0.12242200  0.12242200  0.12242200  1
  Te  Te2  1  0.00000000  0.50000000  0.50000000  1
  Te  Te3  1  0.50000000  0.50000000  0.00000000  1
  Te  Te4  1  0.50000000  0.50000000  0.50000000  1
  Te  Te5  1  0.50000000  0.00000000  0.50000000  1
  O  O6  1  0.18292200  0.57593500  0.18292200  1
  O  O7  1  0.42842400  0.83493400  0.42842400  1
  O  O8  1  0.42406500  0.81707800  0.81707800  1
  O  O9  1  0.57593500  0.18292200  0.18292200  1
  O  O10  1  0.42842400  0.42842400  0.83493400  1
  O  O11  1  0.81707800  0.42406500  0.81707800  1
  O  O12  1  0.83493400  0.42842400  0.42842400  1
  O  O13  1  0.16506600  0.57157600  0.57157600  1
  O  O14  1  0.81707800  0.81707800  0.42406500  1
  O  O15  1  0.57157600  0.57157600  0.16506600  1
  O  O16  1  0.57157600  0.16506600  0.57157600  1
  O  O17  1  0.18292200  0.18292200  0.57593500  1
