# generated using pymatgen
data_Mg8BRh4
_symmetry_space_group_name_H-M   'P 1'
_cell_length_a   8.65520338
_cell_length_b   8.65520338
_cell_length_c   8.65520338
_cell_angle_alpha   60.00000000
_cell_angle_beta   60.00000000
_cell_angle_gamma   60.00000000
_symmetry_Int_Tables_number   1
_chemical_formula_structural   Mg8BRh4
_chemical_formula_sum   'Mg16 B2 Rh8'
_cell_volume   458.47624000
_cell_formula_units_Z   2
loop_
 _symmetry_equiv_pos_site_id
 _symmetry_equiv_pos_as_xyz
  1  'x, y, z'
loop_
 _atom_site_type_symbol
 _atom_site_label
 _atom_site_symmetry_multiplicity
 _atom_site_fract_x
 _atom_site_fract_y
 _atom_site_fract_z
 _atom_site_occupancy
  Mg  Mg0  1  0.94937900  0.94937900  0.55062100  1
  Mg  Mg1  1  0.30062100  0.69937900  0.30062100  1
  Mg  Mg2  1  0.69937900  0.30062100  0.69937900  1
  Mg  Mg3  1  0.30062100  0.30062100  0.69937900  1
  Mg  Mg4  1  0.69937900  0.30062100  0.30062100  1
  Mg  Mg5  1  0.69937900  0.69937900  0.30062100  1
  Mg  Mg6  1  0.12500000  0.12500000  0.62500000  1
  Mg  Mg7  1  0.94937900  0.55062100  0.55062100  1
  Mg  Mg8  1  0.55062100  0.94937900  0.94937900  1
  Mg  Mg9  1  0.55062100  0.94937900  0.55062100  1
  Mg  Mg10  1  0.12500000  0.62500000  0.12500000  1
  Mg  Mg11  1  0.55062100  0.55062100  0.94937900  1
  Mg  Mg12  1  0.94937900  0.55062100  0.94937900  1
  Mg  Mg13  1  0.12500000  0.12500000  0.12500000  1
  Mg  Mg14  1  0.62500000  0.12500000  0.12500000  1
  Mg  Mg15  1  0.30062100  0.69937900  0.69937900  1
  B  B16  1  0.25000000  0.25000000  0.25000000  1
  B  B17  1  0.00000000  0.00000000  0.00000000  1
  Rh  Rh18  1  0.90420900  0.90420900  0.90420900  1
  Rh  Rh19  1  0.90420900  0.28737400  0.90420900  1
  Rh  Rh20  1  0.28737400  0.90420900  0.90420900  1
  Rh  Rh21  1  0.34579100  0.34579100  0.96262600  1
  Rh  Rh22  1  0.96262600  0.34579100  0.34579100  1
  Rh  Rh23  1  0.90420900  0.90420900  0.28737400  1
  Rh  Rh24  1  0.34579100  0.96262600  0.34579100  1
  Rh  Rh25  1  0.34579100  0.34579100  0.34579100  1
