# generated using pymatgen
data_CsZr(NO3)5
_symmetry_space_group_name_H-M   'P 1'
_cell_length_a   11.96633400
_cell_length_b   7.77939000
_cell_length_c   16.01912539
_cell_angle_alpha   67.42542007
_cell_angle_beta   90.00000000
_cell_angle_gamma   90.00000000
_symmetry_Int_Tables_number   1
_chemical_formula_structural   CsZr(NO3)5
_chemical_formula_sum   'Cs4 Zr4 N20 O60'
_cell_volume   1376.97553111
_cell_formula_units_Z   4
loop_
 _symmetry_equiv_pos_site_id
 _symmetry_equiv_pos_as_xyz
  1  'x, y, z'
loop_
 _atom_site_type_symbol
 _atom_site_label
 _atom_site_symmetry_multiplicity
 _atom_site_fract_x
 _atom_site_fract_y
 _atom_site_fract_z
 _atom_site_occupancy
  Cs  Cs0  1  0.23738000  0.64304000  0.00091400  1
  Cs  Cs1  1  0.73738000  0.35696000  0.49908600  1
  Cs  Cs2  1  0.26262000  0.64304000  0.50091400  1
  Cs  Cs3  1  0.76262000  0.35696000  0.99908600  1
  Zr  Zr4  1  0.58415100  0.80635200  0.72812100  1
  Zr  Zr5  1  0.91584900  0.80635200  0.22812100  1
  Zr  Zr6  1  0.41584900  0.19364800  0.27187900  1
  Zr  Zr7  1  0.08415100  0.19364800  0.77187900  1
  N  N8  1  0.54908300  0.92515100  0.39473700  1
  N  N9  1  0.95091700  0.92515100  0.89473700  1
  N  N10  1  0.85505700  0.03340000  0.31620100  1
  N  N11  1  0.64494300  0.03340000  0.81620100  1
  N  N12  1  0.47755500  0.53385600  0.87617900  1
  N  N13  1  0.53402200  0.56909800  0.64132800  1
  N  N14  1  0.45091700  0.07484900  0.60526300  1
  N  N15  1  0.35505700  0.96660000  0.18379900  1
  N  N16  1  0.31326200  0.20245800  0.79839000  1
  N  N17  1  0.68673800  0.79754200  0.20161000  1
  N  N18  1  0.14494300  0.96660000  0.68379900  1
  N  N19  1  0.04908300  0.07484900  0.10526300  1
  N  N20  1  0.18673800  0.20245800  0.29839000  1
  N  N21  1  0.03402200  0.43090200  0.85867200  1
  N  N22  1  0.52244500  0.46614400  0.12382100  1
  N  N23  1  0.97755500  0.46614400  0.62382100  1
  N  N24  1  0.96597800  0.56909800  0.14132800  1
  N  N25  1  0.81326200  0.79754200  0.70161000  1
  N  N26  1  0.02244500  0.53385600  0.37617900  1
  N  N27  1  0.46597800  0.43090200  0.35867200  1
  O  O28  1  0.58688600  0.78175400  0.19257500  1
  O  O29  1  0.08688600  0.21824600  0.30742500  1
  O  O30  1  0.84911800  0.08267000  0.22887000  1
  O  O31  1  0.10196800  0.13101800  0.64361700  1
  O  O32  1  0.98874400  0.46984500  0.10031100  1
  O  O33  1  0.57265500  0.00497800  0.30980700  1
  O  O34  1  0.06072800  0.41264300  0.44411200  1
  O  O35  1  0.38912900  0.18434200  0.54980200  1
  O  O36  1  0.91311400  0.78175400  0.69257500  1
  O  O37  1  0.17673800  0.86972100  0.64471100  1
  O  O38  1  0.26100500  0.28866100  0.72208700  1
  O  O39  1  0.51125600  0.46984500  0.60031100  1
  O  O40  1  0.04102900  0.66390500  0.16389200  1
  O  O41  1  0.45249700  0.97530300  0.41555400  1
  O  O42  1  0.24794300  0.10089500  0.86236700  1
  O  O43  1  0.11087100  0.18434200  0.04980200  1
  O  O44  1  0.13378600  0.40898200  0.83464000  1
  O  O45  1  0.32326200  0.86972100  0.14471100  1
  O  O46  1  0.39803200  0.13101800  0.14361700  1
  O  O47  1  0.63378600  0.59101800  0.66536000  1
  O  O48  1  0.07265500  0.99502200  0.19019300  1
  O  O49  1  0.65088200  0.08267000  0.72887000  1
  O  O50  1  0.89803200  0.86898200  0.35638300  1
  O  O51  1  0.93927200  0.58735700  0.55588800  1
  O  O52  1  0.07659500  0.47986000  0.65493900  1
  O  O53  1  0.42340500  0.47986000  0.15493900  1
  O  O54  1  0.92340500  0.52014000  0.34506100  1
  O  O55  1  0.54102900  0.33609500  0.33610800  1
  O  O56  1  0.07375000  0.68483400  0.32964700  1
  O  O57  1  0.04750300  0.97530300  0.91555400  1
  O  O58  1  0.42734500  0.99502200  0.69019300  1
  O  O59  1  0.76100500  0.71133900  0.77791300  1
  O  O60  1  0.67673800  0.13027900  0.85528900  1
  O  O61  1  0.75205700  0.89910500  0.13763300  1
  O  O62  1  0.43927200  0.41264300  0.94411200  1
  O  O63  1  0.57375000  0.31516600  0.17035300  1
  O  O64  1  0.41311400  0.21824600  0.80742500  1
  O  O65  1  0.88912900  0.81565800  0.95019800  1
  O  O66  1  0.82326200  0.13027900  0.35528900  1
  O  O67  1  0.34911800  0.91733000  0.27113000  1
  O  O68  1  0.42625000  0.68483400  0.82964700  1
  O  O69  1  0.73899500  0.71133900  0.27791300  1
  O  O70  1  0.60196800  0.86898200  0.85638300  1
  O  O71  1  0.54750300  0.02469700  0.58444600  1
  O  O72  1  0.01125600  0.53015500  0.89968900  1
  O  O73  1  0.48874400  0.53015500  0.39968900  1
  O  O74  1  0.86621400  0.59101800  0.16536000  1
  O  O75  1  0.74794300  0.89910500  0.63763300  1
  O  O76  1  0.61087100  0.81565800  0.45019800  1
  O  O77  1  0.23899500  0.28866100  0.22208700  1
  O  O78  1  0.95249700  0.02469700  0.08444600  1
  O  O79  1  0.56072800  0.58735700  0.05588800  1
  O  O80  1  0.95897100  0.33609500  0.83610800  1
  O  O81  1  0.92734500  0.00497800  0.80980700  1
  O  O82  1  0.36621400  0.40898200  0.33464000  1
  O  O83  1  0.25205700  0.10089500  0.36236700  1
  O  O84  1  0.57659500  0.52014000  0.84506100  1
  O  O85  1  0.15088200  0.91733000  0.77113000  1
  O  O86  1  0.92625000  0.31516600  0.67035300  1
  O  O87  1  0.45897100  0.66390500  0.66389200  1
