# generated using pymatgen
data_LiSi2N3
_symmetry_space_group_name_H-M   'P 1'
_cell_length_a   5.34706893
_cell_length_b   5.34706893
_cell_length_c   4.81172800
_cell_angle_alpha   90.00000000
_cell_angle_beta   90.00000000
_cell_angle_gamma   120.25033350
_symmetry_Int_Tables_number   1
_chemical_formula_structural   LiSi2N3
_chemical_formula_sum   'Li2 Si4 N6'
_cell_volume   118.83988155
_cell_formula_units_Z   2
loop_
 _symmetry_equiv_pos_site_id
 _symmetry_equiv_pos_as_xyz
  1  'x, y, z'
loop_
 _atom_site_type_symbol
 _atom_site_label
 _atom_site_symmetry_multiplicity
 _atom_site_fract_x
 _atom_site_fract_y
 _atom_site_fract_z
 _atom_site_occupancy
  Li  Li0  1  0.65946700  0.65946700  0.99922600  1
  Li  Li1  1  0.34053300  0.34053300  0.49922600  1
  Si  Si2  1  0.32894300  0.99747900  0.98694300  1
  Si  Si3  1  0.67105700  0.00252100  0.48694300  1
  Si  Si4  1  0.00252100  0.67105700  0.48694300  1
  Si  Si5  1  0.99747900  0.32894300  0.98694300  1
  N  N6  1  0.33772900  0.94094900  0.62542600  1
  N  N7  1  0.66227100  0.05905100  0.12542600  1
  N  N8  1  0.27432100  0.27432100  0.06575800  1
  N  N9  1  0.72567900  0.72567900  0.56575800  1
  N  N10  1  0.94094900  0.33772900  0.62542600  1
  N  N11  1  0.05905100  0.66227100  0.12542600  1
