# generated using pymatgen
data_Zn2SeCl2O3
_symmetry_space_group_name_H-M   'P 1'
_cell_length_a   7.83107900
_cell_length_b   10.42750100
_cell_length_c   15.73808700
_cell_angle_alpha   90.00000000
_cell_angle_beta   90.00000000
_cell_angle_gamma   90.00000000
_symmetry_Int_Tables_number   1
_chemical_formula_structural   Zn2SeCl2O3
_chemical_formula_sum   'Zn16 Se8 Cl16 O24'
_cell_volume   1285.14990092
_cell_formula_units_Z   8
loop_
 _symmetry_equiv_pos_site_id
 _symmetry_equiv_pos_as_xyz
  1  'x, y, z'
loop_
 _atom_site_type_symbol
 _atom_site_label
 _atom_site_symmetry_multiplicity
 _atom_site_fract_x
 _atom_site_fract_y
 _atom_site_fract_z
 _atom_site_occupancy
  Zn  Zn0  1  0.39563700  0.22170200  0.53650200  1
  Zn  Zn1  1  0.35126300  0.49167800  0.38918500  1
  Zn  Zn2  1  0.89563700  0.27829800  0.53650200  1
  Zn  Zn3  1  0.85126300  0.49167800  0.11081500  1
  Zn  Zn4  1  0.60436300  0.72170200  0.03650200  1
  Zn  Zn5  1  0.14873700  0.50832200  0.88918500  1
  Zn  Zn6  1  0.64873700  0.99167800  0.88918500  1
  Zn  Zn7  1  0.35126300  0.00832200  0.11081500  1
  Zn  Zn8  1  0.89563700  0.22170200  0.96349800  1
  Zn  Zn9  1  0.10436300  0.72170200  0.46349800  1
  Zn  Zn10  1  0.85126300  0.00832200  0.38918500  1
  Zn  Zn11  1  0.14873700  0.99167800  0.61081500  1
  Zn  Zn12  1  0.60436300  0.77829800  0.46349800  1
  Zn  Zn13  1  0.64873700  0.50832200  0.61081500  1
  Zn  Zn14  1  0.10436300  0.77829800  0.03650200  1
  Zn  Zn15  1  0.39563700  0.27829800  0.96349800  1
  Se  Se16  1  0.22311700  0.46489500  0.59143800  1
  Se  Se17  1  0.77688300  0.96489500  0.09143800  1
  Se  Se18  1  0.72311700  0.03510500  0.59143800  1
  Se  Se19  1  0.77688300  0.53510500  0.40856200  1
  Se  Se20  1  0.27688300  0.53510500  0.09143800  1
  Se  Se21  1  0.72311700  0.46489500  0.90856200  1
  Se  Se22  1  0.27688300  0.96489500  0.40856200  1
  Se  Se23  1  0.22311700  0.03510500  0.90856200  1
  Cl  Cl24  1  0.33216800  0.40704500  0.80522600  1
  Cl  Cl25  1  0.92927600  0.28401200  0.11365400  1
  Cl  Cl26  1  0.16783200  0.59295500  0.30522600  1
  Cl  Cl27  1  0.16783200  0.90704500  0.19477400  1
  Cl  Cl28  1  0.42927600  0.21598800  0.11365400  1
  Cl  Cl29  1  0.57072400  0.78401200  0.88634600  1
  Cl  Cl30  1  0.66783200  0.59295500  0.19477400  1
  Cl  Cl31  1  0.42927600  0.28401200  0.38634600  1
  Cl  Cl32  1  0.66783200  0.90704500  0.30522600  1
  Cl  Cl33  1  0.92927600  0.21598800  0.38634600  1
  Cl  Cl34  1  0.57072400  0.71598800  0.61365400  1
  Cl  Cl35  1  0.07072400  0.71598800  0.88634600  1
  Cl  Cl36  1  0.07072400  0.78401200  0.61365400  1
  Cl  Cl37  1  0.33216800  0.09295500  0.69477400  1
  Cl  Cl38  1  0.83216800  0.40704500  0.69477400  1
  Cl  Cl39  1  0.83216800  0.09295500  0.80522600  1
  O  O40  1  0.64693600  0.31648700  0.94084000  1
  O  O41  1  0.85306400  0.68351300  0.44084000  1
  O  O42  1  0.78505800  0.04847400  0.99465500  1
  O  O43  1  0.06768800  0.90818900  0.41130400  1
  O  O44  1  0.28505800  0.45152600  0.99465500  1
  O  O45  1  0.78505800  0.45152600  0.50534500  1
  O  O46  1  0.06768800  0.59181100  0.08869600  1
  O  O47  1  0.21494200  0.54847400  0.49465500  1
  O  O48  1  0.35306400  0.68351300  0.05916000  1
  O  O49  1  0.85306400  0.81648700  0.05916000  1
  O  O50  1  0.28505800  0.04847400  0.50534500  1
  O  O51  1  0.71494200  0.54847400  0.00534500  1
  O  O52  1  0.14693600  0.18351300  0.94084000  1
  O  O53  1  0.43231200  0.40818900  0.58869600  1
  O  O54  1  0.21494200  0.95152600  0.00534500  1
  O  O55  1  0.93231200  0.40818900  0.91130400  1
  O  O56  1  0.56768800  0.59181100  0.41130400  1
  O  O57  1  0.71494200  0.95152600  0.49465500  1
  O  O58  1  0.93231200  0.09181100  0.58869600  1
  O  O59  1  0.43231200  0.09181100  0.91130400  1
  O  O60  1  0.64693600  0.18351300  0.55916000  1
  O  O61  1  0.14693600  0.31648700  0.55916000  1
  O  O62  1  0.35306400  0.81648700  0.44084000  1
  O  O63  1  0.56768800  0.90818900  0.08869600  1
