# generated using pymatgen
data_Mg5B3O9F
_symmetry_space_group_name_H-M   'P 1'
_cell_length_a   4.57346900
_cell_length_b   10.18582000
_cell_length_c   15.00284400
_cell_angle_alpha   90.00000000
_cell_angle_beta   90.00000000
_cell_angle_gamma   90.00000000
_symmetry_Int_Tables_number   1
_chemical_formula_structural   Mg5B3O9F
_chemical_formula_sum   'Mg20 B12 O36 F4'
_cell_volume   698.90046655
_cell_formula_units_Z   4
loop_
 _symmetry_equiv_pos_site_id
 _symmetry_equiv_pos_as_xyz
  1  'x, y, z'
loop_
 _atom_site_type_symbol
 _atom_site_label
 _atom_site_symmetry_multiplicity
 _atom_site_fract_x
 _atom_site_fract_y
 _atom_site_fract_z
 _atom_site_occupancy
  Mg  Mg0  1  0.50047200  0.36929600  0.05739900  1
  Mg  Mg1  1  0.01018000  0.84867000  0.85147900  1
  Mg  Mg2  1  0.00047200  0.13070400  0.55739900  1
  Mg  Mg3  1  0.00047200  0.13070400  0.94260100  1
  Mg  Mg4  1  0.99766300  0.58005900  0.75000000  1
  Mg  Mg5  1  0.50047200  0.36929600  0.44260100  1
  Mg  Mg6  1  0.49952800  0.63070400  0.55739900  1
  Mg  Mg7  1  0.48982000  0.34867000  0.64852100  1
  Mg  Mg8  1  0.00233700  0.41994100  0.25000000  1
  Mg  Mg9  1  0.48982000  0.34867000  0.85147900  1
  Mg  Mg10  1  0.99952800  0.86929600  0.05739900  1
  Mg  Mg11  1  0.49766300  0.91994100  0.25000000  1
  Mg  Mg12  1  0.51018000  0.65133000  0.14852100  1
  Mg  Mg13  1  0.01018000  0.84867000  0.64852100  1
  Mg  Mg14  1  0.51018000  0.65133000  0.35147900  1
  Mg  Mg15  1  0.98982000  0.15133000  0.35147900  1
  Mg  Mg16  1  0.49952800  0.63070400  0.94260100  1
  Mg  Mg17  1  0.99952800  0.86929600  0.44260100  1
  Mg  Mg18  1  0.98982000  0.15133000  0.14852100  1
  Mg  Mg19  1  0.50233700  0.08005900  0.75000000  1
  B  B20  1  0.46546000  0.92494900  0.57630000  1
  B  B21  1  0.96546000  0.57505100  0.07630000  1
  B  B22  1  0.95463100  0.22192400  0.75000000  1
  B  B23  1  0.45463100  0.27807600  0.25000000  1
  B  B24  1  0.53454000  0.07505100  0.07630000  1
  B  B25  1  0.03454000  0.42494900  0.57630000  1
  B  B26  1  0.54536900  0.72192400  0.75000000  1
  B  B27  1  0.96546000  0.57505100  0.42370000  1
  B  B28  1  0.53454000  0.07505100  0.42370000  1
  B  B29  1  0.04536900  0.77807600  0.25000000  1
  B  B30  1  0.46546000  0.92494900  0.92370000  1
  B  B31  1  0.03454000  0.42494900  0.92370000  1
  O  O32  1  0.74407800  0.44571900  0.94579600  1
  O  O33  1  0.18851900  0.50744600  0.86533200  1
  O  O34  1  0.70149700  0.70071200  0.82891500  1
  O  O35  1  0.24407800  0.05428100  0.44579600  1
  O  O36  1  0.25592200  0.55428100  0.05420400  1
  O  O37  1  0.19318000  0.31534300  0.54586400  1
  O  O38  1  0.74407800  0.44571900  0.55420400  1
  O  O39  1  0.80682000  0.68465700  0.45413600  1
  O  O40  1  0.30682000  0.81534300  0.54586400  1
  O  O41  1  0.24909500  0.25263600  0.75000000  1
  O  O42  1  0.79850300  0.20071200  0.67108500  1
  O  O43  1  0.18851900  0.50744600  0.63466800  1
  O  O44  1  0.19318000  0.31534300  0.95413600  1
  O  O45  1  0.24407800  0.05428100  0.05420400  1
  O  O46  1  0.75592200  0.94571900  0.55420400  1
  O  O47  1  0.25592200  0.55428100  0.44579600  1
  O  O48  1  0.69318000  0.18465700  0.45413600  1
  O  O49  1  0.81148100  0.49255400  0.36533200  1
  O  O50  1  0.68851900  0.99255400  0.13466800  1
  O  O51  1  0.75090500  0.74736400  0.25000000  1
  O  O52  1  0.79850300  0.20071200  0.82891500  1
  O  O53  1  0.29850300  0.29928800  0.32891500  1
  O  O54  1  0.81148100  0.49255400  0.13466800  1
  O  O55  1  0.20149700  0.79928800  0.17108500  1
  O  O56  1  0.25090500  0.75263600  0.75000000  1
  O  O57  1  0.29850300  0.29928800  0.17108500  1
  O  O58  1  0.75592200  0.94571900  0.94579600  1
  O  O59  1  0.30682000  0.81534300  0.95413600  1
  O  O60  1  0.31148100  0.00744600  0.86533200  1
  O  O61  1  0.20149700  0.79928800  0.32891500  1
  O  O62  1  0.80682000  0.68465700  0.04586400  1
  O  O63  1  0.74909500  0.24736400  0.25000000  1
  O  O64  1  0.68851900  0.99255400  0.36533200  1
  O  O65  1  0.70149700  0.70071200  0.67108500  1
  O  O66  1  0.69318000  0.18465700  0.04586400  1
  O  O67  1  0.31148100  0.00744600  0.63466800  1
  F  F68  1  0.31518100  0.55791300  0.25000000  1
  F  F69  1  0.68481900  0.44208700  0.75000000  1
  F  F70  1  0.18481900  0.05791300  0.25000000  1
  F  F71  1  0.81518100  0.94208700  0.75000000  1
