# generated using pymatgen
data_CaU(SeO4)2
_symmetry_space_group_name_H-M   'P 1'
_cell_length_a   5.67427295
_cell_length_b   6.75244670
_cell_length_c   11.22934282
_cell_angle_alpha   103.96591599
_cell_angle_beta   93.62543821
_cell_angle_gamma   110.72598817
_symmetry_Int_Tables_number   1
_chemical_formula_structural   CaU(SeO4)2
_chemical_formula_sum   'Ca2 U2 Se4 O16'
_cell_volume   385.24216477
_cell_formula_units_Z   2
loop_
 _symmetry_equiv_pos_site_id
 _symmetry_equiv_pos_as_xyz
  1  'x, y, z'
loop_
 _atom_site_type_symbol
 _atom_site_label
 _atom_site_symmetry_multiplicity
 _atom_site_fract_x
 _atom_site_fract_y
 _atom_site_fract_z
 _atom_site_occupancy
  Ca  Ca0  1  0.67367700  0.24458200  0.43551900  1
  Ca  Ca1  1  0.32632300  0.75541800  0.56448100  1
  U  U2  1  0.16748600  0.26134900  0.16784300  1
  U  U3  1  0.83251400  0.73865100  0.83215700  1
  Se  Se4  1  0.31162600  0.81108500  0.12494200  1
  Se  Se5  1  0.73529500  0.70295700  0.35273700  1
  Se  Se6  1  0.68837400  0.18891500  0.87505800  1
  Se  Se7  1  0.26470500  0.29704300  0.64726300  1
  O  O8  1  0.10536700  0.87151200  0.02961200  1
  O  O9  1  0.11086100  0.58076400  0.16058100  1
  O  O10  1  0.89350400  0.17768800  0.25013600  1
  O  O11  1  0.67075100  0.97710300  0.74721600  1
  O  O12  1  0.92392000  0.62068000  0.43667800  1
  O  O13  1  0.55989900  0.52080400  0.65114200  1
  O  O14  1  0.44582100  0.34950600  0.09316600  1
  O  O15  1  0.55417900  0.65049400  0.90683400  1
  O  O16  1  0.07608000  0.37932000  0.56332200  1
  O  O17  1  0.10649600  0.82231200  0.74986400  1
  O  O18  1  0.44010100  0.47919600  0.34885800  1
  O  O19  1  0.88913900  0.41923600  0.83941900  1
  O  O20  1  0.32625000  0.09795800  0.54355000  1
  O  O21  1  0.89463300  0.12848800  0.97038800  1
  O  O22  1  0.67375000  0.90204200  0.45645000  1
  O  O23  1  0.32924900  0.02289700  0.25278400  1
