# generated using pymatgen
data_Sm3(Ge3Pt2)2
_symmetry_space_group_name_H-M   'P 1'
_cell_length_a   4.41439600
_cell_length_b   8.86925900
_cell_length_c   26.40110300
_cell_angle_alpha   90.00000000
_cell_angle_beta   90.00000000
_cell_angle_gamma   90.00000000
_symmetry_Int_Tables_number   1
_chemical_formula_structural   Sm3(Ge3Pt2)2
_chemical_formula_sum   'Sm12 Ge24 Pt16'
_cell_volume   1033.66711147
_cell_formula_units_Z   4
loop_
 _symmetry_equiv_pos_site_id
 _symmetry_equiv_pos_as_xyz
  1  'x, y, z'
loop_
 _atom_site_type_symbol
 _atom_site_label
 _atom_site_symmetry_multiplicity
 _atom_site_fract_x
 _atom_site_fract_y
 _atom_site_fract_z
 _atom_site_occupancy
  Sm  Sm0  1  0.25000000  0.11348800  0.59225200  1
  Sm  Sm1  1  0.75000000  0.12570600  0.28010600  1
  Sm  Sm2  1  0.75000000  0.61348800  0.90774800  1
  Sm  Sm3  1  0.75000000  0.36465100  0.40718000  1
  Sm  Sm4  1  0.75000000  0.88651200  0.40774800  1
  Sm  Sm5  1  0.75000000  0.37429400  0.78010600  1
  Sm  Sm6  1  0.75000000  0.13534900  0.90718000  1
  Sm  Sm7  1  0.25000000  0.63534900  0.59282000  1
  Sm  Sm8  1  0.25000000  0.38651200  0.09225200  1
  Sm  Sm9  1  0.25000000  0.87429400  0.71989400  1
  Sm  Sm10  1  0.25000000  0.62570600  0.21989400  1
  Sm  Sm11  1  0.25000000  0.86465100  0.09282000  1
  Ge  Ge12  1  0.75000000  0.02217800  0.78426900  1
  Ge  Ge13  1  0.75000000  0.62589000  0.13854500  1
  Ge  Ge14  1  0.25000000  0.37411000  0.86145500  1
  Ge  Ge15  1  0.25000000  0.62732200  0.99735900  1
  Ge  Ge16  1  0.25000000  0.27312200  0.21544800  1
  Ge  Ge17  1  0.25000000  0.52217800  0.71573100  1
  Ge  Ge18  1  0.75000000  0.72687800  0.78455200  1
  Ge  Ge19  1  0.75000000  0.37267800  0.00264100  1
  Ge  Ge20  1  0.75000000  0.12639000  0.14206400  1
  Ge  Ge21  1  0.25000000  0.22687800  0.71544800  1
  Ge  Ge22  1  0.75000000  0.77312200  0.28455200  1
  Ge  Ge23  1  0.25000000  0.62639000  0.35793600  1
  Ge  Ge24  1  0.75000000  0.47782200  0.28426900  1
  Ge  Ge25  1  0.75000000  0.87411000  0.63854500  1
  Ge  Ge26  1  0.25000000  0.12194400  0.00142000  1
  Ge  Ge27  1  0.25000000  0.37805600  0.50142000  1
  Ge  Ge28  1  0.25000000  0.12589000  0.36145500  1
  Ge  Ge29  1  0.75000000  0.87805600  0.99858000  1
  Ge  Ge30  1  0.25000000  0.97782200  0.21573100  1
  Ge  Ge31  1  0.75000000  0.12732200  0.50264100  1
  Ge  Ge32  1  0.75000000  0.37361000  0.64206400  1
  Ge  Ge33  1  0.75000000  0.62194400  0.49858000  1
  Ge  Ge34  1  0.25000000  0.87361000  0.85793600  1
  Ge  Ge35  1  0.25000000  0.87267800  0.49735900  1
  Pt  Pt36  1  0.75000000  0.37699200  0.18774100  1
  Pt  Pt37  1  0.25000000  0.37511000  0.31230600  1
  Pt  Pt38  1  0.75000000  0.87078300  0.54446600  1
  Pt  Pt39  1  0.75000000  0.12300800  0.68774100  1
  Pt  Pt40  1  0.25000000  0.87699200  0.31225900  1
  Pt  Pt41  1  0.75000000  0.12161400  0.04967400  1
  Pt  Pt42  1  0.25000000  0.62161400  0.45032600  1
  Pt  Pt43  1  0.25000000  0.12489000  0.81230600  1
  Pt  Pt44  1  0.25000000  0.37078300  0.95553400  1
  Pt  Pt45  1  0.75000000  0.62921700  0.04446600  1
  Pt  Pt46  1  0.75000000  0.37838600  0.54967400  1
  Pt  Pt47  1  0.25000000  0.87838600  0.95032600  1
  Pt  Pt48  1  0.25000000  0.12921700  0.45553400  1
  Pt  Pt49  1  0.75000000  0.62489000  0.68769400  1
  Pt  Pt50  1  0.25000000  0.62300800  0.81225900  1
  Pt  Pt51  1  0.75000000  0.87511000  0.18769400  1
