# generated using pymatgen
data_Ta3SiTe6
_symmetry_space_group_name_H-M   'P 1'
_cell_length_a   6.40951600
_cell_length_b   11.57344100
_cell_length_c   15.02544400
_cell_angle_alpha   90.00000000
_cell_angle_beta   90.00000000
_cell_angle_gamma   90.00000000
_symmetry_Int_Tables_number   1
_chemical_formula_structural   Ta3SiTe6
_chemical_formula_sum   'Ta12 Si4 Te24'
_cell_volume   1114.58976884
_cell_formula_units_Z   4
loop_
 _symmetry_equiv_pos_site_id
 _symmetry_equiv_pos_as_xyz
  1  'x, y, z'
loop_
 _atom_site_type_symbol
 _atom_site_label
 _atom_site_symmetry_multiplicity
 _atom_site_fract_x
 _atom_site_fract_y
 _atom_site_fract_z
 _atom_site_occupancy
  Ta  Ta0  1  0.66620200  0.33551100  0.25000000  1
  Ta  Ta1  1  0.16620200  0.16448900  0.25000000  1
  Ta  Ta2  1  0.83379800  0.83551100  0.75000000  1
  Ta  Ta3  1  0.33379800  0.66448900  0.75000000  1
  Ta  Ta4  1  0.96834200  0.68780100  0.25000000  1
  Ta  Ta5  1  0.46834200  0.81219900  0.25000000  1
  Ta  Ta6  1  0.53165800  0.18780100  0.75000000  1
  Ta  Ta7  1  0.03165800  0.31219900  0.75000000  1
  Ta  Ta8  1  0.69764800  0.03278400  0.25000000  1
  Ta  Ta9  1  0.19764800  0.46721600  0.25000000  1
  Ta  Ta10  1  0.80235200  0.53278400  0.75000000  1
  Ta  Ta11  1  0.30235200  0.96721600  0.75000000  1
  Si  Si12  1  0.57536900  0.57529700  0.25000000  1
  Si  Si13  1  0.07536900  0.92470300  0.25000000  1
  Si  Si14  1  0.92463100  0.07529700  0.75000000  1
  Si  Si15  1  0.42463100  0.42470300  0.75000000  1
  Te  Te16  1  0.79614000  0.84353800  0.12467800  1
  Te  Te17  1  0.29614000  0.65646200  0.37532200  1
  Te  Te18  1  0.70386000  0.34353800  0.87532200  1
  Te  Te19  1  0.20386000  0.15646200  0.62467800  1
  Te  Te20  1  0.20386000  0.15646200  0.87532200  1
  Te  Te21  1  0.70386000  0.34353800  0.62467800  1
  Te  Te22  1  0.29614000  0.65646200  0.12467800  1
  Te  Te23  1  0.79614000  0.84353800  0.37532200  1
  Te  Te24  1  0.85512300  0.49721400  0.12846500  1
  Te  Te25  1  0.35512300  0.00278600  0.37153500  1
  Te  Te26  1  0.64487700  0.99721400  0.87153500  1
  Te  Te27  1  0.14487700  0.50278600  0.62846500  1
  Te  Te28  1  0.14487700  0.50278600  0.87153500  1
  Te  Te29  1  0.64487700  0.99721400  0.62846500  1
  Te  Te30  1  0.35512300  0.00278600  0.12846500  1
  Te  Te31  1  0.85512300  0.49721400  0.37153500  1
  Te  Te32  1  0.84861000  0.18210200  0.12247400  1
  Te  Te33  1  0.34861000  0.31789800  0.37752600  1
  Te  Te34  1  0.65139000  0.68210200  0.87752600  1
  Te  Te35  1  0.15139000  0.81789800  0.62247400  1
  Te  Te36  1  0.15139000  0.81789800  0.87752600  1
  Te  Te37  1  0.65139000  0.68210200  0.62247400  1
  Te  Te38  1  0.34861000  0.31789800  0.12247400  1
  Te  Te39  1  0.84861000  0.18210200  0.37752600  1
