# generated using pymatgen
data_CsSbO2
_symmetry_space_group_name_H-M   'P 1'
_cell_length_a   6.55079697
_cell_length_b   6.55079697
_cell_length_c   5.67497261
_cell_angle_alpha   70.26985968
_cell_angle_beta   70.26985968
_cell_angle_gamma   101.42831007
_symmetry_Int_Tables_number   1
_chemical_formula_structural   CsSbO2
_chemical_formula_sum   'Cs2 Sb2 O4'
_cell_volume   201.94504683
_cell_formula_units_Z   2
loop_
 _symmetry_equiv_pos_site_id
 _symmetry_equiv_pos_as_xyz
  1  'x, y, z'
loop_
 _atom_site_type_symbol
 _atom_site_label
 _atom_site_symmetry_multiplicity
 _atom_site_fract_x
 _atom_site_fract_y
 _atom_site_fract_z
 _atom_site_occupancy
  Cs  Cs0  1  0.64740200  0.35259800  0.75000000  1
  Cs  Cs1  1  0.35259800  0.64740200  0.25000000  1
  Sb  Sb2  1  0.92199500  0.07800500  0.25000000  1
  Sb  Sb3  1  0.07800500  0.92199500  0.75000000  1
  O  O4  1  0.78593000  0.87278800  0.70304900  1
  O  O5  1  0.21407000  0.12721200  0.29695100  1
  O  O6  1  0.12721200  0.21407000  0.79695100  1
  O  O7  1  0.87278800  0.78593000  0.20304900  1
