# generated using pymatgen
data_SClO2F
_symmetry_space_group_name_H-M   'P 1'
_cell_length_a   7.97947800
_cell_length_b   9.34627000
_cell_length_c   11.19383300
_cell_angle_alpha   90.00000000
_cell_angle_beta   90.00000000
_cell_angle_gamma   90.00000000
_symmetry_Int_Tables_number   1
_chemical_formula_structural   SClO2F
_chemical_formula_sum   'S8 Cl8 O16 F8'
_cell_volume   834.81766077
_cell_formula_units_Z   8
loop_
 _symmetry_equiv_pos_site_id
 _symmetry_equiv_pos_as_xyz
  1  'x, y, z'
loop_
 _atom_site_type_symbol
 _atom_site_label
 _atom_site_symmetry_multiplicity
 _atom_site_fract_x
 _atom_site_fract_y
 _atom_site_fract_z
 _atom_site_occupancy
  S  S0  1  0.00578900  0.19179600  0.55379800  1
  S  S1  1  0.51591400  0.09986400  0.19559300  1
  S  S2  1  0.48408600  0.09986400  0.69559300  1
  S  S3  1  0.51591400  0.59986400  0.30440700  1
  S  S4  1  0.99421100  0.69179600  0.44620200  1
  S  S5  1  0.99421100  0.19179600  0.05379800  1
  S  S6  1  0.00578900  0.69179600  0.94620200  1
  S  S7  1  0.48408600  0.59986400  0.80440700  1
  Cl  Cl8  1  0.51289400  0.44261900  0.92402100  1
  Cl  Cl9  1  0.51289400  0.94261900  0.57597900  1
  Cl  Cl10  1  0.00494200  0.34622200  0.17747600  1
  Cl  Cl11  1  0.99505800  0.84622200  0.82252400  1
  Cl  Cl12  1  0.99505800  0.34622200  0.67747600  1
  Cl  Cl13  1  0.48710600  0.44261900  0.42402100  1
  Cl  Cl14  1  0.00494200  0.84622200  0.32252400  1
  Cl  Cl15  1  0.48710600  0.94261900  0.07597900  1
  O  O16  1  0.53783900  0.73186000  0.85558200  1
  O  O17  1  0.93975800  0.06242000  0.60221700  1
  O  O18  1  0.93975800  0.56242000  0.89778300  1
  O  O19  1  0.83807400  0.69859900  0.50771700  1
  O  O20  1  0.46216100  0.23186000  0.14441800  1
  O  O21  1  0.16192600  0.19859900  0.49228300  1
  O  O22  1  0.06024200  0.06242000  0.10221700  1
  O  O23  1  0.53783900  0.23186000  0.64441800  1
  O  O24  1  0.67220700  0.08353300  0.25560200  1
  O  O25  1  0.32779300  0.58353300  0.74439800  1
  O  O26  1  0.46216100  0.73186000  0.35558200  1
  O  O27  1  0.67220700  0.58353300  0.24439800  1
  O  O28  1  0.83807400  0.19859900  0.99228300  1
  O  O29  1  0.06024200  0.56242000  0.39778300  1
  O  O30  1  0.16192600  0.69859900  0.00771700  1
  O  O31  1  0.32779300  0.08353300  0.75560200  1
  F  F32  1  0.86769500  0.25271100  0.46502500  1
  F  F33  1  0.62557800  0.05312500  0.78739900  1
  F  F34  1  0.37442200  0.05312500  0.28739900  1
  F  F35  1  0.86769500  0.75271100  0.03497500  1
  F  F36  1  0.13230500  0.75271100  0.53497500  1
  F  F37  1  0.37442200  0.55312500  0.21260100  1
  F  F38  1  0.13230500  0.25271100  0.96502500  1
  F  F39  1  0.62557800  0.55312500  0.71260100  1
