# generated using pymatgen
data_Rb2U2O7
_symmetry_space_group_name_H-M   'P 1'
_cell_length_a   8.11459800
_cell_length_b   7.00726200
_cell_length_c   7.51339111
_cell_angle_alpha   71.72262579
_cell_angle_beta   90.00000000
_cell_angle_gamma   90.00000000
_symmetry_Int_Tables_number   1
_chemical_formula_structural   Rb2U2O7
_chemical_formula_sum   'Rb4 U4 O14'
_cell_volume   405.66629411
_cell_formula_units_Z   2
loop_
 _symmetry_equiv_pos_site_id
 _symmetry_equiv_pos_as_xyz
  1  'x, y, z'
loop_
 _atom_site_type_symbol
 _atom_site_label
 _atom_site_symmetry_multiplicity
 _atom_site_fract_x
 _atom_site_fract_y
 _atom_site_fract_z
 _atom_site_occupancy
  Rb  Rb0  1  0.12030600  0.77011500  0.49315900  1
  Rb  Rb1  1  0.37969400  0.27011500  0.49315900  1
  Rb  Rb2  1  0.62030600  0.72988500  0.50684100  1
  Rb  Rb3  1  0.87969400  0.22988500  0.50684100  1
  U  U4  1  0.62006000  0.22333100  0.00574300  1
  U  U5  1  0.12006000  0.27666900  0.99425700  1
  U  U6  1  0.37994000  0.77666900  0.99425700  1
  U  U7  1  0.87994000  0.72333100  0.00574300  1
  O  O8  1  0.87984900  0.63595800  0.27032100  1
  O  O9  1  0.62015100  0.13595800  0.27032100  1
  O  O10  1  0.63897000  0.89231900  0.01218600  1
  O  O11  1  0.37984900  0.86404200  0.72967900  1
  O  O12  1  0.63487900  0.30942200  0.74166000  1
  O  O13  1  0.13897000  0.60768100  0.98781400  1
  O  O14  1  0.13487900  0.19057800  0.25834000  1
  O  O15  1  0.86103000  0.39231900  0.01218600  1
  O  O16  1  0.86512100  0.80942200  0.74166000  1
  O  O17  1  0.36512100  0.69057800  0.25834000  1
  O  O18  1  0.36103000  0.10768100  0.98781400  1
  O  O19  1  0.50000000  0.50000000  0.00000000  1
  O  O20  1  0.12015100  0.36404200  0.72967900  1
  O  O21  1  0.00000000  0.00000000  0.00000000  1
