# generated using pymatgen
data_CrHgF6
_symmetry_space_group_name_H-M   'P 1'
_cell_length_a   5.73232334
_cell_length_b   5.73232334
_cell_length_c   5.73232309
_cell_angle_alpha   54.91486061
_cell_angle_beta   54.91486061
_cell_angle_gamma   54.91486436
_symmetry_Int_Tables_number   1
_chemical_formula_structural   CrHgF6
_chemical_formula_sum   'Cr1 Hg1 F6'
_cell_volume   117.42750266
_cell_formula_units_Z   1
loop_
 _symmetry_equiv_pos_site_id
 _symmetry_equiv_pos_as_xyz
  1  'x, y, z'
loop_
 _atom_site_type_symbol
 _atom_site_label
 _atom_site_symmetry_multiplicity
 _atom_site_fract_x
 _atom_site_fract_y
 _atom_site_fract_z
 _atom_site_occupancy
  Cr  Cr0  1  0.00000000  0.00000000  0.00000000  1
  Hg  Hg1  1  0.50000000  0.50000000  0.50000000  1
  F  F2  1  0.93109200  0.21016700  0.63603600  1
  F  F3  1  0.21016700  0.63603600  0.93109200  1
  F  F4  1  0.36396400  0.06890800  0.78983300  1
  F  F5  1  0.78983300  0.36396400  0.06890800  1
  F  F6  1  0.06890800  0.78983300  0.36396400  1
  F  F7  1  0.63603600  0.93109200  0.21016700  1
