# generated using pymatgen
data_NaB3O5
_symmetry_space_group_name_H-M   'P 1'
_cell_length_a   11.58234600
_cell_length_b   10.24992600
_cell_length_c   10.97455822
_cell_angle_alpha   75.29810190
_cell_angle_beta   90.00000000
_cell_angle_gamma   90.00000000
_symmetry_Int_Tables_number   1
_chemical_formula_structural   NaB3O5
_chemical_formula_sum   'Na12 B36 O60'
_cell_volume   1260.22254779
_cell_formula_units_Z   12
loop_
 _symmetry_equiv_pos_site_id
 _symmetry_equiv_pos_as_xyz
  1  'x, y, z'
loop_
 _atom_site_type_symbol
 _atom_site_label
 _atom_site_symmetry_multiplicity
 _atom_site_fract_x
 _atom_site_fract_y
 _atom_site_fract_z
 _atom_site_occupancy
  Na  Na0  1  0.63360400  0.07080500  0.12246400  1
  Na  Na1  1  0.86639600  0.07080500  0.62246400  1
  Na  Na2  1  0.36639600  0.92919500  0.87753600  1
  Na  Na3  1  0.36783600  0.58954600  0.08670400  1
  Na  Na4  1  0.34692700  0.35014100  0.61205300  1
  Na  Na5  1  0.63216400  0.41045400  0.91329600  1
  Na  Na6  1  0.15307300  0.35014100  0.11205300  1
  Na  Na7  1  0.84692700  0.64985900  0.88794700  1
  Na  Na8  1  0.13216400  0.58954600  0.58670400  1
  Na  Na9  1  0.13360400  0.92919500  0.37753600  1
  Na  Na10  1  0.65307300  0.64985900  0.38794700  1
  Na  Na11  1  0.86783600  0.41045400  0.41329600  1
  B  B12  1  0.90990100  0.70848700  0.40659700  1
  B  B13  1  0.17543800  0.41187400  0.38364900  1
  B  B14  1  0.60259000  0.27275300  0.50369100  1
  B  B15  1  0.89741000  0.27275300  0.00369100  1
  B  B16  1  0.67543800  0.58812600  0.11635100  1
  B  B17  1  0.47378100  0.70502100  0.71280700  1
  B  B18  1  0.59009900  0.70848700  0.90659700  1
  B  B19  1  0.69916900  0.91175600  0.90633200  1
  B  B20  1  0.30083100  0.08824400  0.09366800  1
  B  B21  1  0.80083100  0.91175600  0.40633200  1
  B  B22  1  0.09009900  0.29151300  0.59340300  1
  B  B23  1  0.52621900  0.29497900  0.28719300  1
  B  B24  1  0.55453200  0.20916900  0.73354000  1
  B  B25  1  0.30520400  0.61337600  0.34485100  1
  B  B26  1  0.57204300  0.80266600  0.08455900  1
  B  B27  1  0.42795700  0.19733400  0.91544100  1
  B  B28  1  0.33006300  0.87834900  0.62600500  1
  B  B29  1  0.82456200  0.58812600  0.61635100  1
  B  B30  1  0.19479600  0.61337600  0.84485100  1
  B  B31  1  0.07204300  0.19733400  0.41544100  1
  B  B32  1  0.40990100  0.29151300  0.09340300  1
  B  B33  1  0.66993700  0.12165100  0.37399500  1
  B  B34  1  0.83006300  0.12165100  0.87399500  1
  B  B35  1  0.97378100  0.29497900  0.78719300  1
  B  B36  1  0.94546800  0.20916900  0.23354000  1
  B  B37  1  0.44546800  0.79083100  0.26646000  1
  B  B38  1  0.32456200  0.41187400  0.88364900  1
  B  B39  1  0.80520400  0.38662400  0.15514900  1
  B  B40  1  0.10259000  0.72724700  0.99630900  1
  B  B41  1  0.92795700  0.80266600  0.58455900  1
  B  B42  1  0.39741000  0.72724700  0.49630900  1
  B  B43  1  0.19916900  0.08824400  0.59366800  1
  B  B44  1  0.16993700  0.87834900  0.12600500  1
  B  B45  1  0.69479600  0.38662400  0.65514900  1
  B  B46  1  0.05453200  0.79083100  0.76646000  1
  B  B47  1  0.02621900  0.70502100  0.21280700  1
  O  O48  1  0.33526800  0.40242100  0.00994800  1
  O  O49  1  0.17893700  0.61984700  0.96603900  1
  O  O50  1  0.50740400  0.75685400  0.98700300  1
  O  O51  1  0.66167800  0.90253400  0.02617900  1
  O  O52  1  0.87184500  0.67947000  0.67251200  1
  O  O53  1  0.52627800  0.21273400  0.61202100  1
  O  O54  1  0.00740400  0.24314600  0.51299700  1
  O  O55  1  0.67145300  0.81673600  0.84309600  1
  O  O56  1  0.72822000  0.01628700  0.34448200  1
  O  O57  1  0.46017100  0.35730600  0.18577200  1
  O  O58  1  0.23895100  0.51798100  0.30800200  1
  O  O59  1  0.02627800  0.78726600  0.88797900  1
  O  O60  1  0.52993900  0.33758800  0.39570800  1
  O  O61  1  0.83526800  0.59757900  0.49005200  1
  O  O62  1  0.64188200  0.29611300  0.75576700  1
  O  O63  1  0.31927800  0.83427300  0.51963100  1
  O  O64  1  0.77178000  0.01628700  0.84448200  1
  O  O65  1  0.47006100  0.66241200  0.60429200  1
  O  O66  1  0.99259600  0.75685400  0.48700300  1
  O  O67  1  0.22822000  0.98371300  0.15551800  1
  O  O68  1  0.73895100  0.48201900  0.19199800  1
  O  O69  1  0.18072200  0.83427300  0.01963100  1
  O  O70  1  0.85811800  0.29611300  0.25576700  1
  O  O71  1  0.35811800  0.70388700  0.24423300  1
  O  O72  1  0.47372200  0.78726600  0.38797900  1
  O  O73  1  0.16473200  0.40242100  0.50994800  1
  O  O74  1  0.97372200  0.21273400  0.11202100  1
  O  O75  1  0.12815500  0.32053000  0.32748800  1
  O  O76  1  0.82106300  0.38015300  0.03396100  1
  O  O77  1  0.99636100  0.86722600  0.66541500  1
  O  O78  1  0.66473200  0.59757900  0.99005200  1
  O  O79  1  0.59502900  0.18544900  0.27737400  1
  O  O80  1  0.49636100  0.13277400  0.83458500  1
  O  O81  1  0.83832200  0.90253400  0.52617900  1
  O  O82  1  0.68072200  0.16572700  0.48036900  1
  O  O83  1  0.67893700  0.38015300  0.53396100  1
  O  O84  1  0.09502900  0.81455100  0.22262600  1
  O  O85  1  0.17145300  0.18326400  0.65690400  1
  O  O86  1  0.49259600  0.24314600  0.01299700  1
  O  O87  1  0.81927800  0.16572700  0.98036900  1
  O  O88  1  0.50363900  0.86722600  0.16541500  1
  O  O89  1  0.82854700  0.81673600  0.34309600  1
  O  O90  1  0.00363900  0.13277400  0.33458500  1
  O  O91  1  0.14188200  0.70388700  0.74423300  1
  O  O92  1  0.96017100  0.64269400  0.31422800  1
  O  O93  1  0.76104900  0.48201900  0.69199800  1
  O  O94  1  0.40497100  0.81455100  0.72262600  1
  O  O95  1  0.16167800  0.09746600  0.47382100  1
  O  O96  1  0.97006100  0.33758800  0.89570800  1
  O  O97  1  0.90497100  0.18544900  0.77737400  1
  O  O98  1  0.37184500  0.32053000  0.82748800  1
  O  O99  1  0.33832200  0.09746600  0.97382100  1
  O  O100  1  0.27178000  0.98371300  0.65551800  1
  O  O101  1  0.32106300  0.61984700  0.46603900  1
  O  O102  1  0.62815500  0.67947000  0.17251200  1
  O  O103  1  0.26104900  0.51798100  0.80800200  1
  O  O104  1  0.03982900  0.35730600  0.68577200  1
  O  O105  1  0.53982900  0.64269400  0.81422800  1
  O  O106  1  0.02993900  0.66241200  0.10429200  1
  O  O107  1  0.32854700  0.18326400  0.15690400  1
