# generated using pymatgen
data_BaAg2SnS4
_symmetry_space_group_name_H-M   'P 1'
_cell_length_a   6.50847209
_cell_length_b   6.50847209
_cell_length_c   6.50847209
_cell_angle_alpha   115.93531193
_cell_angle_beta   112.55786949
_cell_angle_gamma   100.31312080
_symmetry_Int_Tables_number   1
_chemical_formula_structural   BaAg2SnS4
_chemical_formula_sum   'Ba1 Ag2 Sn1 S4'
_cell_volume   208.04572139
_cell_formula_units_Z   1
loop_
 _symmetry_equiv_pos_site_id
 _symmetry_equiv_pos_as_xyz
  1  'x, y, z'
loop_
 _atom_site_type_symbol
 _atom_site_label
 _atom_site_symmetry_multiplicity
 _atom_site_fract_x
 _atom_site_fract_y
 _atom_site_fract_z
 _atom_site_occupancy
  Ba  Ba0  1  0.00000000  0.00000000  0.00000000  1
  Ag  Ag1  1  0.29817800  0.79817800  0.50000000  1
  Ag  Ag2  1  0.70182200  0.20182200  0.50000000  1
  Sn  Sn3  1  0.50000000  0.50000000  0.00000000  1
  S  S4  1  0.47611200  0.87194900  0.00927600  1
  S  S5  1  0.86267300  0.46683600  0.99072400  1
  S  S6  1  0.52388800  0.53316400  0.39583700  1
  S  S7  1  0.13732700  0.12805100  0.60416300  1
