# generated using pymatgen
data_GePdS3
_symmetry_space_group_name_H-M   'P 1'
_cell_length_a   7.75720251
_cell_length_b   7.75720251
_cell_length_c   9.39719999
_cell_angle_alpha   72.61922643
_cell_angle_beta   72.61922643
_cell_angle_gamma   26.07926904
_symmetry_Int_Tables_number   1
_chemical_formula_structural   GePdS3
_chemical_formula_sum   'Ge2 Pd2 S6'
_cell_volume   236.61359997
_cell_formula_units_Z   2
loop_
 _symmetry_equiv_pos_site_id
 _symmetry_equiv_pos_as_xyz
  1  'x, y, z'
loop_
 _atom_site_type_symbol
 _atom_site_label
 _atom_site_symmetry_multiplicity
 _atom_site_fract_x
 _atom_site_fract_y
 _atom_site_fract_z
 _atom_site_occupancy
  Ge  Ge0  1  0.91615000  0.91615000  0.30052200  1
  Ge  Ge1  1  0.08385000  0.08385000  0.69947800  1
  Pd  Pd2  1  0.60921100  0.60921100  0.02763900  1
  Pd  Pd3  1  0.39078900  0.39078900  0.97236100  1
  S  S4  1  0.37312100  0.37312100  0.45785600  1
  S  S5  1  0.62687900  0.62687900  0.54214400  1
  S  S6  1  0.82963500  0.82963500  0.14173200  1
  S  S7  1  0.17036500  0.17036500  0.85826800  1
  S  S8  1  0.07284800  0.07284800  0.20309800  1
  S  S9  1  0.92715200  0.92715200  0.79690200  1
