# generated using pymatgen
data_PrB2ClO4
_symmetry_space_group_name_H-M   'P 1'
_cell_length_a   4.25151700
_cell_length_b   6.60949984
_cell_length_c   8.18621789
_cell_angle_alpha   97.87490128
_cell_angle_beta   89.02291273
_cell_angle_gamma   107.79549267
_symmetry_Int_Tables_number   1
_chemical_formula_structural   PrB2ClO4
_chemical_formula_sum   'Pr2 B4 Cl2 O8'
_cell_volume   216.88889041
_cell_formula_units_Z   2
loop_
 _symmetry_equiv_pos_site_id
 _symmetry_equiv_pos_as_xyz
  1  'x, y, z'
loop_
 _atom_site_type_symbol
 _atom_site_label
 _atom_site_symmetry_multiplicity
 _atom_site_fract_x
 _atom_site_fract_y
 _atom_site_fract_z
 _atom_site_occupancy
  Pr  Pr0  1  0.79309100  0.03403800  0.77814700  1
  Pr  Pr1  1  0.20690900  0.96596200  0.22185300  1
  B  B2  1  0.16898800  0.65173200  0.85131600  1
  B  B3  1  0.56638200  0.43777400  0.80430900  1
  B  B4  1  0.43361800  0.56222600  0.19569100  1
  B  B5  1  0.83101200  0.34826800  0.14868400  1
  Cl  Cl6  1  0.14611000  0.80036000  0.54324300  1
  Cl  Cl7  1  0.85389000  0.19964000  0.45675700  1
  O  O8  1  0.63021900  0.76429600  0.21071300  1
  O  O9  1  0.09548900  0.53550600  0.17910100  1
  O  O10  1  0.83742500  0.15273300  0.07864700  1
  O  O11  1  0.36978100  0.23570400  0.78928700  1
  O  O12  1  0.90451100  0.46449400  0.82089900  1
  O  O13  1  0.16257500  0.84726700  0.92135300  1
  O  O14  1  0.48193200  0.62772700  0.81539500  1
  O  O15  1  0.51806800  0.37227300  0.18460500  1
