# generated using pymatgen
data_Rb2U(SiO3)4
_symmetry_space_group_name_H-M   'P 1'
_cell_length_a   6.91623100
_cell_length_b   8.49451493
_cell_length_c   11.37573266
_cell_angle_alpha   107.00343618
_cell_angle_beta   88.78800690
_cell_angle_gamma   102.73599185
_symmetry_Int_Tables_number   1
_chemical_formula_structural   Rb2U(SiO3)4
_chemical_formula_sum   'Rb4 U2 Si8 O24'
_cell_volume   622.71319994
_cell_formula_units_Z   2
loop_
 _symmetry_equiv_pos_site_id
 _symmetry_equiv_pos_as_xyz
  1  'x, y, z'
loop_
 _atom_site_type_symbol
 _atom_site_label
 _atom_site_symmetry_multiplicity
 _atom_site_fract_x
 _atom_site_fract_y
 _atom_site_fract_z
 _atom_site_occupancy
  Rb  Rb0  1  0.19626600  0.30958000  0.99453400  1
  Rb  Rb1  1  0.82278400  0.72956900  0.64617400  1
  Rb  Rb2  1  0.80373400  0.69042000  0.00546600  1
  Rb  Rb3  1  0.17721600  0.27043100  0.35382600  1
  U  U4  1  0.32463500  0.71747400  0.82605500  1
  U  U5  1  0.67536500  0.28252600  0.17394500  1
  Si  Si6  1  0.30105500  0.75717500  0.51624900  1
  Si  Si7  1  0.32531000  0.13799900  0.62538800  1
  Si  Si8  1  0.38223800  0.86826700  0.16686900  1
  Si  Si9  1  0.03033600  0.67775700  0.28751300  1
  Si  Si10  1  0.96966400  0.32224300  0.71248700  1
  Si  Si11  1  0.69894500  0.24282500  0.48375100  1
  Si  Si12  1  0.67469000  0.86200100  0.37461200  1
  Si  Si13  1  0.61776200  0.13173300  0.83313100  1
  O  O14  1  0.05989200  0.49520300  0.81826100  1
  O  O15  1  0.55659100  0.82649600  0.24450600  1
  O  O16  1  0.42494600  0.06873600  0.18131000  1
  O  O17  1  0.94010800  0.50479700  0.18173900  1
  O  O18  1  0.57505400  0.93126400  0.81869000  1
  O  O19  1  0.49172700  0.41737300  0.20337500  1
  O  O20  1  0.37728200  0.74850500  0.02662100  1
  O  O21  1  0.46735400  0.20217800  0.52368600  1
  O  O22  1  0.85411900  0.76461600  0.35888100  1
  O  O23  1  0.84021700  0.35840900  0.60688000  1
  O  O24  1  0.22723600  0.93639800  0.56556300  1
  O  O25  1  0.77276400  0.06360200  0.43443700  1
  O  O26  1  0.62271800  0.25149500  0.97337900  1
  O  O27  1  0.14588100  0.23538400  0.64111900  1
  O  O28  1  0.44340900  0.17350400  0.75549400  1
  O  O29  1  0.83177700  0.18052100  0.76918700  1
  O  O30  1  0.72188100  0.33951400  0.38105700  1
  O  O31  1  0.53264600  0.79782200  0.47631400  1
  O  O32  1  0.85631300  0.14429100  0.14154500  1
  O  O33  1  0.15978300  0.64159100  0.39312000  1
  O  O34  1  0.14368700  0.85570900  0.85845500  1
  O  O35  1  0.50827300  0.58262700  0.79662500  1
  O  O36  1  0.16822300  0.81947900  0.23081300  1
  O  O37  1  0.27811900  0.66048600  0.61894300  1
