# generated using pymatgen
data_K2Na2IrO4
_symmetry_space_group_name_H-M   'P 1'
_cell_length_a   11.29738800
_cell_length_b   6.08761600
_cell_length_c   9.45531088
_cell_angle_alpha   67.05554404
_cell_angle_beta   90.00000000
_cell_angle_gamma   90.00000000
_symmetry_Int_Tables_number   1
_chemical_formula_structural   K2Na2IrO4
_chemical_formula_sum   'K8 Na8 Ir4 O16'
_cell_volume   598.83291013
_cell_formula_units_Z   4
loop_
 _symmetry_equiv_pos_site_id
 _symmetry_equiv_pos_as_xyz
  1  'x, y, z'
loop_
 _atom_site_type_symbol
 _atom_site_label
 _atom_site_symmetry_multiplicity
 _atom_site_fract_x
 _atom_site_fract_y
 _atom_site_fract_z
 _atom_site_occupancy
  K  K0  1  0.36257100  0.33427000  0.50251600  1
  K  K1  1  0.63437300  0.34231900  0.27887300  1
  K  K2  1  0.36562700  0.65768100  0.72112700  1
  K  K3  1  0.13437300  0.65768100  0.22112700  1
  K  K4  1  0.86562700  0.34231900  0.77887300  1
  K  K5  1  0.63742900  0.66573000  0.49748400  1
  K  K6  1  0.13742900  0.33427000  0.00251600  1
  K  K7  1  0.86257100  0.66573000  0.99748400  1
  Na  Na8  1  0.11282700  0.06812600  0.40510700  1
  Na  Na9  1  0.60843500  0.43445500  0.90577700  1
  Na  Na10  1  0.39156500  0.56554500  0.09422300  1
  Na  Na11  1  0.61282700  0.93187400  0.09489300  1
  Na  Na12  1  0.89156500  0.43445500  0.40577700  1
  Na  Na13  1  0.38717300  0.06812600  0.90510700  1
  Na  Na14  1  0.10843500  0.56554500  0.59422300  1
  Na  Na15  1  0.88717300  0.93187400  0.59489300  1
  Ir  Ir16  1  0.37015300  0.98600200  0.27088100  1
  Ir  Ir17  1  0.62984700  0.01399800  0.72911900  1
  Ir  Ir18  1  0.12984700  0.98600200  0.77088100  1
  Ir  Ir19  1  0.87015300  0.01399800  0.22911900  1
  O  O20  1  0.53479900  0.28190700  0.72422200  1
  O  O21  1  0.03479900  0.71809300  0.77577800  1
  O  O22  1  0.73035000  0.22142400  0.56644400  1
  O  O23  1  0.76965000  0.22142400  0.06644400  1
  O  O24  1  0.46512400  0.20121900  0.10101000  1
  O  O25  1  0.96512400  0.79878100  0.39899000  1
  O  O26  1  0.46520100  0.71809300  0.27577800  1
  O  O27  1  0.03487600  0.20121900  0.60101000  1
  O  O28  1  0.77545500  0.74310800  0.23864700  1
  O  O29  1  0.22454500  0.25689200  0.76135300  1
  O  O30  1  0.27545500  0.25689200  0.26135300  1
  O  O31  1  0.53487600  0.79878100  0.89899000  1
  O  O32  1  0.72454500  0.74310800  0.73864700  1
  O  O33  1  0.26965000  0.77857600  0.43355600  1
  O  O34  1  0.23035000  0.77857600  0.93355600  1
  O  O35  1  0.96520100  0.28190700  0.22422200  1
