# generated using pymatgen
data_BaCr2O4
_symmetry_space_group_name_H-M   'P 1'
_cell_length_a   5.26924900
_cell_length_b   6.07331200
_cell_length_c   12.43963000
_cell_angle_alpha   90.00018646
_cell_angle_beta   90.00034440
_cell_angle_gamma   90.00016102
_symmetry_Int_Tables_number   1
_chemical_formula_structural   BaCr2O4
_chemical_formula_sum   'Ba4 Cr8 O16'
_cell_volume   398.09046652
_cell_formula_units_Z   4
loop_
 _symmetry_equiv_pos_site_id
 _symmetry_equiv_pos_as_xyz
  1  'x, y, z'
loop_
 _atom_site_type_symbol
 _atom_site_label
 _atom_site_symmetry_multiplicity
 _atom_site_fract_x
 _atom_site_fract_y
 _atom_site_fract_z
 _atom_site_occupancy
  Ba  Ba0  1  0.86630800  0.25000300  0.75000100  1
  Ba  Ba1  1  0.13316600  0.75000000  0.25000000  1
  Ba  Ba2  1  0.55409300  0.25000100  0.25000200  1
  Ba  Ba3  1  0.44573400  0.74999700  0.74999500  1
  Cr  Cr4  1  0.49737200  0.24999600  0.50566000  1
  Cr  Cr5  1  0.49736000  0.25000600  0.99435100  1
  Cr  Cr6  1  0.50219700  0.75000100  0.49437400  1
  Cr  Cr7  1  0.50219000  0.75000000  0.00561200  1
  Cr  Cr8  1  0.00028800  0.49954500  0.49998100  1
  Cr  Cr9  1  0.00027000  0.00045400  0.00002300  1
  Cr  Cr10  1  0.00028000  0.00046200  0.49998000  1
  Cr  Cr11  1  0.00027900  0.49953700  0.00001900  1
  O  O12  1  0.83272900  0.74999900  0.41471300  1
  O  O13  1  0.83271800  0.75000200  0.08528100  1
  O  O14  1  0.16703400  0.25000300  0.58631100  1
  O  O15  1  0.16703100  0.24999700  0.91369100  1
  O  O16  1  0.16880500  0.75000300  0.57957700  1
  O  O17  1  0.16879100  0.74999800  0.92042000  1
  O  O18  1  0.83178600  0.25000400  0.41967200  1
  O  O19  1  0.83178600  0.25000100  0.08033500  1
  O  O20  1  0.66543200  0.50293200  0.58786100  1
  O  O21  1  0.66542400  0.99707000  0.91213900  1
  O  O22  1  0.33452100  0.00262600  0.41200200  1
  O  O23  1  0.33451600  0.49737800  0.08799900  1
  O  O24  1  0.33451700  0.49737400  0.41200000  1
  O  O25  1  0.33451600  0.00262000  0.08800100  1
  O  O26  1  0.66542800  0.99706400  0.58786100  1
  O  O27  1  0.66542900  0.50292900  0.91214000  1
