# generated using pymatgen
data_Dy2Te5O13
_symmetry_space_group_name_H-M   'P 1'
_cell_length_a   7.04421000
_cell_length_b   8.77697561
_cell_length_c   10.77132357
_cell_angle_alpha   89.48108777
_cell_angle_beta   92.61181347
_cell_angle_gamma   105.11790013
_symmetry_Int_Tables_number   1
_chemical_formula_structural   Dy2Te5O13
_chemical_formula_sum   'Dy4 Te10 O26'
_cell_volume   642.23851125
_cell_formula_units_Z   2
loop_
 _symmetry_equiv_pos_site_id
 _symmetry_equiv_pos_as_xyz
  1  'x, y, z'
loop_
 _atom_site_type_symbol
 _atom_site_label
 _atom_site_symmetry_multiplicity
 _atom_site_fract_x
 _atom_site_fract_y
 _atom_site_fract_z
 _atom_site_occupancy
  Dy  Dy0  1  0.55300300  0.47309200  0.82125800  1
  Dy  Dy1  1  0.99756800  0.26171100  0.76084500  1
  Dy  Dy2  1  0.00243200  0.73828900  0.23915500  1
  Dy  Dy3  1  0.44699700  0.52690800  0.17874200  1
  Te  Te4  1  0.27397900  0.60770200  0.51191200  1
  Te  Te5  1  0.28965100  0.12419900  0.02284400  1
  Te  Te6  1  0.72602100  0.39229800  0.48808800  1
  Te  Te7  1  0.71034900  0.87580100  0.97715600  1
  Te  Te8  1  0.43647500  0.09864500  0.69861200  1
  Te  Te9  1  0.56352500  0.90135500  0.30138800  1
  Te  Te10  1  0.12015500  0.64969400  0.89002800  1
  Te  Te11  1  0.15516600  0.19705400  0.35906000  1
  Te  Te12  1  0.84483400  0.80294600  0.64094000  1
  Te  Te13  1  0.87984500  0.35030600  0.10997200  1
  O  O14  1  0.65338800  0.98258600  0.12545500  1
  O  O15  1  0.12365500  0.51112000  0.10791600  1
  O  O16  1  0.87634500  0.48888000  0.89208400  1
  O  O17  1  0.46309800  0.80661900  0.48010300  1
  O  O18  1  0.66182400  0.51285300  0.61831800  1
  O  O19  1  0.32774700  0.25777900  0.22632000  1
  O  O20  1  0.76434400  0.49459700  0.18825500  1
  O  O21  1  0.67031800  0.22471000  0.77646900  1
  O  O22  1  0.05877200  0.18153900  0.96186300  1
  O  O23  1  0.68632400  0.73499900  0.28499700  1
  O  O24  1  0.46470700  0.32997800  0.00093000  1
  O  O25  1  0.06587300  0.73433000  0.72220400  1
  O  O26  1  0.06231300  0.98315100  0.31275000  1
  O  O27  1  0.33817600  0.48714700  0.38168200  1
  O  O28  1  0.34661200  0.01741400  0.87454500  1
  O  O29  1  0.53529300  0.67002200  0.99907000  1
  O  O30  1  0.53690200  0.19338100  0.51989700  1
  O  O31  1  0.04653100  0.65104500  0.43374000  1
  O  O32  1  0.93412700  0.26567000  0.27779600  1
  O  O33  1  0.23565600  0.50540300  0.81174500  1
  O  O34  1  0.93768700  0.01684900  0.68725000  1
  O  O35  1  0.95346900  0.34895500  0.56626000  1
  O  O36  1  0.67225300  0.74222100  0.77368000  1
  O  O37  1  0.94122800  0.81846100  0.03813700  1
  O  O38  1  0.31367600  0.26500100  0.71500300  1
  O  O39  1  0.32968200  0.77529000  0.22353100  1
