# generated using pymatgen
data_NaSiBO4
_symmetry_space_group_name_H-M   'P 1'
_cell_length_a   7.79146900
_cell_length_b   8.08283300
_cell_length_c   16.26530580
_cell_angle_alpha   60.27832100
_cell_angle_beta   90.00000000
_cell_angle_gamma   90.00000000
_symmetry_Int_Tables_number   1
_chemical_formula_structural   NaSiBO4
_chemical_formula_sum   'Na12 Si12 B12 O48'
_cell_volume   889.58407078
_cell_formula_units_Z   12
loop_
 _symmetry_equiv_pos_site_id
 _symmetry_equiv_pos_as_xyz
  1  'x, y, z'
loop_
 _atom_site_type_symbol
 _atom_site_label
 _atom_site_symmetry_multiplicity
 _atom_site_fract_x
 _atom_site_fract_y
 _atom_site_fract_z
 _atom_site_occupancy
  Na  Na0  1  0.51091700  0.00313800  0.25036300  1
  Na  Na1  1  0.01091700  0.99686200  0.24963700  1
  Na  Na2  1  0.97067600  0.35917700  0.41202700  1
  Na  Na3  1  0.47067600  0.64082300  0.08797300  1
  Na  Na4  1  0.03376600  0.70561700  0.06765000  1
  Na  Na5  1  0.96623400  0.29438300  0.93235000  1
  Na  Na6  1  0.98908300  0.00313800  0.75036300  1
  Na  Na7  1  0.53376600  0.29438300  0.43235000  1
  Na  Na8  1  0.46623400  0.70561700  0.56765000  1
  Na  Na9  1  0.02932400  0.64082300  0.58797300  1
  Na  Na10  1  0.48908300  0.99686200  0.74963700  1
  Na  Na11  1  0.52932400  0.35917700  0.91202700  1
  Si  Si12  1  0.28938500  0.31871100  0.26134200  1
  Si  Si13  1  0.79627300  0.33894900  0.09256500  1
  Si  Si14  1  0.78938500  0.68128900  0.23865800  1
  Si  Si15  1  0.71061500  0.68128900  0.73865800  1
  Si  Si16  1  0.20287600  0.02493700  0.58091500  1
  Si  Si17  1  0.21061500  0.31871100  0.76134200  1
  Si  Si18  1  0.70372700  0.33894900  0.59256500  1
  Si  Si19  1  0.79712400  0.97506300  0.41908500  1
  Si  Si20  1  0.29712400  0.02493700  0.08091500  1
  Si  Si21  1  0.20372700  0.66105100  0.90743500  1
  Si  Si22  1  0.70287600  0.97506300  0.91908500  1
  Si  Si23  1  0.29627300  0.66105100  0.40743500  1
  B  B24  1  0.82758500  0.01846900  0.58166100  1
  B  B25  1  0.32993500  0.68156400  0.73960800  1
  B  B26  1  0.32758500  0.98153100  0.91833900  1
  B  B27  1  0.17305100  0.34166600  0.09035400  1
  B  B28  1  0.67241500  0.01846900  0.08166100  1
  B  B29  1  0.17006500  0.68156400  0.23960800  1
  B  B30  1  0.17241500  0.98153100  0.41833900  1
  B  B31  1  0.67006500  0.31843600  0.26039200  1
  B  B32  1  0.32694900  0.34166600  0.59035400  1
  B  B33  1  0.67305100  0.65833400  0.40964600  1
  B  B34  1  0.82993500  0.31843600  0.76039200  1
  B  B35  1  0.82694900  0.65833400  0.90964600  1
  O  O36  1  0.17130000  0.60624800  0.34320100  1
  O  O37  1  0.77634600  0.11300600  0.12272400  1
  O  O38  1  0.24368200  0.54510100  0.21344100  1
  O  O39  1  0.75154100  0.47153000  0.47958800  1
  O  O40  1  0.98970900  0.72385900  0.20334700  1
  O  O41  1  0.82870000  0.39375200  0.65679900  1
  O  O42  1  0.50510900  0.37556800  0.61170200  1
  O  O43  1  0.74845900  0.47153000  0.97958800  1
  O  O44  1  0.00510900  0.62443200  0.88829800  1
  O  O45  1  0.33277600  0.19003700  0.85370000  1
  O  O46  1  0.99594300  0.90104000  0.43307700  1
  O  O47  1  0.00405700  0.09896000  0.56692300  1
  O  O48  1  0.01029100  0.27614100  0.79665300  1
  O  O49  1  0.99489100  0.37556800  0.11170200  1
  O  O50  1  0.24711700  0.93527600  0.51208100  1
  O  O51  1  0.27634600  0.88699400  0.37727600  1
  O  O52  1  0.49594300  0.09896000  0.06692300  1
  O  O53  1  0.67204500  0.79035300  0.44834800  1
  O  O54  1  0.72365400  0.11300600  0.62272400  1
  O  O55  1  0.74711700  0.06472400  0.98791900  1
  O  O56  1  0.49489100  0.62443200  0.38829800  1
  O  O57  1  0.72866400  0.74311900  0.82056600  1
  O  O58  1  0.17204500  0.20964700  0.05165200  1
  O  O59  1  0.67130000  0.39375200  0.15679900  1
  O  O60  1  0.74368200  0.45489900  0.28655900  1
  O  O61  1  0.50405700  0.90104000  0.93307700  1
  O  O62  1  0.25631800  0.54510100  0.71344100  1
  O  O63  1  0.73307900  0.13696800  0.80798700  1
  O  O64  1  0.23307900  0.86303200  0.69201300  1
  O  O65  1  0.27133600  0.25688100  0.17943400  1
  O  O66  1  0.48970900  0.27614100  0.29665300  1
  O  O67  1  0.51029100  0.72385900  0.70334700  1
  O  O68  1  0.22365400  0.88699400  0.87727600  1
  O  O69  1  0.83277600  0.80996300  0.64630000  1
  O  O70  1  0.22866400  0.25688100  0.67943400  1
  O  O71  1  0.82795500  0.79035300  0.94834800  1
  O  O72  1  0.25288300  0.93527600  0.01208100  1
  O  O73  1  0.24845900  0.52847000  0.52041200  1
  O  O74  1  0.66722400  0.80996300  0.14630000  1
  O  O75  1  0.77133600  0.74311900  0.32056600  1
  O  O76  1  0.75288300  0.06472400  0.48791900  1
  O  O77  1  0.75631800  0.45489900  0.78655900  1
  O  O78  1  0.32870000  0.60624800  0.84320100  1
  O  O79  1  0.25154100  0.52847000  0.02041200  1
  O  O80  1  0.16722400  0.19003700  0.35370000  1
  O  O81  1  0.26692100  0.86303200  0.19201300  1
  O  O82  1  0.76692100  0.13696800  0.30798700  1
  O  O83  1  0.32795500  0.20964700  0.55165200  1
