# generated using pymatgen
data_CsTbZnSe3
_symmetry_space_group_name_H-M   'P 1'
_cell_length_a   8.36413455
_cell_length_b   8.36413455
_cell_length_c   11.04530600
_cell_angle_alpha   90.00000000
_cell_angle_beta   90.00000000
_cell_angle_gamma   150.98188683
_symmetry_Int_Tables_number   1
_chemical_formula_structural   CsTbZnSe3
_chemical_formula_sum   'Cs2 Tb2 Zn2 Se6'
_cell_volume   374.83367195
_cell_formula_units_Z   2
loop_
 _symmetry_equiv_pos_site_id
 _symmetry_equiv_pos_as_xyz
  1  'x, y, z'
loop_
 _atom_site_type_symbol
 _atom_site_label
 _atom_site_symmetry_multiplicity
 _atom_site_fract_x
 _atom_site_fract_y
 _atom_site_fract_z
 _atom_site_occupancy
  Cs  Cs0  1  0.74221600  0.25778400  0.25000000  1
  Cs  Cs1  1  0.25778400  0.74221600  0.75000000  1
  Tb  Tb2  1  0.00000000  0.00000000  0.50000000  1
  Tb  Tb3  1  0.00000000  0.00000000  0.00000000  1
  Zn  Zn4  1  0.46099700  0.53900300  0.25000000  1
  Zn  Zn5  1  0.53900300  0.46099700  0.75000000  1
  Se  Se6  1  0.61691400  0.38308600  0.94056200  1
  Se  Se7  1  0.05471100  0.94528900  0.25000000  1
  Se  Se8  1  0.38308600  0.61691400  0.05943800  1
  Se  Se9  1  0.94528900  0.05471100  0.75000000  1
  Se  Se10  1  0.61691400  0.38308600  0.55943800  1
  Se  Se11  1  0.38308600  0.61691400  0.44056200  1
