# generated using pymatgen
data_Th2Zn17
_symmetry_space_group_name_H-M   'P 1'
_cell_length_a   6.85824537
_cell_length_b   6.85824537
_cell_length_c   6.85824518
_cell_angle_alpha   82.98781973
_cell_angle_beta   82.98781973
_cell_angle_gamma   82.98782254
_symmetry_Int_Tables_number   1
_chemical_formula_structural   Th2Zn17
_chemical_formula_sum   'Th2 Zn17'
_cell_volume   315.88722117
_cell_formula_units_Z   1
loop_
 _symmetry_equiv_pos_site_id
 _symmetry_equiv_pos_as_xyz
  1  'x, y, z'
loop_
 _atom_site_type_symbol
 _atom_site_label
 _atom_site_symmetry_multiplicity
 _atom_site_fract_x
 _atom_site_fract_y
 _atom_site_fract_z
 _atom_site_occupancy
  Th  Th0  1  0.33700800  0.33700800  0.33700800  1
  Th  Th1  1  0.66299200  0.66299200  0.66299200  1
  Zn  Zn2  1  0.00000000  0.00000000  0.50000000  1
  Zn  Zn3  1  0.00000000  0.50000000  0.00000000  1
  Zn  Zn4  1  0.50000000  0.00000000  0.00000000  1
  Zn  Zn5  1  0.70681400  0.29318600  0.00000000  1
  Zn  Zn6  1  0.29318600  0.00000000  0.70681400  1
  Zn  Zn7  1  0.00000000  0.70681400  0.29318600  1
  Zn  Zn8  1  0.29318600  0.70681400  0.00000000  1
  Zn  Zn9  1  0.70681400  0.00000000  0.29318600  1
  Zn  Zn10  1  0.00000000  0.29318600  0.70681400  1
  Zn  Zn11  1  0.16109000  0.64947800  0.64947800  1
  Zn  Zn12  1  0.64947800  0.64947800  0.16109000  1
  Zn  Zn13  1  0.64947800  0.16109000  0.64947800  1
  Zn  Zn14  1  0.35052200  0.83891000  0.35052200  1
  Zn  Zn15  1  0.83891000  0.35052200  0.35052200  1
  Zn  Zn16  1  0.35052200  0.35052200  0.83891000  1
  Zn  Zn17  1  0.09857800  0.09857800  0.09857800  1
  Zn  Zn18  1  0.90142200  0.90142200  0.90142200  1
