# generated using pymatgen
data_Rb2Bi4O7
_symmetry_space_group_name_H-M   'P 1'
_cell_length_a   12.49483149
_cell_length_b   12.49483149
_cell_length_c   15.81216868
_cell_angle_alpha   86.32520062
_cell_angle_beta   86.32520062
_cell_angle_gamma   63.06514496
_symmetry_Int_Tables_number   1
_chemical_formula_structural   Rb2Bi4O7
_chemical_formula_sum   'Rb16 Bi32 O56'
_cell_volume   2194.58810657
_cell_formula_units_Z   8
loop_
 _symmetry_equiv_pos_site_id
 _symmetry_equiv_pos_as_xyz
  1  'x, y, z'
loop_
 _atom_site_type_symbol
 _atom_site_label
 _atom_site_symmetry_multiplicity
 _atom_site_fract_x
 _atom_site_fract_y
 _atom_site_fract_z
 _atom_site_occupancy
  Rb  Rb0  1  0.53934700  0.62842200  0.28909300  1
  Rb  Rb1  1  0.62858200  0.02172900  0.79180900  1
  Rb  Rb2  1  0.37157800  0.46065300  0.21090700  1
  Rb  Rb3  1  0.12673000  0.54633900  0.79022200  1
  Rb  Rb4  1  0.62842200  0.53934700  0.78909300  1
  Rb  Rb5  1  0.37141800  0.97827100  0.20819100  1
  Rb  Rb6  1  0.54633900  0.12673000  0.29022200  1
  Rb  Rb7  1  0.96785500  0.87238900  0.70930900  1
  Rb  Rb8  1  0.46065300  0.37157800  0.71090700  1
  Rb  Rb9  1  0.97827100  0.37141800  0.70819100  1
  Rb  Rb10  1  0.12761100  0.03214500  0.79069100  1
  Rb  Rb11  1  0.87327000  0.45366100  0.20977800  1
  Rb  Rb12  1  0.87238900  0.96785500  0.20930900  1
  Rb  Rb13  1  0.03214500  0.12761100  0.29069100  1
  Rb  Rb14  1  0.02172900  0.62858200  0.29180900  1
  Rb  Rb15  1  0.45366100  0.87327000  0.70977800  1
  Bi  Bi16  1  0.29865800  0.21414300  0.61432700  1
  Bi  Bi17  1  0.95691200  0.39811800  0.96118700  1
  Bi  Bi18  1  0.21681600  0.26403700  0.37309600  1
  Bi  Bi19  1  0.73596300  0.78318400  0.12690400  1
  Bi  Bi20  1  0.39510900  0.91014700  0.95792700  1
  Bi  Bi21  1  0.89056700  0.90899300  0.95693500  1
  Bi  Bi22  1  0.70134200  0.78585700  0.38567300  1
  Bi  Bi23  1  0.78456900  0.24313000  0.62105600  1
  Bi  Bi24  1  0.70997200  0.29683800  0.11875400  1
  Bi  Bi25  1  0.21543100  0.75687000  0.37894400  1
  Bi  Bi26  1  0.10943300  0.09100700  0.04306500  1
  Bi  Bi27  1  0.29683800  0.70997200  0.61875400  1
  Bi  Bi28  1  0.39811800  0.95691200  0.46118700  1
  Bi  Bi29  1  0.75687000  0.21543100  0.87894400  1
  Bi  Bi30  1  0.45246400  0.39986600  0.96524200  1
  Bi  Bi31  1  0.91014700  0.39510900  0.45792700  1
  Bi  Bi32  1  0.21414300  0.29865800  0.11432700  1
  Bi  Bi33  1  0.24313000  0.78456900  0.12105600  1
  Bi  Bi34  1  0.70316200  0.29002800  0.38124600  1
  Bi  Bi35  1  0.29002800  0.70316200  0.88124600  1
  Bi  Bi36  1  0.54753600  0.60013400  0.03475800  1
  Bi  Bi37  1  0.39986600  0.45246400  0.46524200  1
  Bi  Bi38  1  0.26403700  0.21681600  0.87309600  1
  Bi  Bi39  1  0.60013400  0.54753600  0.53475800  1
  Bi  Bi40  1  0.60489100  0.08985300  0.04207300  1
  Bi  Bi41  1  0.60188200  0.04308800  0.53881300  1
  Bi  Bi42  1  0.78585700  0.70134200  0.88567300  1
  Bi  Bi43  1  0.09100700  0.10943300  0.54306500  1
  Bi  Bi44  1  0.78318400  0.73596300  0.62690400  1
  Bi  Bi45  1  0.04308800  0.60188200  0.03881300  1
  Bi  Bi46  1  0.08985300  0.60489100  0.54207300  1
  Bi  Bi47  1  0.90899300  0.89056700  0.45693500  1
  O  O48  1  0.28535000  0.71465000  0.25000000  1
  O  O49  1  0.97095200  0.64904200  0.65616400  1
  O  O50  1  0.35095800  0.02904800  0.84383600  1
  O  O51  1  0.28135000  0.08939000  0.02841500  1
  O  O52  1  0.28403800  0.23948800  0.24194100  1
  O  O53  1  0.41694700  0.61481900  0.46763000  1
  O  O54  1  0.76673300  0.91352200  0.61336800  1
  O  O55  1  0.10963300  0.48601700  0.14980300  1
  O  O56  1  0.11620800  0.41939500  0.96879000  1
  O  O57  1  0.51398300  0.89036700  0.35019700  1
  O  O58  1  0.08647800  0.23326700  0.88663200  1
  O  O59  1  0.41768000  0.77526500  0.10241600  1
  O  O60  1  0.58060500  0.88379200  0.53121000  1
  O  O61  1  0.25521600  0.06806100  0.62249600  1
  O  O62  1  0.74478400  0.93193900  0.37750400  1
  O  O63  1  0.71596200  0.76051200  0.75805900  1
  O  O64  1  0.08939000  0.28135000  0.52841500  1
  O  O65  1  0.77526500  0.41768000  0.60241600  1
  O  O66  1  0.61481900  0.41694700  0.96763000  1
  O  O67  1  0.58305300  0.38518100  0.53237000  1
  O  O68  1  0.56084800  0.25957600  0.11979500  1
  O  O69  1  0.22286500  0.91159300  0.97118400  1
  O  O70  1  0.71865000  0.91061000  0.97158500  1
  O  O71  1  0.23693600  0.76306400  0.75000000  1
  O  O72  1  0.58232000  0.22473500  0.89758400  1
  O  O73  1  0.64904200  0.97095200  0.15616400  1
  O  O74  1  0.48655400  0.61040000  0.64796900  1
  O  O75  1  0.43915200  0.74042400  0.88020500  1
  O  O76  1  0.22473500  0.58232000  0.39758400  1
  O  O77  1  0.91352200  0.76673300  0.11336800  1
  O  O78  1  0.23948800  0.28403800  0.74194100  1
  O  O79  1  0.48601700  0.10963300  0.64980300  1
  O  O80  1  0.25957600  0.56084800  0.61979500  1
  O  O81  1  0.51344600  0.38960000  0.35203100  1
  O  O82  1  0.93193900  0.74478400  0.87750400  1
  O  O83  1  0.23326700  0.08647800  0.38663200  1
  O  O84  1  0.74042400  0.43915200  0.38020500  1
  O  O85  1  0.15111900  0.97250200  0.15545100  1
  O  O86  1  0.77713500  0.08840700  0.02881600  1
  O  O87  1  0.38518100  0.58305300  0.03237000  1
  O  O88  1  0.91061000  0.71865000  0.47158500  1
  O  O89  1  0.71465000  0.28535000  0.75000000  1
  O  O90  1  0.88379200  0.58060500  0.03121000  1
  O  O91  1  0.02904800  0.35095800  0.34383600  1
  O  O92  1  0.76051200  0.71596200  0.25805900  1
  O  O93  1  0.41939500  0.11620800  0.46879000  1
  O  O94  1  0.61040000  0.48655400  0.14796900  1
  O  O95  1  0.89036700  0.51398300  0.85019700  1
  O  O96  1  0.84888100  0.02749800  0.84454900  1
  O  O97  1  0.76306400  0.23693600  0.25000000  1
  O  O98  1  0.91159300  0.22286500  0.47118400  1
  O  O99  1  0.06806100  0.25521600  0.12249600  1
  O  O100  1  0.08840700  0.77713500  0.52881600  1
  O  O101  1  0.02749800  0.84888100  0.34454900  1
  O  O102  1  0.97250200  0.15111900  0.65545100  1
  O  O103  1  0.38960000  0.51344600  0.85203100  1
