# generated using pymatgen
data_K2Ag2SnSe4
_symmetry_space_group_name_H-M   'P 1'
_cell_length_a   6.01734900
_cell_length_b   7.69126700
_cell_length_c   12.47791974
_cell_angle_alpha   66.16747479
_cell_angle_beta   90.00000000
_cell_angle_gamma   90.00000000
_symmetry_Int_Tables_number   1
_chemical_formula_structural   K2Ag2SnSe4
_chemical_formula_sum   'K4 Ag4 Sn2 Se8'
_cell_volume   528.24866452
_cell_formula_units_Z   2
loop_
 _symmetry_equiv_pos_site_id
 _symmetry_equiv_pos_as_xyz
  1  'x, y, z'
loop_
 _atom_site_type_symbol
 _atom_site_label
 _atom_site_symmetry_multiplicity
 _atom_site_fract_x
 _atom_site_fract_y
 _atom_site_fract_z
 _atom_site_occupancy
  K  K0  1  0.52157700  0.00000000  0.25000000  1
  K  K1  1  0.00000000  0.00000000  0.00000000  1
  K  K2  1  0.47842300  0.00000000  0.75000000  1
  K  K3  1  0.00000000  0.00000000  0.50000000  1
  Ag  Ag4  1  0.75002700  0.50094900  0.03186200  1
  Ag  Ag5  1  0.24997300  0.50094900  0.53186200  1
  Ag  Ag6  1  0.24997300  0.49905100  0.96813800  1
  Ag  Ag7  1  0.75002700  0.49905100  0.46813800  1
  Sn  Sn8  1  0.24920300  0.50000000  0.25000000  1
  Sn  Sn9  1  0.75079700  0.50000000  0.75000000  1
  Se  Se10  1  0.03087500  0.73320400  0.31139400  1
  Se  Se11  1  0.52981300  0.26667000  0.92641900  1
  Se  Se12  1  0.47018700  0.73333000  0.07358100  1
  Se  Se13  1  0.52981300  0.73333000  0.57358100  1
  Se  Se14  1  0.03087500  0.26679600  0.18860600  1
  Se  Se15  1  0.47018700  0.26667000  0.42641900  1
  Se  Se16  1  0.96912500  0.73320400  0.81139400  1
  Se  Se17  1  0.96912500  0.26679600  0.68860600  1
