# generated using pymatgen
data_Na2MoSeO6
_symmetry_space_group_name_H-M   'P 1'
_cell_length_a   8.48309500
_cell_length_b   8.48309500
_cell_length_c   8.48309500
_cell_angle_alpha   90.00000000
_cell_angle_beta   90.00000000
_cell_angle_gamma   90.00000000
_symmetry_Int_Tables_number   1
_chemical_formula_structural   Na2MoSeO6
_chemical_formula_sum   'Na8 Mo4 Se4 O24'
_cell_volume   610.46812378
_cell_formula_units_Z   4
loop_
 _symmetry_equiv_pos_site_id
 _symmetry_equiv_pos_as_xyz
  1  'x, y, z'
loop_
 _atom_site_type_symbol
 _atom_site_label
 _atom_site_symmetry_multiplicity
 _atom_site_fract_x
 _atom_site_fract_y
 _atom_site_fract_z
 _atom_site_occupancy
  Na  Na0  1  0.75168700  0.24831300  0.74831300  1
  Na  Na1  1  0.46655200  0.46655200  0.46655200  1
  Na  Na2  1  0.53344800  0.96655200  0.03344800  1
  Na  Na3  1  0.25168700  0.25168700  0.25168700  1
  Na  Na4  1  0.74831300  0.75168700  0.24831300  1
  Na  Na5  1  0.03344800  0.53344800  0.96655200  1
  Na  Na6  1  0.96655200  0.03344800  0.53344800  1
  Na  Na7  1  0.24831300  0.74831300  0.75168700  1
  Mo  Mo8  1  0.99185800  0.50814200  0.49185800  1
  Mo  Mo9  1  0.00814200  0.00814200  0.00814200  1
  Mo  Mo10  1  0.49185800  0.99185800  0.50814200  1
  Mo  Mo11  1  0.50814200  0.49185800  0.99185800  1
  Se  Se12  1  0.32692600  0.17307400  0.82692600  1
  Se  Se13  1  0.82692600  0.32692600  0.17307400  1
  Se  Se14  1  0.67307400  0.67307400  0.67307400  1
  Se  Se15  1  0.17307400  0.82692600  0.32692600  1
  O  O16  1  0.40120800  0.99586700  0.75553900  1
  O  O17  1  0.49586700  0.74446100  0.59879200  1
  O  O18  1  0.68993300  0.01497700  0.57627800  1
  O  O19  1  0.00413300  0.25553900  0.09879200  1
  O  O20  1  0.18993300  0.48502300  0.42372200  1
  O  O21  1  0.75553900  0.40120800  0.99586700  1
  O  O22  1  0.07627800  0.81006700  0.98502300  1
  O  O23  1  0.01497700  0.57627800  0.68993300  1
  O  O24  1  0.31006700  0.51497700  0.92372200  1
  O  O25  1  0.99586700  0.75553900  0.40120800  1
  O  O26  1  0.90120800  0.50413300  0.24446100  1
  O  O27  1  0.92372200  0.31006700  0.51497700  1
  O  O28  1  0.51497700  0.92372200  0.31006700  1
  O  O29  1  0.24446100  0.90120800  0.50413300  1
  O  O30  1  0.09879200  0.00413300  0.25553900  1
  O  O31  1  0.42372200  0.18993300  0.48502300  1
  O  O32  1  0.25553900  0.09879200  0.00413300  1
  O  O33  1  0.98502300  0.07627800  0.81006700  1
  O  O34  1  0.59879200  0.49586700  0.74446100  1
  O  O35  1  0.81006700  0.98502300  0.07627800  1
  O  O36  1  0.74446100  0.59879200  0.49586700  1
  O  O37  1  0.48502300  0.42372200  0.18993300  1
  O  O38  1  0.57627800  0.68993300  0.01497700  1
  O  O39  1  0.50413300  0.24446100  0.90120800  1
