# generated using pymatgen
data_AlMoP2O9
_symmetry_space_group_name_H-M   'P 1'
_cell_length_a   8.98554100
_cell_length_b   8.98554100
_cell_length_c   8.87724000
_cell_angle_alpha   90.00000000
_cell_angle_beta   90.00000000
_cell_angle_gamma   90.00000000
_symmetry_Int_Tables_number   1
_chemical_formula_structural   AlMoP2O9
_chemical_formula_sum   'Al4 Mo4 P8 O36'
_cell_volume   716.74788766
_cell_formula_units_Z   4
loop_
 _symmetry_equiv_pos_site_id
 _symmetry_equiv_pos_as_xyz
  1  'x, y, z'
loop_
 _atom_site_type_symbol
 _atom_site_label
 _atom_site_symmetry_multiplicity
 _atom_site_fract_x
 _atom_site_fract_y
 _atom_site_fract_z
 _atom_site_occupancy
  Al  Al0  1  0.00000000  0.00000000  0.00000000  1
  Al  Al1  1  0.50000000  0.50000000  0.00000000  1
  Al  Al2  1  0.50000000  0.50000000  0.50000000  1
  Al  Al3  1  0.00000000  0.00000000  0.50000000  1
  Mo  Mo4  1  0.50000000  0.00000000  0.81837200  1
  Mo  Mo5  1  0.50000000  0.00000000  0.31837200  1
  Mo  Mo6  1  0.00000000  0.50000000  0.68162800  1
  Mo  Mo7  1  0.00000000  0.50000000  0.18162800  1
  P  P8  1  0.68199100  0.31800900  0.75000000  1
  P  P9  1  0.68199100  0.68199100  0.25000000  1
  P  P10  1  0.81800900  0.81800900  0.75000000  1
  P  P11  1  0.81800900  0.18199100  0.25000000  1
  P  P12  1  0.18199100  0.18199100  0.75000000  1
  P  P13  1  0.18199100  0.81800900  0.25000000  1
  P  P14  1  0.31800900  0.68199100  0.75000000  1
  P  P15  1  0.31800900  0.31800900  0.25000000  1
  O  O16  1  0.60152200  0.37391100  0.60877700  1
  O  O17  1  0.50000000  0.00000000  0.01085600  1
  O  O18  1  0.87391100  0.10152200  0.10877700  1
  O  O19  1  0.37391100  0.39847800  0.39122300  1
  O  O20  1  0.83854200  0.64753300  0.73315800  1
  O  O21  1  0.66145800  0.85246700  0.26684200  1
  O  O22  1  0.16145800  0.64753300  0.23315800  1
  O  O23  1  0.00000000  0.50000000  0.98914400  1
  O  O24  1  0.89847800  0.87391100  0.89122300  1
  O  O25  1  0.16145800  0.35246700  0.73315800  1
  O  O26  1  0.62608900  0.39847800  0.89122300  1
  O  O27  1  0.89847800  0.12608900  0.39122300  1
  O  O28  1  0.50000000  0.00000000  0.51085600  1
  O  O29  1  0.37391100  0.60152200  0.89122300  1
  O  O30  1  0.66145800  0.14753300  0.76684200  1
  O  O31  1  0.33854200  0.85246700  0.76684200  1
  O  O32  1  0.87391100  0.89847800  0.60877700  1
  O  O33  1  0.62608900  0.60152200  0.39122300  1
  O  O34  1  0.10152200  0.12608900  0.89122300  1
  O  O35  1  0.64753300  0.83854200  0.76684200  1
  O  O36  1  0.00000000  0.50000000  0.48914400  1
  O  O37  1  0.14753300  0.66145800  0.73315800  1
  O  O38  1  0.33854200  0.14753300  0.26684200  1
  O  O39  1  0.85246700  0.33854200  0.73315800  1
  O  O40  1  0.35246700  0.83854200  0.26684200  1
  O  O41  1  0.10152200  0.87391100  0.39122300  1
  O  O42  1  0.12608900  0.10152200  0.60877700  1
  O  O43  1  0.39847800  0.37391100  0.10877700  1
  O  O44  1  0.64753300  0.16145800  0.26684200  1
  O  O45  1  0.12608900  0.89847800  0.10877700  1
  O  O46  1  0.85246700  0.66145800  0.23315800  1
  O  O47  1  0.60152200  0.62608900  0.10877700  1
  O  O48  1  0.14753300  0.33854200  0.23315800  1
  O  O49  1  0.83854200  0.35246700  0.23315800  1
  O  O50  1  0.39847800  0.62608900  0.60877700  1
  O  O51  1  0.35246700  0.16145800  0.76684200  1
