# generated using pymatgen
data_Fe2(SeO4)3
_symmetry_space_group_name_H-M   'P 1'
_cell_length_a   9.04765500
_cell_length_b   8.70214800
_cell_length_c   14.87791291
_cell_angle_alpha   55.34813071
_cell_angle_beta   90.00000000
_cell_angle_gamma   90.00000000
_symmetry_Int_Tables_number   1
_chemical_formula_structural   Fe2(SeO4)3
_chemical_formula_sum   'Fe8 Se12 O48'
_cell_volume   963.61779734
_cell_formula_units_Z   4
loop_
 _symmetry_equiv_pos_site_id
 _symmetry_equiv_pos_as_xyz
  1  'x, y, z'
loop_
 _atom_site_type_symbol
 _atom_site_label
 _atom_site_symmetry_multiplicity
 _atom_site_fract_x
 _atom_site_fract_y
 _atom_site_fract_z
 _atom_site_occupancy
  Fe  Fe0  1  0.46880100  0.86746600  0.38374700  1
  Fe  Fe1  1  0.96880100  0.13253400  0.11625300  1
  Fe  Fe2  1  0.53119900  0.13253400  0.61625300  1
  Fe  Fe3  1  0.03119900  0.86746600  0.88374700  1
  Fe  Fe4  1  0.03110500  0.63396300  0.61458100  1
  Fe  Fe5  1  0.53110500  0.36603700  0.88541900  1
  Fe  Fe6  1  0.96889500  0.36603700  0.38541900  1
  Fe  Fe7  1  0.46889500  0.63396300  0.11458100  1
  Se  Se8  1  0.25254900  0.45706200  0.50637900  1
  Se  Se9  1  0.75254900  0.54293800  0.99362100  1
  Se  Se10  1  0.74745100  0.54293800  0.49362100  1
  Se  Se11  1  0.24745100  0.45706200  0.00637900  1
  Se  Se12  1  0.37639700  0.74453400  0.65135200  1
  Se  Se13  1  0.87639700  0.25546600  0.84864800  1
  Se  Se14  1  0.62360300  0.25546600  0.34864800  1
  Se  Se15  1  0.12360300  0.74453400  0.15135200  1
  Se  Se16  1  0.11823600  0.03212000  0.35617800  1
  Se  Se17  1  0.61823600  0.96788000  0.14382200  1
  Se  Se18  1  0.88176400  0.96788000  0.64382200  1
  Se  Se19  1  0.38176400  0.03212000  0.85617800  1
  O  O20  1  0.12237400  0.49478300  0.41614900  1
  O  O21  1  0.62237400  0.50521700  0.08385100  1
  O  O22  1  0.87762600  0.50521700  0.58385100  1
  O  O23  1  0.37762600  0.49478300  0.91614900  1
  O  O24  1  0.18650000  0.45948000  0.61097200  1
  O  O25  1  0.68650000  0.54052000  0.88902800  1
  O  O26  1  0.81350000  0.54052000  0.38902800  1
  O  O27  1  0.31350000  0.45948000  0.11097200  1
  O  O28  1  0.32907500  0.24919600  0.55513000  1
  O  O29  1  0.82907500  0.75080400  0.94487000  1
  O  O30  1  0.67092500  0.75080400  0.44487000  1
  O  O31  1  0.17092500  0.24919600  0.05513000  1
  O  O32  1  0.37843000  0.62286600  0.43455400  1
  O  O33  1  0.87843000  0.37713400  0.06544600  1
  O  O34  1  0.62157000  0.37713400  0.56544600  1
  O  O35  1  0.12157000  0.62286600  0.93455400  1
  O  O36  1  0.47673300  0.54829900  0.72235600  1
  O  O37  1  0.97673300  0.45170100  0.77764400  1
  O  O38  1  0.52326700  0.45170100  0.27764400  1
  O  O39  1  0.02326700  0.54829900  0.22235600  1
  O  O40  1  0.42054700  0.88762300  0.68789400  1
  O  O41  1  0.92054700  0.11237700  0.81210600  1
  O  O42  1  0.57945300  0.11237700  0.31210600  1
  O  O43  1  0.07945300  0.88762300  0.18789400  1
  O  O44  1  0.40595700  0.85162200  0.51800900  1
  O  O45  1  0.90595700  0.14837800  0.98199100  1
  O  O46  1  0.59404300  0.14837800  0.48199100  1
  O  O47  1  0.09404300  0.85162200  0.01800900  1
  O  O48  1  0.19426500  0.70679100  0.67447400  1
  O  O49  1  0.69426500  0.29320900  0.82552600  1
  O  O50  1  0.80573500  0.29320900  0.32552600  1
  O  O51  1  0.30573500  0.70679100  0.17447400  1
  O  O52  1  0.99757300  0.11971600  0.25402800  1
  O  O53  1  0.49757300  0.88028400  0.24597200  1
  O  O54  1  0.00242700  0.88028400  0.74597200  1
  O  O55  1  0.50242700  0.11971600  0.75402800  1
  O  O56  1  0.07194000  0.81057300  0.45345000  1
  O  O57  1  0.57194000  0.18942700  0.04655000  1
  O  O58  1  0.92806000  0.18942700  0.54655000  1
  O  O59  1  0.42806000  0.81057300  0.95345000  1
  O  O60  1  0.11313100  0.16686100  0.40360600  1
  O  O61  1  0.61313100  0.83313900  0.09639400  1
  O  O62  1  0.88686900  0.83313900  0.59639400  1
  O  O63  1  0.38686900  0.16686100  0.90360600  1
  O  O64  1  0.28645000  0.03213300  0.31035400  1
  O  O65  1  0.78645000  0.96786700  0.18964600  1
  O  O66  1  0.71355000  0.96786700  0.68964600  1
  O  O67  1  0.21355000  0.03213300  0.81035400  1
