# generated using pymatgen
data_La5Ti5O17
_symmetry_space_group_name_H-M   'P 1'
_cell_length_a   5.56587900
_cell_length_b   7.88957700
_cell_length_c   31.92568810
_cell_angle_alpha   82.90934312
_cell_angle_beta   90.00000000
_cell_angle_gamma   90.00000000
_symmetry_Int_Tables_number   1
_chemical_formula_structural   La5Ti5O17
_chemical_formula_sum   'La20 Ti20 O68'
_cell_volume   1391.21269091
_cell_formula_units_Z   4
loop_
 _symmetry_equiv_pos_site_id
 _symmetry_equiv_pos_as_xyz
  1  'x, y, z'
loop_
 _atom_site_type_symbol
 _atom_site_label
 _atom_site_symmetry_multiplicity
 _atom_site_fract_x
 _atom_site_fract_y
 _atom_site_fract_z
 _atom_site_occupancy
  La  La0  1  0.04743000  0.35673500  0.29390900  1
  La  La1  1  0.45257000  0.35673500  0.79390900  1
  La  La2  1  0.90875600  0.14310900  0.71724300  1
  La  La3  1  0.50201000  0.70236300  0.59409300  1
  La  La4  1  0.49909900  0.25209900  0.99624400  1
  La  La5  1  0.09124400  0.85689100  0.28275700  1
  La  La6  1  0.40875600  0.85689100  0.78275700  1
  La  La7  1  0.49875600  0.20693300  0.58714900  1
  La  La8  1  0.00090100  0.25209900  0.49624400  1
  La  La9  1  0.00201000  0.29763700  0.90590700  1
  La  La10  1  0.50124400  0.79306700  0.41285100  1
  La  La11  1  0.99799000  0.70236300  0.09409300  1
  La  La12  1  0.50090100  0.74790100  0.00375600  1
  La  La13  1  0.49799000  0.29763700  0.40590700  1
  La  La14  1  0.59124400  0.14310900  0.21724300  1
  La  La15  1  0.00124400  0.20693300  0.08714900  1
  La  La16  1  0.95257000  0.64326500  0.70609100  1
  La  La17  1  0.99909900  0.74790100  0.50375600  1
  La  La18  1  0.99875600  0.79306700  0.91285100  1
  La  La19  1  0.54743000  0.64326500  0.20609100  1
  Ti  Ti20  1  0.00933600  0.54507000  0.40689700  1
  Ti  Ti21  1  0.51028900  0.95274500  0.09250300  1
  Ti  Ti22  1  0.99066400  0.45493000  0.59310300  1
  Ti  Ti23  1  0.49066400  0.54507000  0.90689700  1
  Ti  Ti24  1  0.50933600  0.45493000  0.09310300  1
  Ti  Ti25  1  0.45827300  0.40941400  0.67804000  1
  Ti  Ti26  1  0.54172700  0.59058600  0.32196000  1
  Ti  Ti27  1  0.95827300  0.59058600  0.82196000  1
  Ti  Ti28  1  0.46321400  0.91443100  0.67668200  1
  Ti  Ti29  1  0.48971100  0.04725500  0.90749700  1
  Ti  Ti30  1  0.50000000  0.50000000  0.50000000  1
  Ti  Ti31  1  0.98971100  0.95274500  0.59250300  1
  Ti  Ti32  1  0.96321400  0.08556900  0.82331800  1
  Ti  Ti33  1  0.03678600  0.91443100  0.17668200  1
  Ti  Ti34  1  0.00000000  0.00000000  0.00000000  1
  Ti  Ti35  1  0.50000000  0.00000000  0.50000000  1
  Ti  Ti36  1  0.53678600  0.08556900  0.32331800  1
  Ti  Ti37  1  0.00000000  0.50000000  0.00000000  1
  Ti  Ti38  1  0.04172700  0.40941400  0.17804000  1
  Ti  Ti39  1  0.01028900  0.04725500  0.40749700  1
  O  O40  1  0.20032500  0.90966800  0.71201800  1
  O  O41  1  0.94206600  0.25025900  0.99963900  1
  O  O42  1  0.28321800  0.50289700  0.44907900  1
  O  O43  1  0.80820800  0.57438200  0.88015000  1
  O  O44  1  0.45281500  0.79425800  0.91062800  1
  O  O45  1  0.29404400  0.51920600  0.86217900  1
  O  O46  1  0.69179200  0.57438200  0.38015000  1
  O  O47  1  0.21678200  0.50289700  0.94907900  1
  O  O48  1  0.04718500  0.79425800  0.41062800  1
  O  O49  1  0.80417200  0.04504500  0.87970800  1
  O  O50  1  0.54279400  0.16569400  0.66927400  1
  O  O51  1  0.07193100  0.66334300  0.17201000  1
  O  O52  1  0.31405300  0.12402900  0.27855100  1
  O  O53  1  0.57193100  0.33665700  0.32799000  1
  O  O54  1  0.05793400  0.74974100  0.00036100  1
  O  O55  1  0.79967500  0.09033200  0.28798200  1
  O  O56  1  0.95720600  0.16569400  0.16927400  1
  O  O57  1  0.28777900  0.11703000  0.86339600  1
  O  O58  1  0.43816800  0.70983900  0.08014600  1
  O  O59  1  0.69582800  0.04504500  0.37970800  1
  O  O60  1  0.19582800  0.95495500  0.12029200  1
  O  O61  1  0.30820800  0.42561800  0.61985000  1
  O  O62  1  0.28348600  0.44782000  0.03554600  1
  O  O63  1  0.28169700  0.04782500  0.44965700  1
  O  O64  1  0.04279400  0.83430600  0.83072600  1
  O  O65  1  0.21222100  0.11703000  0.36339600  1
  O  O66  1  0.70032500  0.09033200  0.78798200  1
  O  O67  1  0.29967500  0.90966800  0.21201800  1
  O  O68  1  0.55793400  0.25025900  0.49963900  1
  O  O69  1  0.42806900  0.66334300  0.67201000  1
  O  O70  1  0.93816800  0.29016100  0.41985400  1
  O  O71  1  0.21732800  0.01683900  0.53588200  1
  O  O72  1  0.78777900  0.88297000  0.63660400  1
  O  O73  1  0.82503100  0.39938800  0.22515400  1
  O  O74  1  0.21830300  0.04782500  0.94965700  1
  O  O75  1  0.78348600  0.55218000  0.46445400  1
  O  O76  1  0.95281500  0.20574200  0.58937200  1
  O  O77  1  0.78267200  0.98316100  0.46411800  1
  O  O78  1  0.70595600  0.48079400  0.13782100  1
  O  O79  1  0.20595600  0.51920600  0.36217900  1
  O  O80  1  0.81539700  0.62165100  0.29231300  1
  O  O81  1  0.71830300  0.95217500  0.55034300  1
  O  O82  1  0.71732800  0.98316100  0.96411800  1
  O  O83  1  0.71651400  0.55218000  0.96445400  1
  O  O84  1  0.54718500  0.20574200  0.08937200  1
  O  O85  1  0.17496900  0.60061200  0.77484600  1
  O  O86  1  0.68460300  0.62165100  0.79231300  1
  O  O87  1  0.28267200  0.01683900  0.03588200  1
  O  O88  1  0.18460300  0.37834900  0.70768700  1
  O  O89  1  0.92806900  0.33665700  0.82799000  1
  O  O90  1  0.68594700  0.87597100  0.72144900  1
  O  O91  1  0.19179200  0.42561800  0.11985000  1
  O  O92  1  0.81405300  0.87597100  0.22144900  1
  O  O93  1  0.45720600  0.83430600  0.33072600  1
  O  O94  1  0.71678200  0.49710300  0.55092100  1
  O  O95  1  0.30417200  0.95495500  0.62029200  1
  O  O96  1  0.31539700  0.37834900  0.20768700  1
  O  O97  1  0.18594700  0.12402900  0.77855100  1
  O  O98  1  0.79404400  0.48079400  0.63782100  1
  O  O99  1  0.78169700  0.95217500  0.05034300  1
  O  O100  1  0.32503100  0.60061200  0.27484600  1
  O  O101  1  0.06183200  0.70983900  0.58014600  1
  O  O102  1  0.71222100  0.88297000  0.13660400  1
  O  O103  1  0.67496900  0.39938800  0.72515400  1
  O  O104  1  0.21651400  0.44782000  0.53554600  1
  O  O105  1  0.44206600  0.74974100  0.50036100  1
  O  O106  1  0.56183200  0.29016100  0.91985400  1
  O  O107  1  0.78321800  0.49710300  0.05092100  1
