# generated using pymatgen
data_NdCu(MoO4)2
_symmetry_space_group_name_H-M   'P 1'
_cell_length_a   10.05556000
_cell_length_b   10.49166400
_cell_length_c   14.96714200
_cell_angle_alpha   90.00000000
_cell_angle_beta   90.00000000
_cell_angle_gamma   90.00000000
_symmetry_Int_Tables_number   1
_chemical_formula_structural   NdCu(MoO4)2
_chemical_formula_sum   'Nd8 Cu8 Mo16 O64'
_cell_volume   1579.02684834
_cell_formula_units_Z   8
loop_
 _symmetry_equiv_pos_site_id
 _symmetry_equiv_pos_as_xyz
  1  'x, y, z'
loop_
 _atom_site_type_symbol
 _atom_site_label
 _atom_site_symmetry_multiplicity
 _atom_site_fract_x
 _atom_site_fract_y
 _atom_site_fract_z
 _atom_site_occupancy
  Nd  Nd0  1  0.77736800  0.03497000  0.89633500  1
  Nd  Nd1  1  0.77736800  0.53497000  0.60366500  1
  Nd  Nd2  1  0.22263200  0.46503000  0.39633500  1
  Nd  Nd3  1  0.72263200  0.03497000  0.39633500  1
  Nd  Nd4  1  0.72263200  0.53497000  0.10366500  1
  Nd  Nd5  1  0.27736800  0.46503000  0.89633500  1
  Nd  Nd6  1  0.27736800  0.96503000  0.60366500  1
  Nd  Nd7  1  0.22263200  0.96503000  0.10366500  1
  Cu  Cu8  1  0.69351300  0.68149400  0.30562700  1
  Cu  Cu9  1  0.19351300  0.31850600  0.19437300  1
  Cu  Cu10  1  0.69351300  0.18149400  0.19437300  1
  Cu  Cu11  1  0.30648700  0.31850600  0.69437300  1
  Cu  Cu12  1  0.80648700  0.18149400  0.69437300  1
  Cu  Cu13  1  0.30648700  0.81850600  0.80562700  1
  Cu  Cu14  1  0.80648700  0.68149400  0.80562700  1
  Cu  Cu15  1  0.19351300  0.81850600  0.30562700  1
  Mo  Mo16  1  0.32894700  0.60262500  0.15335400  1
  Mo  Mo17  1  0.99810300  0.22077400  0.55816300  1
  Mo  Mo18  1  0.00189700  0.77922600  0.44183700  1
  Mo  Mo19  1  0.82894700  0.89737500  0.15335400  1
  Mo  Mo20  1  0.67105300  0.39737500  0.84664600  1
  Mo  Mo21  1  0.17105300  0.60262500  0.65335400  1
  Mo  Mo22  1  0.67105300  0.89737500  0.65335400  1
  Mo  Mo23  1  0.82894700  0.39737500  0.34664600  1
  Mo  Mo24  1  0.32894700  0.10262500  0.34664600  1
  Mo  Mo25  1  0.50189700  0.22077400  0.05816300  1
  Mo  Mo26  1  0.99810300  0.72077400  0.94183700  1
  Mo  Mo27  1  0.17105300  0.10262500  0.84664600  1
  Mo  Mo28  1  0.50189700  0.72077400  0.44183700  1
  Mo  Mo29  1  0.49810300  0.27922600  0.55816300  1
  Mo  Mo30  1  0.49810300  0.77922600  0.94183700  1
  Mo  Mo31  1  0.00189700  0.27922600  0.05816300  1
  O  O32  1  0.78631900  0.42291300  0.46042400  1
  O  O33  1  0.59299000  0.13427100  0.97588100  1
  O  O34  1  0.61367500  0.31641700  0.13160000  1
  O  O35  1  0.60546200  0.66762000  0.99571800  1
  O  O36  1  0.10546200  0.33238000  0.50428200  1
  O  O37  1  0.38632500  0.18358300  0.63160000  1
  O  O38  1  0.71368100  0.42291300  0.96042400  1
  O  O39  1  0.09850600  0.11491300  0.62416200  1
  O  O40  1  0.90149400  0.38508700  0.12416200  1
  O  O41  1  0.27420000  0.76184100  0.18338400  1
  O  O42  1  0.49555600  0.91237200  0.66536500  1
  O  O43  1  0.49555600  0.41237200  0.83463500  1
  O  O44  1  0.90701000  0.13427100  0.47588100  1
  O  O45  1  0.11367500  0.18358300  0.13160000  1
  O  O46  1  0.39453800  0.33238000  0.00428200  1
  O  O47  1  0.00444400  0.41237200  0.33463500  1
  O  O48  1  0.59299000  0.63427100  0.52411900  1
  O  O49  1  0.25555800  0.48718600  0.72656400  1
  O  O50  1  0.24444200  0.98718600  0.27343600  1
  O  O51  1  0.90701000  0.63427100  0.02411900  1
  O  O52  1  0.89453800  0.66762000  0.49571800  1
  O  O53  1  0.99555600  0.08762800  0.83463500  1
  O  O54  1  0.09299000  0.36572900  0.97588100  1
  O  O55  1  0.88632500  0.81641700  0.86840000  1
  O  O56  1  0.74444200  0.51281400  0.27343600  1
  O  O57  1  0.11367500  0.68358300  0.36840000  1
  O  O58  1  0.50444400  0.58762800  0.16536500  1
  O  O59  1  0.40701000  0.36572900  0.47588100  1
  O  O60  1  0.72580000  0.23815900  0.81661600  1
  O  O61  1  0.88632500  0.31641700  0.63160000  1
  O  O62  1  0.72580000  0.73815900  0.68338400  1
  O  O63  1  0.21368100  0.07708700  0.96042400  1
  O  O64  1  0.22580000  0.26184100  0.81661600  1
  O  O65  1  0.28631900  0.57708700  0.03957600  1
  O  O66  1  0.89453800  0.16762000  0.00428200  1
  O  O67  1  0.77420000  0.73815900  0.18338400  1
  O  O68  1  0.39453800  0.83238000  0.49571800  1
  O  O69  1  0.59850600  0.88508700  0.87583800  1
  O  O70  1  0.60546200  0.16762000  0.50428200  1
  O  O71  1  0.99555600  0.58762800  0.66536500  1
  O  O72  1  0.25555800  0.98718600  0.77343600  1
  O  O73  1  0.09850600  0.61491300  0.87583800  1
  O  O74  1  0.75555800  0.51281400  0.77343600  1
  O  O75  1  0.40701000  0.86572900  0.02411900  1
  O  O76  1  0.38632500  0.68358300  0.86840000  1
  O  O77  1  0.21368100  0.57708700  0.53957600  1
  O  O78  1  0.61367500  0.81641700  0.36840000  1
  O  O79  1  0.00444400  0.91237200  0.16536500  1
  O  O80  1  0.59850600  0.38508700  0.62416200  1
  O  O81  1  0.10546200  0.83238000  0.99571800  1
  O  O82  1  0.28631900  0.07708700  0.46042400  1
  O  O83  1  0.78631900  0.92291300  0.03957600  1
  O  O84  1  0.75555800  0.01281400  0.72656400  1
  O  O85  1  0.90149400  0.88508700  0.37583800  1
  O  O86  1  0.40149400  0.61491300  0.37583800  1
  O  O87  1  0.71368100  0.92291300  0.53957600  1
  O  O88  1  0.22580000  0.76184100  0.68338400  1
  O  O89  1  0.40149400  0.11491300  0.12416200  1
  O  O90  1  0.77420000  0.23815900  0.31661600  1
  O  O91  1  0.27420000  0.26184100  0.31661600  1
  O  O92  1  0.24444200  0.48718600  0.22656400  1
  O  O93  1  0.74444200  0.01281400  0.22656400  1
  O  O94  1  0.50444400  0.08762800  0.33463500  1
  O  O95  1  0.09299000  0.86572900  0.52411900  1
