# generated using pymatgen
data_CsCr5Se8
_symmetry_space_group_name_H-M   'P 1'
_cell_length_a   9.72827381
_cell_length_b   9.72827381
_cell_length_c   9.22482694
_cell_angle_alpha   75.69617970
_cell_angle_beta   75.69617970
_cell_angle_gamma   22.02696211
_symmetry_Int_Tables_number   1
_chemical_formula_structural   CsCr5Se8
_chemical_formula_sum   'Cs1 Cr5 Se8'
_cell_volume   316.88288156
_cell_formula_units_Z   1
loop_
 _symmetry_equiv_pos_site_id
 _symmetry_equiv_pos_as_xyz
  1  'x, y, z'
loop_
 _atom_site_type_symbol
 _atom_site_label
 _atom_site_symmetry_multiplicity
 _atom_site_fract_x
 _atom_site_fract_y
 _atom_site_fract_z
 _atom_site_occupancy
  Cs  Cs0  1  0.50000000  0.50000000  0.50000000  1
  Cr  Cr1  1  0.00000000  0.00000000  0.00000000  1
  Cr  Cr2  1  0.65974600  0.65974600  0.01646600  1
  Cr  Cr3  1  0.34025400  0.34025400  0.98353400  1
  Cr  Cr4  1  0.29551100  0.29551100  0.33415300  1
  Cr  Cr5  1  0.70448900  0.70448900  0.66584700  1
  Se  Se6  1  0.57499100  0.57499100  0.84681600  1
  Se  Se7  1  0.42500900  0.42500900  0.15318400  1
  Se  Se8  1  0.91095200  0.91095200  0.83721900  1
  Se  Se9  1  0.08904800  0.08904800  0.16278100  1
  Se  Se10  1  0.82735500  0.82735500  0.48827200  1
  Se  Se11  1  0.17264500  0.17264500  0.51172800  1
  Se  Se12  1  0.23921200  0.23921200  0.84197800  1
  Se  Se13  1  0.76078800  0.76078800  0.15802200  1
