# generated using pymatgen
data_La3GaS5O
_symmetry_space_group_name_H-M   'P 1'
_cell_length_a   4.04931300
_cell_length_b   10.85557100
_cell_length_c   20.06910800
_cell_angle_alpha   90.00000000
_cell_angle_beta   90.00000000
_cell_angle_gamma   90.00000000
_symmetry_Int_Tables_number   1
_chemical_formula_structural   La3GaS5O
_chemical_formula_sum   'La12 Ga4 S20 O4'
_cell_volume   882.18991761
_cell_formula_units_Z   4
loop_
 _symmetry_equiv_pos_site_id
 _symmetry_equiv_pos_as_xyz
  1  'x, y, z'
loop_
 _atom_site_type_symbol
 _atom_site_label
 _atom_site_symmetry_multiplicity
 _atom_site_fract_x
 _atom_site_fract_y
 _atom_site_fract_z
 _atom_site_occupancy
  La  La0  1  0.75000000  0.09941800  0.33684600  1
  La  La1  1  0.25000000  0.02032900  0.89703800  1
  La  La2  1  0.25000000  0.64734800  0.99032300  1
  La  La3  1  0.75000000  0.35265200  0.00967700  1
  La  La4  1  0.25000000  0.14734800  0.50967700  1
  La  La5  1  0.75000000  0.47967100  0.39703800  1
  La  La6  1  0.75000000  0.85265200  0.49032300  1
  La  La7  1  0.25000000  0.40058200  0.83684600  1
  La  La8  1  0.75000000  0.59941800  0.16315400  1
  La  La9  1  0.25000000  0.90058200  0.66315400  1
  La  La10  1  0.75000000  0.97967100  0.10296200  1
  La  La11  1  0.25000000  0.52032900  0.60296200  1
  Ga  Ga12  1  0.25000000  0.29351300  0.21059900  1
  Ga  Ga13  1  0.75000000  0.70648700  0.78940100  1
  Ga  Ga14  1  0.75000000  0.20648700  0.71059900  1
  Ga  Ga15  1  0.25000000  0.79351300  0.28940100  1
  S  S16  1  0.75000000  0.87266700  0.96546200  1
  S  S17  1  0.75000000  0.58475800  0.87996800  1
  S  S18  1  0.25000000  0.64769300  0.73818800  1
  S  S19  1  0.75000000  0.72155700  0.61538100  1
  S  S20  1  0.25000000  0.08794700  0.21199700  1
  S  S21  1  0.25000000  0.27844300  0.38461900  1
  S  S22  1  0.25000000  0.91524200  0.37996800  1
  S  S23  1  0.25000000  0.62733300  0.46546200  1
  S  S24  1  0.25000000  0.14769300  0.76181200  1
  S  S25  1  0.25000000  0.58794700  0.28800300  1
  S  S26  1  0.25000000  0.12733300  0.03453800  1
  S  S27  1  0.25000000  0.77844300  0.11538100  1
  S  S28  1  0.75000000  0.08475800  0.62003200  1
  S  S29  1  0.75000000  0.22155700  0.88461900  1
  S  S30  1  0.75000000  0.37266700  0.53453800  1
  S  S31  1  0.75000000  0.91205300  0.78800300  1
  S  S32  1  0.25000000  0.41524200  0.12003200  1
  S  S33  1  0.75000000  0.35230700  0.26181200  1
  S  S34  1  0.75000000  0.85230700  0.23818800  1
  S  S35  1  0.75000000  0.41205300  0.71199700  1
  O  O36  1  0.25000000  0.42516600  0.95790500  1
  O  O37  1  0.75000000  0.57483400  0.04209500  1
  O  O38  1  0.75000000  0.07483400  0.45790500  1
  O  O39  1  0.25000000  0.92516600  0.54209500  1
