# generated using pymatgen
data_UTlH(SeO4)2
_symmetry_space_group_name_H-M   'P 1'
_cell_length_a   10.40283000
_cell_length_b   8.56306900
_cell_length_c   12.74207191
_cell_angle_alpha   52.86295401
_cell_angle_beta   90.00000000
_cell_angle_gamma   90.00000000
_symmetry_Int_Tables_number   1
_chemical_formula_structural   UTlH(SeO4)2
_chemical_formula_sum   'U4 Tl4 H4 Se8 O32'
_cell_volume   904.86726671
_cell_formula_units_Z   4
loop_
 _symmetry_equiv_pos_site_id
 _symmetry_equiv_pos_as_xyz
  1  'x, y, z'
loop_
 _atom_site_type_symbol
 _atom_site_label
 _atom_site_symmetry_multiplicity
 _atom_site_fract_x
 _atom_site_fract_y
 _atom_site_fract_z
 _atom_site_occupancy
  U  U0  1  0.29075000  0.18973100  0.18447300  1
  U  U1  1  0.79075000  0.81026900  0.31552700  1
  U  U2  1  0.70925000  0.81026900  0.81552700  1
  U  U3  1  0.20925000  0.18973100  0.68447300  1
  Tl  Tl4  1  0.05171900  0.73318700  0.04596400  1
  Tl  Tl5  1  0.55171900  0.26681300  0.45403600  1
  Tl  Tl6  1  0.94828100  0.26681300  0.95403600  1
  Tl  Tl7  1  0.44828100  0.73318700  0.54596400  1
  H  H8  1  0.35446600  0.59031900  0.16875500  1
  H  H9  1  0.85446600  0.40968100  0.33124500  1
  H  H10  1  0.64553400  0.40968100  0.83124500  1
  H  H11  1  0.14553400  0.59031900  0.66875500  1
  Se  Se12  1  0.47351100  0.80798400  0.18532700  1
  Se  Se13  1  0.97351100  0.19201600  0.31467300  1
  Se  Se14  1  0.52648900  0.19201600  0.81467300  1
  Se  Se15  1  0.02648900  0.80798400  0.68532700  1
  Se  Se16  1  0.62213200  0.29025800  0.09483200  1
  Se  Se17  1  0.12213200  0.70974200  0.40516800  1
  Se  Se18  1  0.37786800  0.70974200  0.90516800  1
  Se  Se19  1  0.87786800  0.29025800  0.59483200  1
  O  O20  1  0.36869400  0.60358500  0.24134400  1
  O  O21  1  0.86869400  0.39641500  0.25865600  1
  O  O22  1  0.63130600  0.39641500  0.75865600  1
  O  O23  1  0.13130600  0.60358500  0.74134400  1
  O  O24  1  0.39539000  0.88578100  0.26412000  1
  O  O25  1  0.89539000  0.11421900  0.23588000  1
  O  O26  1  0.60461000  0.11421900  0.73588000  1
  O  O27  1  0.10461000  0.88578100  0.76412000  1
  O  O28  1  0.46669400  0.28782000  0.04495000  1
  O  O29  1  0.96669400  0.71218000  0.45505000  1
  O  O30  1  0.53330600  0.71218000  0.95505000  1
  O  O31  1  0.03330600  0.28782000  0.54495000  1
  O  O32  1  0.67497600  0.06961100  0.13294400  1
  O  O33  1  0.17497600  0.93038900  0.36705600  1
  O  O34  1  0.32502400  0.93038900  0.86705600  1
  O  O35  1  0.82502400  0.06961100  0.63294400  1
  O  O36  1  0.30309400  0.54923600  0.05638100  1
  O  O37  1  0.80309400  0.45076400  0.44361900  1
  O  O38  1  0.69690600  0.45076400  0.94361900  1
  O  O39  1  0.19690600  0.54923600  0.55638100  1
  O  O40  1  0.09911500  0.32491200  0.21052400  1
  O  O41  1  0.59911500  0.67508800  0.28947600  1
  O  O42  1  0.90088500  0.67508800  0.78947600  1
  O  O43  1  0.40088500  0.32491200  0.71052400  1
  O  O44  1  0.39341800  0.18900000  0.30157000  1
  O  O45  1  0.89341800  0.81100000  0.19843000  1
  O  O46  1  0.60658200  0.81100000  0.69843000  1
  O  O47  1  0.10658200  0.18900000  0.80157000  1
  O  O48  1  0.19819700  0.18010200  0.06674200  1
  O  O49  1  0.69819700  0.81989800  0.43325800  1
  O  O50  1  0.80180300  0.81989800  0.93325800  1
  O  O51  1  0.30180300  0.18010200  0.56674200  1
