# generated using pymatgen
data_CsUVO6
_symmetry_space_group_name_H-M   'P 1'
_cell_length_a   8.49540600
_cell_length_b   7.83956500
_cell_length_c   10.62829446
_cell_angle_alpha   73.92977387
_cell_angle_beta   90.00000000
_cell_angle_gamma   90.00000000
_symmetry_Int_Tables_number   1
_chemical_formula_structural   CsUVO6
_chemical_formula_sum   'Cs4 U4 V4 O24'
_cell_volume   680.18700502
_cell_formula_units_Z   4
loop_
 _symmetry_equiv_pos_site_id
 _symmetry_equiv_pos_as_xyz
  1  'x, y, z'
loop_
 _atom_site_type_symbol
 _atom_site_label
 _atom_site_symmetry_multiplicity
 _atom_site_fract_x
 _atom_site_fract_y
 _atom_site_fract_z
 _atom_site_occupancy
  Cs  Cs0  1  0.26707800  0.53450700  0.13573300  1
  Cs  Cs1  1  0.76707800  0.46549300  0.36426700  1
  Cs  Cs2  1  0.73292200  0.46549300  0.86426700  1
  Cs  Cs3  1  0.23292200  0.53450700  0.63573300  1
  U  U4  1  0.48170500  0.98957200  0.31985900  1
  U  U5  1  0.98170500  0.01042800  0.18014100  1
  U  U6  1  0.51829500  0.01042800  0.68014100  1
  U  U7  1  0.01829500  0.98957200  0.81985900  1
  V  V8  1  0.14782300  0.09942700  0.44245200  1
  V  V9  1  0.64782300  0.90057300  0.05754800  1
  V  V10  1  0.85217700  0.90057300  0.55754800  1
  V  V11  1  0.35217700  0.09942700  0.94245200  1
  O  O12  1  0.44019800  0.75107600  0.38020700  1
  O  O13  1  0.94019800  0.24892400  0.11979300  1
  O  O14  1  0.55980200  0.24892400  0.61979300  1
  O  O15  1  0.05980200  0.75107600  0.88020700  1
  O  O16  1  0.02579300  0.77313300  0.23984700  1
  O  O17  1  0.52579300  0.22686700  0.26015300  1
  O  O18  1  0.97420700  0.22686700  0.76015300  1
  O  O19  1  0.47420700  0.77313300  0.73984700  1
  O  O20  1  0.34498400  0.02906700  0.50499900  1
  O  O21  1  0.84498400  0.97093300  0.99500100  1
  O  O22  1  0.65501600  0.97093300  0.49500100  1
  O  O23  1  0.15501600  0.02906700  0.00499900  1
  O  O24  1  0.13383000  0.31308300  0.42982200  1
  O  O25  1  0.63383000  0.68691700  0.07017800  1
  O  O26  1  0.86617000  0.68691700  0.57017800  1
  O  O27  1  0.36617000  0.31308300  0.92982200  1
  O  O28  1  0.44038900  0.96912500  0.10703300  1
  O  O29  1  0.94038900  0.03087500  0.39296700  1
  O  O30  1  0.55961100  0.03087500  0.89296700  1
  O  O31  1  0.05961100  0.96912500  0.60703300  1
  O  O32  1  0.21138300  0.07275100  0.28282500  1
  O  O33  1  0.71138300  0.92724900  0.21717500  1
  O  O34  1  0.78861700  0.92724900  0.71717500  1
  O  O35  1  0.28861700  0.07275100  0.78282500  1
