# generated using pymatgen
data_La5(BN3)2
_symmetry_space_group_name_H-M   'P 1'
_cell_length_a   6.54872486
_cell_length_b   6.54872486
_cell_length_c   9.06257191
_cell_angle_alpha   75.04664355
_cell_angle_beta   75.04664355
_cell_angle_gamma   32.87560450
_symmetry_Int_Tables_number   1
_chemical_formula_structural   La5(BN3)2
_chemical_formula_sum   'La5 B2 N6'
_cell_volume   203.19088917
_cell_formula_units_Z   1
loop_
 _symmetry_equiv_pos_site_id
 _symmetry_equiv_pos_as_xyz
  1  'x, y, z'
loop_
 _atom_site_type_symbol
 _atom_site_label
 _atom_site_symmetry_multiplicity
 _atom_site_fract_x
 _atom_site_fract_y
 _atom_site_fract_z
 _atom_site_occupancy
  La  La0  1  0.62470200  0.62470200  0.62529100  1
  La  La1  1  0.30828300  0.30828300  0.81896400  1
  La  La2  1  0.00000000  0.00000000  0.00000000  1
  La  La3  1  0.69171700  0.69171700  0.18103600  1
  La  La4  1  0.37529800  0.37529800  0.37470900  1
  B  B5  1  0.05480000  0.05480000  0.41078500  1
  B  B6  1  0.94520000  0.94520000  0.58921500  1
  N  N7  1  0.02563400  0.02563400  0.26331100  1
  N  N8  1  0.34387600  0.34387600  0.07799200  1
  N  N9  1  0.82863000  0.82863000  0.58318800  1
  N  N10  1  0.97436600  0.97436600  0.73668900  1
  N  N11  1  0.65612400  0.65612400  0.92200800  1
  N  N12  1  0.17137000  0.17137000  0.41681200  1
