# generated using pymatgen
data_Y(PO3)3
_symmetry_space_group_name_H-M   'P 1'
_cell_length_a   13.05359390
_cell_length_b   13.05359390
_cell_length_c   13.05359428
_cell_angle_alpha   110.46438115
_cell_angle_beta   110.46438115
_cell_angle_gamma   110.46437827
_symmetry_Int_Tables_number   1
_chemical_formula_structural   Y(PO3)3
_chemical_formula_sum   'Y8 P24 O72'
_cell_volume   1646.28961179
_cell_formula_units_Z   8
loop_
 _symmetry_equiv_pos_site_id
 _symmetry_equiv_pos_as_xyz
  1  'x, y, z'
loop_
 _atom_site_type_symbol
 _atom_site_label
 _atom_site_symmetry_multiplicity
 _atom_site_fract_x
 _atom_site_fract_y
 _atom_site_fract_z
 _atom_site_occupancy
  Y  Y0  1  0.50000000  0.50000000  0.50000000  1
  Y  Y1  1  0.53748500  0.73139300  0.02062700  1
  Y  Y2  1  0.26860700  0.97937300  0.46251500  1
  Y  Y3  1  0.97937300  0.46251500  0.26860700  1
  Y  Y4  1  0.02062700  0.53748500  0.73139300  1
  Y  Y5  1  0.00000000  0.00000000  0.00000000  1
  Y  Y6  1  0.46251500  0.26860700  0.97937300  1
  Y  Y7  1  0.73139300  0.02062700  0.53748500  1
  P  P8  1  0.23324900  0.93113700  0.71363700  1
  P  P9  1  0.67307300  0.62427600  0.21040200  1
  P  P10  1  0.73005300  0.48090600  0.73224700  1
  P  P11  1  0.26994700  0.51909400  0.26775300  1
  P  P12  1  0.78959800  0.32692700  0.37572400  1
  P  P13  1  0.26775300  0.26994700  0.51909400  1
  P  P14  1  0.48090600  0.73224700  0.73005300  1
  P  P15  1  0.71363700  0.23324900  0.93113700  1
  P  P16  1  0.29909600  0.01759100  0.20029100  1
  P  P17  1  0.06886300  0.28636300  0.76675100  1
  P  P18  1  0.20029100  0.29909600  0.01759100  1
  P  P19  1  0.37572400  0.78959800  0.32692700  1
  P  P20  1  0.62427600  0.21040200  0.67307300  1
  P  P21  1  0.73224700  0.73005300  0.48090600  1
  P  P22  1  0.28636300  0.76675100  0.06886300  1
  P  P23  1  0.76675100  0.06886300  0.28636300  1
  P  P24  1  0.93113700  0.71363700  0.23324900  1
  P  P25  1  0.51909400  0.26775300  0.26994700  1
  P  P26  1  0.21040200  0.67307300  0.62427600  1
  P  P27  1  0.98240900  0.79970900  0.70090400  1
  P  P28  1  0.32692700  0.37572400  0.78959800  1
  P  P29  1  0.01759100  0.20029100  0.29909600  1
  P  P30  1  0.79970900  0.70090400  0.98240900  1
  P  P31  1  0.70090400  0.98240900  0.79970900  1
  O  O32  1  0.72811900  0.56099600  0.85579500  1
  O  O33  1  0.62512900  0.33787100  0.68673400  1
  O  O34  1  0.91289300  0.12000200  0.32252700  1
  O  O35  1  0.06088400  0.39665200  0.76300400  1
  O  O36  1  0.17807700  0.60214200  0.68852800  1
  O  O37  1  0.14420500  0.27188100  0.43900400  1
  O  O38  1  0.38032900  0.51329700  0.88814500  1
  O  O39  1  0.28735800  0.99874900  0.30332800  1
  O  O40  1  0.08710700  0.87999800  0.67747300  1
  O  O41  1  0.93911600  0.60334800  0.23699600  1
  O  O42  1  0.61967100  0.48670300  0.11185500  1
  O  O43  1  0.14058600  0.50319400  0.23050300  1
  O  O44  1  0.36865200  0.32729700  0.49188700  1
  O  O45  1  0.66212900  0.31326600  0.37487100  1
  O  O46  1  0.67747300  0.08710700  0.87999800  1
  O  O47  1  0.80572400  0.97835100  0.89128000  1
  O  O48  1  0.67270300  0.50811300  0.63134800  1
  O  O49  1  0.68852800  0.17807700  0.60214200  1
  O  O50  1  0.84661000  0.32350300  0.05134600  1
  O  O51  1  0.12000200  0.32252700  0.91289300  1
  O  O52  1  0.82121900  0.72088600  0.25834800  1
  O  O53  1  0.27911400  0.74165200  0.17878100  1
  O  O54  1  0.00125100  0.69667200  0.71264200  1
  O  O55  1  0.02164900  0.10872000  0.19427600  1
  O  O56  1  0.10872000  0.19427600  0.02164900  1
  O  O57  1  0.56099600  0.85579500  0.72811900  1
  O  O58  1  0.63134800  0.67270300  0.50811300  1
  O  O59  1  0.15339000  0.67649700  0.94865400  1
  O  O60  1  0.48670300  0.11185500  0.61967100  1
  O  O61  1  0.67649700  0.94865400  0.15339000  1
  O  O62  1  0.99874900  0.30332800  0.28735800  1
  O  O63  1  0.32350300  0.05134600  0.84661000  1
  O  O64  1  0.60214200  0.68852800  0.17807700  1
  O  O65  1  0.23699600  0.93911600  0.60334800  1
  O  O66  1  0.85941400  0.49680600  0.76949700  1
  O  O67  1  0.60334800  0.23699600  0.93911600  1
  O  O68  1  0.43900400  0.14420500  0.27188100  1
  O  O69  1  0.27188100  0.43900400  0.14420500  1
  O  O70  1  0.76949700  0.85941400  0.49680600  1
  O  O71  1  0.51329700  0.88814500  0.38032900  1
  O  O72  1  0.31147200  0.82192300  0.39785800  1
  O  O73  1  0.39665200  0.76300400  0.06088400  1
  O  O74  1  0.39785800  0.31147200  0.82192300  1
  O  O75  1  0.49188700  0.36865200  0.32729700  1
  O  O76  1  0.97835100  0.89128000  0.80572400  1
  O  O77  1  0.76300400  0.06088400  0.39665200  1
  O  O78  1  0.05134600  0.84661000  0.32350300  1
  O  O79  1  0.30332800  0.28735800  0.99874900  1
  O  O80  1  0.31326600  0.37487100  0.66212900  1
  O  O81  1  0.71264200  0.00125100  0.69667200  1
  O  O82  1  0.72088600  0.25834800  0.82121900  1
  O  O83  1  0.74165200  0.17878100  0.27911400  1
  O  O84  1  0.32252700  0.91289300  0.12000200  1
  O  O85  1  0.25834800  0.82121900  0.72088600  1
  O  O86  1  0.19427600  0.02164900  0.10872000  1
  O  O87  1  0.37487100  0.66212900  0.31326600  1
  O  O88  1  0.68673400  0.62512900  0.33787100  1
  O  O89  1  0.33787100  0.68673400  0.62512900  1
  O  O90  1  0.69667200  0.71264200  0.00125100  1
  O  O91  1  0.49680600  0.76949700  0.85941400  1
  O  O92  1  0.17878100  0.27911400  0.74165200  1
  O  O93  1  0.87999800  0.67747300  0.08710700  1
  O  O94  1  0.85579500  0.72811900  0.56099600  1
  O  O95  1  0.23050300  0.14058600  0.50319400  1
  O  O96  1  0.88814500  0.38032900  0.51329700  1
  O  O97  1  0.50811300  0.63134800  0.67270300  1
  O  O98  1  0.32729700  0.49188700  0.36865200  1
  O  O99  1  0.11185500  0.61967100  0.48670300  1
  O  O100  1  0.94865400  0.15339000  0.67649700  1
  O  O101  1  0.82192300  0.39785800  0.31147200  1
  O  O102  1  0.50319400  0.23050300  0.14058600  1
  O  O103  1  0.89128000  0.80572400  0.97835100  1
