# generated using pymatgen
data_Nd4MgIr
_symmetry_space_group_name_H-M   'P 1'
_cell_length_a   10.03609382
_cell_length_b   10.03609382
_cell_length_c   10.03609382
_cell_angle_alpha   60.00000000
_cell_angle_beta   60.00000000
_cell_angle_gamma   60.00000000
_symmetry_Int_Tables_number   1
_chemical_formula_structural   Nd4MgIr
_chemical_formula_sum   'Nd16 Mg4 Ir4'
_cell_volume   714.79110668
_cell_formula_units_Z   4
loop_
 _symmetry_equiv_pos_site_id
 _symmetry_equiv_pos_as_xyz
  1  'x, y, z'
loop_
 _atom_site_type_symbol
 _atom_site_label
 _atom_site_symmetry_multiplicity
 _atom_site_fract_x
 _atom_site_fract_y
 _atom_site_fract_z
 _atom_site_occupancy
  Nd  Nd0  1  0.65375500  0.03873500  0.65375500  1
  Nd  Nd1  1  0.81153900  0.18846100  0.81153900  1
  Nd  Nd2  1  0.18846100  0.81153900  0.81153900  1
  Nd  Nd3  1  0.06206700  0.43793300  0.43793300  1
  Nd  Nd4  1  0.06206700  0.06206700  0.43793300  1
  Nd  Nd5  1  0.43793300  0.06206700  0.43793300  1
  Nd  Nd6  1  0.81153900  0.18846100  0.18846100  1
  Nd  Nd7  1  0.43793300  0.06206700  0.06206700  1
  Nd  Nd8  1  0.18846100  0.81153900  0.18846100  1
  Nd  Nd9  1  0.43793300  0.43793300  0.06206700  1
  Nd  Nd10  1  0.81153900  0.81153900  0.18846100  1
  Nd  Nd11  1  0.18846100  0.18846100  0.81153900  1
  Nd  Nd12  1  0.03873500  0.65375500  0.65375500  1
  Nd  Nd13  1  0.65375500  0.65375500  0.65375500  1
  Nd  Nd14  1  0.06206700  0.43793300  0.06206700  1
  Nd  Nd15  1  0.65375500  0.65375500  0.03873500  1
  Mg  Mg16  1  0.42120800  0.42120800  0.73637700  1
  Mg  Mg17  1  0.73637700  0.42120800  0.42120800  1
  Mg  Mg18  1  0.42120800  0.73637700  0.42120800  1
  Mg  Mg19  1  0.42120800  0.42120800  0.42120800  1
  Ir  Ir20  1  0.85855900  0.85855900  0.85855900  1
  Ir  Ir21  1  0.85855900  0.42432300  0.85855900  1
  Ir  Ir22  1  0.85855900  0.85855900  0.42432300  1
  Ir  Ir23  1  0.42432300  0.85855900  0.85855900  1
