# generated using pymatgen
data_LaH4S2NO8
_symmetry_space_group_name_H-M   'P 1'
_cell_length_a   5.54970800
_cell_length_b   7.17009600
_cell_length_c   9.35530993
_cell_angle_alpha   81.45124915
_cell_angle_beta   90.00000000
_cell_angle_gamma   90.00000000
_symmetry_Int_Tables_number   1
_chemical_formula_structural   LaH4S2NO8
_chemical_formula_sum   'La2 H8 S4 N2 O16'
_cell_volume   368.12995193
_cell_formula_units_Z   2
loop_
 _symmetry_equiv_pos_site_id
 _symmetry_equiv_pos_as_xyz
  1  'x, y, z'
loop_
 _atom_site_type_symbol
 _atom_site_label
 _atom_site_symmetry_multiplicity
 _atom_site_fract_x
 _atom_site_fract_y
 _atom_site_fract_z
 _atom_site_occupancy
  La  La0  1  0.75000000  0.19784500  0.72390100  1
  La  La1  1  0.25000000  0.80215500  0.27609900  1
  H  H2  1  0.75000000  0.16997200  0.19740600  1
  H  H3  1  0.89963200  0.37624900  0.14654000  1
  H  H4  1  0.25000000  0.83002800  0.80259400  1
  H  H5  1  0.25000000  0.65729800  0.69584700  1
  H  H6  1  0.10036800  0.62375100  0.85346000  1
  H  H7  1  0.39963200  0.62375100  0.85346000  1
  H  H8  1  0.60036800  0.37624900  0.14654000  1
  H  H9  1  0.75000000  0.34270200  0.30415300  1
  S  S10  1  0.75000000  0.72387800  0.56592100  1
  S  S11  1  0.75000000  0.81129500  0.07317100  1
  S  S12  1  0.25000000  0.18870500  0.92682900  1
  S  S13  1  0.25000000  0.27612200  0.43407900  1
  N  N14  1  0.25000000  0.68461900  0.80064200  1
  N  N15  1  0.75000000  0.31538100  0.19935800  1
  O  O16  1  0.25000000  0.06561200  0.06754200  1
  O  O17  1  0.25000000  0.09982800  0.36846200  1
  O  O18  1  0.75000000  0.55952000  0.68371300  1
  O  O19  1  0.02938900  0.28181700  0.52331600  1
  O  O20  1  0.52958600  0.68989500  0.08752300  1
  O  O21  1  0.75000000  0.90017200  0.63153800  1
  O  O22  1  0.97061100  0.71818300  0.47668400  1
  O  O23  1  0.75000000  0.92254400  0.19754400  1
  O  O24  1  0.02958600  0.31010500  0.91247700  1
  O  O25  1  0.47061100  0.28181700  0.52331600  1
  O  O26  1  0.75000000  0.93438800  0.93245800  1
  O  O27  1  0.25000000  0.44048000  0.31628700  1
  O  O28  1  0.52938900  0.71818300  0.47668400  1
  O  O29  1  0.47041400  0.31010500  0.91247700  1
  O  O30  1  0.25000000  0.07745600  0.80245600  1
  O  O31  1  0.97041400  0.68989500  0.08752300  1
