# generated using pymatgen
data_K2PrCl5
_symmetry_space_group_name_H-M   'P 1'
_cell_length_a   8.16227900
_cell_length_b   8.85108200
_cell_length_c   13.03369000
_cell_angle_alpha   90.00000000
_cell_angle_beta   90.00000000
_cell_angle_gamma   90.00000000
_symmetry_Int_Tables_number   1
_chemical_formula_structural   K2PrCl5
_chemical_formula_sum   'K8 Pr4 Cl20'
_cell_volume   941.61894364
_cell_formula_units_Z   4
loop_
 _symmetry_equiv_pos_site_id
 _symmetry_equiv_pos_as_xyz
  1  'x, y, z'
loop_
 _atom_site_type_symbol
 _atom_site_label
 _atom_site_symmetry_multiplicity
 _atom_site_fract_x
 _atom_site_fract_y
 _atom_site_fract_z
 _atom_site_occupancy
  K  K0  1  0.95054200  0.49512500  0.82797300  1
  K  K1  1  0.95054200  0.00487500  0.82797300  1
  K  K2  1  0.45054200  0.50487500  0.67202700  1
  K  K3  1  0.45054200  0.99512500  0.67202700  1
  K  K4  1  0.04945800  0.50487500  0.17202700  1
  K  K5  1  0.54945800  0.49512500  0.32797300  1
  K  K6  1  0.04945800  0.99512500  0.17202700  1
  K  K7  1  0.54945800  0.00487500  0.32797300  1
  Pr  Pr8  1  0.07622000  0.25000000  0.49451300  1
  Pr  Pr9  1  0.92378000  0.75000000  0.50548700  1
  Pr  Pr10  1  0.42378000  0.25000000  0.99451300  1
  Pr  Pr11  1  0.57622000  0.75000000  0.00548700  1
  Cl  Cl12  1  0.83660900  0.04277700  0.57767100  1
  Cl  Cl13  1  0.66339100  0.04277700  0.07767100  1
  Cl  Cl14  1  0.16339100  0.54277700  0.42232900  1
  Cl  Cl15  1  0.57847000  0.75000000  0.50781700  1
  Cl  Cl16  1  0.42153000  0.25000000  0.49218300  1
  Cl  Cl17  1  0.16339100  0.95722300  0.42232900  1
  Cl  Cl18  1  0.92153000  0.75000000  0.00781700  1
  Cl  Cl19  1  0.33660900  0.54277700  0.92232900  1
  Cl  Cl20  1  0.33660900  0.95722300  0.92232900  1
  Cl  Cl21  1  0.83655100  0.75000000  0.29641200  1
  Cl  Cl22  1  0.16344900  0.25000000  0.70358800  1
  Cl  Cl23  1  0.83660900  0.45722300  0.57767100  1
  Cl  Cl24  1  0.33655100  0.25000000  0.20358800  1
  Cl  Cl25  1  0.87350000  0.25000000  0.32097000  1
  Cl  Cl26  1  0.07847000  0.25000000  0.99218300  1
  Cl  Cl27  1  0.66344900  0.75000000  0.79641200  1
  Cl  Cl28  1  0.62650000  0.25000000  0.82097000  1
  Cl  Cl29  1  0.66339100  0.45722300  0.07767100  1
  Cl  Cl30  1  0.37350000  0.75000000  0.17903000  1
  Cl  Cl31  1  0.12650000  0.75000000  0.67903000  1
