# generated using pymatgen
data_CaCrF5
_symmetry_space_group_name_H-M   'P 1'
_cell_length_a   5.61159996
_cell_length_b   5.61159996
_cell_length_c   7.68024469
_cell_angle_alpha   69.88587376
_cell_angle_beta   69.88587376
_cell_angle_gamma   71.72849538
_symmetry_Int_Tables_number   1
_chemical_formula_structural   CaCrF5
_chemical_formula_sum   'Ca2 Cr2 F10'
_cell_volume   207.95518902
_cell_formula_units_Z   2
loop_
 _symmetry_equiv_pos_site_id
 _symmetry_equiv_pos_as_xyz
  1  'x, y, z'
loop_
 _atom_site_type_symbol
 _atom_site_label
 _atom_site_symmetry_multiplicity
 _atom_site_fract_x
 _atom_site_fract_y
 _atom_site_fract_z
 _atom_site_occupancy
  Ca  Ca0  1  0.45789900  0.54210100  0.25000000  1
  Ca  Ca1  1  0.54210100  0.45789900  0.75000000  1
  Cr  Cr2  1  0.00000000  0.00000000  0.00000000  1
  Cr  Cr3  1  0.00000000  0.00000000  0.50000000  1
  F  F4  1  0.21039000  0.25219800  0.38054500  1
  F  F5  1  0.74780200  0.78961000  0.11945500  1
  F  F6  1  0.78961000  0.74780200  0.61945500  1
  F  F7  1  0.25219800  0.21039000  0.88054500  1
  F  F8  1  0.07697000  0.92303000  0.25000000  1
  F  F9  1  0.92303000  0.07697000  0.75000000  1
  F  F10  1  0.28229000  0.69477600  0.97139800  1
  F  F11  1  0.30522400  0.71771000  0.52860200  1
  F  F12  1  0.71771000  0.30522400  0.02860200  1
  F  F13  1  0.69477600  0.28229000  0.47139800  1
