# generated using pymatgen
data_Gd2Zn17
_symmetry_space_group_name_H-M   'P 1'
_cell_length_a   6.82047753
_cell_length_b   6.82047753
_cell_length_c   6.82047722
_cell_angle_alpha   82.60392371
_cell_angle_beta   82.60392371
_cell_angle_gamma   82.60392383
_symmetry_Int_Tables_number   1
_chemical_formula_structural   Gd2Zn17
_chemical_formula_sum   'Gd2 Zn17'
_cell_volume   309.98775063
_cell_formula_units_Z   1
loop_
 _symmetry_equiv_pos_site_id
 _symmetry_equiv_pos_as_xyz
  1  'x, y, z'
loop_
 _atom_site_type_symbol
 _atom_site_label
 _atom_site_symmetry_multiplicity
 _atom_site_fract_x
 _atom_site_fract_y
 _atom_site_fract_z
 _atom_site_occupancy
  Gd  Gd0  1  0.66465300  0.66465300  0.66465300  1
  Gd  Gd1  1  0.33534700  0.33534700  0.33534700  1
  Zn  Zn2  1  0.35096000  0.35096000  0.83873900  1
  Zn  Zn3  1  0.70371900  0.29628100  0.00000000  1
  Zn  Zn4  1  0.29628100  0.00000000  0.70371900  1
  Zn  Zn5  1  0.83873900  0.35096000  0.35096000  1
  Zn  Zn6  1  0.64904000  0.64904000  0.16126100  1
  Zn  Zn7  1  0.35096000  0.83873900  0.35096000  1
  Zn  Zn8  1  0.00000000  0.70371900  0.29628100  1
  Zn  Zn9  1  0.64904000  0.16126100  0.64904000  1
  Zn  Zn10  1  0.16126100  0.64904000  0.64904000  1
  Zn  Zn11  1  0.00000000  0.00000000  0.50000000  1
  Zn  Zn12  1  0.29628100  0.70371900  0.00000000  1
  Zn  Zn13  1  0.10000900  0.10000900  0.10000900  1
  Zn  Zn14  1  0.70371900  0.00000000  0.29628100  1
  Zn  Zn15  1  0.50000000  0.00000000  0.00000000  1
  Zn  Zn16  1  0.89999100  0.89999100  0.89999100  1
  Zn  Zn17  1  0.00000000  0.50000000  0.00000000  1
  Zn  Zn18  1  0.00000000  0.29628100  0.70371900  1
