# generated using pymatgen
data_K3V3(BiO6)2
_symmetry_space_group_name_H-M   'P 1'
_cell_length_a   9.99295090
_cell_length_b   9.99295090
_cell_length_c   7.28800327
_cell_angle_alpha   73.80502627
_cell_angle_beta   73.80502627
_cell_angle_gamma   89.82386573
_symmetry_Int_Tables_number   1
_chemical_formula_structural   K3V3(BiO6)2
_chemical_formula_sum   'K6 V6 Bi4 O24'
_cell_volume   668.95413188
_cell_formula_units_Z   2
loop_
 _symmetry_equiv_pos_site_id
 _symmetry_equiv_pos_as_xyz
  1  'x, y, z'
loop_
 _atom_site_type_symbol
 _atom_site_label
 _atom_site_symmetry_multiplicity
 _atom_site_fract_x
 _atom_site_fract_y
 _atom_site_fract_z
 _atom_site_occupancy
  K  K0  1  0.01163500  0.98836500  0.75000000  1
  K  K1  1  0.98836500  0.01163500  0.25000000  1
  K  K2  1  0.72730200  0.27269800  0.25000000  1
  K  K3  1  0.50000000  0.50000000  0.00000000  1
  K  K4  1  0.27269800  0.72730200  0.75000000  1
  K  K5  1  0.50000000  0.50000000  0.50000000  1
  V  V6  1  0.35124000  0.13376800  0.36253400  1
  V  V7  1  0.64876000  0.86623200  0.63746600  1
  V  V8  1  0.13376800  0.35124000  0.86253400  1
  V  V9  1  0.24670700  0.75329300  0.25000000  1
  V  V10  1  0.75329300  0.24670700  0.75000000  1
  V  V11  1  0.86623200  0.64876000  0.13746600  1
  Bi  Bi12  1  0.38288500  0.08520200  0.84585100  1
  Bi  Bi13  1  0.08520200  0.38288500  0.34585100  1
  Bi  Bi14  1  0.91479800  0.61711500  0.65414900  1
  Bi  Bi15  1  0.61711500  0.91479800  0.15414900  1
  O  O16  1  0.24097900  0.89786400  0.04623800  1
  O  O17  1  0.01349900  0.34166500  0.09666200  1
  O  O18  1  0.70829700  0.57778800  0.14965200  1
  O  O19  1  0.18206400  0.15332200  0.34783500  1
  O  O20  1  0.60424100  0.24167800  0.67619400  1
  O  O21  1  0.65833500  0.98650100  0.40333800  1
  O  O22  1  0.07526100  0.45184200  0.65564200  1
  O  O23  1  0.75902100  0.10213600  0.95376200  1
  O  O24  1  0.81793600  0.84667800  0.65216500  1
  O  O25  1  0.54815800  0.92473900  0.84435800  1
  O  O26  1  0.39575900  0.75832200  0.32380600  1
  O  O27  1  0.10213600  0.75902100  0.45376200  1
  O  O28  1  0.92473900  0.54815800  0.34435800  1
  O  O29  1  0.57778800  0.70829700  0.64965200  1
  O  O30  1  0.45184200  0.07526100  0.15564200  1
  O  O31  1  0.24167800  0.60424100  0.17619400  1
  O  O32  1  0.29170300  0.42221200  0.85034800  1
  O  O33  1  0.42221200  0.29170300  0.35034800  1
  O  O34  1  0.89786400  0.24097900  0.54623800  1
  O  O35  1  0.15332200  0.18206400  0.84783500  1
  O  O36  1  0.34166500  0.01349900  0.59666200  1
  O  O37  1  0.98650100  0.65833500  0.90333800  1
  O  O38  1  0.75832200  0.39575900  0.82380600  1
  O  O39  1  0.84667800  0.81793600  0.15216500  1
