# generated using pymatgen
data_Rb3YCl6
_symmetry_space_group_name_H-M   'P 1'
_cell_length_a   13.69131956
_cell_length_b   13.69131956
_cell_length_c   13.07278725
_cell_angle_alpha   80.91436749
_cell_angle_beta   80.91436749
_cell_angle_gamma   34.07046573
_symmetry_Int_Tables_number   1
_chemical_formula_structural   Rb3YCl6
_chemical_formula_sum   'Rb12 Y4 Cl24'
_cell_volume   1353.96028320
_cell_formula_units_Z   4
loop_
 _symmetry_equiv_pos_site_id
 _symmetry_equiv_pos_as_xyz
  1  'x, y, z'
loop_
 _atom_site_type_symbol
 _atom_site_label
 _atom_site_symmetry_multiplicity
 _atom_site_fract_x
 _atom_site_fract_y
 _atom_site_fract_z
 _atom_site_occupancy
  Rb  Rb0  1  0.20573700  0.69487400  0.93337300  1
  Rb  Rb1  1  0.35100700  0.97526100  0.19479400  1
  Rb  Rb2  1  0.83819900  0.46869100  0.35350700  1
  Rb  Rb3  1  0.69487400  0.20573700  0.43337300  1
  Rb  Rb4  1  0.53130900  0.16180100  0.14649300  1
  Rb  Rb5  1  0.46869100  0.83819900  0.85350700  1
  Rb  Rb6  1  0.79426300  0.30512600  0.06662700  1
  Rb  Rb7  1  0.30512600  0.79426300  0.56662700  1
  Rb  Rb8  1  0.97526100  0.35100700  0.69479400  1
  Rb  Rb9  1  0.64899300  0.02473900  0.80520600  1
  Rb  Rb10  1  0.02473900  0.64899300  0.30520600  1
  Rb  Rb11  1  0.16180100  0.53130900  0.64649300  1
  Y  Y12  1  0.20849700  0.79150300  0.25000000  1
  Y  Y13  1  0.79150300  0.20849700  0.75000000  1
  Y  Y14  1  0.00000000  0.50000000  0.00000000  1
  Y  Y15  1  0.50000000  0.00000000  0.50000000  1
  Cl  Cl16  1  0.61507700  0.72529000  0.57733600  1
  Cl  Cl17  1  0.37462900  0.50524100  0.18058700  1
  Cl  Cl18  1  0.15052400  0.20922200  0.96580400  1
  Cl  Cl19  1  0.50524100  0.37462900  0.68058700  1
  Cl  Cl20  1  0.13718300  0.36433700  0.18657000  1
  Cl  Cl21  1  0.84947600  0.79077800  0.03419600  1
  Cl  Cl22  1  0.79077800  0.84947600  0.53419600  1
  Cl  Cl23  1  0.62537100  0.49475900  0.81941300  1
  Cl  Cl24  1  0.90126600  0.97690500  0.20408100  1
  Cl  Cl25  1  0.02309500  0.09873400  0.29591900  1
  Cl  Cl26  1  0.72529000  0.61507700  0.07733600  1
  Cl  Cl27  1  0.63566300  0.86281700  0.31343000  1
  Cl  Cl28  1  0.38492300  0.27471000  0.42266400  1
  Cl  Cl29  1  0.20922200  0.15052400  0.46580400  1
  Cl  Cl30  1  0.49475900  0.62537100  0.31941300  1
  Cl  Cl31  1  0.27593600  0.83606200  0.06329900  1
  Cl  Cl32  1  0.83606200  0.27593600  0.56329900  1
  Cl  Cl33  1  0.16393800  0.72406400  0.43670100  1
  Cl  Cl34  1  0.86281700  0.63566300  0.81343000  1
  Cl  Cl35  1  0.97690500  0.90126600  0.70408100  1
  Cl  Cl36  1  0.09873400  0.02309500  0.79591900  1
  Cl  Cl37  1  0.72406400  0.16393800  0.93670100  1
  Cl  Cl38  1  0.27471000  0.38492300  0.92266400  1
  Cl  Cl39  1  0.36433700  0.13718300  0.68657000  1
