# generated using pymatgen
data_LiBi(PO3)4
_symmetry_space_group_name_H-M   'P 1'
_cell_length_a   9.02958874
_cell_length_b   9.02958874
_cell_length_c   9.84648767
_cell_angle_alpha   57.35633368
_cell_angle_beta   57.35633368
_cell_angle_gamma   46.81267889
_symmetry_Int_Tables_number   1
_chemical_formula_structural   LiBi(PO3)4
_chemical_formula_sum   'Li2 Bi2 P8 O24'
_cell_volume   473.56079903
_cell_formula_units_Z   2
loop_
 _symmetry_equiv_pos_site_id
 _symmetry_equiv_pos_as_xyz
  1  'x, y, z'
loop_
 _atom_site_type_symbol
 _atom_site_label
 _atom_site_symmetry_multiplicity
 _atom_site_fract_x
 _atom_site_fract_y
 _atom_site_fract_z
 _atom_site_occupancy
  Li  Li0  1  0.70253200  0.29746800  0.75000000  1
  Li  Li1  1  0.29746800  0.70253200  0.25000000  1
  Bi  Bi2  1  0.19662600  0.80337400  0.75000000  1
  Bi  Bi3  1  0.80337400  0.19662600  0.25000000  1
  P  P4  1  0.00465800  0.70286400  0.19343500  1
  P  P5  1  0.41392000  0.30770200  0.11688000  1
  P  P6  1  0.69229800  0.58608000  0.38312000  1
  P  P7  1  0.29713600  0.99534200  0.30656500  1
  P  P8  1  0.70286400  0.00465800  0.69343500  1
  P  P9  1  0.30770200  0.41392000  0.61688000  1
  P  P10  1  0.58608000  0.69229800  0.88312000  1
  P  P11  1  0.99534200  0.29713600  0.80656500  1
  O  O12  1  0.59554800  0.16780500  0.18945700  1
  O  O13  1  0.21646800  0.47074800  0.22825500  1
  O  O14  1  0.97997100  0.76146800  0.02904500  1
  O  O15  1  0.82521200  0.66869300  0.34818100  1
  O  O16  1  0.98050200  0.16089800  0.77659000  1
  O  O17  1  0.33130700  0.17478800  0.15181900  1
  O  O18  1  0.23853200  0.02002900  0.47095500  1
  O  O19  1  0.57948300  0.55572600  0.56813300  1
  O  O20  1  0.44427400  0.42051700  0.93186700  1
  O  O21  1  0.52925200  0.78353200  0.27174500  1
  O  O22  1  0.83219500  0.40445200  0.31054300  1
  O  O23  1  0.83910200  0.01949800  0.72341000  1
  O  O24  1  0.16089800  0.98050200  0.27659000  1
  O  O25  1  0.16780500  0.59554800  0.68945700  1
  O  O26  1  0.47074800  0.21646800  0.72825500  1
  O  O27  1  0.55572600  0.57948300  0.06813300  1
  O  O28  1  0.42051700  0.44427400  0.43186700  1
  O  O29  1  0.76146800  0.97997100  0.52904500  1
  O  O30  1  0.66869300  0.82521200  0.84818100  1
  O  O31  1  0.01949800  0.83910200  0.22341000  1
  O  O32  1  0.17478800  0.33130700  0.65181900  1
  O  O33  1  0.02002900  0.23853200  0.97095500  1
  O  O34  1  0.78353200  0.52925200  0.77174500  1
  O  O35  1  0.40445200  0.83219500  0.81054300  1
