# generated using pymatgen
data_Cs3NdCr3O12
_symmetry_space_group_name_H-M   'P 1'
_cell_length_a   10.56685000
_cell_length_b   10.57858367
_cell_length_c   15.24474543
_cell_angle_alpha   105.77814405
_cell_angle_beta   110.27787857
_cell_angle_gamma   90.00000000
_symmetry_Int_Tables_number   1
_chemical_formula_structural   Cs3NdCr3O12
_chemical_formula_sum   'Cs12 Nd4 Cr12 O48'
_cell_volume   1529.84453645
_cell_formula_units_Z   4
loop_
 _symmetry_equiv_pos_site_id
 _symmetry_equiv_pos_as_xyz
  1  'x, y, z'
loop_
 _atom_site_type_symbol
 _atom_site_label
 _atom_site_symmetry_multiplicity
 _atom_site_fract_x
 _atom_site_fract_y
 _atom_site_fract_z
 _atom_site_occupancy
  Cs  Cs0  1  0.41411700  0.25000000  0.00000000  1
  Cs  Cs1  1  0.13734500  0.64822300  0.11155400  1
  Cs  Cs2  1  0.86265500  0.35177700  0.88844600  1
  Cs  Cs3  1  0.60655800  0.73432300  0.30793300  1
  Cs  Cs4  1  0.02579200  0.85177700  0.88844600  1
  Cs  Cs5  1  0.00000000  0.00000000  0.50000000  1
  Cs  Cs6  1  0.97420800  0.14822300  0.11155400  1
  Cs  Cs7  1  0.29862500  0.76567700  0.69206700  1
  Cs  Cs8  1  0.70137500  0.23432300  0.30793300  1
  Cs  Cs9  1  0.58588300  0.75000000  0.00000000  1
  Cs  Cs10  1  0.50000000  0.50000000  0.50000000  1
  Cs  Cs11  1  0.39344200  0.26567700  0.69206700  1
  Nd  Nd12  1  0.30391300  0.07374200  0.34216800  1
  Nd  Nd13  1  0.03825500  0.57374200  0.34216800  1
  Nd  Nd14  1  0.96174500  0.42625800  0.65783200  1
  Nd  Nd15  1  0.69608700  0.92625800  0.65783200  1
  Cr  Cr16  1  0.61923500  0.05820800  0.84295000  1
  Cr  Cr17  1  0.77628500  0.44179200  0.15705000  1
  Cr  Cr18  1  0.12492500  0.35461100  0.45754300  1
  Cr  Cr19  1  0.22371500  0.55820800  0.84295000  1
  Cr  Cr20  1  0.94105000  0.88571600  0.23622400  1
  Cr  Cr21  1  0.87507500  0.64538900  0.54245700  1
  Cr  Cr22  1  0.33261800  0.85461100  0.45754300  1
  Cr  Cr23  1  0.29517400  0.38571600  0.23622400  1
  Cr  Cr24  1  0.38076500  0.94179200  0.15705000  1
  Cr  Cr25  1  0.66738200  0.14538900  0.54245700  1
  Cr  Cr26  1  0.70482600  0.61428400  0.76377600  1
  Cr  Cr27  1  0.05895000  0.11428400  0.76377600  1
  O  O28  1  0.06659600  0.01106600  0.29901400  1
  O  O29  1  0.48007600  0.01654400  0.27448300  1
  O  O30  1  0.33260500  0.83724500  0.34560300  1
  O  O31  1  0.93636900  0.45714200  0.15913800  1
  O  O32  1  0.47715000  0.81496900  0.52867400  1
  O  O33  1  0.74738900  0.73612300  0.54446500  1
  O  O34  1  0.93340400  0.98893400  0.70098600  1
  O  O35  1  0.90680200  0.85842800  0.11863800  1
  O  O36  1  0.72376800  0.75089500  0.73124100  1
  O  O37  1  0.32916300  0.48721800  0.91702100  1
  O  O38  1  0.19402300  0.07312600  0.73665700  1
  O  O39  1  0.52285000  0.18503100  0.47132600  1
  O  O40  1  0.27623200  0.24910500  0.26875900  1
  O  O41  1  0.01299800  0.33724500  0.34560300  1
  O  O42  1  0.76758300  0.48893400  0.70098600  1
  O  O43  1  0.51992400  0.98345600  0.72551700  1
  O  O44  1  0.05152400  0.31496900  0.52867400  1
  O  O45  1  0.79440700  0.51654400  0.27448300  1
  O  O46  1  0.20559300  0.48345600  0.72551700  1
  O  O47  1  0.68624700  0.98669900  0.50309600  1
  O  O48  1  0.94847600  0.68503100  0.47132600  1
  O  O49  1  0.67083700  0.51278200  0.08297900  1
  O  O50  1  0.80597700  0.92687400  0.26334300  1
  O  O51  1  0.31375300  0.01330100  0.49690400  1
  O  O52  1  0.06363100  0.54285800  0.84086200  1
  O  O53  1  0.77723200  0.04285800  0.84086200  1
  O  O54  1  0.25261100  0.26387700  0.45553500  1
  O  O55  1  0.00747300  0.25089500  0.73124100  1
  O  O56  1  0.20292400  0.76387700  0.45553500  1
  O  O57  1  0.79707600  0.23612300  0.54446500  1
  O  O58  1  0.59555100  0.21626500  0.87223200  1
  O  O59  1  0.98700200  0.66275500  0.65439700  1
  O  O60  1  0.99252700  0.74910500  0.26875900  1
  O  O61  1  0.72332000  0.28373500  0.12776800  1
  O  O62  1  0.54263400  0.57312600  0.73665700  1
  O  O63  1  0.22276800  0.95714200  0.15913800  1
  O  O64  1  0.27668000  0.71626500  0.87223200  1
  O  O65  1  0.66739500  0.16275500  0.65439700  1
  O  O66  1  0.78816400  0.64157200  0.88136200  1
  O  O67  1  0.40444900  0.78373500  0.12776800  1
  O  O68  1  0.18315100  0.51330100  0.49690400  1
  O  O69  1  0.41214200  0.01278200  0.08297900  1
  O  O70  1  0.45736600  0.42687400  0.26334300  1
  O  O71  1  0.81684900  0.48669900  0.50309600  1
  O  O72  1  0.58785800  0.98721800  0.91702100  1
  O  O73  1  0.21183600  0.35842800  0.11863800  1
  O  O74  1  0.23241700  0.51106600  0.29901400  1
  O  O75  1  0.09319800  0.14157200  0.88136200  1
