# generated using pymatgen
data_USb3O2F17
_symmetry_space_group_name_H-M   'P 1'
_cell_length_a   12.64894800
_cell_length_b   11.33048700
_cell_length_c   13.40831387
_cell_angle_alpha   59.08313276
_cell_angle_beta   90.00000000
_cell_angle_gamma   90.00000000
_symmetry_Int_Tables_number   1
_chemical_formula_structural   USb3O2F17
_chemical_formula_sum   'U4 Sb12 O8 F68'
_cell_volume   1648.62070041
_cell_formula_units_Z   4
loop_
 _symmetry_equiv_pos_site_id
 _symmetry_equiv_pos_as_xyz
  1  'x, y, z'
loop_
 _atom_site_type_symbol
 _atom_site_label
 _atom_site_symmetry_multiplicity
 _atom_site_fract_x
 _atom_site_fract_y
 _atom_site_fract_z
 _atom_site_occupancy
  U  U0  1  0.09540200  0.06536100  0.17557700  1
  U  U1  1  0.40459800  0.06536100  0.67557700  1
  U  U2  1  0.59540200  0.93463900  0.32442300  1
  U  U3  1  0.90459800  0.93463900  0.82442300  1
  Sb  Sb4  1  0.70300300  0.24020300  0.58484000  1
  Sb  Sb5  1  0.85302900  0.64626600  0.19416000  1
  Sb  Sb6  1  0.64697100  0.64626600  0.69416000  1
  Sb  Sb7  1  0.20300300  0.75979700  0.91516000  1
  Sb  Sb8  1  0.29699700  0.75979700  0.41516000  1
  Sb  Sb9  1  0.14697100  0.35373400  0.80584000  1
  Sb  Sb10  1  0.35302900  0.35373400  0.30584000  1
  Sb  Sb11  1  0.09555900  0.19323200  0.51007200  1
  Sb  Sb12  1  0.90444100  0.80676800  0.48992800  1
  Sb  Sb13  1  0.59555900  0.80676800  0.98992800  1
  Sb  Sb14  1  0.79699700  0.24020300  0.08484000  1
  Sb  Sb15  1  0.40444100  0.19323200  0.01007200  1
  O  O16  1  0.59642600  0.06604500  0.35904000  1
  O  O17  1  0.09642600  0.93395500  0.14096000  1
  O  O18  1  0.90656100  0.80226600  0.79096100  1
  O  O19  1  0.40656100  0.19773400  0.70903900  1
  O  O20  1  0.59343900  0.80226600  0.29096100  1
  O  O21  1  0.09343900  0.19773400  0.20903900  1
  O  O22  1  0.90357400  0.06604500  0.85904000  1
  O  O23  1  0.40357400  0.93395500  0.64096000  1
  F  F24  1  0.59229200  0.65959400  0.96335100  1
  F  F25  1  0.39670600  0.23550600  0.47139200  1
  F  F26  1  0.40770800  0.34040600  0.03664900  1
  F  F27  1  0.47941800  0.74132600  0.09128000  1
  F  F28  1  0.01178500  0.07869400  0.65060100  1
  F  F29  1  0.71856200  0.54924100  0.83700700  1
  F  F30  1  0.26942300  0.76515500  0.55080800  1
  F  F31  1  0.21047800  0.93526600  0.33278900  1
  F  F32  1  0.30283900  0.30244400  0.87785000  1
  F  F33  1  0.78952200  0.06473400  0.66721100  1
  F  F34  1  0.22208900  0.12809600  0.60982300  1
  F  F35  1  0.17287000  0.66276500  0.42326900  1
  F  F36  1  0.71047800  0.06473400  0.16721100  1
  F  F37  1  0.69716100  0.69755600  0.12215000  1
  F  F38  1  0.66911000  0.19816400  0.73730100  1
  F  F39  1  0.02058200  0.74132600  0.59128000  1
  F  F40  1  0.41972500  0.88817000  0.39000000  1
  F  F41  1  0.10714900  0.61154200  0.98823500  1
  F  F42  1  0.97941800  0.25867400  0.40872000  1
  F  F43  1  0.72208900  0.87190400  0.89017700  1
  F  F44  1  0.16025800  0.49557300  0.83858800  1
  F  F45  1  0.76942300  0.23484500  0.94919200  1
  F  F46  1  0.28143800  0.45075900  0.16299300  1
  F  F47  1  0.89285100  0.38845800  0.01176500  1
  F  F48  1  0.15777600  0.18563900  0.80823300  1
  F  F49  1  0.83089000  0.19816400  0.23730100  1
  F  F50  1  0.51178500  0.92130600  0.84939900  1
  F  F51  1  0.78143800  0.54924100  0.33700700  1
  F  F52  1  0.09229200  0.34040600  0.53664900  1
  F  F53  1  0.58027500  0.11183000  0.61000000  1
  F  F54  1  0.60329400  0.76449400  0.52860800  1
  F  F55  1  0.49379700  0.38956600  0.25441500  1
  F  F56  1  0.77791100  0.87190400  0.39017700  1
  F  F57  1  0.38299900  0.04354600  0.98829500  1
  F  F58  1  0.39285100  0.61154200  0.48823500  1
  F  F59  1  0.33974200  0.49557300  0.33858800  1
  F  F60  1  0.89670600  0.76449400  0.02860800  1
  F  F61  1  0.16911000  0.80183600  0.76269900  1
  F  F62  1  0.08027500  0.88817000  0.89000000  1
  F  F63  1  0.50620300  0.61043400  0.74558500  1
  F  F64  1  0.19716100  0.30244400  0.37785000  1
  F  F65  1  0.32713000  0.66276500  0.92326900  1
  F  F66  1  0.61700100  0.95645400  0.01170500  1
  F  F67  1  0.84222400  0.81436100  0.19176700  1
  F  F68  1  0.80283900  0.69755600  0.62215000  1
  F  F69  1  0.34222400  0.18563900  0.30823300  1
  F  F70  1  0.00620300  0.38956600  0.75441500  1
  F  F71  1  0.23057700  0.76515500  0.05080800  1
  F  F72  1  0.11700100  0.04354600  0.48829500  1
  F  F73  1  0.48821500  0.07869400  0.15060100  1
  F  F74  1  0.98821500  0.92130600  0.34939900  1
  F  F75  1  0.66025800  0.50442700  0.66141200  1
  F  F76  1  0.67287000  0.33723500  0.07673100  1
  F  F77  1  0.90770800  0.65959400  0.46335100  1
  F  F78  1  0.99379700  0.61043400  0.24558500  1
  F  F79  1  0.10329400  0.23550600  0.97139200  1
  F  F80  1  0.52058200  0.25867400  0.90872000  1
  F  F81  1  0.21856200  0.45075900  0.66299300  1
  F  F82  1  0.73057700  0.23484500  0.44919200  1
  F  F83  1  0.27791100  0.12809600  0.10982300  1
  F  F84  1  0.65777600  0.81436100  0.69176700  1
  F  F85  1  0.60714900  0.38845800  0.51176500  1
  F  F86  1  0.83974200  0.50442700  0.16141200  1
  F  F87  1  0.82713000  0.33723500  0.57673100  1
  F  F88  1  0.91972500  0.11183000  0.11000000  1
  F  F89  1  0.88299900  0.95645400  0.51170500  1
  F  F90  1  0.28952200  0.93526600  0.83278900  1
  F  F91  1  0.33089000  0.80183600  0.26269900  1
