# generated using pymatgen
data_KV3Cd4O12
_symmetry_space_group_name_H-M   'P 1'
_cell_length_a   9.52290433
_cell_length_b   9.52290433
_cell_length_c   7.20575116
_cell_angle_alpha   72.88665508
_cell_angle_beta   72.88665508
_cell_angle_gamma   92.45774198
_symmetry_Int_Tables_number   1
_chemical_formula_structural   KV3Cd4O12
_chemical_formula_sum   'K2 V6 Cd8 O24'
_cell_volume   590.84849940
_cell_formula_units_Z   2
loop_
 _symmetry_equiv_pos_site_id
 _symmetry_equiv_pos_as_xyz
  1  'x, y, z'
loop_
 _atom_site_type_symbol
 _atom_site_label
 _atom_site_symmetry_multiplicity
 _atom_site_fract_x
 _atom_site_fract_y
 _atom_site_fract_z
 _atom_site_occupancy
  K  K0  1  0.03247800  0.96868700  0.24897000  1
  K  K1  1  0.96868700  0.03247800  0.74897000  1
  V  V2  1  0.13036600  0.34712500  0.86302100  1
  V  V3  1  0.65508400  0.87919400  0.63650100  1
  V  V4  1  0.70456300  0.29878800  0.74922800  1
  V  V5  1  0.87919400  0.65508400  0.13650100  1
  V  V6  1  0.29878800  0.70456300  0.24922800  1
  V  V7  1  0.34712500  0.13036600  0.36302100  1
  Cd  Cd8  1  0.26881300  0.73847100  0.74238800  1
  Cd  Cd9  1  0.47638300  0.48924700  0.96207400  1
  Cd  Cd10  1  0.73847100  0.26881300  0.24238800  1
  Cd  Cd11  1  0.93831900  0.62226800  0.64721600  1
  Cd  Cd12  1  0.48924700  0.47638300  0.46207400  1
  Cd  Cd13  1  0.38404700  0.06280100  0.85339000  1
  Cd  Cd14  1  0.06280100  0.38404700  0.35339000  1
  Cd  Cd15  1  0.62226800  0.93831900  0.14721600  1
  O  O16  1  0.82952400  0.83094200  0.62052700  1
  O  O17  1  0.72165400  0.51924800  0.21121100  1
  O  O18  1  0.47721500  0.29689200  0.29194600  1
  O  O19  1  0.17211000  0.17441100  0.37630400  1
  O  O20  1  0.18242800  0.73297600  0.46878800  1
  O  O21  1  0.33112700  0.99696200  0.59809000  1
  O  O22  1  0.52382100  0.28812600  0.72834200  1
  O  O23  1  0.29689200  0.47721500  0.79194600  1
  O  O24  1  0.96832500  0.60960000  0.32032700  1
  O  O25  1  0.73297600  0.18242800  0.96878800  1
  O  O26  1  0.99696200  0.33112700  0.09809000  1
  O  O27  1  0.28812600  0.52382100  0.22834200  1
  O  O28  1  0.67007100  0.01235800  0.39920600  1
  O  O29  1  0.83094200  0.82952400  0.12052700  1
  O  O30  1  0.47635400  0.71757900  0.27352800  1
  O  O31  1  0.04679100  0.39982000  0.67540200  1
  O  O32  1  0.27281700  0.82221800  0.03014200  1
  O  O33  1  0.39982000  0.04679100  0.17540200  1
  O  O34  1  0.17441100  0.17211000  0.87630400  1
  O  O35  1  0.71757900  0.47635400  0.77352800  1
  O  O36  1  0.60960000  0.96832500  0.82032700  1
  O  O37  1  0.01235800  0.67007100  0.89920600  1
  O  O38  1  0.82221800  0.27281700  0.53014200  1
  O  O39  1  0.51924800  0.72165400  0.71121100  1
