# generated using pymatgen
data_LaZn11
_symmetry_space_group_name_H-M   'P 1'
_cell_length_a   8.31292676
_cell_length_b   8.31292676
_cell_length_c   8.31292676
_cell_angle_alpha   99.87683046
_cell_angle_beta   99.87683046
_cell_angle_gamma   131.06680535
_symmetry_Int_Tables_number   1
_chemical_formula_structural   LaZn11
_chemical_formula_sum   'La2 Zn22'
_cell_volume   394.22051871
_cell_formula_units_Z   2
loop_
 _symmetry_equiv_pos_site_id
 _symmetry_equiv_pos_as_xyz
  1  'x, y, z'
loop_
 _atom_site_type_symbol
 _atom_site_label
 _atom_site_symmetry_multiplicity
 _atom_site_fract_x
 _atom_site_fract_y
 _atom_site_fract_z
 _atom_site_occupancy
  La  La0  1  0.25000000  0.75000000  0.50000000  1
  La  La1  1  0.00000000  0.00000000  0.00000000  1
  Zn  Zn2  1  0.90292200  0.57508100  0.08431100  1
  Zn  Zn3  1  0.62500000  0.87500000  0.25000000  1
  Zn  Zn4  1  0.42491900  0.50923000  0.32784100  1
  Zn  Zn5  1  0.49077000  0.57508100  0.67215900  1
  Zn  Zn6  1  0.42491900  0.09707800  0.91568900  1
  Zn  Zn7  1  0.75923000  0.17491900  0.82784100  1
  Zn  Zn8  1  0.49077000  0.81861100  0.91568900  1
  Zn  Zn9  1  0.50000000  0.50000000  0.00000000  1
  Zn  Zn10  1  0.75923000  0.93138900  0.58431100  1
  Zn  Zn11  1  0.75000000  0.25000000  0.50000000  1
  Zn  Zn12  1  0.06861100  0.65292200  0.82784100  1
  Zn  Zn13  1  0.12500000  0.37500000  0.75000000  1
  Zn  Zn14  1  0.34707800  0.17491900  0.41568900  1
  Zn  Zn15  1  0.82508100  0.65292200  0.58431100  1
  Zn  Zn16  1  0.90292200  0.81861100  0.32784100  1
  Zn  Zn17  1  0.18138900  0.09707800  0.67215900  1
  Zn  Zn18  1  0.06861100  0.24077000  0.41568900  1
  Zn  Zn19  1  0.34707800  0.93138900  0.17215900  1
  Zn  Zn20  1  0.82508100  0.24077000  0.17215900  1
  Zn  Zn21  1  0.18138900  0.50923000  0.08431100  1
  Zn  Zn22  1  0.62500000  0.37500000  0.25000000  1
  Zn  Zn23  1  0.62500000  0.37500000  0.75000000  1
