# generated using pymatgen
data_Ba2Mn(AsO4)2
_symmetry_space_group_name_H-M   'P 1'
_cell_length_a   9.34074100
_cell_length_b   5.60942300
_cell_length_c   17.77146551
_cell_angle_alpha   72.03574629
_cell_angle_beta   90.00000000
_cell_angle_gamma   90.00000000
_symmetry_Int_Tables_number   1
_chemical_formula_structural   Ba2Mn(AsO4)2
_chemical_formula_sum   'Ba8 Mn4 As8 O32'
_cell_volume   885.76197799
_cell_formula_units_Z   4
loop_
 _symmetry_equiv_pos_site_id
 _symmetry_equiv_pos_as_xyz
  1  'x, y, z'
loop_
 _atom_site_type_symbol
 _atom_site_label
 _atom_site_symmetry_multiplicity
 _atom_site_fract_x
 _atom_site_fract_y
 _atom_site_fract_z
 _atom_site_occupancy
  Ba  Ba0  1  0.33660500  0.52375300  0.73120600  1
  Ba  Ba1  1  0.69781300  0.68967500  0.52064800  1
  Ba  Ba2  1  0.16339500  0.52375300  0.23120600  1
  Ba  Ba3  1  0.83660500  0.47624700  0.76879400  1
  Ba  Ba4  1  0.66339500  0.47624700  0.26879400  1
  Ba  Ba5  1  0.19781300  0.31032500  0.97935200  1
  Ba  Ba6  1  0.30218700  0.31032500  0.47935200  1
  Ba  Ba7  1  0.80218700  0.68967500  0.02064800  1
  Mn  Mn8  1  0.97984700  0.09425800  0.63664500  1
  Mn  Mn9  1  0.02015300  0.90574200  0.36335500  1
  Mn  Mn10  1  0.47984700  0.90574200  0.86335500  1
  Mn  Mn11  1  0.52015300  0.09425800  0.13664500  1
  As  As12  1  0.39584400  0.91549700  0.33611000  1
  As  As13  1  0.89584400  0.08450300  0.16389000  1
  As  As14  1  0.09546900  0.67834800  0.57571600  1
  As  As15  1  0.40453100  0.67834800  0.07571600  1
  As  As16  1  0.59546900  0.32165200  0.92428400  1
  As  As17  1  0.90453100  0.32165200  0.42428400  1
  As  As18  1  0.60415600  0.08450300  0.66389000  1
  As  As19  1  0.10415600  0.91549700  0.83611000  1
  O  O20  1  0.71171900  0.11745400  0.90052600  1
  O  O21  1  0.96913000  0.26670600  0.07613200  1
  O  O22  1  0.46913000  0.73329400  0.42386800  1
  O  O23  1  0.49436500  0.87684400  0.25832300  1
  O  O24  1  0.60701100  0.29743500  0.02224900  1
  O  O25  1  0.07048800  0.25510800  0.39174300  1
  O  O26  1  0.10701100  0.70256500  0.47775100  1
  O  O27  1  0.92951200  0.74489200  0.60825700  1
  O  O28  1  0.89298900  0.29743500  0.52224900  1
  O  O29  1  0.27300200  0.79847000  0.82739100  1
  O  O30  1  0.64435000  0.62424900  0.86994400  1
  O  O31  1  0.10836600  0.22747600  0.83217900  1
  O  O32  1  0.60836600  0.77252400  0.66782100  1
  O  O33  1  0.21171900  0.88254600  0.59947400  1
  O  O34  1  0.00563500  0.87684400  0.75832300  1
  O  O35  1  0.14435000  0.37575100  0.63005600  1
  O  O36  1  0.03087000  0.73329400  0.92386800  1
  O  O37  1  0.89163400  0.77252400  0.16782100  1
  O  O38  1  0.77300200  0.20153000  0.67260900  1
  O  O39  1  0.72699800  0.20153000  0.17260900  1
  O  O40  1  0.78828100  0.11745400  0.40052600  1
  O  O41  1  0.50563500  0.12315600  0.74167700  1
  O  O42  1  0.39298900  0.70256500  0.97775100  1
  O  O43  1  0.85565000  0.62424900  0.36994400  1
  O  O44  1  0.22699800  0.79847000  0.32739100  1
  O  O45  1  0.99436500  0.12315600  0.24167700  1
  O  O46  1  0.53087000  0.26670600  0.57613200  1
  O  O47  1  0.57048800  0.74489200  0.10825700  1
  O  O48  1  0.39163400  0.22747600  0.33217900  1
  O  O49  1  0.28828100  0.88254600  0.09947400  1
  O  O50  1  0.42951200  0.25510800  0.89174300  1
  O  O51  1  0.35565000  0.37575100  0.13005600  1
