# generated using pymatgen
data_GaBPbO4
_symmetry_space_group_name_H-M   'P 1'
_cell_length_a   5.98794200
_cell_length_b   7.12029700
_cell_length_c   8.39606700
_cell_angle_alpha   90.00000000
_cell_angle_beta   90.00000000
_cell_angle_gamma   90.00000000
_symmetry_Int_Tables_number   1
_chemical_formula_structural   GaBPbO4
_chemical_formula_sum   'Ga4 B4 Pb4 O16'
_cell_volume   357.97408676
_cell_formula_units_Z   4
loop_
 _symmetry_equiv_pos_site_id
 _symmetry_equiv_pos_as_xyz
  1  'x, y, z'
loop_
 _atom_site_type_symbol
 _atom_site_label
 _atom_site_symmetry_multiplicity
 _atom_site_fract_x
 _atom_site_fract_y
 _atom_site_fract_z
 _atom_site_occupancy
  Ga  Ga0  1  0.00000000  0.00000000  0.00000000  1
  Ga  Ga1  1  0.50000000  0.00000000  0.00000000  1
  Ga  Ga2  1  0.50000000  0.50000000  0.50000000  1
  Ga  Ga3  1  0.00000000  0.50000000  0.50000000  1
  B  B4  1  0.75000000  0.22225900  0.73583500  1
  B  B5  1  0.25000000  0.77774100  0.26416500  1
  B  B6  1  0.75000000  0.72225900  0.76416500  1
  B  B7  1  0.25000000  0.27774100  0.23583500  1
  Pb  Pb8  1  0.75000000  0.93606600  0.35707900  1
  Pb  Pb9  1  0.25000000  0.06393400  0.64292100  1
  Pb  Pb10  1  0.75000000  0.43606600  0.14292100  1
  Pb  Pb11  1  0.25000000  0.56393400  0.85707900  1
  O  O12  1  0.25000000  0.17944700  0.09298000  1
  O  O13  1  0.75000000  0.82055300  0.90702000  1
  O  O14  1  0.25000000  0.67944700  0.40702000  1
  O  O15  1  0.75000000  0.32055300  0.59298000  1
  O  O16  1  0.25000000  0.89952000  0.88697100  1
  O  O17  1  0.75000000  0.10048000  0.11302900  1
  O  O18  1  0.25000000  0.39952000  0.61302900  1
  O  O19  1  0.75000000  0.60048000  0.38697100  1
  O  O20  1  0.04845400  0.82845800  0.19328200  1
  O  O21  1  0.54845400  0.17154200  0.80671800  1
  O  O22  1  0.45154600  0.32845800  0.30671800  1
  O  O23  1  0.95154600  0.67154200  0.69328200  1
  O  O24  1  0.95154600  0.17154200  0.80671800  1
  O  O25  1  0.45154600  0.82845800  0.19328200  1
  O  O26  1  0.54845400  0.67154200  0.69328200  1
  O  O27  1  0.04845400  0.32845800  0.30671800  1
