# generated using pymatgen
data_Bi3Pt3O11
_symmetry_space_group_name_H-M   'P 1'
_cell_length_a   9.52071200
_cell_length_b   9.52071200
_cell_length_c   9.52071200
_cell_angle_alpha   90.00000000
_cell_angle_beta   90.00000000
_cell_angle_gamma   90.00000000
_symmetry_Int_Tables_number   1
_chemical_formula_structural   Bi3Pt3O11
_chemical_formula_sum   'Bi12 Pt12 O44'
_cell_volume   862.99500901
_cell_formula_units_Z   4
loop_
 _symmetry_equiv_pos_site_id
 _symmetry_equiv_pos_as_xyz
  1  'x, y, z'
loop_
 _atom_site_type_symbol
 _atom_site_label
 _atom_site_symmetry_multiplicity
 _atom_site_fract_x
 _atom_site_fract_y
 _atom_site_fract_z
 _atom_site_occupancy
  Bi  Bi0  1  0.86763400  0.13236600  0.86763400  1
  Bi  Bi1  1  0.13236600  0.13236600  0.13236600  1
  Bi  Bi2  1  0.36763400  0.63236600  0.63236600  1
  Bi  Bi3  1  0.63236600  0.36763400  0.63236600  1
  Bi  Bi4  1  0.86763400  0.86763400  0.13236600  1
  Bi  Bi5  1  0.13236600  0.86763400  0.86763400  1
  Bi  Bi6  1  0.25000000  0.75000000  0.25000000  1
  Bi  Bi7  1  0.63236600  0.63236600  0.36763400  1
  Bi  Bi8  1  0.75000000  0.75000000  0.75000000  1
  Bi  Bi9  1  0.25000000  0.25000000  0.75000000  1
  Bi  Bi10  1  0.75000000  0.25000000  0.25000000  1
  Bi  Bi11  1  0.36763400  0.36763400  0.36763400  1
  Pt  Pt12  1  0.50000000  0.15783100  0.00000000  1
  Pt  Pt13  1  0.00000000  0.50000000  0.84216900  1
  Pt  Pt14  1  0.50000000  0.00000000  0.65783100  1
  Pt  Pt15  1  0.50000000  0.00000000  0.34216900  1
  Pt  Pt16  1  0.15783100  0.00000000  0.50000000  1
  Pt  Pt17  1  0.65783100  0.50000000  0.00000000  1
  Pt  Pt18  1  0.00000000  0.50000000  0.15783100  1
  Pt  Pt19  1  0.84216900  0.00000000  0.50000000  1
  Pt  Pt20  1  0.00000000  0.34216900  0.50000000  1
  Pt  Pt21  1  0.34216900  0.50000000  0.00000000  1
  Pt  Pt22  1  0.00000000  0.65783100  0.50000000  1
  Pt  Pt23  1  0.50000000  0.84216900  0.00000000  1
  O  O24  1  0.89705900  0.10294100  0.10294100  1
  O  O25  1  0.50000000  0.85528300  0.50000000  1
  O  O26  1  0.83138500  0.21167700  0.49467500  1
  O  O27  1  0.60294100  0.60294100  0.60294100  1
  O  O28  1  0.33138500  0.71167700  0.00532500  1
  O  O29  1  0.00000000  0.00000000  0.64471700  1
  O  O30  1  0.89705900  0.89705900  0.89705900  1
  O  O31  1  0.83138500  0.78832300  0.50532500  1
  O  O32  1  0.71167700  0.00532500  0.33138500  1
  O  O33  1  0.39705900  0.39705900  0.60294100  1
  O  O34  1  0.16861500  0.78832300  0.49467500  1
  O  O35  1  0.16861500  0.21167700  0.50532500  1
  O  O36  1  0.60294100  0.39705900  0.39705900  1
  O  O37  1  0.50532500  0.16861500  0.21167700  1
  O  O38  1  0.66861500  0.71167700  0.99467500  1
  O  O39  1  0.28832300  0.99467500  0.33138500  1
  O  O40  1  0.49467500  0.16861500  0.78832300  1
  O  O41  1  0.39705900  0.60294100  0.39705900  1
  O  O42  1  0.85528300  0.50000000  0.50000000  1
  O  O43  1  0.21167700  0.50532500  0.16861500  1
  O  O44  1  0.71167700  0.99467500  0.66861500  1
  O  O45  1  0.00532500  0.66861500  0.28832300  1
  O  O46  1  0.99467500  0.33138500  0.28832300  1
  O  O47  1  0.28832300  0.00532500  0.66861500  1
  O  O48  1  0.78832300  0.49467500  0.16861500  1
  O  O49  1  0.33138500  0.28832300  0.99467500  1
  O  O50  1  0.50532500  0.83138500  0.78832300  1
  O  O51  1  0.78832300  0.50532500  0.83138500  1
  O  O52  1  0.35528300  0.00000000  0.00000000  1
  O  O53  1  0.50000000  0.14471700  0.50000000  1
  O  O54  1  0.10294100  0.89705900  0.10294100  1
  O  O55  1  0.00000000  0.64471700  0.00000000  1
  O  O56  1  0.49467500  0.83138500  0.21167700  1
  O  O57  1  0.21167700  0.49467500  0.83138500  1
  O  O58  1  0.10294100  0.10294100  0.89705900  1
  O  O59  1  0.66861500  0.28832300  0.00532500  1
  O  O60  1  0.50000000  0.50000000  0.85528300  1
  O  O61  1  0.00000000  0.00000000  0.35528300  1
  O  O62  1  0.99467500  0.66861500  0.71167700  1
  O  O63  1  0.14471700  0.50000000  0.50000000  1
  O  O64  1  0.64471700  0.00000000  0.00000000  1
  O  O65  1  0.00532500  0.33138500  0.71167700  1
  O  O66  1  0.50000000  0.50000000  0.14471700  1
  O  O67  1  0.00000000  0.35528300  0.00000000  1
