# generated using pymatgen
data_La4Os6O19
_symmetry_space_group_name_H-M   'P 1'
_cell_length_a   7.92386051
_cell_length_b   7.92386051
_cell_length_c   7.92386051
_cell_angle_alpha   109.47122063
_cell_angle_beta   109.47122063
_cell_angle_gamma   109.47122063
_symmetry_Int_Tables_number   1
_chemical_formula_structural   La4Os6O19
_chemical_formula_sum   'La4 Os6 O19'
_cell_volume   382.99100556
_cell_formula_units_Z   1
loop_
 _symmetry_equiv_pos_site_id
 _symmetry_equiv_pos_as_xyz
  1  'x, y, z'
loop_
 _atom_site_type_symbol
 _atom_site_label
 _atom_site_symmetry_multiplicity
 _atom_site_fract_x
 _atom_site_fract_y
 _atom_site_fract_z
 _atom_site_occupancy
  La  La0  1  0.00000000  0.00000000  0.31436200  1
  La  La1  1  0.00000000  0.31436200  0.00000000  1
  La  La2  1  0.68563800  0.68563800  0.68563800  1
  La  La3  1  0.31436200  0.00000000  0.00000000  1
  Os  Os4  1  0.36280600  0.50000000  0.86280600  1
  Os  Os5  1  0.86280600  0.36280600  0.50000000  1
  Os  Os6  1  0.50000000  0.13719400  0.63719400  1
  Os  Os7  1  0.13719400  0.63719400  0.50000000  1
  Os  Os8  1  0.50000000  0.86280600  0.36280600  1
  Os  Os9  1  0.63719400  0.50000000  0.13719400  1
  O  O10  1  0.32402000  0.00000000  0.32402000  1
  O  O11  1  0.32402000  0.32402000  0.00000000  1
  O  O12  1  0.00000000  0.67598000  0.67598000  1
  O  O13  1  0.67598000  0.67598000  0.00000000  1
  O  O14  1  0.00000000  0.32402000  0.32402000  1
  O  O15  1  0.67598000  0.00000000  0.67598000  1
  O  O16  1  0.00000000  0.00000000  0.00000000  1
  O  O17  1  0.35511700  0.29518100  0.62726400  1
  O  O18  1  0.05993500  0.33208200  0.70481900  1
  O  O19  1  0.72785300  0.37273600  0.66791800  1
  O  O20  1  0.37273600  0.66791800  0.72785300  1
  O  O21  1  0.27214700  0.94006500  0.64488300  1
  O  O22  1  0.62726400  0.35511700  0.29518100  1
  O  O23  1  0.29518100  0.62726400  0.35511700  1
  O  O24  1  0.70481900  0.05993500  0.33208200  1
  O  O25  1  0.94006500  0.64488300  0.27214700  1
  O  O26  1  0.66791800  0.72785300  0.37273600  1
  O  O27  1  0.64488300  0.27214700  0.94006500  1
  O  O28  1  0.33208200  0.70481900  0.05993500  1
