# generated using pymatgen
data_Cr2S3
_symmetry_space_group_name_H-M   'P 1'
_cell_length_a   6.59963942
_cell_length_b   6.59963942
_cell_length_c   6.59963934
_cell_angle_alpha   54.28492681
_cell_angle_beta   54.28492681
_cell_angle_gamma   54.28491748
_symmetry_Int_Tables_number   1
_chemical_formula_structural   Cr2S3
_chemical_formula_sum   'Cr4 S6'
_cell_volume   176.15310692
_cell_formula_units_Z   2
loop_
 _symmetry_equiv_pos_site_id
 _symmetry_equiv_pos_as_xyz
  1  'x, y, z'
loop_
 _atom_site_type_symbol
 _atom_site_label
 _atom_site_symmetry_multiplicity
 _atom_site_fract_x
 _atom_site_fract_y
 _atom_site_fract_z
 _atom_site_occupancy
  Cr  Cr0  1  0.67747100  0.67747100  0.67747100  1
  Cr  Cr1  1  0.50000000  0.50000000  0.50000000  1
  Cr  Cr2  1  0.00000000  0.00000000  0.00000000  1
  Cr  Cr3  1  0.32252900  0.32252900  0.32252900  1
  S  S4  1  0.59650700  0.90219100  0.26578400  1
  S  S5  1  0.73421600  0.40349300  0.09780900  1
  S  S6  1  0.26578400  0.59650700  0.90219100  1
  S  S7  1  0.40349300  0.09780900  0.73421600  1
  S  S8  1  0.09780900  0.73421600  0.40349300  1
  S  S9  1  0.90219100  0.26578400  0.59650700  1
