# generated using pymatgen
data_DySeClO3
_symmetry_space_group_name_H-M   'P 1'
_cell_length_a   7.02245500
_cell_length_b   7.29809800
_cell_length_c   8.88781700
_cell_angle_alpha   90.00000000
_cell_angle_beta   90.00000000
_cell_angle_gamma   90.00000000
_symmetry_Int_Tables_number   1
_chemical_formula_structural   DySeClO3
_chemical_formula_sum   'Dy4 Se4 Cl4 O12'
_cell_volume   455.50564101
_cell_formula_units_Z   4
loop_
 _symmetry_equiv_pos_site_id
 _symmetry_equiv_pos_as_xyz
  1  'x, y, z'
loop_
 _atom_site_type_symbol
 _atom_site_label
 _atom_site_symmetry_multiplicity
 _atom_site_fract_x
 _atom_site_fract_y
 _atom_site_fract_z
 _atom_site_occupancy
  Dy  Dy0  1  0.75000000  0.39469900  0.03904800  1
  Dy  Dy1  1  0.75000000  0.89469900  0.46095200  1
  Dy  Dy2  1  0.25000000  0.60530100  0.96095200  1
  Dy  Dy3  1  0.25000000  0.10530100  0.53904800  1
  Se  Se4  1  0.75000000  0.29071300  0.63261900  1
  Se  Se5  1  0.25000000  0.70928700  0.36738100  1
  Se  Se6  1  0.75000000  0.79071300  0.86738100  1
  Se  Se7  1  0.25000000  0.20928700  0.13261900  1
  Cl  Cl8  1  0.25000000  0.44292100  0.68205000  1
  Cl  Cl9  1  0.75000000  0.05707900  0.18205000  1
  Cl  Cl10  1  0.25000000  0.94292100  0.81795000  1
  Cl  Cl11  1  0.75000000  0.55707900  0.31795000  1
  O  O12  1  0.92734900  0.64157600  0.93281500  1
  O  O13  1  0.57265100  0.64157600  0.93281500  1
  O  O14  1  0.75000000  0.74829700  0.67919700  1
  O  O15  1  0.07265100  0.35842400  0.06718500  1
  O  O16  1  0.07265100  0.85842400  0.43281500  1
  O  O17  1  0.25000000  0.75170300  0.17919700  1
  O  O18  1  0.92734900  0.14157600  0.56718500  1
  O  O19  1  0.25000000  0.25170300  0.32080300  1
  O  O20  1  0.42734900  0.35842400  0.06718500  1
  O  O21  1  0.57265100  0.14157600  0.56718500  1
  O  O22  1  0.75000000  0.24829700  0.82080300  1
  O  O23  1  0.42734900  0.85842400  0.43281500  1
