# generated using pymatgen
data_CsSmSiS4
_symmetry_space_group_name_H-M   'P 1'
_cell_length_a   6.49623300
_cell_length_b   6.80302600
_cell_length_c   18.05905400
_cell_angle_alpha   90.00000000
_cell_angle_beta   90.00000000
_cell_angle_gamma   90.00000000
_symmetry_Int_Tables_number   1
_chemical_formula_structural   CsSmSiS4
_chemical_formula_sum   'Cs4 Sm4 Si4 S16'
_cell_volume   798.10259098
_cell_formula_units_Z   4
loop_
 _symmetry_equiv_pos_site_id
 _symmetry_equiv_pos_as_xyz
  1  'x, y, z'
loop_
 _atom_site_type_symbol
 _atom_site_label
 _atom_site_symmetry_multiplicity
 _atom_site_fract_x
 _atom_site_fract_y
 _atom_site_fract_z
 _atom_site_occupancy
  Cs  Cs0  1  0.00350800  0.50643000  0.46647200  1
  Cs  Cs1  1  0.49649200  0.49357000  0.96647200  1
  Cs  Cs2  1  0.99649200  0.00643000  0.03352800  1
  Cs  Cs3  1  0.50350800  0.99357000  0.53352800  1
  Sm  Sm4  1  0.20751700  0.52076400  0.72829000  1
  Sm  Sm5  1  0.70751700  0.97923600  0.27171000  1
  Sm  Sm6  1  0.79248300  0.02076400  0.77171000  1
  Sm  Sm7  1  0.29248300  0.47923600  0.22829000  1
  Si  Si8  1  0.79001200  0.51567600  0.16771700  1
  Si  Si9  1  0.29001200  0.98432400  0.83228300  1
  Si  Si10  1  0.70998800  0.48432400  0.66771700  1
  Si  Si11  1  0.20998800  0.01567600  0.33228300  1
  S  S12  1  0.54951900  0.98882800  0.90285600  1
  S  S13  1  0.60861000  0.25344900  0.15564200  1
  S  S14  1  0.11276800  0.07032300  0.22134300  1
  S  S15  1  0.42889400  0.24432800  0.35378200  1
  S  S16  1  0.38723200  0.92967700  0.72134300  1
  S  S17  1  0.39139000  0.75344900  0.34435800  1
  S  S18  1  0.89139000  0.74655100  0.65564200  1
  S  S19  1  0.61276800  0.42967700  0.77865700  1
  S  S20  1  0.95048100  0.01117200  0.40285600  1
  S  S21  1  0.57110600  0.74432800  0.14621800  1
  S  S22  1  0.04951900  0.51117200  0.09714400  1
  S  S23  1  0.07110600  0.75567200  0.85378200  1
  S  S24  1  0.10861000  0.24655100  0.84435800  1
  S  S25  1  0.92889400  0.25567200  0.64621800  1
  S  S26  1  0.45048100  0.48882800  0.59714400  1
  S  S27  1  0.88723200  0.57032300  0.27865700  1
