# generated using pymatgen
data_NdAlPt
_symmetry_space_group_name_H-M   'P 1'
_cell_length_a   4.50302300
_cell_length_b   7.17003800
_cell_length_c   7.88103700
_cell_angle_alpha   90.00000000
_cell_angle_beta   90.00000000
_cell_angle_gamma   90.00000000
_symmetry_Int_Tables_number   1
_chemical_formula_structural   NdAlPt
_chemical_formula_sum   'Nd4 Al4 Pt4'
_cell_volume   254.45382814
_cell_formula_units_Z   4
loop_
 _symmetry_equiv_pos_site_id
 _symmetry_equiv_pos_as_xyz
  1  'x, y, z'
loop_
 _atom_site_type_symbol
 _atom_site_label
 _atom_site_symmetry_multiplicity
 _atom_site_fract_x
 _atom_site_fract_y
 _atom_site_fract_z
 _atom_site_occupancy
  Nd  Nd0  1  0.75000000  0.47098000  0.18247400  1
  Nd  Nd1  1  0.25000000  0.02902000  0.68247400  1
  Nd  Nd2  1  0.75000000  0.97098000  0.31752600  1
  Nd  Nd3  1  0.25000000  0.52902000  0.81752600  1
  Al  Al4  1  0.75000000  0.85437700  0.93307600  1
  Al  Al5  1  0.25000000  0.64562300  0.43307600  1
  Al  Al6  1  0.75000000  0.35437700  0.56692400  1
  Al  Al7  1  0.25000000  0.14562300  0.06692400  1
  Pt  Pt8  1  0.75000000  0.71761600  0.61145400  1
  Pt  Pt9  1  0.75000000  0.21761600  0.88854600  1
  Pt  Pt10  1  0.25000000  0.28238400  0.38854600  1
  Pt  Pt11  1  0.25000000  0.78238400  0.11145400  1
