# generated using pymatgen
data_TiCu2Te3
_symmetry_space_group_name_H-M   'P 1'
_cell_length_a   10.17754116
_cell_length_b   10.17754116
_cell_length_c   7.16149145
_cell_angle_alpha   83.61493394
_cell_angle_beta   83.61493394
_cell_angle_gamma   22.70983489
_symmetry_Int_Tables_number   1
_chemical_formula_structural   TiCu2Te3
_chemical_formula_sum   'Ti2 Cu4 Te6'
_cell_volume   284.53580703
_cell_formula_units_Z   2
loop_
 _symmetry_equiv_pos_site_id
 _symmetry_equiv_pos_as_xyz
  1  'x, y, z'
loop_
 _atom_site_type_symbol
 _atom_site_label
 _atom_site_symmetry_multiplicity
 _atom_site_fract_x
 _atom_site_fract_y
 _atom_site_fract_z
 _atom_site_occupancy
  Ti  Ti0  1  0.64574300  0.64574300  0.43857300  1
  Ti  Ti1  1  0.35425700  0.35425700  0.56142700  1
  Cu  Cu2  1  0.71335200  0.71335200  0.07252200  1
  Cu  Cu3  1  0.28664800  0.28664800  0.92747800  1
  Cu  Cu4  1  0.04513300  0.04513300  0.34664500  1
  Cu  Cu5  1  0.95486700  0.95486700  0.65335500  1
  Te  Te6  1  0.75235500  0.75235500  0.70805900  1
  Te  Te7  1  0.24764500  0.24764500  0.29194100  1
  Te  Te8  1  0.58209300  0.58209300  0.13123400  1
  Te  Te9  1  0.41790700  0.41790700  0.86876600  1
  Te  Te10  1  0.91235200  0.91235200  0.32845000  1
  Te  Te11  1  0.08764800  0.08764800  0.67155000  1
