# generated using pymatgen
data_Pr7BP2O17
_symmetry_space_group_name_H-M   'P 1'
_cell_length_a   17.93867600
_cell_length_b   6.98309500
_cell_length_c   13.55920009
_cell_angle_alpha   66.69402623
_cell_angle_beta   90.00000000
_cell_angle_gamma   90.00000000
_symmetry_Int_Tables_number   1
_chemical_formula_structural   Pr7BP2O17
_chemical_formula_sum   'Pr28 B4 P8 O68'
_cell_volume   1559.93574397
_cell_formula_units_Z   4
loop_
 _symmetry_equiv_pos_site_id
 _symmetry_equiv_pos_as_xyz
  1  'x, y, z'
loop_
 _atom_site_type_symbol
 _atom_site_label
 _atom_site_symmetry_multiplicity
 _atom_site_fract_x
 _atom_site_fract_y
 _atom_site_fract_z
 _atom_site_occupancy
  Pr  Pr0  1  0.27460400  0.79674900  0.17916000  1
  Pr  Pr1  1  0.77460400  0.20325100  0.32084000  1
  Pr  Pr2  1  0.48174300  0.79932400  0.21151500  1
  Pr  Pr3  1  0.77674300  0.71565000  0.59656200  1
  Pr  Pr4  1  0.10553000  0.30678300  0.69769800  1
  Pr  Pr5  1  0.60553000  0.69321700  0.80230200  1
  Pr  Pr6  1  0.86667200  0.22084700  0.57006600  1
  Pr  Pr7  1  0.72325700  0.71565000  0.09656200  1
  Pr  Pr8  1  0.72539600  0.20325100  0.82084000  1
  Pr  Pr9  1  0.89447000  0.69321700  0.30230200  1
  Pr  Pr10  1  0.36667200  0.77915300  0.92993400  1
  Pr  Pr11  1  0.63332800  0.22084700  0.07006600  1
  Pr  Pr12  1  0.44553000  0.28369300  0.49037400  1
  Pr  Pr13  1  0.55447000  0.71630700  0.50962600  1
  Pr  Pr14  1  0.98174300  0.20067600  0.28848500  1
  Pr  Pr15  1  0.15435300  0.81308700  0.92726400  1
  Pr  Pr16  1  0.34564700  0.81308700  0.42726400  1
  Pr  Pr17  1  0.22539600  0.79674900  0.67916000  1
  Pr  Pr18  1  0.05447000  0.28369300  0.99037400  1
  Pr  Pr19  1  0.27674300  0.28435000  0.90343800  1
  Pr  Pr20  1  0.94553000  0.71630700  0.00962600  1
  Pr  Pr21  1  0.84564700  0.18691300  0.07273600  1
  Pr  Pr22  1  0.01825700  0.79932400  0.71151500  1
  Pr  Pr23  1  0.65435300  0.18691300  0.57273600  1
  Pr  Pr24  1  0.22325700  0.28435000  0.40343800  1
  Pr  Pr25  1  0.51825700  0.20067600  0.78848500  1
  Pr  Pr26  1  0.13332800  0.77915300  0.42993400  1
  Pr  Pr27  1  0.39447000  0.30678300  0.19769800  1
  B  B28  1  0.06817300  0.24953100  0.49957400  1
  B  B29  1  0.43182700  0.24953100  0.99957400  1
  B  B30  1  0.93182700  0.75046900  0.50042600  1
  B  B31  1  0.56817300  0.75046900  0.00042600  1
  P  P32  1  0.69887000  0.71449300  0.33685600  1
  P  P33  1  0.19887000  0.28550700  0.16314400  1
  P  P34  1  0.43860900  0.77949000  0.68308600  1
  P  P35  1  0.93861000  0.22051000  0.81691400  1
  P  P36  1  0.56139100  0.22051000  0.31691400  1
  P  P37  1  0.80113000  0.71449300  0.83685600  1
  P  P38  1  0.30113000  0.28550700  0.66314400  1
  P  P39  1  0.06139100  0.77949000  0.18308600  1
  O  O40  1  0.01422300  0.19253800  0.57962000  1
  O  O41  1  0.75480600  0.36741600  0.12558600  1
  O  O42  1  0.54220800  0.36451100  0.59658900  1
  O  O43  1  0.74519400  0.36741600  0.62558600  1
  O  O44  1  0.24324100  0.42417300  0.69223600  1
  O  O45  1  0.36442000  0.42281700  0.59317100  1
  O  O46  1  0.89048800  0.32026300  0.37486200  1
  O  O47  1  0.76699900  0.09264100  0.50870000  1
  O  O48  1  0.37950400  0.40191200  0.99895200  1
  O  O49  1  0.50390300  0.40385700  0.27693600  1
  O  O50  1  0.74324100  0.57582700  0.80776400  1
  O  O51  1  0.17119400  0.12434300  0.27264600  1
  O  O52  1  0.51422300  0.80746200  0.92038000  1
  O  O53  1  0.25480600  0.63258400  0.37441400  1
  O  O54  1  0.25675900  0.42417300  0.19223600  1
  O  O55  1  0.86442000  0.57718300  0.90682900  1
  O  O56  1  0.86758700  0.04943400  0.25896700  1
  O  O57  1  0.08060900  0.16032500  0.42674100  1
  O  O58  1  0.98577700  0.80746200  0.42038000  1
  O  O59  1  0.73723400  0.82778000  0.40138000  1
  O  O60  1  0.13241300  0.95056600  0.74103300  1
  O  O61  1  0.99609700  0.40385700  0.77693600  1
  O  O62  1  0.12049600  0.40191200  0.49895200  1
  O  O63  1  0.26276600  0.17222000  0.59862000  1
  O  O64  1  0.95779200  0.36451100  0.09658900  1
  O  O65  1  0.39048800  0.67973700  0.12513800  1
  O  O66  1  0.14476600  0.20213900  0.88053100  1
  O  O67  1  0.35523400  0.20213900  0.38053100  1
  O  O68  1  0.23723400  0.17222000  0.09862000  1
  O  O69  1  0.41939100  0.16032500  0.92674100  1
  O  O70  1  0.13684700  0.71262800  0.23824700  1
  O  O71  1  0.48577700  0.19253800  0.07962000  1
  O  O72  1  0.87950400  0.59808800  0.50104800  1
  O  O73  1  0.52840700  0.03345200  0.29759800  1
  O  O74  1  0.13558000  0.42281700  0.09317100  1
  O  O75  1  0.00390300  0.59614300  0.22306400  1
  O  O76  1  0.86315300  0.28737200  0.76175300  1
  O  O77  1  0.47159300  0.96654800  0.70240200  1
  O  O78  1  0.02840700  0.96654800  0.20240200  1
  O  O79  1  0.36758700  0.95056600  0.24103300  1
  O  O80  1  0.97159300  0.03345200  0.79759800  1
  O  O81  1  0.63684700  0.28737200  0.26175300  1
  O  O82  1  0.43462300  0.85571200  0.55782900  1
  O  O83  1  0.64476600  0.79786100  0.61946900  1
  O  O84  1  0.58060900  0.83967500  0.07325900  1
  O  O85  1  0.32880600  0.12434300  0.77264600  1
  O  O86  1  0.85523400  0.79786100  0.11946900  1
  O  O87  1  0.73300100  0.09264100  0.00870000  1
  O  O88  1  0.91939100  0.83967500  0.57325900  1
  O  O89  1  0.93462300  0.14428800  0.94217100  1
  O  O90  1  0.75675900  0.57582700  0.30776400  1
  O  O91  1  0.62049600  0.59808800  0.00104800  1
  O  O92  1  0.49609700  0.59614300  0.72306400  1
  O  O93  1  0.06537700  0.85571200  0.05782900  1
  O  O94  1  0.76276600  0.82778000  0.90138000  1
  O  O95  1  0.67119400  0.87565700  0.22735400  1
  O  O96  1  0.10951200  0.67973700  0.62513800  1
  O  O97  1  0.60951200  0.32026300  0.87486200  1
  O  O98  1  0.63558000  0.57718300  0.40682900  1
  O  O99  1  0.23300100  0.90735900  0.49130000  1
  O  O100  1  0.63241300  0.04943400  0.75896700  1
  O  O101  1  0.04220800  0.63548900  0.90341100  1
  O  O102  1  0.26699900  0.90735900  0.99130000  1
  O  O103  1  0.45779200  0.63548900  0.40341100  1
  O  O104  1  0.24519400  0.63258400  0.87441400  1
  O  O105  1  0.82880600  0.87565700  0.72735400  1
  O  O106  1  0.36315300  0.71262800  0.73824700  1
  O  O107  1  0.56537700  0.14428800  0.44217100  1
