# generated using pymatgen
data_Co3H2Se3O10
_symmetry_space_group_name_H-M   'P 1'
_cell_length_a   8.23072800
_cell_length_b   8.35265957
_cell_length_c   8.67994103
_cell_angle_alpha   69.00577132
_cell_angle_beta   63.09934566
_cell_angle_gamma   67.55650898
_symmetry_Int_Tables_number   1
_chemical_formula_structural   Co3H2Se3O10
_chemical_formula_sum   'Co6 H4 Se6 O20'
_cell_volume   479.22997931
_cell_formula_units_Z   2
loop_
 _symmetry_equiv_pos_site_id
 _symmetry_equiv_pos_as_xyz
  1  'x, y, z'
loop_
 _atom_site_type_symbol
 _atom_site_label
 _atom_site_symmetry_multiplicity
 _atom_site_fract_x
 _atom_site_fract_y
 _atom_site_fract_z
 _atom_site_occupancy
  Co  Co0  1  0.00000000  0.00000000  0.00000000  1
  Co  Co1  1  0.50000000  0.50000000  0.50000000  1
  Co  Co2  1  0.65412100  0.03460800  0.80099500  1
  Co  Co3  1  0.34587900  0.96539200  0.19900500  1
  Co  Co4  1  0.71658600  0.85683800  0.39118200  1
  Co  Co5  1  0.28341400  0.14316200  0.60881800  1
  H  H6  1  0.03260800  0.87364600  0.69441800  1
  H  H7  1  0.96739200  0.12635400  0.30558200  1
  H  H8  1  0.94159400  0.81282800  0.59936900  1
  H  H9  1  0.05840600  0.18717200  0.40063100  1
  Se  Se10  1  0.56996200  0.23306700  0.23953000  1
  Se  Se11  1  0.43003800  0.76693300  0.76047000  1
  Se  Se12  1  0.79495100  0.66907700  0.06856000  1
  Se  Se13  1  0.20504900  0.33092300  0.93144000  1
  Se  Se14  1  0.17187000  0.67438100  0.29989600  1
  Se  Se15  1  0.82813000  0.32561900  0.70010400  1
  O  O16  1  0.30574900  0.71599600  0.38133900  1
  O  O17  1  0.69425100  0.28400400  0.61866100  1
  O  O18  1  0.54754600  0.69495000  0.56201600  1
  O  O19  1  0.45245400  0.30505000  0.43798400  1
  O  O20  1  0.20818300  0.89849900  0.75551500  1
  O  O21  1  0.79181700  0.10150100  0.24448500  1
  O  O22  1  0.53279000  0.94574300  0.67381100  1
  O  O23  1  0.46721000  0.05425700  0.32618900  1
  O  O24  1  0.94685800  0.73232000  0.45580700  1
  O  O25  1  0.05314200  0.26768000  0.54419300  1
  O  O26  1  0.70615900  0.51614200  0.25076300  1
  O  O27  1  0.29384100  0.48385800  0.74923700  1
  O  O28  1  0.59710000  0.82906800  0.02996800  1
  O  O29  1  0.40290000  0.17093200  0.97003200  1
  O  O30  1  0.86776000  0.78510100  0.14920600  1
  O  O31  1  0.13224000  0.21489900  0.85079400  1
  O  O32  1  0.19083300  0.86094700  0.12200200  1
  O  O33  1  0.80916700  0.13905300  0.87799800  1
  O  O34  1  0.91343900  0.87025200  0.69597700  1
  O  O35  1  0.08656100  0.12974800  0.30402300  1
