# generated using pymatgen
data_K3Fe2(PO4)3
_symmetry_space_group_name_H-M   'P 1'
_cell_length_a   9.56759564
_cell_length_b   9.56759564
_cell_length_c   16.98186191
_cell_angle_alpha   65.64571136
_cell_angle_beta   65.64571136
_cell_angle_gamma   60.32502284
_symmetry_Int_Tables_number   1
_chemical_formula_structural   K3Fe2(PO4)3
_chemical_formula_sum   'K12 Fe8 P12 O48'
_cell_volume   1187.10079422
_cell_formula_units_Z   4
loop_
 _symmetry_equiv_pos_site_id
 _symmetry_equiv_pos_as_xyz
  1  'x, y, z'
loop_
 _atom_site_type_symbol
 _atom_site_label
 _atom_site_symmetry_multiplicity
 _atom_site_fract_x
 _atom_site_fract_y
 _atom_site_fract_z
 _atom_site_occupancy
  K  K0  1  0.31077800  0.52942300  0.67959000  1
  K  K1  1  0.07346600  0.33661600  0.41917200  1
  K  K2  1  0.72481800  0.27518200  0.75000000  1
  K  K3  1  0.52942300  0.31077800  0.17959000  1
  K  K4  1  0.33661600  0.07346600  0.91917200  1
  K  K5  1  0.00000000  0.50000000  0.00000000  1
  K  K6  1  0.27518200  0.72481800  0.25000000  1
  K  K7  1  0.92653400  0.66338400  0.58082800  1
  K  K8  1  0.68922200  0.47057700  0.32041000  1
  K  K9  1  0.47057700  0.68922200  0.82041000  1
  K  K10  1  0.50000000  0.00000000  0.50000000  1
  K  K11  1  0.66338400  0.92653400  0.08082800  1
  Fe  Fe12  1  0.83276300  0.80945300  0.82382900  1
  Fe  Fe13  1  0.80945300  0.83276300  0.32382900  1
  Fe  Fe14  1  0.16723700  0.19054700  0.17617100  1
  Fe  Fe15  1  0.78844500  0.27700700  0.96590300  1
  Fe  Fe16  1  0.72299300  0.21155500  0.53409700  1
  Fe  Fe17  1  0.27700700  0.78844500  0.46590300  1
  Fe  Fe18  1  0.19054700  0.16723700  0.67617100  1
  Fe  Fe19  1  0.21155500  0.72299300  0.03409700  1
  P  P20  1  0.04001500  0.98882600  0.62196100  1
  P  P21  1  0.34873800  0.39946700  0.48145000  1
  P  P22  1  0.98882600  0.04001600  0.12196100  1
  P  P23  1  0.96346500  0.42340700  0.80991500  1
  P  P24  1  0.65126200  0.60053300  0.51855000  1
  P  P25  1  0.39946700  0.34873800  0.98145000  1
  P  P26  1  0.60053300  0.65126200  0.01855000  1
  P  P27  1  0.01117400  0.95998500  0.87803900  1
  P  P28  1  0.95998500  0.01117400  0.37803900  1
  P  P29  1  0.03653500  0.57659300  0.19008500  1
  P  P30  1  0.42340700  0.96346500  0.30991500  1
  P  P31  1  0.57659300  0.03653500  0.69008500  1
  O  O32  1  0.91910600  0.62404500  0.27950500  1
  O  O33  1  0.62404500  0.91910600  0.77950500  1
  O  O34  1  0.77015200  0.69184300  0.44806600  1
  O  O35  1  0.83844700  0.12094800  0.08224200  1
  O  O36  1  0.53049500  0.27960000  0.48710900  1
  O  O37  1  0.96386600  0.59489400  0.79756400  1
  O  O38  1  0.87905200  0.16155300  0.41775800  1
  O  O39  1  0.43660800  0.78389100  0.33019400  1
  O  O40  1  0.84767500  0.07189100  0.93175500  1
  O  O41  1  0.29564200  0.55636300  0.51122200  1
  O  O42  1  0.59489400  0.96386600  0.29756400  1
  O  O43  1  0.66569900  0.55971500  0.61257900  1
  O  O44  1  0.27960000  0.53049500  0.98710900  1
  O  O45  1  0.08089400  0.37595500  0.72049500  1
  O  O46  1  0.69184300  0.77015200  0.94806600  1
  O  O47  1  0.29518400  0.02329100  0.39425700  1
  O  O48  1  0.94748200  0.92512200  0.21603000  1
  O  O49  1  0.12094800  0.83844700  0.58224200  1
  O  O50  1  0.70481600  0.97670900  0.60574300  1
  O  O51  1  0.55636300  0.29564200  0.01122200  1
  O  O52  1  0.07189100  0.84767500  0.43175500  1
  O  O53  1  0.05251800  0.07487800  0.78397000  1
  O  O54  1  0.55971500  0.66569900  0.11257900  1
  O  O55  1  0.07487800  0.05251800  0.28397000  1
  O  O56  1  0.92810900  0.15232500  0.56824500  1
  O  O57  1  0.70435800  0.44363700  0.48877800  1
  O  O58  1  0.02329100  0.29518400  0.89425700  1
  O  O59  1  0.81682500  0.97908500  0.37674200  1
  O  O60  1  0.72040000  0.46950500  0.01289100  1
  O  O61  1  0.30815700  0.22984800  0.05193400  1
  O  O62  1  0.97670900  0.70481600  0.10574300  1
  O  O63  1  0.56339200  0.21610900  0.66980600  1
  O  O64  1  0.40510600  0.03613400  0.70243600  1
  O  O65  1  0.33430100  0.44028500  0.38742100  1
  O  O66  1  0.21610900  0.56339200  0.16980600  1
  O  O67  1  0.03613400  0.40510600  0.20243600  1
  O  O68  1  0.44363700  0.70435800  0.98877800  1
  O  O69  1  0.18317500  0.02091500  0.62325800  1
  O  O70  1  0.16155300  0.87905200  0.91775800  1
  O  O71  1  0.02091500  0.18317500  0.12325800  1
  O  O72  1  0.22984800  0.30815700  0.55193400  1
  O  O73  1  0.15232500  0.92810900  0.06824500  1
  O  O74  1  0.92512200  0.94748200  0.71603000  1
  O  O75  1  0.78389100  0.43660800  0.83019400  1
  O  O76  1  0.37595500  0.08089400  0.22049500  1
  O  O77  1  0.97908500  0.81682500  0.87674200  1
  O  O78  1  0.44028500  0.33430100  0.88742100  1
  O  O79  1  0.46950500  0.72040000  0.51289100  1
