# generated using pymatgen
data_RbV3Cd3O11
_symmetry_space_group_name_H-M   'P 1'
_cell_length_a   9.96822900
_cell_length_b   8.56877600
_cell_length_c   12.87439557
_cell_angle_alpha   81.67253222
_cell_angle_beta   90.00000000
_cell_angle_gamma   90.00000000
_symmetry_Int_Tables_number   1
_chemical_formula_structural   RbV3Cd3O11
_chemical_formula_sum   'Rb4 V12 Cd12 O44'
_cell_volume   1088.07877357
_cell_formula_units_Z   4
loop_
 _symmetry_equiv_pos_site_id
 _symmetry_equiv_pos_as_xyz
  1  'x, y, z'
loop_
 _atom_site_type_symbol
 _atom_site_label
 _atom_site_symmetry_multiplicity
 _atom_site_fract_x
 _atom_site_fract_y
 _atom_site_fract_z
 _atom_site_occupancy
  Rb  Rb0  1  0.74757200  0.88862300  0.50973700  1
  Rb  Rb1  1  0.24757200  0.11137700  0.99026300  1
  Rb  Rb2  1  0.25242800  0.11137700  0.49026300  1
  Rb  Rb3  1  0.75242800  0.88862300  0.00973700  1
  V  V4  1  0.67521300  0.67916300  0.78416100  1
  V  V5  1  0.43184700  0.76443600  0.14926900  1
  V  V6  1  0.06815300  0.76443600  0.64926900  1
  V  V7  1  0.56779100  0.22245200  0.60539200  1
  V  V8  1  0.56815300  0.23556400  0.85073100  1
  V  V9  1  0.32478700  0.32083700  0.21583900  1
  V  V10  1  0.82478700  0.67916300  0.28416100  1
  V  V11  1  0.43220900  0.77754800  0.39460800  1
  V  V12  1  0.17521300  0.32083700  0.71583900  1
  V  V13  1  0.06779100  0.77754800  0.89460800  1
  V  V14  1  0.93220900  0.22245200  0.10539200  1
  V  V15  1  0.93184700  0.23556400  0.35073100  1
  Cd  Cd16  1  0.89509100  0.43257600  0.84695500  1
  Cd  Cd17  1  0.64516800  0.45237600  0.06781900  1
  Cd  Cd18  1  0.37510400  0.91968600  0.76125300  1
  Cd  Cd19  1  0.12489600  0.91968600  0.26125300  1
  Cd  Cd20  1  0.87510400  0.08031400  0.73874700  1
  Cd  Cd21  1  0.85483200  0.45237600  0.56781900  1
  Cd  Cd22  1  0.35483200  0.54762400  0.93218100  1
  Cd  Cd23  1  0.60490900  0.43257600  0.34695500  1
  Cd  Cd24  1  0.14516800  0.54762400  0.43218100  1
  Cd  Cd25  1  0.62489600  0.08031400  0.23874700  1
  Cd  Cd26  1  0.39509100  0.56742400  0.65304500  1
  Cd  Cd27  1  0.10490900  0.56742400  0.15304500  1
  O  O28  1  0.00773500  0.67893400  0.28296800  1
  O  O29  1  0.76951900  0.86879900  0.26635700  1
  O  O30  1  0.26951900  0.13120100  0.23364300  1
  O  O31  1  0.25622500  0.78419500  0.39667300  1
  O  O32  1  0.49520800  0.67602300  0.50750300  1
  O  O33  1  0.73048100  0.86879900  0.76635700  1
  O  O34  1  0.25828800  0.78251300  0.14910000  1
  O  O35  1  0.49837100  0.96207000  0.37653400  1
  O  O36  1  0.51049000  0.34635000  0.94484000  1
  O  O37  1  0.73264900  0.58338700  0.90726300  1
  O  O38  1  0.98359700  0.32340100  0.21686700  1
  O  O39  1  0.99226500  0.32106600  0.71703200  1
  O  O40  1  0.50479200  0.32397700  0.49249700  1
  O  O41  1  0.23264900  0.41661300  0.59273700  1
  O  O42  1  0.74171200  0.21748700  0.85090000  1
  O  O43  1  0.48951000  0.65365000  0.05516000  1
  O  O44  1  0.48359700  0.67659900  0.28313300  1
  O  O45  1  0.26735100  0.41661300  0.09273700  1
  O  O46  1  0.26067800  0.42015900  0.31283200  1
  O  O47  1  0.74377500  0.21580500  0.60332700  1
  O  O48  1  0.01049000  0.65365000  0.55516000  1
  O  O49  1  0.51640300  0.32340100  0.71686700  1
  O  O50  1  0.99837100  0.03793000  0.12346600  1
  O  O51  1  0.00479200  0.67602300  0.00750300  1
  O  O52  1  0.75828800  0.21748700  0.35090000  1
  O  O53  1  0.99785600  0.94622700  0.62758300  1
  O  O54  1  0.23932200  0.42015900  0.81283200  1
  O  O55  1  0.00214400  0.05377300  0.37241700  1
  O  O56  1  0.00162900  0.96207000  0.87653400  1
  O  O57  1  0.01640300  0.67659900  0.78313300  1
  O  O58  1  0.73932200  0.57984100  0.68716800  1
  O  O59  1  0.49785600  0.05377300  0.87241700  1
  O  O60  1  0.75622500  0.21580500  0.10332700  1
  O  O61  1  0.50773500  0.32106600  0.21703200  1
  O  O62  1  0.99520800  0.32397700  0.99249700  1
  O  O63  1  0.24377500  0.78419500  0.89667300  1
  O  O64  1  0.76735100  0.58338700  0.40726300  1
  O  O65  1  0.50162900  0.03793000  0.62346600  1
  O  O66  1  0.98951000  0.34635000  0.44484000  1
  O  O67  1  0.76067800  0.57984100  0.18716800  1
  O  O68  1  0.50214400  0.94622700  0.12758300  1
  O  O69  1  0.23048100  0.13120100  0.73364300  1
  O  O70  1  0.49226500  0.67893400  0.78296800  1
  O  O71  1  0.24171200  0.78251300  0.64910000  1
