# generated using pymatgen
data_Tl2S
_symmetry_space_group_name_H-M   'P 1'
_cell_length_a   9.67592250
_cell_length_b   9.67592250
_cell_length_c   9.67592253
_cell_angle_alpha   81.36948910
_cell_angle_beta   81.36948910
_cell_angle_gamma   81.36948570
_symmetry_Int_Tables_number   1
_chemical_formula_structural   Tl2S
_chemical_formula_sum   'Tl18 S9'
_cell_volume   877.92375788
_cell_formula_units_Z   9
loop_
 _symmetry_equiv_pos_site_id
 _symmetry_equiv_pos_as_xyz
  1  'x, y, z'
loop_
 _atom_site_type_symbol
 _atom_site_label
 _atom_site_symmetry_multiplicity
 _atom_site_fract_x
 _atom_site_fract_y
 _atom_site_fract_z
 _atom_site_occupancy
  Tl  Tl0  1  0.73358400  0.75896700  0.42756600  1
  Tl  Tl1  1  0.08553900  0.76456200  0.05514800  1
  Tl  Tl2  1  0.69231700  0.66065000  0.03621000  1
  Tl  Tl3  1  0.42708600  0.09498800  0.39718100  1
  Tl  Tl4  1  0.05514800  0.08553900  0.76456200  1
  Tl  Tl5  1  0.75896700  0.42756600  0.73358400  1
  Tl  Tl6  1  0.33343000  0.69964000  0.36576800  1
  Tl  Tl7  1  0.00123800  0.36544400  0.03151400  1
  Tl  Tl8  1  0.03151400  0.00123800  0.36544400  1
  Tl  Tl9  1  0.69964000  0.36576800  0.33343000  1
  Tl  Tl10  1  0.39718100  0.42708600  0.09498800  1
  Tl  Tl11  1  0.42756600  0.73358400  0.75896700  1
  Tl  Tl12  1  0.09498800  0.39718100  0.42708600  1
  Tl  Tl13  1  0.03621000  0.69231700  0.66065000  1
  Tl  Tl14  1  0.76456200  0.05514800  0.08553900  1
  Tl  Tl15  1  0.36544400  0.03151400  0.00123800  1
  Tl  Tl16  1  0.66065000  0.03621000  0.69231700  1
  Tl  Tl17  1  0.36576800  0.33343000  0.69964000  1
  S  S18  1  0.54094500  0.54094500  0.54094500  1
  S  S19  1  0.20775200  0.20775200  0.20775200  1
  S  S20  1  0.57637300  0.24139700  0.91117700  1
  S  S21  1  0.54265800  0.87454900  0.20968400  1
  S  S22  1  0.24139700  0.91117700  0.57637300  1
  S  S23  1  0.87454900  0.20968400  0.54265800  1
  S  S24  1  0.91117700  0.57637300  0.24139700  1
  S  S25  1  0.20968400  0.54265800  0.87454900  1
  S  S26  1  0.86263300  0.86263300  0.86263300  1
