# generated using pymatgen
data_U(SiOs)2
_symmetry_space_group_name_H-M   'P 1'
_cell_length_a   5.62462638
_cell_length_b   5.62462638
_cell_length_c   5.62462638
_cell_angle_alpha   136.53237685
_cell_angle_beta   136.53237685
_cell_angle_gamma   63.15833740
_symmetry_Int_Tables_number   1
_chemical_formula_structural   U(SiOs)2
_chemical_formula_sum   'U1 Si2 Os2'
_cell_volume   83.14462827
_cell_formula_units_Z   1
loop_
 _symmetry_equiv_pos_site_id
 _symmetry_equiv_pos_as_xyz
  1  'x, y, z'
loop_
 _atom_site_type_symbol
 _atom_site_label
 _atom_site_symmetry_multiplicity
 _atom_site_fract_x
 _atom_site_fract_y
 _atom_site_fract_z
 _atom_site_occupancy
  U  U0  1  0.00000000  0.00000000  0.00000000  1
  Si  Si1  1  0.62471500  0.62471500  0.00000000  1
  Si  Si2  1  0.37528500  0.37528500  0.00000000  1
  Os  Os3  1  0.25000000  0.75000000  0.50000000  1
  Os  Os4  1  0.75000000  0.25000000  0.50000000  1
