# generated using pymatgen
data_Ba7Sc6Al2O19
_symmetry_space_group_name_H-M   'P 1'
_cell_length_a   5.85715523
_cell_length_b   5.85715523
_cell_length_c   35.67451700
_cell_angle_alpha   90.00000000
_cell_angle_beta   90.00000000
_cell_angle_gamma   119.99999129
_symmetry_Int_Tables_number   1
_chemical_formula_structural   Ba7Sc6Al2O19
_chemical_formula_sum   'Ba14 Sc12 Al4 O38'
_cell_volume   1059.89352697
_cell_formula_units_Z   2
loop_
 _symmetry_equiv_pos_site_id
 _symmetry_equiv_pos_as_xyz
  1  'x, y, z'
loop_
 _atom_site_type_symbol
 _atom_site_label
 _atom_site_symmetry_multiplicity
 _atom_site_fract_x
 _atom_site_fract_y
 _atom_site_fract_z
 _atom_site_occupancy
  Ba  Ba0  1  0.00000000  0.00000000  0.05361800  1
  Ba  Ba1  1  0.33333300  0.66666700  0.89255300  1
  Ba  Ba2  1  0.33333300  0.66666700  0.32765000  1
  Ba  Ba3  1  0.00000000  0.00000000  0.94638200  1
  Ba  Ba4  1  0.00000000  0.00000000  0.44638200  1
  Ba  Ba5  1  0.66666700  0.33333300  0.39255300  1
  Ba  Ba6  1  0.33333300  0.66666700  0.17235000  1
  Ba  Ba7  1  0.00000000  0.00000000  0.75000000  1
  Ba  Ba8  1  0.33333300  0.66666700  0.60744700  1
  Ba  Ba9  1  0.66666700  0.33333300  0.10744700  1
  Ba  Ba10  1  0.00000000  0.00000000  0.55361800  1
  Ba  Ba11  1  0.66666700  0.33333300  0.82765000  1
  Ba  Ba12  1  0.00000000  0.00000000  0.25000000  1
  Ba  Ba13  1  0.66666700  0.33333300  0.67235000  1
  Sc  Sc14  1  0.00000000  0.00000000  0.85164300  1
  Sc  Sc15  1  0.33333300  0.66666700  0.50552000  1
  Sc  Sc16  1  0.66666700  0.33333300  0.49448000  1
  Sc  Sc17  1  0.66666700  0.33333300  0.92126800  1
  Sc  Sc18  1  0.33333300  0.66666700  0.99448000  1
  Sc  Sc19  1  0.33333300  0.66666700  0.42126800  1
  Sc  Sc20  1  0.66666700  0.33333300  0.00552000  1
  Sc  Sc21  1  0.66666700  0.33333300  0.57873200  1
  Sc  Sc22  1  0.00000000  0.00000000  0.35164300  1
  Sc  Sc23  1  0.00000000  0.00000000  0.14835700  1
  Sc  Sc24  1  0.33333300  0.66666700  0.07873200  1
  Sc  Sc25  1  0.00000000  0.00000000  0.64835700  1
  Al  Al26  1  0.33333300  0.66666700  0.79879400  1
  Al  Al27  1  0.66666700  0.33333300  0.29879400  1
  Al  Al28  1  0.33333300  0.66666700  0.70120600  1
  Al  Al29  1  0.66666700  0.33333300  0.20120600  1
  O  O30  1  0.33221300  0.16610700  0.88758200  1
  O  O31  1  0.16834100  0.33668300  0.68494900  1
  O  O32  1  0.33668300  0.16834100  0.18494900  1
  O  O33  1  0.16610700  0.33221300  0.11241800  1
  O  O34  1  0.33333300  0.66666700  0.75000000  1
  O  O35  1  0.99028100  0.49514000  0.53806200  1
  O  O36  1  0.66778700  0.83389300  0.38758200  1
  O  O37  1  0.66331700  0.83165900  0.81505100  1
  O  O38  1  0.00971900  0.50486000  0.03806200  1
  O  O39  1  0.16834100  0.33668300  0.81505100  1
  O  O40  1  0.16834100  0.83165900  0.81505100  1
  O  O41  1  0.50486000  0.00971900  0.96193800  1
  O  O42  1  0.83165900  0.16834100  0.31505100  1
  O  O43  1  0.16610700  0.83389300  0.38758200  1
  O  O44  1  0.00971900  0.50486000  0.46193800  1
  O  O45  1  0.66666700  0.33333300  0.25000000  1
  O  O46  1  0.83389300  0.66778700  0.88758200  1
  O  O47  1  0.16834100  0.83165900  0.68494900  1
  O  O48  1  0.50486000  0.49514000  0.96193800  1
  O  O49  1  0.83389300  0.16610700  0.88758200  1
  O  O50  1  0.16610700  0.33221300  0.38758200  1
  O  O51  1  0.50486000  0.49514000  0.53806200  1
  O  O52  1  0.66331700  0.83165900  0.68494900  1
  O  O53  1  0.33668300  0.16834100  0.31505100  1
  O  O54  1  0.83165900  0.16834100  0.18494900  1
  O  O55  1  0.66778700  0.83389300  0.11241800  1
  O  O56  1  0.99028100  0.49514000  0.96193800  1
  O  O57  1  0.83389300  0.66778700  0.61241800  1
  O  O58  1  0.83165900  0.66331700  0.31505100  1
  O  O59  1  0.50486000  0.00971900  0.53806200  1
  O  O60  1  0.83389300  0.16610700  0.61241800  1
  O  O61  1  0.49514000  0.50486000  0.46193800  1
  O  O62  1  0.16610700  0.83389300  0.11241800  1
  O  O63  1  0.49514000  0.99028100  0.46193800  1
  O  O64  1  0.49514000  0.50486000  0.03806200  1
  O  O65  1  0.49514000  0.99028100  0.03806200  1
  O  O66  1  0.83165900  0.66331700  0.18494900  1
  O  O67  1  0.33221300  0.16610700  0.61241800  1
