# generated using pymatgen
data_Ba2V3BiO11
_symmetry_space_group_name_H-M   'P 1'
_cell_length_a   7.84541000
_cell_length_b   11.54954100
_cell_length_c   12.56274529
_cell_angle_alpha   76.74099492
_cell_angle_beta   90.00000000
_cell_angle_gamma   90.00000000
_symmetry_Int_Tables_number   1
_chemical_formula_structural   Ba2V3BiO11
_chemical_formula_sum   'Ba8 V12 Bi4 O44'
_cell_volume   1107.97748145
_cell_formula_units_Z   4
loop_
 _symmetry_equiv_pos_site_id
 _symmetry_equiv_pos_as_xyz
  1  'x, y, z'
loop_
 _atom_site_type_symbol
 _atom_site_label
 _atom_site_symmetry_multiplicity
 _atom_site_fract_x
 _atom_site_fract_y
 _atom_site_fract_z
 _atom_site_occupancy
  Ba  Ba0  1  0.72869500  0.55809100  0.26740400  1
  Ba  Ba1  1  0.77130500  0.05809100  0.26740400  1
  Ba  Ba2  1  0.27130500  0.44190900  0.73259600  1
  Ba  Ba3  1  0.75127300  0.88945200  0.94560600  1
  Ba  Ba4  1  0.25127300  0.61054800  0.05439400  1
  Ba  Ba5  1  0.24872700  0.11054800  0.05439400  1
  Ba  Ba6  1  0.74872700  0.38945200  0.94560600  1
  Ba  Ba7  1  0.22869500  0.94190900  0.73259600  1
  V  V8  1  0.75248300  0.97567000  0.59680400  1
  V  V9  1  0.98139000  0.16965300  0.81372700  1
  V  V10  1  0.02042900  0.32590500  0.18269000  1
  V  V11  1  0.47957100  0.82590500  0.18269000  1
  V  V12  1  0.97957100  0.67409500  0.81731000  1
  V  V13  1  0.24751700  0.02433000  0.40319600  1
  V  V14  1  0.48139000  0.33034700  0.18627300  1
  V  V15  1  0.51861000  0.66965300  0.81372700  1
  V  V16  1  0.01861000  0.83034700  0.18627300  1
  V  V17  1  0.52042900  0.17409500  0.81731000  1
  V  V18  1  0.74751700  0.47567000  0.59680400  1
  V  V19  1  0.25248300  0.52433000  0.40319600  1
  Bi  Bi20  1  0.00261200  0.73249800  0.50180900  1
  Bi  Bi21  1  0.49738800  0.23249800  0.50180900  1
  Bi  Bi22  1  0.99738800  0.26750200  0.49819100  1
  Bi  Bi23  1  0.50261200  0.76750200  0.49819100  1
  O  O24  1  0.94227200  0.27788700  0.31487200  1
  O  O25  1  0.86278800  0.94622700  0.71605400  1
  O  O26  1  0.20044300  0.87859400  0.48662500  1
  O  O27  1  0.44366700  0.26735100  0.89367100  1
  O  O28  1  0.63721200  0.44622700  0.71605400  1
  O  O29  1  0.55633300  0.73264900  0.10632900  1
  O  O30  1  0.36278800  0.55377300  0.28394600  1
  O  O31  1  0.96122600  0.47196600  0.62191400  1
  O  O32  1  0.46122600  0.02803400  0.37808600  1
  O  O33  1  0.44227200  0.22211300  0.68512800  1
  O  O34  1  0.25103300  0.33243400  0.16673900  1
  O  O35  1  0.94101100  0.72023300  0.13044100  1
  O  O36  1  0.79955700  0.12140600  0.51337500  1
  O  O37  1  0.55898900  0.22023300  0.13044100  1
  O  O38  1  0.53877400  0.97196600  0.62191400  1
  O  O39  1  0.29422200  0.63324800  0.48273900  1
  O  O40  1  0.55332600  0.31262800  0.31971100  1
  O  O41  1  0.05633300  0.76735100  0.89367100  1
  O  O42  1  0.94366700  0.23264900  0.10632900  1
  O  O43  1  0.55391000  0.96453100  0.12491400  1
  O  O44  1  0.70044300  0.62140600  0.51337500  1
  O  O45  1  0.94609000  0.46453100  0.12491400  1
  O  O46  1  0.75103300  0.16756600  0.83326100  1
  O  O47  1  0.79422200  0.86675200  0.51726100  1
  O  O48  1  0.44667400  0.68737200  0.68028900  1
  O  O49  1  0.93797500  0.96100300  0.11140900  1
  O  O50  1  0.29955700  0.37859400  0.48662500  1
  O  O51  1  0.05332600  0.18737200  0.68028900  1
  O  O52  1  0.13721200  0.05377300  0.28394600  1
  O  O53  1  0.56202500  0.46100300  0.11140900  1
  O  O54  1  0.70577800  0.36675200  0.51726100  1
  O  O55  1  0.74896700  0.66756600  0.83326100  1
  O  O56  1  0.03877400  0.52803400  0.37808600  1
  O  O57  1  0.44609000  0.03546900  0.87508600  1
  O  O58  1  0.05391000  0.53546900  0.87508600  1
  O  O59  1  0.05772800  0.72211300  0.68512800  1
  O  O60  1  0.55772800  0.77788700  0.31487200  1
  O  O61  1  0.44101100  0.77976700  0.86955900  1
  O  O62  1  0.20577800  0.13324800  0.48273900  1
  O  O63  1  0.43797500  0.53899700  0.88859100  1
  O  O64  1  0.05898900  0.27976700  0.86955900  1
  O  O65  1  0.24896700  0.83243400  0.16673900  1
  O  O66  1  0.06202500  0.03899700  0.88859100  1
  O  O67  1  0.94667400  0.81262800  0.31971100  1
