# generated using pymatgen
data_Ca14GaAs11
_symmetry_space_group_name_H-M   'P 1'
_cell_length_a   15.38141242
_cell_length_b   15.38141242
_cell_length_c   15.38141242
_cell_angle_alpha   118.56242088
_cell_angle_beta   118.56242088
_cell_angle_gamma   92.50853402
_symmetry_Int_Tables_number   1
_chemical_formula_structural   Ca14GaAs11
_chemical_formula_sum   'Ca56 Ga4 As44'
_cell_volume   2626.39052938
_cell_formula_units_Z   4
loop_
 _symmetry_equiv_pos_site_id
 _symmetry_equiv_pos_as_xyz
  1  'x, y, z'
loop_
 _atom_site_type_symbol
 _atom_site_label
 _atom_site_symmetry_multiplicity
 _atom_site_fract_x
 _atom_site_fract_y
 _atom_site_fract_z
 _atom_site_occupancy
  Ca  Ca0  1  0.74552200  0.09438200  0.60370700  1
  Ca  Ca1  1  0.25932500  0.10818600  0.10370700  1
  Ca  Ca2  1  0.31264600  0.28822100  0.66463400  1
  Ca  Ca3  1  0.00447800  0.15561800  0.89629300  1
  Ca  Ca4  1  0.12641300  0.60198800  0.16463400  1
  Ca  Ca5  1  0.66035300  0.88084400  0.13265900  1
  Ca  Ca6  1  0.12500000  0.02309500  0.39809500  1
  Ca  Ca7  1  0.47690500  0.37500000  0.60190500  1
  Ca  Ca8  1  0.21177900  0.18735400  0.33536600  1
  Ca  Ca9  1  0.27769400  0.91035300  0.27950900  1
  Ca  Ca10  1  0.47230600  0.33964700  0.22049100  1
  Ca  Ca11  1  0.40561800  0.75447800  0.39629300  1
  Ca  Ca12  1  0.35198800  0.68735400  0.97557500  1
  Ca  Ca13  1  0.00181500  0.72230600  0.63265900  1
  Ca  Ca14  1  0.03822100  0.87358700  0.47557500  1
  Ca  Ca15  1  0.13084400  0.41035300  0.63265900  1
  Ca  Ca16  1  0.12500000  0.52309500  0.89809500  1
  Ca  Ca17  1  0.16035300  0.02769400  0.77950900  1
  Ca  Ca18  1  0.50447800  0.60818600  0.84886100  1
  Ca  Ca19  1  0.39181400  0.24067500  0.89629300  1
  Ca  Ca20  1  0.99067500  0.59438200  0.34886100  1
  Ca  Ca21  1  0.97690500  0.37500000  0.10190500  1
  Ca  Ca22  1  0.27309500  0.87500000  0.89809500  1
  Ca  Ca23  1  0.62358700  0.64801200  0.33536600  1
  Ca  Ca24  1  0.84438200  0.74067500  0.84886100  1
  Ca  Ca25  1  0.85198800  0.87641300  0.66463400  1
  Ca  Ca26  1  0.49067500  0.14181400  0.39629300  1
  Ca  Ca27  1  0.53822100  0.06264600  0.16463400  1
  Ca  Ca28  1  0.62500000  0.22690500  0.10190500  1
  Ca  Ca29  1  0.43735400  0.96177900  0.83536600  1
  Ca  Ca30  1  0.77769400  0.49818500  0.36734100  1
  Ca  Ca31  1  0.63084400  0.99818500  0.72049100  1
  Ca  Ca32  1  0.93735400  0.10198800  0.47557500  1
  Ca  Ca33  1  0.62641300  0.46177900  0.52442500  1
  Ca  Ca34  1  0.08964700  0.36915600  0.36734100  1
  Ca  Ca35  1  0.61915600  0.83964700  0.86734100  1
  Ca  Ca36  1  0.81264600  0.14801200  0.02442500  1
  Ca  Ca37  1  0.97230600  0.75181500  0.13265900  1
  Ca  Ca38  1  0.50181500  0.86915600  0.27950900  1
  Ca  Ca39  1  0.74818500  0.52769400  0.86734100  1
  Ca  Ca40  1  0.34438200  0.49552200  0.10370700  1
  Ca  Ca41  1  0.75932500  0.65561800  0.15113900  1
  Ca  Ca42  1  0.89801200  0.37358700  0.83536600  1
  Ca  Ca43  1  0.85818600  0.25447800  0.34886100  1
  Ca  Ca44  1  0.89181400  0.99552200  0.15113900  1
  Ca  Ca45  1  0.62500000  0.72690500  0.60190500  1
  Ca  Ca46  1  0.12358700  0.78822100  0.97557500  1
  Ca  Ca47  1  0.24552200  0.64181400  0.65113900  1
  Ca  Ca48  1  0.58964700  0.22230600  0.72049100  1
  Ca  Ca49  1  0.90561800  0.50932500  0.65113900  1
  Ca  Ca50  1  0.35818600  0.00932500  0.60370700  1
  Ca  Ca51  1  0.24818500  0.38084400  0.22049100  1
  Ca  Ca52  1  0.39801200  0.56264600  0.52442500  1
  Ca  Ca53  1  0.71177900  0.37641300  0.02442500  1
  Ca  Ca54  1  0.11915600  0.25181500  0.77950900  1
  Ca  Ca55  1  0.77309500  0.87500000  0.39809500  1
  Ga  Ga56  1  0.25000000  0.75000000  0.50000000  1
  Ga  Ga57  1  0.75000000  0.25000000  0.50000000  1
  Ga  Ga58  1  0.00000000  0.00000000  0.00000000  1
  Ga  Ga59  1  0.50000000  0.50000000  0.00000000  1
  As  As60  1  0.19836100  0.10304600  0.64535700  1
  As  As61  1  0.89695400  0.54231100  0.09531500  1
  As  As62  1  0.85304600  0.70768900  0.40468500  1
  As  As63  1  0.45312000  0.81291300  0.63258000  1
  As  As64  1  0.57053900  0.70312000  0.14020700  1
  As  As65  1  0.79231100  0.64695400  0.59531500  1
  As  As66  1  0.50000000  0.00000000  0.50000000  1
  As  As67  1  0.68708700  0.04688000  0.36742000  1
  As  As68  1  0.29231100  0.69699600  0.14535700  1
  As  As69  1  0.79688000  0.92946100  0.85979300  1
  As  As70  1  0.63369200  0.86630800  0.50000000  1
  As  As71  1  0.69836100  0.05300400  0.09531500  1
  As  As72  1  0.80300400  0.20768900  0.85464300  1
  As  As73  1  0.68033200  0.31291300  0.35979300  1
  As  As74  1  0.06291300  0.20312000  0.13258000  1
  As  As75  1  0.07053900  0.93033200  0.86742000  1
  As  As76  1  0.44699600  0.80163900  0.90468500  1
  As  As77  1  0.36630800  0.13369200  0.50000000  1
  As  As78  1  0.67946100  0.31966800  0.63258000  1
  As  As79  1  0.61630800  0.61630800  0.73261600  1
  As  As80  1  0.56291300  0.43033200  0.85979300  1
  As  As81  1  0.25000000  0.25000000  0.00000000  1
  As  As82  1  0.06966800  0.93708700  0.14020700  1
  As  As83  1  0.95768900  0.60304600  0.90468500  1
  As  As84  1  0.95312000  0.32053900  0.64020700  1
  As  As85  1  0.56966800  0.42946100  0.13258000  1
  As  As86  1  0.35304600  0.94836100  0.14535700  1
  As  As87  1  0.94699600  0.04231100  0.64535700  1
  As  As88  1  0.38369200  0.11630800  0.00000000  1
  As  As89  1  0.18033200  0.82053900  0.36742000  1
  As  As90  1  0.05163900  0.19699600  0.40468500  1
  As  As91  1  0.00000000  0.50000000  0.50000000  1
  As  As92  1  0.86630800  0.36630800  0.23261600  1
  As  As93  1  0.13369200  0.63369200  0.76738400  1
  As  As94  1  0.45768900  0.55300400  0.35464300  1
  As  As95  1  0.75000000  0.75000000  0.00000000  1
  As  As96  1  0.88369200  0.88369200  0.26738400  1
  As  As97  1  0.30300400  0.44836100  0.59531500  1
  As  As98  1  0.39695400  0.30163900  0.35464300  1
  As  As99  1  0.11630800  0.38369200  0.00000000  1
  As  As100  1  0.55163900  0.14695400  0.85464300  1
  As  As101  1  0.18708700  0.81966800  0.64020700  1
  As  As102  1  0.29688000  0.43708700  0.86742000  1
  As  As103  1  0.17946100  0.54688000  0.35979300  1
