# generated using pymatgen
data_TaI5
_symmetry_space_group_name_H-M   'P 1'
_cell_length_a   7.12453700
_cell_length_b   15.08173400
_cell_length_c   20.91725100
_cell_angle_alpha   90.00000000
_cell_angle_beta   90.00000000
_cell_angle_gamma   90.00000000
_symmetry_Int_Tables_number   1
_chemical_formula_structural   TaI5
_chemical_formula_sum   'Ta8 I40'
_cell_volume   2247.56639923
_cell_formula_units_Z   8
loop_
 _symmetry_equiv_pos_site_id
 _symmetry_equiv_pos_as_xyz
  1  'x, y, z'
loop_
 _atom_site_type_symbol
 _atom_site_label
 _atom_site_symmetry_multiplicity
 _atom_site_fract_x
 _atom_site_fract_y
 _atom_site_fract_z
 _atom_site_occupancy
  Ta  Ta0  1  0.49770400  0.12552000  0.14141200  1
  Ta  Ta1  1  0.49770400  0.12552000  0.35858800  1
  Ta  Ta2  1  0.50229600  0.87448000  0.85858800  1
  Ta  Ta3  1  0.00229600  0.62552000  0.14141200  1
  Ta  Ta4  1  0.99770400  0.37448000  0.85858800  1
  Ta  Ta5  1  0.99770400  0.37448000  0.64141200  1
  Ta  Ta6  1  0.50229600  0.87448000  0.64141200  1
  Ta  Ta7  1  0.00229600  0.62552000  0.35858800  1
  I  I8  1  0.25794500  0.04507800  0.43723000  1
  I  I9  1  0.21108000  0.30286600  0.75000000  1
  I  I10  1  0.76231400  0.70529800  0.06238400  1
  I  I11  1  0.28407000  0.05415000  0.25000000  1
  I  I12  1  0.75794500  0.45492200  0.93723000  1
  I  I13  1  0.27707300  0.27277200  0.15101400  1
  I  I14  1  0.21593000  0.55415000  0.25000000  1
  I  I15  1  0.21868300  0.52162500  0.84864700  1
  I  I16  1  0.72292700  0.72722800  0.84898600  1
  I  I17  1  0.71868300  0.97837500  0.34864700  1
  I  I18  1  0.78407000  0.44585000  0.75000000  1
  I  I19  1  0.22292700  0.77277200  0.34898600  1
  I  I20  1  0.28131700  0.02162500  0.65135300  1
  I  I21  1  0.77707300  0.22722800  0.84898600  1
  I  I22  1  0.73768600  0.20529800  0.06238400  1
  I  I23  1  0.27707300  0.27277200  0.34898600  1
  I  I24  1  0.23768600  0.29470200  0.93761600  1
  I  I25  1  0.24205500  0.54507800  0.43723000  1
  I  I26  1  0.73768600  0.20529800  0.43761600  1
  I  I27  1  0.23768600  0.29470200  0.56238400  1
  I  I28  1  0.71108000  0.19713400  0.25000000  1
  I  I29  1  0.22292700  0.77277200  0.15101400  1
  I  I30  1  0.78892000  0.69713400  0.25000000  1
  I  I31  1  0.77707300  0.22722800  0.65101400  1
  I  I32  1  0.28131700  0.02162500  0.84864700  1
  I  I33  1  0.28892000  0.80286600  0.75000000  1
  I  I34  1  0.78131700  0.47837500  0.15135300  1
  I  I35  1  0.74205500  0.95492200  0.93723000  1
  I  I36  1  0.71593000  0.94585000  0.75000000  1
  I  I37  1  0.24205500  0.54507800  0.06277000  1
  I  I38  1  0.76231400  0.70529800  0.43761600  1
  I  I39  1  0.25794500  0.04507800  0.06277000  1
  I  I40  1  0.21868300  0.52162500  0.65135300  1
  I  I41  1  0.72292700  0.72722800  0.65101400  1
  I  I42  1  0.78131700  0.47837500  0.34864700  1
  I  I43  1  0.75794500  0.45492200  0.56277000  1
  I  I44  1  0.71868300  0.97837500  0.15135300  1
  I  I45  1  0.74205500  0.95492200  0.56277000  1
  I  I46  1  0.26231400  0.79470200  0.93761600  1
  I  I47  1  0.26231400  0.79470200  0.56238400  1
