# generated using pymatgen
data_Al2BiSe4
_symmetry_space_group_name_H-M   'P 1'
_cell_length_a   8.01592600
_cell_length_b   8.01592600
_cell_length_c   12.61241900
_cell_angle_alpha   90.00000000
_cell_angle_beta   90.00000000
_cell_angle_gamma   90.00000000
_symmetry_Int_Tables_number   1
_chemical_formula_structural   Al2BiSe4
_chemical_formula_sum   'Al8 Bi4 Se16'
_cell_volume   810.41186114
_cell_formula_units_Z   4
loop_
 _symmetry_equiv_pos_site_id
 _symmetry_equiv_pos_as_xyz
  1  'x, y, z'
loop_
 _atom_site_type_symbol
 _atom_site_label
 _atom_site_symmetry_multiplicity
 _atom_site_fract_x
 _atom_site_fract_y
 _atom_site_fract_z
 _atom_site_occupancy
  Al  Al0  1  0.00000000  0.50000000  0.75000000  1
  Al  Al1  1  0.00000000  0.50000000  0.00000000  1
  Al  Al2  1  0.00000000  0.50000000  0.25000000  1
  Al  Al3  1  0.50000000  0.00000000  0.50000000  1
  Al  Al4  1  0.50000000  0.00000000  0.25000000  1
  Al  Al5  1  0.50000000  0.00000000  0.75000000  1
  Al  Al6  1  0.00000000  0.50000000  0.50000000  1
  Al  Al7  1  0.50000000  0.00000000  0.00000000  1
  Bi  Bi8  1  0.00000000  0.00000000  0.87497600  1
  Bi  Bi9  1  0.50000000  0.50000000  0.62502400  1
  Bi  Bi10  1  0.50000000  0.50000000  0.37497600  1
  Bi  Bi11  1  0.00000000  0.00000000  0.12502400  1
  Se  Se12  1  0.33693300  0.16262000  0.87523300  1
  Se  Se13  1  0.33738000  0.16306700  0.37523300  1
  Se  Se14  1  0.83693300  0.33738000  0.37523300  1
  Se  Se15  1  0.66306700  0.83738000  0.87523300  1
  Se  Se16  1  0.33738000  0.83693300  0.62476700  1
  Se  Se17  1  0.16262000  0.33693300  0.12476700  1
  Se  Se18  1  0.33693300  0.83738000  0.12476700  1
  Se  Se19  1  0.83738000  0.33693300  0.87523300  1
  Se  Se20  1  0.83738000  0.66306700  0.12476700  1
  Se  Se21  1  0.66262000  0.16306700  0.62476700  1
  Se  Se22  1  0.16262000  0.66306700  0.87523300  1
  Se  Se23  1  0.66262000  0.83693300  0.37523300  1
  Se  Se24  1  0.16306700  0.66262000  0.37523300  1
  Se  Se25  1  0.83693300  0.66262000  0.62476700  1
  Se  Se26  1  0.16306700  0.33738000  0.62476700  1
  Se  Se27  1  0.66306700  0.16262000  0.12476700  1
