# generated using pymatgen
data_KNd(CO3)2
_symmetry_space_group_name_H-M   'P 1'
_cell_length_a   6.55326200
_cell_length_b   8.68716100
_cell_length_c   9.83339400
_cell_angle_alpha   90.00000000
_cell_angle_beta   90.00000000
_cell_angle_gamma   90.00000000
_symmetry_Int_Tables_number   1
_chemical_formula_structural   KNd(CO3)2
_chemical_formula_sum   'K4 Nd4 C8 O24'
_cell_volume   559.80766739
_cell_formula_units_Z   4
loop_
 _symmetry_equiv_pos_site_id
 _symmetry_equiv_pos_as_xyz
  1  'x, y, z'
loop_
 _atom_site_type_symbol
 _atom_site_label
 _atom_site_symmetry_multiplicity
 _atom_site_fract_x
 _atom_site_fract_y
 _atom_site_fract_z
 _atom_site_occupancy
  K  K0  1  0.46619400  0.69262000  0.24134700  1
  K  K1  1  0.46619400  0.69262000  0.75865300  1
  K  K2  1  0.53380600  0.19262000  0.25865300  1
  K  K3  1  0.53380600  0.19262000  0.74134700  1
  Nd  Nd4  1  0.96760300  0.95186400  0.00000000  1
  Nd  Nd5  1  0.03399900  0.45411100  0.00000000  1
  Nd  Nd6  1  0.03239700  0.45186400  0.50000000  1
  Nd  Nd7  1  0.96600100  0.95411100  0.50000000  1
  C  C8  1  0.96706100  0.75965800  0.75020900  1
  C  C9  1  0.03293900  0.25965800  0.74979100  1
  C  C10  1  0.47522900  0.44386600  0.50000000  1
  C  C11  1  0.03293900  0.25965800  0.25020900  1
  C  C12  1  0.40904100  0.95645600  0.50000000  1
  C  C13  1  0.96706100  0.75965800  0.24979100  1
  C  C14  1  0.59095900  0.45645600  0.00000000  1
  C  C15  1  0.52477100  0.94386600  0.00000000  1
  O  O16  1  0.39426600  0.46780800  0.00000000  1
  O  O17  1  0.36903000  0.31691800  0.50000000  1
  O  O18  1  0.32843800  0.94024400  0.00000000  1
  O  O19  1  0.02503600  0.19349900  0.13309600  1
  O  O20  1  0.03802100  0.70141600  0.86176800  1
  O  O21  1  0.88929800  0.89820700  0.75439600  1
  O  O22  1  0.97496400  0.69349900  0.36690400  1
  O  O23  1  0.60573400  0.96780800  0.50000000  1
  O  O24  1  0.69302300  0.45190500  0.88624600  1
  O  O25  1  0.11070200  0.39820700  0.74560400  1
  O  O26  1  0.96197900  0.20141600  0.63823200  1
  O  O27  1  0.63097000  0.81691800  0.00000000  1
  O  O28  1  0.11070200  0.39820700  0.25439600  1
  O  O29  1  0.96197900  0.20141600  0.36176800  1
  O  O30  1  0.62413400  0.07432300  0.00000000  1
  O  O31  1  0.88929800  0.89820700  0.24560400  1
  O  O32  1  0.69302300  0.45190500  0.11375400  1
  O  O33  1  0.97496400  0.69349900  0.63309600  1
  O  O34  1  0.37586600  0.57432300  0.50000000  1
  O  O35  1  0.30697700  0.95190500  0.38624600  1
  O  O36  1  0.03802100  0.70141600  0.13823200  1
  O  O37  1  0.02503600  0.19349900  0.86690400  1
  O  O38  1  0.30697700  0.95190500  0.61375400  1
  O  O39  1  0.67156200  0.44024400  0.50000000  1
