# generated using pymatgen
data_RbNaSi2O5
_symmetry_space_group_name_H-M   'P 1'
_cell_length_a   13.78082100
_cell_length_b   4.94374600
_cell_length_c   7.91320196
_cell_angle_alpha   89.00093719
_cell_angle_beta   90.00000000
_cell_angle_gamma   90.00000000
_symmetry_Int_Tables_number   1
_chemical_formula_structural   RbNaSi2O5
_chemical_formula_sum   'Rb4 Na4 Si8 O20'
_cell_volume   539.03562011
_cell_formula_units_Z   4
loop_
 _symmetry_equiv_pos_site_id
 _symmetry_equiv_pos_as_xyz
  1  'x, y, z'
loop_
 _atom_site_type_symbol
 _atom_site_label
 _atom_site_symmetry_multiplicity
 _atom_site_fract_x
 _atom_site_fract_y
 _atom_site_fract_z
 _atom_site_occupancy
  Rb  Rb0  1  0.80288400  0.27993900  0.78443500  1
  Rb  Rb1  1  0.69711600  0.27993900  0.28443500  1
  Rb  Rb2  1  0.30288400  0.72006100  0.71556500  1
  Rb  Rb3  1  0.19711600  0.72006100  0.21556500  1
  Na  Na4  1  0.09226300  0.22980000  0.96102100  1
  Na  Na5  1  0.40773700  0.22980000  0.46102100  1
  Na  Na6  1  0.90773700  0.77020000  0.03897900  1
  Na  Na7  1  0.59226300  0.77020000  0.53897900  1
  Si  Si8  1  0.54538100  0.29724400  0.78969800  1
  Si  Si9  1  0.63067100  0.79234700  0.97932300  1
  Si  Si10  1  0.13067100  0.20765300  0.52067700  1
  Si  Si11  1  0.04538100  0.70275600  0.71030200  1
  Si  Si12  1  0.36932900  0.20765300  0.02067700  1
  Si  Si13  1  0.45461900  0.70275600  0.21030200  1
  Si  Si14  1  0.95461900  0.29724400  0.28969800  1
  Si  Si15  1  0.86932900  0.79234700  0.47932300  1
  O  O16  1  0.92790800  0.61756600  0.33283700  1
  O  O17  1  0.06523900  0.75841100  0.90482900  1
  O  O18  1  0.57209200  0.61756600  0.83283700  1
  O  O19  1  0.11136600  0.88499900  0.57493200  1
  O  O20  1  0.56523900  0.24158900  0.59517100  1
  O  O21  1  0.07209200  0.38243400  0.66716300  1
  O  O22  1  0.57147700  0.74558100  0.16263500  1
  O  O23  1  0.92852300  0.74558100  0.66263500  1
  O  O24  1  0.74254300  0.72824300  0.99977100  1
  O  O25  1  0.88863400  0.11500100  0.42506800  1
  O  O26  1  0.07147700  0.25441900  0.33736500  1
  O  O27  1  0.42790800  0.38243400  0.16716300  1
  O  O28  1  0.42852300  0.25441900  0.83736500  1
  O  O29  1  0.61136600  0.11500100  0.92506800  1
  O  O30  1  0.25745700  0.27175700  0.00022900  1
  O  O31  1  0.43476100  0.75841100  0.40482900  1
  O  O32  1  0.75745700  0.72824300  0.49977100  1
  O  O33  1  0.93476100  0.24158900  0.09517100  1
  O  O34  1  0.38863400  0.88499900  0.07493200  1
  O  O35  1  0.24254300  0.27175700  0.50022900  1
