# generated using pymatgen
data_TeCl4
_symmetry_space_group_name_H-M   'P 1'
_cell_length_a   10.54100382
_cell_length_b   10.54100382
_cell_length_c   16.21800109
_cell_angle_alpha   67.26420942
_cell_angle_beta   67.26420942
_cell_angle_gamma   62.73372569
_symmetry_Int_Tables_number   1
_chemical_formula_structural   TeCl4
_chemical_formula_sum   'Te8 Cl32'
_cell_volume   1428.31801511
_cell_formula_units_Z   8
loop_
 _symmetry_equiv_pos_site_id
 _symmetry_equiv_pos_as_xyz
  1  'x, y, z'
loop_
 _atom_site_type_symbol
 _atom_site_label
 _atom_site_symmetry_multiplicity
 _atom_site_fract_x
 _atom_site_fract_y
 _atom_site_fract_z
 _atom_site_occupancy
  Te  Te0  1  0.84077900  0.88601900  0.31619300  1
  Te  Te1  1  0.26000500  0.73558800  0.38659100  1
  Te  Te2  1  0.26441200  0.73999500  0.11340900  1
  Te  Te3  1  0.73558800  0.26000500  0.88659100  1
  Te  Te4  1  0.88601900  0.84077900  0.81619300  1
  Te  Te5  1  0.73999500  0.26441200  0.61340900  1
  Te  Te6  1  0.11398100  0.15922100  0.18380700  1
  Te  Te7  1  0.15922100  0.11398100  0.68380700  1
  Cl  Cl8  1  0.99613900  0.00651500  0.12968400  1
  Cl  Cl9  1  0.85824500  0.36769500  0.46198600  1
  Cl  Cl10  1  0.36566200  0.88873200  0.69203700  1
  Cl  Cl11  1  0.22592200  0.24318800  0.24336100  1
  Cl  Cl12  1  0.36769500  0.85824500  0.96198600  1
  Cl  Cl13  1  0.99348500  0.00386100  0.37031600  1
  Cl  Cl14  1  0.47583600  0.52128800  0.37382000  1
  Cl  Cl15  1  0.00651500  0.99613900  0.62968400  1
  Cl  Cl16  1  0.78151700  0.74481100  0.97379800  1
  Cl  Cl17  1  0.12129400  0.63433500  0.31000500  1
  Cl  Cl18  1  0.52128800  0.47583600  0.87382000  1
  Cl  Cl19  1  0.74481100  0.78151700  0.47379800  1
  Cl  Cl20  1  0.36566500  0.87870600  0.18999500  1
  Cl  Cl21  1  0.00386100  0.99348500  0.87031600  1
  Cl  Cl22  1  0.63433500  0.12129400  0.81000500  1
  Cl  Cl23  1  0.88873200  0.36566200  0.19203700  1
  Cl  Cl24  1  0.87870600  0.36566500  0.68999500  1
  Cl  Cl25  1  0.35840900  0.85002300  0.43372900  1
  Cl  Cl26  1  0.85002300  0.35840900  0.93372900  1
  Cl  Cl27  1  0.24318800  0.22592200  0.74336100  1
  Cl  Cl28  1  0.25518900  0.21848300  0.52620200  1
  Cl  Cl29  1  0.14997700  0.64159100  0.06627100  1
  Cl  Cl30  1  0.63230500  0.14175500  0.03801400  1
  Cl  Cl31  1  0.11126800  0.63433800  0.80796300  1
  Cl  Cl32  1  0.63433800  0.11126800  0.30796300  1
  Cl  Cl33  1  0.14175500  0.63230500  0.53801400  1
  Cl  Cl34  1  0.52416400  0.47871200  0.62618000  1
  Cl  Cl35  1  0.75681200  0.77407800  0.25663900  1
  Cl  Cl36  1  0.47871200  0.52416400  0.12618000  1
  Cl  Cl37  1  0.77407800  0.75681200  0.75663900  1
  Cl  Cl38  1  0.21848300  0.25518900  0.02620200  1
  Cl  Cl39  1  0.64159100  0.14997700  0.56627100  1
