# generated using pymatgen
data_As2P2S7
_symmetry_space_group_name_H-M   'P 1'
_cell_length_a   8.63180900
_cell_length_b   11.90666200
_cell_length_c   12.51232998
_cell_angle_alpha   85.35894460
_cell_angle_beta   90.00000000
_cell_angle_gamma   90.00000000
_symmetry_Int_Tables_number   1
_chemical_formula_structural   As2P2S7
_chemical_formula_sum   'As8 P8 S28'
_cell_volume   1281.75114162
_cell_formula_units_Z   4
loop_
 _symmetry_equiv_pos_site_id
 _symmetry_equiv_pos_as_xyz
  1  'x, y, z'
loop_
 _atom_site_type_symbol
 _atom_site_label
 _atom_site_symmetry_multiplicity
 _atom_site_fract_x
 _atom_site_fract_y
 _atom_site_fract_z
 _atom_site_occupancy
  As  As0  1  0.11457600  0.68162200  0.66393200  1
  As  As1  1  0.61457600  0.81837800  0.33606800  1
  As  As2  1  0.88542400  0.31837800  0.33606800  1
  As  As3  1  0.38542400  0.18162200  0.66393200  1
  As  As4  1  0.92038200  0.64893800  0.82324800  1
  As  As5  1  0.42038200  0.85106200  0.17675200  1
  As  As6  1  0.07961800  0.35106200  0.17675200  1
  As  As7  1  0.57961800  0.14893800  0.82324800  1
  P  P8  1  0.14386500  0.88532400  0.84261100  1
  P  P9  1  0.64386500  0.61467600  0.15738900  1
  P  P10  1  0.85613500  0.11467600  0.15738900  1
  P  P11  1  0.35613500  0.38532400  0.84261100  1
  P  P12  1  0.83273500  0.88632800  0.65790500  1
  P  P13  1  0.33273500  0.61367200  0.34209500  1
  P  P14  1  0.16726500  0.11367200  0.34209500  1
  P  P15  1  0.66726500  0.38632800  0.65790500  1
  S  S16  1  0.97771400  0.98515400  0.75152500  1
  S  S17  1  0.47771400  0.51484600  0.24847500  1
  S  S18  1  0.02228600  0.01484600  0.24847500  1
  S  S19  1  0.52228600  0.48515400  0.75152500  1
  S  S20  1  0.28253900  0.80066500  0.73820700  1
  S  S21  1  0.78253900  0.69933500  0.26179300  1
  S  S22  1  0.71746100  0.19933500  0.26179300  1
  S  S23  1  0.21746100  0.30066500  0.73820700  1
  S  S24  1  0.97116300  0.80144300  0.55257900  1
  S  S25  1  0.47116300  0.69855700  0.44742100  1
  S  S26  1  0.02883700  0.19855700  0.44742100  1
  S  S27  1  0.52883700  0.30144300  0.55257900  1
  S  S28  1  0.03047200  0.76136200  0.94151100  1
  S  S29  1  0.53047200  0.73863800  0.05848900  1
  S  S30  1  0.96952800  0.23863800  0.05848900  1
  S  S31  1  0.46952800  0.26136200  0.94151100  1
  S  S32  1  0.72267400  0.76116900  0.75682400  1
  S  S33  1  0.22267400  0.73883100  0.24317600  1
  S  S34  1  0.27732600  0.23883100  0.24317600  1
  S  S35  1  0.77732600  0.26116900  0.75682400  1
  S  S36  1  0.26025100  0.99080100  0.92242600  1
  S  S37  1  0.76025100  0.50919900  0.07757400  1
  S  S38  1  0.73974900  0.00919900  0.07757400  1
  S  S39  1  0.23974900  0.49080100  0.92242600  1
  S  S40  1  0.68717600  0.98980200  0.58355300  1
  S  S41  1  0.18717600  0.51019800  0.41644700  1
  S  S42  1  0.31282400  0.01019800  0.41644700  1
  S  S43  1  0.81282400  0.48980200  0.58355300  1
