# generated using pymatgen
data_K2CdP2O7
_symmetry_space_group_name_H-M   'P 1'
_cell_length_a   5.70067588
_cell_length_b   5.70067588
_cell_length_c   13.00227339
_cell_angle_alpha   75.60587154
_cell_angle_beta   75.60587154
_cell_angle_gamma   59.33800708
_symmetry_Int_Tables_number   1
_chemical_formula_structural   K2CdP2O7
_chemical_formula_sum   'K4 Cd2 P4 O14'
_cell_volume   348.27560387
_cell_formula_units_Z   2
loop_
 _symmetry_equiv_pos_site_id
 _symmetry_equiv_pos_as_xyz
  1  'x, y, z'
loop_
 _atom_site_type_symbol
 _atom_site_label
 _atom_site_symmetry_multiplicity
 _atom_site_fract_x
 _atom_site_fract_y
 _atom_site_fract_z
 _atom_site_occupancy
  K  K0  1  0.94048200  0.35768100  0.83158500  1
  K  K1  1  0.05951800  0.64231900  0.16841500  1
  K  K2  1  0.64231900  0.05951800  0.66841500  1
  K  K3  1  0.35768100  0.94048200  0.33158500  1
  Cd  Cd4  1  0.50000000  0.00000000  0.00000000  1
  Cd  Cd5  1  0.00000000  0.50000000  0.50000000  1
  P  P6  1  0.68932200  0.25508000  0.36975100  1
  P  P7  1  0.25508000  0.68932200  0.86975100  1
  P  P8  1  0.74492000  0.31067800  0.13024900  1
  P  P9  1  0.31067800  0.74492000  0.63024900  1
  O  O10  1  0.15738500  0.84261500  0.75000000  1
  O  O11  1  0.55600500  0.19958800  0.12089000  1
  O  O12  1  0.84261500  0.15738500  0.25000000  1
  O  O13  1  0.44399500  0.80041200  0.87911000  1
  O  O14  1  0.58811200  0.62233500  0.13474300  1
  O  O15  1  0.01637600  0.20901300  0.05491400  1
  O  O16  1  0.80041200  0.44399500  0.37911000  1
  O  O17  1  0.20901300  0.01637600  0.55491400  1
  O  O18  1  0.19958800  0.55600500  0.62089000  1
  O  O19  1  0.37766500  0.41188800  0.36525700  1
  O  O20  1  0.79098700  0.98362400  0.44508600  1
  O  O21  1  0.41188800  0.37766500  0.86525700  1
  O  O22  1  0.98362400  0.79098700  0.94508600  1
  O  O23  1  0.62233500  0.58811200  0.63474300  1
