# generated using pymatgen
data_TlGaCl4
_symmetry_space_group_name_H-M   'P 1'
_cell_length_a   7.24620500
_cell_length_b   9.64456700
_cell_length_c   11.01714100
_cell_angle_alpha   90.00000000
_cell_angle_beta   90.00000000
_cell_angle_gamma   90.00000000
_symmetry_Int_Tables_number   1
_chemical_formula_structural   TlGaCl4
_chemical_formula_sum   'Tl4 Ga4 Cl16'
_cell_volume   769.94953046
_cell_formula_units_Z   4
loop_
 _symmetry_equiv_pos_site_id
 _symmetry_equiv_pos_as_xyz
  1  'x, y, z'
loop_
 _atom_site_type_symbol
 _atom_site_label
 _atom_site_symmetry_multiplicity
 _atom_site_fract_x
 _atom_site_fract_y
 _atom_site_fract_z
 _atom_site_occupancy
  Tl  Tl0  1  0.75000000  0.30869500  0.18847800  1
  Tl  Tl1  1  0.75000000  0.19130500  0.68847800  1
  Tl  Tl2  1  0.25000000  0.80869500  0.31152200  1
  Tl  Tl3  1  0.25000000  0.69130500  0.81152200  1
  Ga  Ga4  1  0.75000000  0.81389200  0.06528700  1
  Ga  Ga5  1  0.75000000  0.68610800  0.56528700  1
  Ga  Ga6  1  0.25000000  0.31389200  0.43471300  1
  Ga  Ga7  1  0.25000000  0.18610800  0.93471300  1
  Cl  Cl8  1  0.99735700  0.67943100  0.07405100  1
  Cl  Cl9  1  0.25000000  0.07231200  0.10678800  1
  Cl  Cl10  1  0.00264300  0.17943100  0.42594900  1
  Cl  Cl11  1  0.75000000  0.57231200  0.39321200  1
  Cl  Cl12  1  0.75000000  0.95171000  0.22405500  1
  Cl  Cl13  1  0.50264300  0.82056900  0.57405100  1
  Cl  Cl14  1  0.49735700  0.32056900  0.92594900  1
  Cl  Cl15  1  0.75000000  0.54829000  0.72405500  1
  Cl  Cl16  1  0.75000000  0.92768800  0.89321200  1
  Cl  Cl17  1  0.99735700  0.82056900  0.57405100  1
  Cl  Cl18  1  0.49735700  0.17943100  0.42594900  1
  Cl  Cl19  1  0.25000000  0.42768800  0.60678800  1
  Cl  Cl20  1  0.00264300  0.32056900  0.92594900  1
  Cl  Cl21  1  0.25000000  0.45171000  0.27594500  1
  Cl  Cl22  1  0.25000000  0.04829000  0.77594500  1
  Cl  Cl23  1  0.50264300  0.67943100  0.07405100  1
