# generated using pymatgen
data_Ba2UCu2S5
_symmetry_space_group_name_H-M   'P 1'
_cell_length_a   7.15702812
_cell_length_b   7.15702812
_cell_length_c   9.38315123
_cell_angle_alpha   65.06104129
_cell_angle_beta   65.06104129
_cell_angle_gamma   33.06880802
_symmetry_Int_Tables_number   1
_chemical_formula_structural   Ba2UCu2S5
_chemical_formula_sum   'Ba2 U1 Cu2 S5'
_cell_volume   235.52558590
_cell_formula_units_Z   1
loop_
 _symmetry_equiv_pos_site_id
 _symmetry_equiv_pos_as_xyz
  1  'x, y, z'
loop_
 _atom_site_type_symbol
 _atom_site_label
 _atom_site_symmetry_multiplicity
 _atom_site_fract_x
 _atom_site_fract_y
 _atom_site_fract_z
 _atom_site_occupancy
  Ba  Ba0  1  0.17619500  0.17619500  0.29940000  1
  Ba  Ba1  1  0.82380500  0.82380500  0.70060000  1
  U  U2  1  0.00000000  0.00000000  0.00000000  1
  Cu  Cu3  1  0.55361100  0.55361100  0.70336200  1
  Cu  Cu4  1  0.44638900  0.44638900  0.29663800  1
  S  S5  1  0.38980000  0.38980000  0.93653400  1
  S  S6  1  0.14410800  0.14410800  0.69448200  1
  S  S7  1  0.61020000  0.61020000  0.06346600  1
  S  S8  1  0.50000000  0.50000000  0.50000000  1
  S  S9  1  0.85589200  0.85589200  0.30551800  1
