# generated using pymatgen
data_Sr2FeBrO3
_symmetry_space_group_name_H-M   'P 1'
_cell_length_a   5.62050004
_cell_length_b   5.62038534
_cell_length_c   16.10173072
_cell_angle_alpha   79.93977338
_cell_angle_beta   79.96992268
_cell_angle_gamma   89.97616969
_symmetry_Int_Tables_number   1
_chemical_formula_structural   Sr2FeBrO3
_chemical_formula_sum   'Sr8 Fe4 Br4 O12'
_cell_volume   492.93246651
_cell_formula_units_Z   4
loop_
 _symmetry_equiv_pos_site_id
 _symmetry_equiv_pos_as_xyz
  1  'x, y, z'
loop_
 _atom_site_type_symbol
 _atom_site_label
 _atom_site_symmetry_multiplicity
 _atom_site_fract_x
 _atom_site_fract_y
 _atom_site_fract_z
 _atom_site_occupancy
  Sr  Sr0  1  0.15860500  0.40894600  0.68196300  1
  Sr  Sr1  1  0.65861200  0.90891100  0.68196300  1
  Sr  Sr2  1  0.34139200  0.09105200  0.31803600  1
  Sr  Sr3  1  0.84138800  0.59108400  0.31803500  1
  Sr  Sr4  1  0.45567200  0.20579200  0.08854400  1
  Sr  Sr5  1  0.95567100  0.70582000  0.08853800  1
  Sr  Sr6  1  0.04432900  0.29421300  0.91145600  1
  Sr  Sr7  1  0.54433500  0.79418200  0.91146000  1
  Fe  Fe8  1  0.09598400  0.84607100  0.80787600  1
  Fe  Fe9  1  0.40402400  0.65394000  0.19212700  1
  Fe  Fe10  1  0.59592300  0.34593300  0.80792600  1
  Fe  Fe11  1  0.90406600  0.15406000  0.19209000  1
  Br  Br12  1  0.29602200  0.54543600  0.40912100  1
  Br  Br13  1  0.79602500  0.04543600  0.40912500  1
  Br  Br14  1  0.20397500  0.95456000  0.59087200  1
  Br  Br15  1  0.70397300  0.45456200  0.59087300  1
  O  O16  1  0.46542800  0.71547700  0.06913700  1
  O  O17  1  0.96542500  0.21548600  0.06914200  1
  O  O18  1  0.03457500  0.78452700  0.93086200  1
  O  O19  1  0.53457400  0.28451300  0.93086000  1
  O  O20  1  0.85654700  0.60661600  0.78653100  1
  O  O21  1  0.35657800  0.10665000  0.78653100  1
  O  O22  1  0.35656700  0.60662600  0.78649900  1
  O  O23  1  0.85653800  0.10665500  0.78649900  1
  O  O24  1  0.14343400  0.89337500  0.21349900  1
  O  O25  1  0.64346400  0.39334500  0.21350000  1
  O  O26  1  0.64345300  0.89338300  0.21346800  1
  O  O27  1  0.14342200  0.39335000  0.21346700  1
