# generated using pymatgen
data_K2FeF5
_symmetry_space_group_name_H-M   'P 1'
_cell_length_a   5.80038400
_cell_length_b   7.49243600
_cell_length_c   23.44111600
_cell_angle_alpha   90.00000000
_cell_angle_beta   90.00000000
_cell_angle_gamma   90.00000000
_symmetry_Int_Tables_number   1
_chemical_formula_structural   K2FeF5
_chemical_formula_sum   'K16 Fe8 F40'
_cell_volume   1018.72759844
_cell_formula_units_Z   8
loop_
 _symmetry_equiv_pos_site_id
 _symmetry_equiv_pos_as_xyz
  1  'x, y, z'
loop_
 _atom_site_type_symbol
 _atom_site_label
 _atom_site_symmetry_multiplicity
 _atom_site_fract_x
 _atom_site_fract_y
 _atom_site_fract_z
 _atom_site_occupancy
  K  K0  1  0.00000000  0.63319300  0.41675300  1
  K  K1  1  0.50000000  0.44750200  0.16777500  1
  K  K2  1  0.00000000  0.79820200  0.23831500  1
  K  K3  1  0.00000000  0.20179800  0.76168500  1
  K  K4  1  0.50000000  0.94750200  0.33222500  1
  K  K5  1  0.50000000  0.23015800  0.48685000  1
  K  K6  1  0.00000000  0.70179800  0.73831500  1
  K  K7  1  0.00000000  0.13319300  0.08324700  1
  K  K8  1  0.50000000  0.55249800  0.83222500  1
  K  K9  1  0.00000000  0.29820200  0.26168500  1
  K  K10  1  0.50000000  0.76984200  0.51315000  1
  K  K11  1  0.00000000  0.36680700  0.58324700  1
  K  K12  1  0.00000000  0.86680700  0.91675300  1
  K  K13  1  0.50000000  0.26984200  0.98685000  1
  K  K14  1  0.50000000  0.05249800  0.66777500  1
  K  K15  1  0.50000000  0.73015800  0.01315000  1
  Fe  Fe16  1  0.50000000  0.04313700  0.84475900  1
  Fe  Fe17  1  0.50000000  0.54313700  0.65524100  1
  Fe  Fe18  1  0.00000000  0.38022500  0.90589800  1
  Fe  Fe19  1  0.50000000  0.45686300  0.34475900  1
  Fe  Fe20  1  0.00000000  0.11977500  0.40589800  1
  Fe  Fe21  1  0.00000000  0.61977500  0.09410200  1
  Fe  Fe22  1  0.50000000  0.95686300  0.15524100  1
  Fe  Fe23  1  0.00000000  0.88022500  0.59410200  1
  F  F24  1  0.74809100  0.78142400  0.12719000  1
  F  F25  1  0.75940400  0.03566900  0.56804800  1
  F  F26  1  0.25777500  0.61288200  0.32016700  1
  F  F27  1  0.24059600  0.46433100  0.06804800  1
  F  F28  1  0.74222500  0.61288200  0.32016700  1
  F  F29  1  0.25777500  0.88711800  0.82016700  1
  F  F30  1  0.50000000  0.82075700  0.22464500  1
  F  F31  1  0.74222500  0.88711800  0.82016700  1
  F  F32  1  0.00000000  0.99231100  0.66993900  1
  F  F33  1  0.25190900  0.71857600  0.62719000  1
  F  F34  1  0.00000000  0.00768900  0.33006100  1
  F  F35  1  0.50000000  0.44819900  0.57743300  1
  F  F36  1  0.25777500  0.11288200  0.17983300  1
  F  F37  1  0.24059600  0.96433100  0.43195200  1
  F  F38  1  0.50000000  0.32075700  0.27535500  1
  F  F39  1  0.00000000  0.21844500  0.97019500  1
  F  F40  1  0.74809100  0.28142400  0.37281000  1
  F  F41  1  0.00000000  0.71844500  0.52980500  1
  F  F42  1  0.25777500  0.38711800  0.67983300  1
  F  F43  1  0.50000000  0.17924300  0.77535500  1
  F  F44  1  0.74809100  0.21857600  0.87281000  1
  F  F45  1  0.00000000  0.49231100  0.83006100  1
  F  F46  1  0.00000000  0.50768900  0.16993900  1
  F  F47  1  0.24059600  0.03566900  0.56804800  1
  F  F48  1  0.25190900  0.21857600  0.87281000  1
  F  F49  1  0.74222500  0.11288200  0.17983300  1
  F  F50  1  0.50000000  0.94819900  0.92256700  1
  F  F51  1  0.74809100  0.71857600  0.62719000  1
  F  F52  1  0.50000000  0.55180100  0.42256700  1
  F  F53  1  0.00000000  0.28155500  0.47019500  1
  F  F54  1  0.50000000  0.05180100  0.07743300  1
  F  F55  1  0.50000000  0.67924300  0.72464500  1
  F  F56  1  0.75940400  0.96433100  0.43195200  1
  F  F57  1  0.25190900  0.78142400  0.12719000  1
  F  F58  1  0.00000000  0.78155500  0.02980500  1
  F  F59  1  0.74222500  0.38711800  0.67983300  1
  F  F60  1  0.75940400  0.46433100  0.06804800  1
  F  F61  1  0.75940400  0.53566900  0.93195200  1
  F  F62  1  0.25190900  0.28142400  0.37281000  1
  F  F63  1  0.24059600  0.53566900  0.93195200  1
