# generated using pymatgen
data_ThI3
_symmetry_space_group_name_H-M   'P 1'
_cell_length_a   11.20549652
_cell_length_b   11.20549652
_cell_length_c   14.92952400
_cell_angle_alpha   90.00000000
_cell_angle_beta   90.00000000
_cell_angle_gamma   130.88341756
_symmetry_Int_Tables_number   1
_chemical_formula_structural   ThI3
_chemical_formula_sum   'Th8 I24'
_cell_volume   1417.27663861
_cell_formula_units_Z   8
loop_
 _symmetry_equiv_pos_site_id
 _symmetry_equiv_pos_as_xyz
  1  'x, y, z'
loop_
 _atom_site_type_symbol
 _atom_site_label
 _atom_site_symmetry_multiplicity
 _atom_site_fract_x
 _atom_site_fract_y
 _atom_site_fract_z
 _atom_site_occupancy
  Th  Th0  1  0.50000000  0.50000000  0.00000000  1
  Th  Th1  1  0.50000000  0.50000000  0.50000000  1
  Th  Th2  1  0.50000000  0.50000000  0.75000000  1
  Th  Th3  1  0.50000000  0.50000000  0.25000000  1
  Th  Th4  1  0.50017700  0.84488800  0.00000000  1
  Th  Th5  1  0.84488800  0.50017700  0.50000000  1
  Th  Th6  1  0.49982300  0.15511200  0.00000000  1
  Th  Th7  1  0.15511200  0.49982300  0.50000000  1
  I  I8  1  0.50000000  0.00000000  0.82076200  1
  I  I9  1  0.00000000  0.50000000  0.67923800  1
  I  I10  1  0.50000000  0.00000000  0.17923800  1
  I  I11  1  0.00000000  0.50000000  0.32076200  1
  I  I12  1  0.27464600  0.17959300  0.87106400  1
  I  I13  1  0.17959300  0.27464600  0.62893600  1
  I  I14  1  0.72535400  0.82040700  0.87106400  1
  I  I15  1  0.82040700  0.72535400  0.62893600  1
  I  I16  1  0.72535400  0.82040700  0.12893600  1
  I  I17  1  0.82040700  0.72535400  0.37106400  1
  I  I18  1  0.27464600  0.17959300  0.12893600  1
  I  I19  1  0.17959300  0.27464600  0.37106400  1
  I  I20  1  0.52129000  0.27505800  0.62721400  1
  I  I21  1  0.27505800  0.52129000  0.87278600  1
  I  I22  1  0.47871000  0.72494200  0.62721400  1
  I  I23  1  0.72494200  0.47871000  0.87278600  1
  I  I24  1  0.47871000  0.72494200  0.37278600  1
  I  I25  1  0.72494200  0.47871000  0.12721400  1
  I  I26  1  0.52129000  0.27505800  0.37278600  1
  I  I27  1  0.27505800  0.52129000  0.12721400  1
  I  I28  1  0.81766300  0.21055200  0.00000000  1
  I  I29  1  0.21055200  0.81766300  0.50000000  1
  I  I30  1  0.18233700  0.78944800  0.00000000  1
  I  I31  1  0.78944800  0.18233700  0.50000000  1
