# generated using pymatgen
data_CsTa(PO4)2
_symmetry_space_group_name_H-M   'P 1'
_cell_length_a   5.15352545
_cell_length_b   5.15352545
_cell_length_c   9.01689476
_cell_angle_alpha   87.18593427
_cell_angle_beta   87.18593427
_cell_angle_gamma   61.77108484
_symmetry_Int_Tables_number   1
_chemical_formula_structural   CsTa(PO4)2
_chemical_formula_sum   'Cs1 Ta1 P2 O8'
_cell_volume   210.65021890
_cell_formula_units_Z   1
loop_
 _symmetry_equiv_pos_site_id
 _symmetry_equiv_pos_as_xyz
  1  'x, y, z'
loop_
 _atom_site_type_symbol
 _atom_site_label
 _atom_site_symmetry_multiplicity
 _atom_site_fract_x
 _atom_site_fract_y
 _atom_site_fract_z
 _atom_site_occupancy
  Cs  Cs0  1  0.00000000  0.00000000  0.50000000  1
  Ta  Ta1  1  0.00000000  0.00000000  0.00000000  1
  P  P2  1  0.64493100  0.64493100  0.19181500  1
  P  P3  1  0.35506900  0.35506900  0.80818500  1
  O  O4  1  0.79136200  0.79136200  0.08483700  1
  O  O5  1  0.68522700  0.21198600  0.85412100  1
  O  O6  1  0.32388400  0.32388400  0.64754700  1
  O  O7  1  0.78801400  0.31477300  0.14587900  1
  O  O8  1  0.31477300  0.78801400  0.14587900  1
  O  O9  1  0.20863800  0.20863800  0.91516300  1
  O  O10  1  0.67611600  0.67611600  0.35245300  1
  O  O11  1  0.21198600  0.68522700  0.85412100  1
