# generated using pymatgen
data_CsTiAsO5
_symmetry_space_group_name_H-M   'P 1'
_cell_length_a   6.95745700
_cell_length_b   10.86187100
_cell_length_c   13.68671000
_cell_angle_alpha   90.00000000
_cell_angle_beta   90.00000000
_cell_angle_gamma   90.00000000
_symmetry_Int_Tables_number   1
_chemical_formula_structural   CsTiAsO5
_chemical_formula_sum   'Cs8 Ti8 As8 O40'
_cell_volume   1034.31836719
_cell_formula_units_Z   8
loop_
 _symmetry_equiv_pos_site_id
 _symmetry_equiv_pos_as_xyz
  1  'x, y, z'
loop_
 _atom_site_type_symbol
 _atom_site_label
 _atom_site_symmetry_multiplicity
 _atom_site_fract_x
 _atom_site_fract_y
 _atom_site_fract_z
 _atom_site_occupancy
  Cs  Cs0  1  0.21499500  0.37300700  0.61389300  1
  Cs  Cs1  1  0.78500500  0.87300700  0.38610700  1
  Cs  Cs2  1  0.28500500  0.37300700  0.11389300  1
  Cs  Cs3  1  0.71499500  0.87300700  0.88610700  1
  Cs  Cs4  1  0.30411800  0.11611300  0.88912300  1
  Cs  Cs5  1  0.69588200  0.61611300  0.11087700  1
  Cs  Cs6  1  0.19588200  0.11611300  0.38912300  1
  Cs  Cs7  1  0.80411800  0.61611300  0.61087700  1
  Ti  Ti8  1  0.49760500  0.02839700  0.62952700  1
  Ti  Ti9  1  0.50239500  0.52839700  0.37047300  1
  Ti  Ti10  1  0.00239500  0.02839700  0.12952700  1
  Ti  Ti11  1  0.99760500  0.52839700  0.87047300  1
  Ti  Ti12  1  0.73680600  0.27895100  0.75041400  1
  Ti  Ti13  1  0.26319400  0.77895100  0.24958600  1
  Ti  Ti14  1  0.76319400  0.27895100  0.25041400  1
  Ti  Ti15  1  0.23680600  0.77895100  0.74958600  1
  As  As16  1  0.67197900  0.28341600  0.49897000  1
  As  As17  1  0.32802100  0.78341600  0.50103000  1
  As  As18  1  0.82802100  0.28341600  0.99897000  1
  As  As19  1  0.17197900  0.78341600  0.00103000  1
  As  As20  1  0.49681000  0.53697500  0.82241500  1
  As  As21  1  0.50319000  0.03697500  0.17758500  1
  As  As22  1  0.00319000  0.53697500  0.32241500  1
  As  As23  1  0.99681000  0.03697500  0.67758500  1
  O  O24  1  0.51926700  0.16274600  0.51410900  1
  O  O25  1  0.48073300  0.66274600  0.48589100  1
  O  O26  1  0.98073300  0.16274600  0.01410900  1
  O  O27  1  0.01926700  0.66274600  0.98589100  1
  O  O28  1  0.53860400  0.41643000  0.48406800  1
  O  O29  1  0.46139600  0.91643000  0.51593200  1
  O  O30  1  0.96139600  0.41643000  0.98406800  1
  O  O31  1  0.03860400  0.91643000  0.01593200  1
  O  O32  1  0.80686300  0.30917700  0.60319500  1
  O  O33  1  0.19313700  0.80917700  0.39680500  1
  O  O34  1  0.69313700  0.30917700  0.10319500  1
  O  O35  1  0.30686300  0.80917700  0.89680500  1
  O  O36  1  0.81525800  0.26092900  0.39691900  1
  O  O37  1  0.18474200  0.76092900  0.60308100  1
  O  O38  1  0.68474200  0.26092900  0.89691900  1
  O  O39  1  0.31525800  0.76092900  0.10308100  1
  O  O40  1  0.56059500  0.16379400  0.71529400  1
  O  O41  1  0.43940500  0.66379400  0.28470600  1
  O  O42  1  0.93940500  0.16379400  0.21529400  1
  O  O43  1  0.06059500  0.66379400  0.78470600  1
  O  O44  1  0.93690500  0.41551600  0.78298800  1
  O  O45  1  0.06309500  0.91551600  0.21701200  1
  O  O46  1  0.56309500  0.41551600  0.28298800  1
  O  O47  1  0.43690500  0.91551600  0.71701200  1
  O  O48  1  0.69872000  0.57613600  0.88810100  1
  O  O49  1  0.30128000  0.07613600  0.11189900  1
  O  O50  1  0.80128000  0.57613600  0.38810100  1
  O  O51  1  0.19872000  0.07613600  0.61189900  1
  O  O52  1  0.29670400  0.49962000  0.89009900  1
  O  O53  1  0.70329600  0.99962000  0.10990100  1
  O  O54  1  0.20329600  0.49962000  0.39009900  1
  O  O55  1  0.79670400  0.99962000  0.60990100  1
  O  O56  1  0.45211400  0.66097100  0.74542200  1
  O  O57  1  0.54788600  0.16097100  0.25457800  1
  O  O58  1  0.04788600  0.66097100  0.24542200  1
  O  O59  1  0.95211400  0.16097100  0.75457800  1
  O  O60  1  0.54693900  0.41582100  0.74471800  1
  O  O61  1  0.45306100  0.91582100  0.25528200  1
  O  O62  1  0.95306100  0.41582100  0.24471800  1
  O  O63  1  0.04693900  0.91582100  0.75528200  1
