# generated using pymatgen
data_Ni(NO3)2
_symmetry_space_group_name_H-M   'P 1'
_cell_length_a   7.52740100
_cell_length_b   7.52740100
_cell_length_c   7.52740100
_cell_angle_alpha   90.00000000
_cell_angle_beta   90.00000000
_cell_angle_gamma   90.00000000
_symmetry_Int_Tables_number   1
_chemical_formula_structural   Ni(NO3)2
_chemical_formula_sum   'Ni4 N8 O24'
_cell_volume   426.51583266
_cell_formula_units_Z   4
loop_
 _symmetry_equiv_pos_site_id
 _symmetry_equiv_pos_as_xyz
  1  'x, y, z'
loop_
 _atom_site_type_symbol
 _atom_site_label
 _atom_site_symmetry_multiplicity
 _atom_site_fract_x
 _atom_site_fract_y
 _atom_site_fract_z
 _atom_site_occupancy
  Ni  Ni0  1  0.00000000  0.00000000  0.00000000  1
  Ni  Ni1  1  0.50000000  0.00000000  0.50000000  1
  Ni  Ni2  1  0.50000000  0.50000000  0.00000000  1
  Ni  Ni3  1  0.00000000  0.50000000  0.50000000  1
  N  N4  1  0.32431900  0.32431900  0.32431900  1
  N  N5  1  0.17568100  0.67568100  0.82431900  1
  N  N6  1  0.82431900  0.17568100  0.67568100  1
  N  N7  1  0.67568100  0.82431900  0.17568100  1
  N  N8  1  0.67568100  0.67568100  0.67568100  1
  N  N9  1  0.82431900  0.32431900  0.17568100  1
  N  N10  1  0.17568100  0.82431900  0.32431900  1
  N  N11  1  0.32431900  0.17568100  0.82431900  1
  O  O12  1  0.20683800  0.32115200  0.44411600  1
  O  O13  1  0.44411600  0.20683800  0.32115200  1
  O  O14  1  0.32115200  0.44411600  0.20683800  1
  O  O15  1  0.17884800  0.55588400  0.70683800  1
  O  O16  1  0.94411600  0.29316200  0.67884800  1
  O  O17  1  0.67884800  0.94411600  0.29316200  1
  O  O18  1  0.05588400  0.79316200  0.82115200  1
  O  O19  1  0.55588400  0.70683800  0.17884800  1
  O  O20  1  0.82115200  0.05588400  0.79316200  1
  O  O21  1  0.70683800  0.17884800  0.55588400  1
  O  O22  1  0.79316200  0.82115200  0.05588400  1
  O  O23  1  0.29316200  0.67884800  0.94411600  1
  O  O24  1  0.79316200  0.67884800  0.55588400  1
  O  O25  1  0.55588400  0.79316200  0.67884800  1
  O  O26  1  0.67884800  0.55588400  0.79316200  1
  O  O27  1  0.82115200  0.44411600  0.29316200  1
  O  O28  1  0.05588400  0.70683800  0.32115200  1
  O  O29  1  0.32115200  0.05588400  0.70683800  1
  O  O30  1  0.94411600  0.20683800  0.17884800  1
  O  O31  1  0.44411600  0.29316200  0.82115200  1
  O  O32  1  0.17884800  0.94411600  0.20683800  1
  O  O33  1  0.29316200  0.82115200  0.44411600  1
  O  O34  1  0.20683800  0.17884800  0.94411600  1
  O  O35  1  0.70683800  0.32115200  0.05588400  1
