# generated using pymatgen
data_Rb4NpS2ClO10
_symmetry_space_group_name_H-M   'P 1'
_cell_length_a   4.66814000
_cell_length_b   10.74418000
_cell_length_c   14.97333274
_cell_angle_alpha   77.19285569
_cell_angle_beta   90.00000000
_cell_angle_gamma   90.00000000
_symmetry_Int_Tables_number   1
_chemical_formula_structural   Rb4NpS2ClO10
_chemical_formula_sum   'Rb8 Np2 S4 Cl2 O20'
_cell_volume   732.30913949
_cell_formula_units_Z   2
loop_
 _symmetry_equiv_pos_site_id
 _symmetry_equiv_pos_as_xyz
  1  'x, y, z'
loop_
 _atom_site_type_symbol
 _atom_site_label
 _atom_site_symmetry_multiplicity
 _atom_site_fract_x
 _atom_site_fract_y
 _atom_site_fract_z
 _atom_site_occupancy
  Rb  Rb0  1  0.76518400  0.05919400  0.10551900  1
  Rb  Rb1  1  0.22947100  0.43585800  0.12932700  1
  Rb  Rb2  1  0.23481600  0.94080600  0.89448100  1
  Rb  Rb3  1  0.22947100  0.06414200  0.37067300  1
  Rb  Rb4  1  0.76518400  0.44080600  0.39448100  1
  Rb  Rb5  1  0.23481600  0.55919400  0.60551900  1
  Rb  Rb6  1  0.77052900  0.93585800  0.62932700  1
  Rb  Rb7  1  0.77052900  0.56414200  0.87067300  1
  Np  Np8  1  0.73814800  0.25000000  0.75000000  1
  Np  Np9  1  0.26185200  0.75000000  0.25000000  1
  S  S10  1  0.34440900  0.22684900  0.57430000  1
  S  S11  1  0.65559100  0.77315100  0.42570000  1
  S  S12  1  0.34440900  0.27315100  0.92570000  1
  S  S13  1  0.65559100  0.72684900  0.07430000  1
  Cl  Cl14  1  0.26822600  0.75000000  0.75000000  1
  Cl  Cl15  1  0.73177400  0.25000000  0.25000000  1
  O  O16  1  0.73808800  0.42646300  0.71569200  1
  O  O17  1  0.74468600  0.60110400  0.05966100  1
  O  O18  1  0.25531400  0.39889600  0.94033900  1
  O  O19  1  0.74164100  0.66784100  0.50236800  1
  O  O20  1  0.25835900  0.33215900  0.49763200  1
  O  O21  1  0.25531400  0.10110400  0.55966100  1
  O  O22  1  0.33538500  0.77063100  0.41294100  1
  O  O23  1  0.22815200  0.25059900  0.83552200  1
  O  O24  1  0.74164100  0.83215900  0.99763200  1
  O  O25  1  0.77184800  0.75059900  0.33552200  1
  O  O26  1  0.74468600  0.89889600  0.44033900  1
  O  O27  1  0.22815200  0.24940100  0.66447800  1
  O  O28  1  0.66461500  0.27063100  0.91294100  1
  O  O29  1  0.33538500  0.72936900  0.08705900  1
  O  O30  1  0.77184800  0.74940100  0.16447800  1
  O  O31  1  0.66461500  0.22936900  0.58705900  1
  O  O32  1  0.26191200  0.57353700  0.28430800  1
  O  O33  1  0.25835900  0.16784100  0.00236800  1
  O  O34  1  0.73808800  0.07353700  0.78430800  1
  O  O35  1  0.26191200  0.92646300  0.21569200  1
