# generated using pymatgen
data_KNbSi2O7
_symmetry_space_group_name_H-M   'P 1'
_cell_length_a   8.87738900
_cell_length_b   8.87738900
_cell_length_c   8.27438800
_cell_angle_alpha   90.00000000
_cell_angle_beta   90.00000000
_cell_angle_gamma   90.00000000
_symmetry_Int_Tables_number   1
_chemical_formula_structural   KNbSi2O7
_chemical_formula_sum   'K4 Nb4 Si8 O28'
_cell_volume   652.08826289
_cell_formula_units_Z   4
loop_
 _symmetry_equiv_pos_site_id
 _symmetry_equiv_pos_as_xyz
  1  'x, y, z'
loop_
 _atom_site_type_symbol
 _atom_site_label
 _atom_site_symmetry_multiplicity
 _atom_site_fract_x
 _atom_site_fract_y
 _atom_site_fract_z
 _atom_site_occupancy
  K  K0  1  0.17807300  0.67807300  0.99188300  1
  K  K1  1  0.67807300  0.82192700  0.99188300  1
  K  K2  1  0.82192700  0.32192700  0.99188300  1
  K  K3  1  0.32192700  0.17807300  0.99188300  1
  Nb  Nb4  1  0.50000000  0.50000000  0.72047300  1
  Nb  Nb5  1  0.50000000  0.50000000  0.21773800  1
  Nb  Nb6  1  0.00000000  0.00000000  0.72047300  1
  Nb  Nb7  1  0.00000000  0.00000000  0.21773800  1
  Si  Si8  1  0.12385500  0.37614500  0.69303000  1
  Si  Si9  1  0.87650400  0.62349600  0.30281900  1
  Si  Si10  1  0.37650400  0.87650400  0.30281900  1
  Si  Si11  1  0.62349600  0.12349600  0.30281900  1
  Si  Si12  1  0.62385500  0.12385500  0.69303000  1
  Si  Si13  1  0.37614500  0.87614500  0.69303000  1
  Si  Si14  1  0.87614500  0.62385500  0.69303000  1
  Si  Si15  1  0.12349600  0.37650400  0.30281900  1
  O  O16  1  0.42348800  0.71197700  0.76292800  1
  O  O17  1  0.92363200  0.78721200  0.23269500  1
  O  O18  1  0.07651200  0.21197700  0.76292800  1
  O  O19  1  0.28802300  0.42348800  0.76292800  1
  O  O20  1  0.57636800  0.28721200  0.23269500  1
  O  O21  1  0.78802300  0.07651200  0.76292800  1
  O  O22  1  0.28721200  0.42363200  0.23269500  1
  O  O23  1  0.61978100  0.11978100  0.49784700  1
  O  O24  1  0.78721200  0.07636800  0.23269500  1
  O  O25  1  0.11978100  0.38021900  0.49784700  1
  O  O26  1  0.00000000  0.50000000  0.76384400  1
  O  O27  1  0.00000000  0.50000000  0.23156400  1
  O  O28  1  0.38021900  0.88021900  0.49784700  1
  O  O29  1  0.50000000  0.00000000  0.76384400  1
  O  O30  1  0.88021900  0.61978100  0.49784700  1
  O  O31  1  0.92348800  0.78802300  0.76292800  1
  O  O32  1  0.07636800  0.21278800  0.23269500  1
  O  O33  1  0.42363200  0.71278800  0.23269500  1
  O  O34  1  0.21278800  0.92363200  0.23269500  1
  O  O35  1  0.50000000  0.00000000  0.23156400  1
  O  O36  1  0.50000000  0.50000000  0.50263200  1
  O  O37  1  0.50000000  0.50000000  0.99890000  1
  O  O38  1  0.71278800  0.57636800  0.23269500  1
  O  O39  1  0.21197700  0.92348800  0.76292800  1
  O  O40  1  0.00000000  0.00000000  0.50263200  1
  O  O41  1  0.71197700  0.57651200  0.76292800  1
  O  O42  1  0.00000000  0.00000000  0.99890000  1
  O  O43  1  0.57651200  0.28802300  0.76292800  1
