# generated using pymatgen
data_P3IrO9
_symmetry_space_group_name_H-M   'P 1'
_cell_length_a   5.09576300
_cell_length_b   7.06131196
_cell_length_c   10.47460106
_cell_angle_alpha   98.38350658
_cell_angle_beta   92.41553330
_cell_angle_gamma   92.52943281
_symmetry_Int_Tables_number   1
_chemical_formula_structural   P3IrO9
_chemical_formula_sum   'P6 Ir2 O18'
_cell_volume   372.06411978
_cell_formula_units_Z   2
loop_
 _symmetry_equiv_pos_site_id
 _symmetry_equiv_pos_as_xyz
  1  'x, y, z'
loop_
 _atom_site_type_symbol
 _atom_site_label
 _atom_site_symmetry_multiplicity
 _atom_site_fract_x
 _atom_site_fract_y
 _atom_site_fract_z
 _atom_site_occupancy
  P  P0  1  0.50119400  0.32788000  0.63865600  1
  P  P1  1  0.49880600  0.67212000  0.36134400  1
  P  P2  1  0.47603200  0.03839400  0.81789800  1
  P  P3  1  0.52396800  0.96160600  0.18210200  1
  P  P4  1  0.23730200  0.31548200  0.22849000  1
  P  P5  1  0.76269800  0.68451800  0.77151000  1
  Ir  Ir6  1  0.00000000  0.00000000  0.00000000  1
  Ir  Ir7  1  0.00000000  0.50000000  0.50000000  1
  O  O8  1  0.32775800  0.88375600  0.07270200  1
  O  O9  1  0.67224200  0.11624400  0.92729800  1
  O  O10  1  0.45843800  0.87159400  0.31035500  1
  O  O11  1  0.54156200  0.12840600  0.68964500  1
  O  O12  1  0.62180600  0.47576100  0.76223600  1
  O  O13  1  0.37819400  0.52423900  0.23776400  1
  O  O14  1  0.91685900  0.70107300  0.65363300  1
  O  O15  1  0.08314100  0.29892700  0.34636700  1
  O  O16  1  0.66525100  0.33478900  0.52255800  1
  O  O17  1  0.33474900  0.66521100  0.47744200  1
  O  O18  1  0.48743000  0.18319600  0.23195200  1
  O  O19  1  0.51257000  0.81680400  0.76804800  1
  O  O20  1  0.90188700  0.72700900  0.90360600  1
  O  O21  1  0.09811300  0.27299100  0.09639400  1
  O  O22  1  0.81055200  0.93097000  0.15864500  1
  O  O23  1  0.18944800  0.06903000  0.84135500  1
  O  O24  1  0.79135500  0.65197300  0.37954200  1
  O  O25  1  0.20864500  0.34802700  0.62045800  1
