# generated using pymatgen
data_Mg10Ge3(H2O9)2
_symmetry_space_group_name_H-M   'P 1'
_cell_length_a   5.23150800
_cell_length_b   8.98686000
_cell_length_c   14.34582700
_cell_angle_alpha   90.00000000
_cell_angle_beta   90.00000000
_cell_angle_gamma   90.00000000
_symmetry_Int_Tables_number   1
_chemical_formula_structural   Mg10Ge3(H2O9)2
_chemical_formula_sum   'Mg20 Ge6 H8 O36'
_cell_volume   674.46661740
_cell_formula_units_Z   2
loop_
 _symmetry_equiv_pos_site_id
 _symmetry_equiv_pos_as_xyz
  1  'x, y, z'
loop_
 _atom_site_type_symbol
 _atom_site_label
 _atom_site_symmetry_multiplicity
 _atom_site_fract_x
 _atom_site_fract_y
 _atom_site_fract_z
 _atom_site_occupancy
  Mg  Mg0  1  0.50000000  0.17541900  0.00000000  1
  Mg  Mg1  1  0.33957300  0.00000000  0.17387700  1
  Mg  Mg2  1  0.83957300  0.50000000  0.32612300  1
  Mg  Mg3  1  0.34389800  0.67540500  0.32209600  1
  Mg  Mg4  1  0.00000000  0.32458100  0.50000000  1
  Mg  Mg5  1  0.16042700  0.50000000  0.67387700  1
  Mg  Mg6  1  0.00000000  0.65989400  0.00000000  1
  Mg  Mg7  1  0.65610200  0.32459500  0.67790400  1
  Mg  Mg8  1  0.15610200  0.17540500  0.82209600  1
  Mg  Mg9  1  0.50000000  0.82458100  0.00000000  1
  Mg  Mg10  1  0.00000000  0.34010600  0.00000000  1
  Mg  Mg11  1  0.15610200  0.82459500  0.82209600  1
  Mg  Mg12  1  0.00000000  0.67541900  0.50000000  1
  Mg  Mg13  1  0.84389800  0.82459500  0.17790400  1
  Mg  Mg14  1  0.66042700  0.00000000  0.82612300  1
  Mg  Mg15  1  0.50000000  0.15989400  0.50000000  1
  Mg  Mg16  1  0.34389800  0.32459500  0.32209600  1
  Mg  Mg17  1  0.50000000  0.84010600  0.50000000  1
  Mg  Mg18  1  0.84389800  0.17540500  0.17790400  1
  Mg  Mg19  1  0.65610200  0.67540500  0.67790400  1
  Ge  Ge20  1  0.50000000  0.50000000  0.50000000  1
  Ge  Ge21  1  0.48398800  0.50000000  0.87694400  1
  Ge  Ge22  1  0.00000000  0.00000000  0.00000000  1
  Ge  Ge23  1  0.01601200  0.00000000  0.37694400  1
  Ge  Ge24  1  0.98398800  0.00000000  0.62305600  1
  Ge  Ge25  1  0.51601200  0.50000000  0.12305600  1
  H  H26  1  0.42377100  0.10048400  0.69027400  1
  H  H27  1  0.92377100  0.39951600  0.80972600  1
  H  H28  1  0.92377100  0.60048400  0.80972600  1
  H  H29  1  0.07622900  0.60048400  0.19027400  1
  H  H30  1  0.57622900  0.89951600  0.30972600  1
  H  H31  1  0.07622900  0.39951600  0.19027400  1
  H  H32  1  0.57622900  0.10048400  0.30972600  1
  H  H33  1  0.42377100  0.89951600  0.69027400  1
  O  O34  1  0.68258400  0.00000000  0.08175800  1
  O  O35  1  0.82390400  0.83364200  0.58442900  1
  O  O36  1  0.68866000  0.00000000  0.41475400  1
  O  O37  1  0.82390400  0.16635800  0.58442900  1
  O  O38  1  0.52124300  0.15639400  0.25378300  1
  O  O39  1  0.97875700  0.34360600  0.75378300  1
  O  O40  1  0.01048900  0.00000000  0.25246800  1
  O  O41  1  0.65134600  0.34948300  0.42382000  1
  O  O42  1  0.47875700  0.15639400  0.74621700  1
  O  O43  1  0.32390400  0.66635800  0.91557100  1
  O  O44  1  0.67609600  0.66635800  0.08442900  1
  O  O45  1  0.15134600  0.15051700  0.07618000  1
  O  O46  1  0.31134000  0.00000000  0.58524600  1
  O  O47  1  0.32390400  0.33364200  0.91557100  1
  O  O48  1  0.47875700  0.84360600  0.74621700  1
  O  O49  1  0.02124300  0.65639400  0.24621700  1
  O  O50  1  0.31741600  0.00000000  0.91824200  1
  O  O51  1  0.65134600  0.65051700  0.42382000  1
  O  O52  1  0.34865400  0.65051700  0.57618000  1
  O  O53  1  0.98951100  0.00000000  0.74753200  1
  O  O54  1  0.48951100  0.50000000  0.75246800  1
  O  O55  1  0.18866000  0.50000000  0.08524600  1
  O  O56  1  0.84865400  0.84948300  0.92382000  1
  O  O57  1  0.81741600  0.50000000  0.58175800  1
  O  O58  1  0.81134000  0.50000000  0.91475400  1
  O  O59  1  0.34865400  0.34948300  0.57618000  1
  O  O60  1  0.17609600  0.16635800  0.41557100  1
  O  O61  1  0.18258400  0.50000000  0.41824200  1
  O  O62  1  0.02124300  0.34360600  0.24621700  1
  O  O63  1  0.15134600  0.84948300  0.07618000  1
  O  O64  1  0.17609600  0.83364200  0.41557100  1
  O  O65  1  0.84865400  0.15051700  0.92382000  1
  O  O66  1  0.97875700  0.65639400  0.75378300  1
  O  O67  1  0.52124300  0.84360600  0.25378300  1
  O  O68  1  0.51048900  0.50000000  0.24753200  1
  O  O69  1  0.67609600  0.33364200  0.08442900  1
