# generated using pymatgen
data_Ga(BiCl)4
_symmetry_space_group_name_H-M   'P 1'
_cell_length_a   18.29661354
_cell_length_b   18.29661354
_cell_length_c   13.49375600
_cell_angle_alpha   90.00000000
_cell_angle_beta   90.00000000
_cell_angle_gamma   119.99999835
_symmetry_Int_Tables_number   1
_chemical_formula_structural   Ga(BiCl)4
_chemical_formula_sum   'Ga12 Bi48 Cl48'
_cell_volume   3912.05472960
_cell_formula_units_Z   12
loop_
 _symmetry_equiv_pos_site_id
 _symmetry_equiv_pos_as_xyz
  1  'x, y, z'
loop_
 _atom_site_type_symbol
 _atom_site_label
 _atom_site_symmetry_multiplicity
 _atom_site_fract_x
 _atom_site_fract_y
 _atom_site_fract_z
 _atom_site_occupancy
  Ga  Ga0  1  0.66666700  0.33333300  0.73217400  1
  Ga  Ga1  1  0.33333300  0.66666700  0.23217400  1
  Ga  Ga2  1  0.66666700  0.33333300  0.19929900  1
  Ga  Ga3  1  0.63946500  0.69471700  0.00764200  1
  Ga  Ga4  1  0.36053500  0.30528300  0.50764200  1
  Ga  Ga5  1  0.30528300  0.94474800  0.00764200  1
  Ga  Ga6  1  0.00000000  0.00000000  0.29142100  1
  Ga  Ga7  1  0.00000000  0.00000000  0.79142100  1
  Ga  Ga8  1  0.94474800  0.63946500  0.50764200  1
  Ga  Ga9  1  0.33333300  0.66666700  0.69929900  1
  Ga  Ga10  1  0.69471700  0.05525200  0.50764200  1
  Ga  Ga11  1  0.05525200  0.36053500  0.00764200  1
  Bi  Bi12  1  0.62601700  0.76911100  0.64939800  1
  Bi  Bi13  1  0.63217700  0.77737700  0.42078100  1
  Bi  Bi14  1  0.95667800  0.53897600  0.91012400  1
  Bi  Bi15  1  0.85480000  0.63217700  0.92078100  1
  Bi  Bi16  1  0.76911100  0.14309400  0.14939800  1
  Bi  Bi17  1  0.46102400  0.41770200  0.91012400  1
  Bi  Bi18  1  0.36782300  0.22262300  0.92078100  1
  Bi  Bi19  1  0.33606800  0.46103800  0.02603600  1
  Bi  Bi20  1  0.26425500  0.31524300  0.87215400  1
  Bi  Bi21  1  0.23088900  0.85690600  0.64939800  1
  Bi  Bi22  1  0.27275700  0.32705200  0.19218500  1
  Bi  Bi23  1  0.95808700  0.53206500  0.13997900  1
  Bi  Bi24  1  0.22262300  0.85480000  0.42078100  1
  Bi  Bi25  1  0.12497000  0.66393200  0.02603600  1
  Bi  Bi26  1  0.53896200  0.87503000  0.02603600  1
  Bi  Bi27  1  0.01970300  0.20138600  0.53906600  1
  Bi  Bi28  1  0.14309400  0.37398300  0.64939800  1
  Bi  Bi29  1  0.42602100  0.95808700  0.63997900  1
  Bi  Bi30  1  0.53897600  0.58229800  0.41012400  1
  Bi  Bi31  1  0.05429500  0.72724300  0.19218500  1
  Bi  Bi32  1  0.72724300  0.67294800  0.69218500  1
  Bi  Bi33  1  0.68475700  0.94901100  0.87215400  1
  Bi  Bi34  1  0.58229800  0.04332200  0.91012400  1
  Bi  Bi35  1  0.31524300  0.05098900  0.37215400  1
  Bi  Bi36  1  0.94901100  0.26425500  0.37215400  1
  Bi  Bi37  1  0.81831700  0.01970300  0.03906600  1
  Bi  Bi38  1  0.98029700  0.79861400  0.03906600  1
  Bi  Bi39  1  0.67294800  0.94570500  0.19218500  1
  Bi  Bi40  1  0.04191300  0.46793500  0.63997900  1
  Bi  Bi41  1  0.85690600  0.62601700  0.14939800  1
  Bi  Bi42  1  0.14520000  0.36782300  0.42078100  1
  Bi  Bi43  1  0.57397900  0.04191300  0.13997900  1
  Bi  Bi44  1  0.46103800  0.12497000  0.52603600  1
  Bi  Bi45  1  0.05098900  0.73574500  0.87215400  1
  Bi  Bi46  1  0.87503000  0.33606800  0.52603600  1
  Bi  Bi47  1  0.41770200  0.95667800  0.41012400  1
  Bi  Bi48  1  0.77737700  0.14520000  0.92078100  1
  Bi  Bi49  1  0.46793500  0.42602100  0.13997900  1
  Bi  Bi50  1  0.04332200  0.46102400  0.41012400  1
  Bi  Bi51  1  0.20138600  0.18168300  0.03906600  1
  Bi  Bi52  1  0.94570500  0.27275700  0.69218500  1
  Bi  Bi53  1  0.53206500  0.57397900  0.63997900  1
  Bi  Bi54  1  0.37398300  0.23088900  0.14939800  1
  Bi  Bi55  1  0.79861400  0.81831700  0.53906600  1
  Bi  Bi56  1  0.66393200  0.53896200  0.52603600  1
  Bi  Bi57  1  0.73574500  0.68475700  0.37215400  1
  Bi  Bi58  1  0.32705200  0.05429500  0.69218500  1
  Bi  Bi59  1  0.18168300  0.98029700  0.53906600  1
  Cl  Cl60  1  0.86843000  0.54371500  0.39623900  1
  Cl  Cl61  1  0.07261500  0.65330000  0.51643100  1
  Cl  Cl62  1  0.78394400  0.33900100  0.25381100  1
  Cl  Cl63  1  0.54371500  0.67528400  0.89623900  1
  Cl  Cl64  1  0.66099900  0.44494300  0.25381100  1
  Cl  Cl65  1  0.55593800  0.21555300  0.78615300  1
  Cl  Cl66  1  0.76310700  0.80063800  0.96565200  1
  Cl  Cl67  1  0.78444700  0.34038500  0.78615300  1
  Cl  Cl68  1  0.19936200  0.96247000  0.96565200  1
  Cl  Cl69  1  0.45628500  0.32471600  0.39623900  1
  Cl  Cl70  1  0.11684800  0.40531300  0.15262900  1
  Cl  Cl71  1  0.33333300  0.66666700  0.06903800  1
  Cl  Cl72  1  0.92738500  0.34670000  0.01643100  1
  Cl  Cl73  1  0.65961500  0.44406200  0.78615300  1
  Cl  Cl74  1  0.32471600  0.86843000  0.89623900  1
  Cl  Cl75  1  0.67528400  0.13157000  0.39623900  1
  Cl  Cl76  1  0.03753000  0.23689300  0.96565200  1
  Cl  Cl77  1  0.21605600  0.66099900  0.75381100  1
  Cl  Cl78  1  0.23689300  0.19936200  0.46565200  1
  Cl  Cl79  1  0.41931500  0.07261500  0.01643100  1
  Cl  Cl80  1  0.33900100  0.55505700  0.75381100  1
  Cl  Cl81  1  0.44406200  0.78444700  0.28615300  1
  Cl  Cl82  1  0.12319600  0.10143200  0.73734300  1
  Cl  Cl83  1  0.13157000  0.45628500  0.89623900  1
  Cl  Cl84  1  0.58068500  0.92738500  0.51643100  1
  Cl  Cl85  1  0.55505700  0.21605600  0.25381100  1
  Cl  Cl86  1  0.65330000  0.58068500  0.01643100  1
  Cl  Cl87  1  0.87680400  0.89856800  0.23734300  1
  Cl  Cl88  1  0.97823600  0.87680400  0.73734300  1
  Cl  Cl89  1  0.71153500  0.11684800  0.65262900  1
  Cl  Cl90  1  0.33333300  0.66666700  0.53793900  1
  Cl  Cl91  1  0.80063800  0.03753000  0.46565200  1
  Cl  Cl92  1  0.00000000  0.00000000  0.95558100  1
  Cl  Cl93  1  0.44494300  0.78394400  0.75381100  1
  Cl  Cl94  1  0.00000000  0.00000000  0.45558100  1
  Cl  Cl95  1  0.89856800  0.02176400  0.73734300  1
  Cl  Cl96  1  0.40531300  0.28846500  0.65262900  1
  Cl  Cl97  1  0.34670000  0.41931500  0.51643100  1
  Cl  Cl98  1  0.28846500  0.88315200  0.15262900  1
  Cl  Cl99  1  0.66666700  0.33333300  0.03793900  1
  Cl  Cl100  1  0.02176400  0.12319600  0.23734300  1
  Cl  Cl101  1  0.66666700  0.33333300  0.56903800  1
  Cl  Cl102  1  0.59468700  0.71153500  0.15262900  1
  Cl  Cl103  1  0.96247000  0.76310700  0.46565200  1
  Cl  Cl104  1  0.21555300  0.65961500  0.28615300  1
  Cl  Cl105  1  0.88315200  0.59468700  0.65262900  1
  Cl  Cl106  1  0.34038500  0.55593800  0.28615300  1
  Cl  Cl107  1  0.10143200  0.97823600  0.23734300  1
