# generated using pymatgen
data_ScH13Cl2O7
_symmetry_space_group_name_H-M   'P 1'
_cell_length_a   7.24935000
_cell_length_b   8.70099500
_cell_length_c   15.66861100
_cell_angle_alpha   90.00000000
_cell_angle_beta   90.00000000
_cell_angle_gamma   90.00000000
_symmetry_Int_Tables_number   1
_chemical_formula_structural   ScH13Cl2O7
_chemical_formula_sum   'Sc4 H52 Cl8 O28'
_cell_volume   988.32205214
_cell_formula_units_Z   4
loop_
 _symmetry_equiv_pos_site_id
 _symmetry_equiv_pos_as_xyz
  1  'x, y, z'
loop_
 _atom_site_type_symbol
 _atom_site_label
 _atom_site_symmetry_multiplicity
 _atom_site_fract_x
 _atom_site_fract_y
 _atom_site_fract_z
 _atom_site_occupancy
  Sc  Sc0  1  0.00000000  0.63449500  0.42044600  1
  Sc  Sc1  1  0.00000000  0.36550500  0.57955400  1
  Sc  Sc2  1  0.50000000  0.13449500  0.07955400  1
  Sc  Sc3  1  0.50000000  0.86550500  0.92044600  1
  H  H4  1  0.00000000  0.78804500  0.25543800  1
  H  H5  1  0.00000000  0.21195500  0.74456200  1
  H  H6  1  0.50000000  0.28804500  0.24456200  1
  H  H7  1  0.50000000  0.71195500  0.75543800  1
  H  H8  1  0.00000000  0.92386100  0.32297900  1
  H  H9  1  0.00000000  0.07613900  0.67702100  1
  H  H10  1  0.50000000  0.42386100  0.17702100  1
  H  H11  1  0.50000000  0.57613900  0.82297900  1
  H  H12  1  0.00000000  0.31960300  0.40319800  1
  H  H13  1  0.00000000  0.68039700  0.59680200  1
  H  H14  1  0.50000000  0.81960300  0.09680200  1
  H  H15  1  0.50000000  0.18039700  0.90319800  1
  H  H16  1  0.29525500  0.59846000  0.29089200  1
  H  H17  1  0.29525500  0.40154000  0.70910800  1
  H  H18  1  0.20474500  0.09846000  0.20910800  1
  H  H19  1  0.20474500  0.90154000  0.79089200  1
  H  H20  1  0.70474500  0.40154000  0.70910800  1
  H  H21  1  0.70474500  0.59846000  0.29089200  1
  H  H22  1  0.79525500  0.90154000  0.79089200  1
  H  H23  1  0.79525500  0.09846000  0.20910800  1
  H  H24  1  0.28149400  0.45034000  0.34886400  1
  H  H25  1  0.28149400  0.54966000  0.65113600  1
  H  H26  1  0.21850600  0.95034000  0.15113600  1
  H  H27  1  0.21850600  0.04966000  0.84886400  1
  H  H28  1  0.71850600  0.54966000  0.65113600  1
  H  H29  1  0.71850600  0.45034000  0.34886400  1
  H  H30  1  0.78149400  0.04966000  0.84886400  1
  H  H31  1  0.78149400  0.95034000  0.15113600  1
  H  H32  1  0.29482100  0.76697600  0.51357100  1
  H  H33  1  0.29482100  0.23302400  0.48642900  1
  H  H34  1  0.20517900  0.26697600  0.98642900  1
  H  H35  1  0.20517900  0.73302400  0.01357100  1
  H  H36  1  0.70517900  0.23302400  0.48642900  1
  H  H37  1  0.70517900  0.76697600  0.51357100  1
  H  H38  1  0.79482100  0.73302400  0.01357100  1
  H  H39  1  0.79482100  0.26697600  0.98642900  1
  H  H40  1  0.31868800  0.83283300  0.41931500  1
  H  H41  1  0.31868800  0.16716700  0.58068500  1
  H  H42  1  0.18131200  0.33283300  0.08068500  1
  H  H43  1  0.18131200  0.66716700  0.91931500  1
  H  H44  1  0.68131200  0.16716700  0.58068500  1
  H  H45  1  0.68131200  0.83283300  0.41931500  1
  H  H46  1  0.81868800  0.66716700  0.91931500  1
  H  H47  1  0.81868800  0.33283300  0.08068500  1
  H  H48  1  0.00000000  0.52068600  0.14384700  1
  H  H49  1  0.00000000  0.47931400  0.85615300  1
  H  H50  1  0.50000000  0.02068600  0.35615300  1
  H  H51  1  0.50000000  0.97931400  0.64384700  1
  H  H52  1  0.00000000  0.36686000  0.19941200  1
  H  H53  1  0.00000000  0.63314000  0.80058800  1
  H  H54  1  0.50000000  0.86686000  0.30058800  1
  H  H55  1  0.50000000  0.13314000  0.69941200  1
  Cl  Cl56  1  0.00000000  0.16645100  0.29448100  1
  Cl  Cl57  1  0.00000000  0.83354900  0.70551900  1
  Cl  Cl58  1  0.50000000  0.66645100  0.20551900  1
  Cl  Cl59  1  0.50000000  0.33354900  0.79448100  1
  Cl  Cl60  1  0.00000000  0.77114600  0.11896800  1
  Cl  Cl61  1  0.00000000  0.22885400  0.88103200  1
  Cl  Cl62  1  0.50000000  0.27114600  0.38103200  1
  Cl  Cl63  1  0.50000000  0.72885400  0.61896800  1
  O  O64  1  0.00000000  0.81026700  0.31743600  1
  O  O65  1  0.00000000  0.18973300  0.68256400  1
  O  O66  1  0.50000000  0.31026700  0.18256400  1
  O  O67  1  0.50000000  0.68973300  0.81743600  1
  O  O68  1  0.00000000  0.39944200  0.44790000  1
  O  O69  1  0.00000000  0.60055800  0.55210000  1
  O  O70  1  0.50000000  0.89944200  0.05210000  1
  O  O71  1  0.50000000  0.10055800  0.94790000  1
  O  O72  1  0.21202500  0.54206000  0.33061600  1
  O  O73  1  0.21202500  0.45794000  0.66938400  1
  O  O74  1  0.28797500  0.04206000  0.16938400  1
  O  O75  1  0.28797500  0.95794000  0.83061600  1
  O  O76  1  0.78797500  0.45794000  0.66938400  1
  O  O77  1  0.78797500  0.54206000  0.33061600  1
  O  O78  1  0.71202500  0.95794000  0.83061600  1
  O  O79  1  0.71202500  0.04206000  0.16938400  1
  O  O80  1  0.22824600  0.78613700  0.45973400  1
  O  O81  1  0.22824600  0.21386300  0.54026600  1
  O  O82  1  0.27175400  0.28613700  0.04026600  1
  O  O83  1  0.27175400  0.71386300  0.95973400  1
  O  O84  1  0.77175400  0.21386300  0.54026600  1
  O  O85  1  0.77175400  0.78613700  0.45973400  1
  O  O86  1  0.72824600  0.71386300  0.95973400  1
  O  O87  1  0.72824600  0.28613700  0.04026600  1
  O  O88  1  0.00000000  0.40704600  0.14047400  1
  O  O89  1  0.00000000  0.59295400  0.85952600  1
  O  O90  1  0.50000000  0.90704600  0.35952600  1
  O  O91  1  0.50000000  0.09295400  0.64047400  1
