# generated using pymatgen
data_RbMnBr3
_symmetry_space_group_name_H-M   'P 1'
_cell_length_a   13.18852862
_cell_length_b   13.18852862
_cell_length_c   6.60949500
_cell_angle_alpha   90.00000000
_cell_angle_beta   90.00000000
_cell_angle_gamma   120.00000310
_symmetry_Int_Tables_number   1
_chemical_formula_structural   RbMnBr3
_chemical_formula_sum   'Rb6 Mn6 Br18'
_cell_volume   995.61536114
_cell_formula_units_Z   6
loop_
 _symmetry_equiv_pos_site_id
 _symmetry_equiv_pos_as_xyz
  1  'x, y, z'
loop_
 _atom_site_type_symbol
 _atom_site_label
 _atom_site_symmetry_multiplicity
 _atom_site_fract_x
 _atom_site_fract_y
 _atom_site_fract_z
 _atom_site_occupancy
  Rb  Rb0  1  0.66646700  0.66646700  0.30057200  1
  Rb  Rb1  1  0.00000000  0.66646700  0.80057200  1
  Rb  Rb2  1  0.66646700  0.00000000  0.80057200  1
  Rb  Rb3  1  0.33353300  0.33353300  0.80057200  1
  Rb  Rb4  1  0.00000000  0.33353300  0.30057200  1
  Rb  Rb5  1  0.33353300  0.00000000  0.30057200  1
  Mn  Mn6  1  0.66666700  0.33333300  0.60870200  1
  Mn  Mn7  1  0.33333300  0.66666700  0.60870200  1
  Mn  Mn8  1  0.66666700  0.33333300  0.10870200  1
  Mn  Mn9  1  0.33333300  0.66666700  0.10870200  1
  Mn  Mn10  1  0.00000000  0.00000000  0.00163500  1
  Mn  Mn11  1  0.00000000  0.00000000  0.50163500  1
  Br  Br12  1  0.82831500  0.33319600  0.86125400  1
  Br  Br13  1  0.83795900  0.83795900  0.74964100  1
  Br  Br14  1  0.49511900  0.82831500  0.36125400  1
  Br  Br15  1  0.17168500  0.50488100  0.86125400  1
  Br  Br16  1  0.00000000  0.83795900  0.24964100  1
  Br  Br17  1  0.50488100  0.17168500  0.86125400  1
  Br  Br18  1  0.83795900  0.00000000  0.24964100  1
  Br  Br19  1  0.49511900  0.66680400  0.86125400  1
  Br  Br20  1  0.33319600  0.82831500  0.86125400  1
  Br  Br21  1  0.17168500  0.66680400  0.36125400  1
  Br  Br22  1  0.00000000  0.16204100  0.74964100  1
  Br  Br23  1  0.66680400  0.49511900  0.86125400  1
  Br  Br24  1  0.33319600  0.50488100  0.36125400  1
  Br  Br25  1  0.82831500  0.49511900  0.36125400  1
  Br  Br26  1  0.66680400  0.17168500  0.36125400  1
  Br  Br27  1  0.16204100  0.16204100  0.24964100  1
  Br  Br28  1  0.16204100  0.00000000  0.74964100  1
  Br  Br29  1  0.50488100  0.33319600  0.36125400  1
