# generated using pymatgen
data_K4Nb2Se11O
_symmetry_space_group_name_H-M   'P 1'
_cell_length_a   14.13239800
_cell_length_b   16.39589800
_cell_length_c   18.98224600
_cell_angle_alpha   90.00000000
_cell_angle_beta   90.00000000
_cell_angle_gamma   90.00000000
_symmetry_Int_Tables_number   1
_chemical_formula_structural   K4Nb2Se11O
_chemical_formula_sum   'K32 Nb16 Se88 O8'
_cell_volume   4398.43992704
_cell_formula_units_Z   8
loop_
 _symmetry_equiv_pos_site_id
 _symmetry_equiv_pos_as_xyz
  1  'x, y, z'
loop_
 _atom_site_type_symbol
 _atom_site_label
 _atom_site_symmetry_multiplicity
 _atom_site_fract_x
 _atom_site_fract_y
 _atom_site_fract_z
 _atom_site_occupancy
  K  K0  1  0.23470600  0.90729300  0.80397400  1
  K  K1  1  0.97760700  0.37444800  0.40447900  1
  K  K2  1  0.74738400  0.67510500  0.54748600  1
  K  K3  1  0.25261600  0.32489500  0.45251400  1
  K  K4  1  0.76529400  0.59270700  0.30397400  1
  K  K5  1  0.52239300  0.87444800  0.59552100  1
  K  K6  1  0.02239300  0.12555200  0.90447900  1
  K  K7  1  0.74738400  0.17510500  0.95251400  1
  K  K8  1  0.76529400  0.09270700  0.19602600  1
  K  K9  1  0.02239300  0.62555200  0.59552100  1
  K  K10  1  0.26529400  0.90729300  0.30397400  1
  K  K11  1  0.09569000  0.08430500  0.62266700  1
  K  K12  1  0.59569000  0.41569500  0.62266700  1
  K  K13  1  0.40431000  0.08430500  0.12266700  1
  K  K14  1  0.52239300  0.37444800  0.90447900  1
  K  K15  1  0.75261600  0.17510500  0.45251400  1
  K  K16  1  0.75261600  0.67510500  0.04748600  1
  K  K17  1  0.26529400  0.40729300  0.19602600  1
  K  K18  1  0.25261600  0.82489500  0.04748600  1
  K  K19  1  0.90431000  0.41569500  0.12266700  1
  K  K20  1  0.24738400  0.82489500  0.54748600  1
  K  K21  1  0.47760700  0.12555200  0.40447900  1
  K  K22  1  0.90431000  0.91569500  0.37733300  1
  K  K23  1  0.97760700  0.87444800  0.09552100  1
  K  K24  1  0.73470600  0.09270700  0.69602600  1
  K  K25  1  0.47760700  0.62555200  0.09552100  1
  K  K26  1  0.09569000  0.58430500  0.87733300  1
  K  K27  1  0.24738400  0.32489500  0.95251400  1
  K  K28  1  0.73470600  0.59270700  0.80397400  1
  K  K29  1  0.59569000  0.91569500  0.87733300  1
  K  K30  1  0.40431000  0.58430500  0.37733300  1
  K  K31  1  0.23470600  0.40729300  0.69602600  1
  Nb  Nb32  1  0.10687400  0.17229800  0.32426300  1
  Nb  Nb33  1  0.10687400  0.67229800  0.17573700  1
  Nb  Nb34  1  0.60687400  0.32770200  0.32426300  1
  Nb  Nb35  1  0.07500300  0.62310400  0.37075000  1
  Nb  Nb36  1  0.42499700  0.12310400  0.62925000  1
  Nb  Nb37  1  0.89312600  0.82770200  0.67573700  1
  Nb  Nb38  1  0.57500300  0.37689600  0.12925000  1
  Nb  Nb39  1  0.60687400  0.82770200  0.17573700  1
  Nb  Nb40  1  0.07500300  0.12310400  0.12925000  1
  Nb  Nb41  1  0.89312600  0.32770200  0.82426300  1
  Nb  Nb42  1  0.39312600  0.67229800  0.67573700  1
  Nb  Nb43  1  0.57500300  0.87689600  0.37075000  1
  Nb  Nb44  1  0.39312600  0.17229800  0.82426300  1
  Nb  Nb45  1  0.42499700  0.62310400  0.87075000  1
  Nb  Nb46  1  0.92499700  0.37689600  0.62925000  1
  Nb  Nb47  1  0.92499700  0.87689600  0.87075000  1
  Se  Se48  1  0.77542500  0.80372200  0.78094500  1
  Se  Se49  1  0.76787300  0.97415500  0.52359300  1
  Se  Se50  1  0.07500900  0.36249100  0.82716900  1
  Se  Se51  1  0.22457500  0.69627800  0.28094500  1
  Se  Se52  1  0.66831700  0.01205400  0.35452100  1
  Se  Se53  1  0.77687000  0.88768100  0.18275100  1
  Se  Se54  1  0.72457500  0.30372200  0.21905500  1
  Se  Se55  1  0.19937700  0.15044900  0.02898800  1
  Se  Se56  1  0.40396500  0.78065300  0.88581800  1
  Se  Se57  1  0.44733700  0.52188100  0.76448000  1
  Se  Se58  1  0.92499100  0.13750900  0.32716900  1
  Se  Se59  1  0.91897200  0.42983300  0.93369900  1
  Se  Se60  1  0.83168300  0.01205400  0.85452100  1
  Se  Se61  1  0.94733700  0.47811900  0.73552000  1
  Se  Se62  1  0.06673000  0.40482400  0.56419500  1
  Se  Se63  1  0.58102800  0.92983300  0.06630100  1
  Se  Se64  1  0.19937700  0.65044900  0.47101200  1
  Se  Se65  1  0.23212700  0.52584500  0.02359300  1
  Se  Se66  1  0.40396500  0.28065300  0.61418200  1
  Se  Se67  1  0.27687000  0.11231900  0.31724900  1
  Se  Se68  1  0.41897200  0.07016700  0.93369900  1
  Se  Se69  1  0.48971200  0.77651700  0.27765400  1
  Se  Se70  1  0.33168300  0.48794600  0.85452100  1
  Se  Se71  1  0.91897200  0.92983300  0.56630100  1
  Se  Se72  1  0.73212700  0.47415500  0.47640700  1
  Se  Se73  1  0.93327000  0.59517600  0.43580500  1
  Se  Se74  1  0.26787300  0.02584500  0.97640700  1
  Se  Se75  1  0.43327000  0.90482400  0.43580500  1
  Se  Se76  1  0.27542500  0.69627800  0.78094500  1
  Se  Se77  1  0.05266300  0.52188100  0.26448000  1
  Se  Se78  1  0.55266300  0.47811900  0.23552000  1
  Se  Se79  1  0.30062300  0.65044900  0.97101200  1
  Se  Se80  1  0.26787300  0.52584500  0.52359300  1
  Se  Se81  1  0.08102800  0.07016700  0.43369900  1
  Se  Se82  1  0.07500900  0.86249100  0.67283100  1
  Se  Se83  1  0.72313000  0.38768100  0.81724900  1
  Se  Se84  1  0.22313000  0.11231900  0.81724900  1
  Se  Se85  1  0.48971200  0.27651700  0.22234600  1
  Se  Se86  1  0.33168300  0.98794600  0.64547900  1
  Se  Se87  1  0.90396500  0.71934700  0.88581800  1
  Se  Se88  1  0.01028800  0.77651700  0.77765400  1
  Se  Se89  1  0.01028800  0.27651700  0.72234600  1
  Se  Se90  1  0.76787300  0.47415500  0.97640700  1
  Se  Se91  1  0.22457500  0.19627800  0.21905500  1
  Se  Se92  1  0.59603500  0.71934700  0.38581800  1
  Se  Se93  1  0.72457500  0.80372200  0.28094500  1
  Se  Se94  1  0.41897200  0.57016700  0.56630100  1
  Se  Se95  1  0.73212700  0.97415500  0.02359300  1
  Se  Se96  1  0.09603500  0.28065300  0.11418200  1
  Se  Se97  1  0.27542500  0.19627800  0.71905500  1
  Se  Se98  1  0.69937700  0.34955100  0.02898800  1
  Se  Se99  1  0.44733700  0.02188100  0.73552000  1
  Se  Se100  1  0.98971200  0.72348300  0.27765400  1
  Se  Se101  1  0.30062300  0.15044900  0.52898800  1
  Se  Se102  1  0.51028800  0.22348300  0.72234600  1
  Se  Se103  1  0.56673000  0.59517600  0.93580500  1
  Se  Se104  1  0.55266300  0.97811900  0.26448000  1
  Se  Se105  1  0.51028800  0.72348300  0.77765400  1
  Se  Se106  1  0.77542500  0.30372200  0.71905500  1
  Se  Se107  1  0.69937700  0.84955100  0.47101200  1
  Se  Se108  1  0.05266300  0.02188100  0.23552000  1
  Se  Se109  1  0.27687000  0.61231900  0.18275100  1
  Se  Se110  1  0.23212700  0.02584500  0.47640700  1
  Se  Se111  1  0.22313000  0.61231900  0.68275100  1
  Se  Se112  1  0.93327000  0.09517600  0.06419500  1
  Se  Se113  1  0.83168300  0.51205400  0.64547900  1
  Se  Se114  1  0.16831700  0.98794600  0.14547900  1
  Se  Se115  1  0.77687000  0.38768100  0.31724900  1
  Se  Se116  1  0.58102800  0.42983300  0.43369900  1
  Se  Se117  1  0.06673000  0.90482400  0.93580500  1
  Se  Se118  1  0.42499100  0.86249100  0.17283100  1
  Se  Se119  1  0.72313000  0.88768100  0.68275100  1
  Se  Se120  1  0.42499100  0.36249100  0.32716900  1
  Se  Se121  1  0.57500900  0.13750900  0.82716900  1
  Se  Se122  1  0.56673000  0.09517600  0.56419500  1
  Se  Se123  1  0.57500900  0.63750900  0.67283100  1
  Se  Se124  1  0.80062300  0.34955100  0.52898800  1
  Se  Se125  1  0.98971200  0.22348300  0.22234600  1
  Se  Se126  1  0.08102800  0.57016700  0.06630100  1
  Se  Se127  1  0.92499100  0.63750900  0.17283100  1
  Se  Se128  1  0.59603500  0.21934700  0.11418200  1
  Se  Se129  1  0.66831700  0.51205400  0.14547900  1
  Se  Se130  1  0.43327000  0.40482400  0.06419500  1
  Se  Se131  1  0.90396500  0.21934700  0.61418200  1
  Se  Se132  1  0.09603500  0.78065300  0.38581800  1
  Se  Se133  1  0.80062300  0.84955100  0.97101200  1
  Se  Se134  1  0.94733700  0.97811900  0.76448000  1
  Se  Se135  1  0.16831700  0.48794600  0.35452100  1
  O  O136  1  0.61611100  0.73547000  0.12659400  1
  O  O137  1  0.38388900  0.26453000  0.87340600  1
  O  O138  1  0.11611100  0.76453000  0.12659400  1
  O  O139  1  0.11611100  0.26453000  0.37340600  1
  O  O140  1  0.88388900  0.73547000  0.62659400  1
  O  O141  1  0.38388900  0.76453000  0.62659400  1
  O  O142  1  0.61611100  0.23547000  0.37340600  1
  O  O143  1  0.88388900  0.23547000  0.87340600  1
