# generated using pymatgen
data_Na2GeO3
_symmetry_space_group_name_H-M   'P 1'
_cell_length_a   6.32424899
_cell_length_b   6.32424899
_cell_length_c   4.99944800
_cell_angle_alpha   90.00000000
_cell_angle_beta   90.00000000
_cell_angle_gamma   120.10781550
_symmetry_Int_Tables_number   1
_chemical_formula_structural   Na2GeO3
_chemical_formula_sum   'Na4 Ge2 O6'
_cell_volume   172.98074165
_cell_formula_units_Z   2
loop_
 _symmetry_equiv_pos_site_id
 _symmetry_equiv_pos_as_xyz
  1  'x, y, z'
loop_
 _atom_site_type_symbol
 _atom_site_label
 _atom_site_symmetry_multiplicity
 _atom_site_fract_x
 _atom_site_fract_y
 _atom_site_fract_z
 _atom_site_occupancy
  Na  Na0  1  0.17234000  0.50645500  0.49816800  1
  Na  Na1  1  0.50645500  0.17234000  0.49816800  1
  Na  Na2  1  0.82766000  0.49354500  0.99816800  1
  Na  Na3  1  0.49354500  0.82766000  0.99816800  1
  Ge  Ge4  1  0.83615300  0.83615300  0.46565600  1
  Ge  Ge5  1  0.16384700  0.16384700  0.96565600  1
  O  O6  1  0.10455000  0.10455000  0.60307400  1
  O  O7  1  0.89545000  0.89545000  0.10307400  1
  O  O8  1  0.84082300  0.56758700  0.52516700  1
  O  O9  1  0.15917700  0.43241300  0.02516700  1
  O  O10  1  0.56758700  0.84082300  0.52516700  1
  O  O11  1  0.43241300  0.15917700  0.02516700  1
