# generated using pymatgen
data_Ga6SnTe10
_symmetry_space_group_name_H-M   'P 1'
_cell_length_a   14.79711209
_cell_length_b   14.79711209
_cell_length_c   18.13149100
_cell_angle_alpha   90.00000000
_cell_angle_beta   90.00000000
_cell_angle_gamma   120.00000041
_symmetry_Int_Tables_number   1
_chemical_formula_structural   Ga6SnTe10
_chemical_formula_sum   'Ga36 Sn6 Te60'
_cell_volume   3438.09660918
_cell_formula_units_Z   6
loop_
 _symmetry_equiv_pos_site_id
 _symmetry_equiv_pos_as_xyz
  1  'x, y, z'
loop_
 _atom_site_type_symbol
 _atom_site_label
 _atom_site_symmetry_multiplicity
 _atom_site_fract_x
 _atom_site_fract_y
 _atom_site_fract_z
 _atom_site_occupancy
  Ga  Ga0  1  0.00800500  0.92501700  0.41413200  1
  Ga  Ga1  1  0.14170700  0.92196800  0.59733800  1
  Ga  Ga2  1  0.25718100  0.81163300  0.07357400  1
  Ga  Ga3  1  0.11539200  0.52300400  0.93430200  1
  Ga  Ga4  1  0.25313100  0.67611900  0.25072800  1
  Ga  Ga5  1  0.25280500  0.65972900  0.74859600  1
  Ga  Ga6  1  0.40761200  0.88460800  0.60096800  1
  Ga  Ga7  1  0.18836700  0.44554900  0.40690800  1
  Ga  Ga8  1  0.07803200  0.21973900  0.93067200  1
  Ga  Ga9  1  0.07498300  0.08298800  0.74746500  1
  Ga  Ga10  1  0.40692400  0.74719500  0.41526300  1
  Ga  Ga11  1  0.32388100  0.57701200  0.58406200  1
  Ga  Ga12  1  0.34027100  0.59307600  0.08193000  1
  Ga  Ga13  1  0.08298800  0.07498300  0.25253500  1
  Ga  Ga14  1  0.42298800  0.74686900  0.91739500  1
  Ga  Ga15  1  0.21973900  0.07803200  0.06932800  1
  Ga  Ga16  1  0.47699600  0.59238800  0.26763500  1
  Ga  Ga17  1  0.55445100  0.74281900  0.74024100  1
  Ga  Ga18  1  0.44554900  0.18836700  0.59309200  1
  Ga  Ga19  1  0.78026100  0.85829300  0.26400500  1
  Ga  Ga20  1  0.59238800  0.47699600  0.73236500  1
  Ga  Ga21  1  0.57701200  0.32388100  0.41593800  1
  Ga  Ga22  1  0.91701200  0.99199500  0.08079900  1
  Ga  Ga23  1  0.59307600  0.34027100  0.91807000  1
  Ga  Ga24  1  0.52300400  0.11539200  0.06569800  1
  Ga  Ga25  1  0.74281900  0.55445100  0.25975900  1
  Ga  Ga26  1  0.85829300  0.78026100  0.73599500  1
  Ga  Ga27  1  0.99199500  0.91701200  0.91920100  1
  Ga  Ga28  1  0.65972900  0.25280500  0.25140400  1
  Ga  Ga29  1  0.74686900  0.42298800  0.08260500  1
  Ga  Ga30  1  0.74719500  0.40692400  0.58473700  1
  Ga  Ga31  1  0.67611900  0.25313100  0.74927200  1
  Ga  Ga32  1  0.88460800  0.40761200  0.39903200  1
  Ga  Ga33  1  0.81163300  0.25718100  0.92642600  1
  Ga  Ga34  1  0.92196800  0.14170700  0.40266200  1
  Ga  Ga35  1  0.92501700  0.00800500  0.58586800  1
  Sn  Sn36  1  0.08603200  0.73998400  0.84454200  1
  Sn  Sn37  1  0.26001600  0.34604800  0.17787500  1
  Sn  Sn38  1  0.65395200  0.91396800  0.51120800  1
  Sn  Sn39  1  0.34604800  0.26001600  0.82212500  1
  Sn  Sn40  1  0.91396800  0.65395200  0.48879200  1
  Sn  Sn41  1  0.73998400  0.08603200  0.15545800  1
  Te  Te42  1  0.03429800  0.90074300  0.06245200  1
  Te  Te43  1  0.25048000  0.25048000  0.00000000  1
  Te  Te44  1  0.00000000  0.74952000  0.66666700  1
  Te  Te45  1  0.14109300  0.86579900  0.45763500  1
  Te  Te46  1  0.08344700  0.66181200  0.00666700  1
  Te  Te47  1  0.06016000  0.52614800  0.79431700  1
  Te  Te48  1  0.21719300  0.82445000  0.21210200  1
  Te  Te49  1  0.33071100  0.99901500  0.00358500  1
  Te  Te50  1  0.00098500  0.33169600  0.33691800  1
  Te  Te51  1  0.19894500  0.63193600  0.39456800  1
  Te  Te52  1  0.23471800  0.69902200  0.60544100  1
  Te  Te53  1  0.17105600  0.51021600  0.16397400  1
  Te  Te54  1  0.00000000  0.15870100  0.16666700  1
  Te  Te55  1  0.33916000  0.82894400  0.83064100  1
  Te  Te56  1  0.17555000  0.39274300  0.54543600  1
  Te  Te57  1  0.13420100  0.27529400  0.79096900  1
  Te  Te58  1  0.46598800  0.93984000  0.46098300  1
  Te  Te59  1  0.43299100  0.80105500  0.06123500  1
  Te  Te60  1  0.09925700  0.13355500  0.39578600  1
  Te  Te61  1  0.30097800  0.53569600  0.93877500  1
  Te  Te62  1  0.46430400  0.76528200  0.27210800  1
  Te  Te63  1  0.13355500  0.09925700  0.60421400  1
  Te  Te64  1  0.36806400  0.56700900  0.72790200  1
  Te  Te65  1  0.57836500  0.91655300  0.67333400  1
  Te  Te66  1  0.33818800  0.42163500  0.34000000  1
  Te  Te67  1  0.15870100  0.00000000  0.83333300  1
  Te  Te68  1  0.48978400  0.66084000  0.49730700  1
  Te  Te69  1  0.47385200  0.53401200  0.12765000  1
  Te  Te70  1  0.27529400  0.13420100  0.20903100  1
  Te  Te71  1  0.60725700  0.78280700  0.87876900  1
  Te  Te72  1  0.42163500  0.33818800  0.66000000  1
  Te  Te73  1  0.72470600  0.85890700  0.12430200  1
  Te  Te74  1  0.53401200  0.47385200  0.87235000  1
  Te  Te75  1  0.39274300  0.17555000  0.45456400  1
  Te  Te76  1  0.33169600  0.00098500  0.66308200  1
  Te  Te77  1  0.66830400  0.66928900  0.67025200  1
  Te  Te78  1  0.66928900  0.66830400  0.32974800  1
  Te  Te79  1  0.86644500  0.96570200  0.72911900  1
  Te  Te80  1  0.56700900  0.36806400  0.27209800  1
  Te  Te81  1  0.53569600  0.30097800  0.06122500  1
  Te  Te82  1  0.66084000  0.48978400  0.50269300  1
  Te  Te83  1  0.84129900  0.84129900  0.50000000  1
  Te  Te84  1  0.51021600  0.17105600  0.83602600  1
  Te  Te85  1  0.78280700  0.60725700  0.12123100  1
  Te  Te86  1  0.85890700  0.72470600  0.87569800  1
  Te  Te87  1  0.52614800  0.06016000  0.20568300  1
  Te  Te88  1  0.63193600  0.19894500  0.60543200  1
  Te  Te89  1  0.96570200  0.86644500  0.27088100  1
  Te  Te90  1  0.76528200  0.46430400  0.72789200  1
  Te  Te91  1  0.69902200  0.23471800  0.39455900  1
  Te  Te92  1  0.80105500  0.43299100  0.93876500  1
  Te  Te93  1  0.66181200  0.08344700  0.99333300  1
  Te  Te94  1  0.91655300  0.57836500  0.32666600  1
  Te  Te95  1  0.82894400  0.33916000  0.16935900  1
  Te  Te96  1  0.93984000  0.46598800  0.53901700  1
  Te  Te97  1  0.82445000  0.21719300  0.78789800  1
  Te  Te98  1  0.74952000  0.00000000  0.33333300  1
  Te  Te99  1  0.86579900  0.14109300  0.54236500  1
  Te  Te100  1  0.99901500  0.33071100  0.99641500  1
  Te  Te101  1  0.90074300  0.03429800  0.93754800  1
