# generated using pymatgen
data_KUI3O11
_symmetry_space_group_name_H-M   'P 1'
_cell_length_a   7.39988900
_cell_length_b   11.68474500
_cell_length_c   26.00635300
_cell_angle_alpha   90.00000000
_cell_angle_beta   90.00000000
_cell_angle_gamma   90.00000000
_symmetry_Int_Tables_number   1
_chemical_formula_structural   KUI3O11
_chemical_formula_sum   'K8 U8 I24 O88'
_cell_volume   2248.66053315
_cell_formula_units_Z   8
loop_
 _symmetry_equiv_pos_site_id
 _symmetry_equiv_pos_as_xyz
  1  'x, y, z'
loop_
 _atom_site_type_symbol
 _atom_site_label
 _atom_site_symmetry_multiplicity
 _atom_site_fract_x
 _atom_site_fract_y
 _atom_site_fract_z
 _atom_site_occupancy
  K  K0  1  0.55336300  0.83695400  0.97889400  1
  K  K1  1  0.94663700  0.83695400  0.47889400  1
  K  K2  1  0.44663700  0.66304600  0.47889400  1
  K  K3  1  0.44663700  0.16304600  0.02110600  1
  K  K4  1  0.05336300  0.66304600  0.97889400  1
  K  K5  1  0.94663700  0.33695400  0.02110600  1
  K  K6  1  0.55336300  0.33695400  0.52110600  1
  K  K7  1  0.05336300  0.16304600  0.52110600  1
  U  U8  1  0.46366400  0.02505800  0.84823500  1
  U  U9  1  0.46366400  0.52505800  0.65176500  1
  U  U10  1  0.03633600  0.52505800  0.15176500  1
  U  U11  1  0.03633600  0.02505800  0.34823500  1
  U  U12  1  0.96366400  0.47494200  0.84823500  1
  U  U13  1  0.53633600  0.47494200  0.34823500  1
  U  U14  1  0.96366400  0.97494200  0.65176500  1
  U  U15  1  0.53633600  0.97494200  0.15176500  1
  I  I16  1  0.56497500  0.65972500  0.20333500  1
  I  I17  1  0.13873700  0.20386100  0.15531200  1
  I  I18  1  0.63873700  0.79613900  0.34468800  1
  I  I19  1  0.04652900  0.56134300  0.56239200  1
  I  I20  1  0.54652900  0.43865700  0.93760800  1
  I  I21  1  0.06497600  0.34027500  0.29666500  1
  I  I22  1  0.43502500  0.84027500  0.70333500  1
  I  I23  1  0.54652900  0.93865700  0.56239200  1
  I  I24  1  0.95347100  0.93865700  0.06239200  1
  I  I25  1  0.36126300  0.20386100  0.65531200  1
  I  I26  1  0.36126300  0.70386100  0.84468800  1
  I  I27  1  0.93502500  0.65972500  0.70333500  1
  I  I28  1  0.63873700  0.29613900  0.15531200  1
  I  I29  1  0.93502500  0.15972500  0.79666500  1
  I  I30  1  0.04652900  0.06134300  0.93760800  1
  I  I31  1  0.45347100  0.06134300  0.43760800  1
  I  I32  1  0.45347100  0.56134300  0.06239200  1
  I  I33  1  0.86126300  0.79613900  0.84468800  1
  I  I34  1  0.13873700  0.70386100  0.34468800  1
  I  I35  1  0.56497500  0.15972500  0.29666500  1
  I  I36  1  0.95347100  0.43865700  0.43760800  1
  I  I37  1  0.86126300  0.29613900  0.65531200  1
  I  I38  1  0.43502500  0.34027500  0.79666500  1
  I  I39  1  0.06497600  0.84027500  0.20333500  1
  O  O40  1  0.28134300  0.93375500  0.66679400  1
  O  O41  1  0.02553600  0.97352100  0.58399800  1
  O  O42  1  0.83080800  0.93995000  0.12679100  1
  O  O43  1  0.03889100  0.22466600  0.34461600  1
  O  O44  1  0.28428600  0.85070400  0.85760900  1
  O  O45  1  0.52553600  0.52647900  0.58399800  1
  O  O46  1  0.33080800  0.56005000  0.12679100  1
  O  O47  1  0.71865700  0.56624500  0.16679400  1
  O  O48  1  0.60808300  0.84257700  0.41059500  1
  O  O49  1  0.82217700  0.03820900  0.02333400  1
  O  O50  1  0.62324900  0.34749000  0.66487800  1
  O  O51  1  0.33080800  0.06005000  0.37320900  1
  O  O52  1  0.86565100  0.80513200  0.03804100  1
  O  O53  1  0.22217000  0.27071400  0.25310400  1
  O  O54  1  0.10808300  0.65742300  0.41059500  1
  O  O55  1  0.12324900  0.65251000  0.83512200  1
  O  O56  1  0.39191700  0.65742300  0.91059500  1
  O  O57  1  0.37675100  0.65251000  0.33512200  1
  O  O58  1  0.67782300  0.53820900  0.97666600  1
  O  O59  1  0.63434900  0.80513200  0.53804100  1
  O  O60  1  0.46110900  0.72466600  0.65538400  1
  O  O61  1  0.27783000  0.27071400  0.75310400  1
  O  O62  1  0.78428600  0.14929600  0.64239100  1
  O  O63  1  0.47446400  0.97352100  0.08399800  1
  O  O64  1  0.71571400  0.64929600  0.35760900  1
  O  O65  1  0.59013600  0.97788800  0.22042500  1
  O  O66  1  0.09013600  0.02211200  0.27957500  1
  O  O67  1  0.36565100  0.19486800  0.46195900  1
  O  O68  1  0.96110900  0.27533400  0.84461600  1
  O  O69  1  0.28428600  0.35070400  0.64239100  1
  O  O70  1  0.60808300  0.34257700  0.08940500  1
  O  O71  1  0.09013600  0.52211200  0.22042500  1
  O  O72  1  0.16919200  0.56005000  0.62679100  1
  O  O73  1  0.21571400  0.85070400  0.35760900  1
  O  O74  1  0.89191700  0.34257700  0.58940500  1
  O  O75  1  0.67782300  0.03820900  0.52333400  1
  O  O76  1  0.16919200  0.06005000  0.87320900  1
  O  O77  1  0.78134300  0.06624500  0.83320600  1
  O  O78  1  0.72217000  0.72928600  0.24689600  1
  O  O79  1  0.96110900  0.77533400  0.65538400  1
  O  O80  1  0.83080800  0.43995000  0.37320900  1
  O  O81  1  0.53889100  0.27533400  0.34461600  1
  O  O82  1  0.53889100  0.77533400  0.15538400  1
  O  O83  1  0.97446400  0.52647900  0.08399800  1
  O  O84  1  0.89191700  0.84257700  0.91059500  1
  O  O85  1  0.97446400  0.02647900  0.41600200  1
  O  O86  1  0.77783000  0.22928600  0.75310400  1
  O  O87  1  0.66919200  0.43995000  0.87320900  1
  O  O88  1  0.21865700  0.93375500  0.16679400  1
  O  O89  1  0.90986400  0.97788800  0.72042500  1
  O  O90  1  0.02553600  0.47352100  0.91600200  1
  O  O91  1  0.66919200  0.93995000  0.62679100  1
  O  O92  1  0.28134300  0.43375500  0.83320600  1
  O  O93  1  0.77783000  0.72928600  0.74689600  1
  O  O94  1  0.71571400  0.14929600  0.14239100  1
  O  O95  1  0.87675100  0.34749000  0.16487800  1
  O  O96  1  0.47446400  0.47352100  0.41600200  1
  O  O97  1  0.87675100  0.84749000  0.33512200  1
  O  O98  1  0.21571400  0.35070400  0.14239100  1
  O  O99  1  0.32217700  0.96179100  0.47666600  1
  O  O100  1  0.37675100  0.15251000  0.16487800  1
  O  O101  1  0.17782300  0.96179100  0.97666600  1
  O  O102  1  0.13434900  0.69486800  0.53804100  1
  O  O103  1  0.21865700  0.43375500  0.33320600  1
  O  O104  1  0.10808300  0.15742300  0.08940500  1
  O  O105  1  0.27783000  0.77071400  0.74689600  1
  O  O106  1  0.40986400  0.02211200  0.77957500  1
  O  O107  1  0.46110900  0.22466600  0.84461600  1
  O  O108  1  0.39191700  0.15742300  0.58940500  1
  O  O109  1  0.12324900  0.15251000  0.66487800  1
  O  O110  1  0.03889100  0.72466600  0.15538400  1
  O  O111  1  0.90986400  0.47788800  0.77957500  1
  O  O112  1  0.62324900  0.84749000  0.83512200  1
  O  O113  1  0.82217700  0.53820900  0.47666600  1
  O  O114  1  0.40986400  0.52211200  0.72042500  1
  O  O115  1  0.36565100  0.69486800  0.03804100  1
  O  O116  1  0.78428600  0.64929600  0.85760900  1
  O  O117  1  0.71865700  0.06624500  0.33320600  1
  O  O118  1  0.72217000  0.22928600  0.25310400  1
  O  O119  1  0.32217700  0.46179100  0.02333400  1
  O  O120  1  0.52553600  0.02647900  0.91600200  1
  O  O121  1  0.86565100  0.30513200  0.46195900  1
  O  O122  1  0.59013600  0.47788800  0.27957500  1
  O  O123  1  0.63434900  0.30513200  0.96195900  1
  O  O124  1  0.22217000  0.77071400  0.24689600  1
  O  O125  1  0.17782300  0.46179100  0.52333400  1
  O  O126  1  0.78134300  0.56624500  0.66679400  1
  O  O127  1  0.13434900  0.19486800  0.96195900  1
