# generated using pymatgen
data_Ni3B7BrO13
_symmetry_space_group_name_H-M   'P 1'
_cell_length_a   8.59568900
_cell_length_b   8.61207900
_cell_length_c   12.17464700
_cell_angle_alpha   90.00000000
_cell_angle_beta   90.00000000
_cell_angle_gamma   90.00000000
_symmetry_Int_Tables_number   1
_chemical_formula_structural   Ni3B7BrO13
_chemical_formula_sum   'Ni12 B28 Br4 O52'
_cell_volume   901.24958301
_cell_formula_units_Z   4
loop_
 _symmetry_equiv_pos_site_id
 _symmetry_equiv_pos_as_xyz
  1  'x, y, z'
loop_
 _atom_site_type_symbol
 _atom_site_label
 _atom_site_symmetry_multiplicity
 _atom_site_fract_x
 _atom_site_fract_y
 _atom_site_fract_z
 _atom_site_occupancy
  Ni  Ni0  1  0.97229900  0.01313200  0.50654500  1
  Ni  Ni1  1  0.25048700  0.74228100  0.23179500  1
  Ni  Ni2  1  0.52726300  0.01298400  0.50462600  1
  Ni  Ni3  1  0.02770100  0.98686800  0.00654500  1
  Ni  Ni4  1  0.02770100  0.51313200  0.50654500  1
  Ni  Ni5  1  0.74951300  0.25771900  0.73179500  1
  Ni  Ni6  1  0.74951300  0.24228100  0.23179500  1
  Ni  Ni7  1  0.47273700  0.98701600  0.00462600  1
  Ni  Ni8  1  0.47273700  0.51298400  0.50462600  1
  Ni  Ni9  1  0.52726300  0.48701600  0.00462600  1
  Ni  Ni10  1  0.97229900  0.48686800  0.00654500  1
  Ni  Ni11  1  0.25048700  0.75771900  0.73179500  1
  B  B12  1  0.75010300  0.95393200  0.85389600  1
  B  B13  1  0.50173400  0.49907400  0.25324100  1
  B  B14  1  0.50173400  0.00092600  0.75324100  1
  B  B15  1  0.59681100  0.75347800  0.17302300  1
  B  B16  1  0.99680900  0.00290400  0.75360400  1
  B  B17  1  0.09601600  0.24804100  0.67395000  1
  B  B18  1  0.24989700  0.04606800  0.35389600  1
  B  B19  1  0.99680900  0.49709600  0.25360400  1
  B  B20  1  0.49826600  0.50092600  0.75324100  1
  B  B21  1  0.75403600  0.74417700  0.50115700  1
  B  B22  1  0.24925700  0.40583200  0.32654200  1
  B  B23  1  0.40318900  0.24652200  0.67302300  1
  B  B24  1  0.24989700  0.45393200  0.85389600  1
  B  B25  1  0.40318900  0.25347800  0.17302300  1
  B  B26  1  0.90398400  0.74804100  0.67395000  1
  B  B27  1  0.90398400  0.75195900  0.17395000  1
  B  B28  1  0.24925700  0.09416800  0.82654200  1
  B  B29  1  0.09601600  0.25195900  0.17395000  1
  B  B30  1  0.75403600  0.75582300  0.00115700  1
  B  B31  1  0.00319100  0.99709600  0.25360400  1
  B  B32  1  0.75074300  0.90583200  0.32654200  1
  B  B33  1  0.75074300  0.59416800  0.82654200  1
  B  B34  1  0.59681100  0.74652200  0.67302300  1
  B  B35  1  0.00319100  0.50290400  0.75360400  1
  B  B36  1  0.24596400  0.25582300  0.00115700  1
  B  B37  1  0.24596400  0.24417700  0.50115700  1
  B  B38  1  0.75010300  0.54606800  0.35389600  1
  B  B39  1  0.49826600  0.99907400  0.25324100  1
  Br  Br40  1  0.25086100  0.77950100  0.01714100  1
  Br  Br41  1  0.74913900  0.27950100  0.01714100  1
  Br  Br42  1  0.74913900  0.22049900  0.51714100  1
  Br  Br43  1  0.25086100  0.72049900  0.51714100  1
  O  O44  1  0.02730500  0.66941400  0.73334200  1
  O  O45  1  0.82731100  0.85850700  0.42811300  1
  O  O46  1  0.82731100  0.64149300  0.92811300  1
  O  O47  1  0.91051100  0.96290600  0.85745200  1
  O  O48  1  0.17268900  0.35850700  0.42811300  1
  O  O49  1  0.08948900  0.46290600  0.85745200  1
  O  O50  1  0.66894400  0.45894100  0.27766700  1
  O  O51  1  0.94076300  0.58754300  0.15890000  1
  O  O52  1  0.32922700  0.11831700  0.43842700  1
  O  O53  1  0.66894400  0.04105900  0.77766700  1
  O  O54  1  0.67077300  0.61831700  0.43842700  1
  O  O55  1  0.74973300  0.73269800  0.74309600  1
  O  O56  1  0.59113800  0.54929300  0.84854400  1
  O  O57  1  0.83795400  0.03215000  0.27391900  1
  O  O58  1  0.36312300  0.17730600  0.06987500  1
  O  O59  1  0.02730500  0.83058600  0.23334200  1
  O  O60  1  0.63687700  0.67730600  0.06987500  1
  O  O61  1  0.54290300  0.58745700  0.65444300  1
  O  O62  1  0.47989800  0.83429800  0.73363200  1
  O  O63  1  0.52010200  0.16570200  0.23363200  1
  O  O64  1  0.33105600  0.54105900  0.77766700  1
  O  O65  1  0.16204600  0.96785000  0.77391900  1
  O  O66  1  0.97269500  0.16941400  0.73334200  1
  O  O67  1  0.40886200  0.04929300  0.84854400  1
  O  O68  1  0.45709700  0.08745700  0.65444300  1
  O  O69  1  0.25026700  0.26730200  0.24309600  1
  O  O70  1  0.67077300  0.88168300  0.93842700  1
  O  O71  1  0.59113800  0.95070700  0.34854400  1
  O  O72  1  0.47989800  0.66570200  0.23363200  1
  O  O73  1  0.36312300  0.32269400  0.56987500  1
  O  O74  1  0.05923700  0.08754300  0.15890000  1
  O  O75  1  0.05923700  0.41245700  0.65890000  1
  O  O76  1  0.83795400  0.46785000  0.77391900  1
  O  O77  1  0.08948900  0.03709400  0.35745200  1
  O  O78  1  0.87516500  0.82811200  0.06883000  1
  O  O79  1  0.63687700  0.82269400  0.56987500  1
  O  O80  1  0.40886200  0.45070700  0.34854400  1
  O  O81  1  0.97269500  0.33058600  0.23334200  1
  O  O82  1  0.54290300  0.91254300  0.15444300  1
  O  O83  1  0.45709700  0.41254300  0.15444300  1
  O  O84  1  0.12483500  0.17188800  0.56883000  1
  O  O85  1  0.87516500  0.67188800  0.56883000  1
  O  O86  1  0.17268900  0.14149300  0.92811300  1
  O  O87  1  0.94076300  0.91245700  0.65890000  1
  O  O88  1  0.33105600  0.95894100  0.27766700  1
  O  O89  1  0.12483500  0.32811200  0.06883000  1
  O  O90  1  0.91051100  0.53709400  0.35745200  1
  O  O91  1  0.25026700  0.23269800  0.74309600  1
  O  O92  1  0.74973300  0.76730200  0.24309600  1
  O  O93  1  0.32922700  0.38168300  0.93842700  1
  O  O94  1  0.52010200  0.33429800  0.73363200  1
  O  O95  1  0.16204600  0.53215000  0.27391900  1
