# generated using pymatgen
data_TmMoClO4
_symmetry_space_group_name_H-M   'P 1'
_cell_length_a   6.26139739
_cell_length_b   6.26139739
_cell_length_c   6.87600926
_cell_angle_alpha   75.76437589
_cell_angle_beta   75.76437589
_cell_angle_gamma   70.65584111
_symmetry_Int_Tables_number   1
_chemical_formula_structural   TmMoClO4
_chemical_formula_sum   'Tm2 Mo2 Cl2 O8'
_cell_volume   242.52681606
_cell_formula_units_Z   2
loop_
 _symmetry_equiv_pos_site_id
 _symmetry_equiv_pos_as_xyz
  1  'x, y, z'
loop_
 _atom_site_type_symbol
 _atom_site_label
 _atom_site_symmetry_multiplicity
 _atom_site_fract_x
 _atom_site_fract_y
 _atom_site_fract_z
 _atom_site_occupancy
  Tm  Tm0  1  0.77832000  0.77832000  0.11274000  1
  Tm  Tm1  1  0.22168000  0.22168000  0.88726000  1
  Mo  Mo2  1  0.36222900  0.36222900  0.26905300  1
  Mo  Mo3  1  0.63777100  0.63777100  0.73094700  1
  Cl  Cl4  1  0.98964700  0.98964700  0.76839300  1
  Cl  Cl5  1  0.01035300  0.01035300  0.23160700  1
  O  O6  1  0.70649200  0.70649200  0.46204400  1
  O  O7  1  0.29350800  0.29350800  0.53795600  1
  O  O8  1  0.50784200  0.89374800  0.84629200  1
  O  O9  1  0.45496200  0.45496200  0.80036700  1
  O  O10  1  0.10625200  0.49215800  0.15370800  1
  O  O11  1  0.89374800  0.50784200  0.84629200  1
  O  O12  1  0.54503800  0.54503800  0.19963300  1
  O  O13  1  0.49215800  0.10625200  0.15370800  1
