# generated using pymatgen
data_CsAuF4
_symmetry_space_group_name_H-M   'P 1'
_cell_length_a   7.76245355
_cell_length_b   7.76245355
_cell_length_c   7.76245355
_cell_angle_alpha   137.08770755
_cell_angle_beta   127.18763760
_cell_angle_gamma   70.31650273
_symmetry_Int_Tables_number   1
_chemical_formula_structural   CsAuF4
_chemical_formula_sum   'Cs2 Au2 F8'
_cell_volume   248.83300262
_cell_formula_units_Z   2
loop_
 _symmetry_equiv_pos_site_id
 _symmetry_equiv_pos_as_xyz
  1  'x, y, z'
loop_
 _atom_site_type_symbol
 _atom_site_label
 _atom_site_symmetry_multiplicity
 _atom_site_fract_x
 _atom_site_fract_y
 _atom_site_fract_z
 _atom_site_occupancy
  Cs  Cs0  1  0.22118600  0.72118600  0.50000000  1
  Cs  Cs1  1  0.77881400  0.27881400  0.50000000  1
  Au  Au2  1  0.50000000  0.50000000  0.00000000  1
  Au  Au3  1  0.00000000  0.00000000  0.00000000  1
  F  F4  1  0.21520100  0.50000000  0.71520100  1
  F  F5  1  0.34484300  0.34484300  0.00000000  1
  F  F6  1  0.69162800  0.88725000  0.80437800  1
  F  F7  1  0.91712800  0.11275000  0.80437800  1
  F  F8  1  0.78479900  0.50000000  0.28479900  1
  F  F9  1  0.08287200  0.88725000  0.19562200  1
  F  F10  1  0.65515700  0.65515700  0.00000000  1
  F  F11  1  0.30837200  0.11275000  0.19562200  1
