# generated using pymatgen
data_CsHoZnSe3
_symmetry_space_group_name_H-M   'P 1'
_cell_length_a   8.41101690
_cell_length_b   8.41101690
_cell_length_c   11.00257000
_cell_angle_alpha   90.00000000
_cell_angle_beta   90.00000000
_cell_angle_gamma   151.28265541
_symmetry_Int_Tables_number   1
_chemical_formula_structural   CsHoZnSe3
_chemical_formula_sum   'Cs2 Ho2 Zn2 Se6'
_cell_volume   374.00258717
_cell_formula_units_Z   2
loop_
 _symmetry_equiv_pos_site_id
 _symmetry_equiv_pos_as_xyz
  1  'x, y, z'
loop_
 _atom_site_type_symbol
 _atom_site_label
 _atom_site_symmetry_multiplicity
 _atom_site_fract_x
 _atom_site_fract_y
 _atom_site_fract_z
 _atom_site_occupancy
  Cs  Cs0  1  0.25789000  0.74211000  0.75000000  1
  Cs  Cs1  1  0.74211000  0.25789000  0.25000000  1
  Ho  Ho2  1  0.00000000  0.00000000  0.00000000  1
  Ho  Ho3  1  0.00000000  0.00000000  0.50000000  1
  Zn  Zn4  1  0.53966200  0.46033800  0.75000000  1
  Zn  Zn5  1  0.46033800  0.53966200  0.25000000  1
  Se  Se6  1  0.61578700  0.38421300  0.94232600  1
  Se  Se7  1  0.38421300  0.61578700  0.05767400  1
  Se  Se8  1  0.38421300  0.61578700  0.44232600  1
  Se  Se9  1  0.61578700  0.38421300  0.55767400  1
  Se  Se10  1  0.94633200  0.05366800  0.75000000  1
  Se  Se11  1  0.05366800  0.94633200  0.25000000  1
