# generated using pymatgen
data_NaFe(SeO4)2
_symmetry_space_group_name_H-M   'P 1'
_cell_length_a   5.02469516
_cell_length_b   8.98771753
_cell_length_c   8.76590625
_cell_angle_alpha   68.93735806
_cell_angle_beta   101.79841276
_cell_angle_gamma   75.93415929
_symmetry_Int_Tables_number   1
_chemical_formula_structural   NaFe(SeO4)2
_chemical_formula_sum   'Na2 Fe2 Se4 O16'
_cell_volume   339.21657075
_cell_formula_units_Z   2
loop_
 _symmetry_equiv_pos_site_id
 _symmetry_equiv_pos_as_xyz
  1  'x, y, z'
loop_
 _atom_site_type_symbol
 _atom_site_label
 _atom_site_symmetry_multiplicity
 _atom_site_fract_x
 _atom_site_fract_y
 _atom_site_fract_z
 _atom_site_occupancy
  Na  Na0  1  0.00000000  0.25000000  0.25000000  1
  Na  Na1  1  0.00000000  0.75000000  0.75000000  1
  Fe  Fe2  1  0.99999900  0.50000000  0.50000000  1
  Fe  Fe3  1  0.00000100  0.00000000  0.00000100  1
  Se  Se4  1  0.36235900  0.56963600  0.20730500  1
  Se  Se5  1  0.36235900  0.06963700  0.70730500  1
  Se  Se6  1  0.63764100  0.43036300  0.79269500  1
  Se  Se7  1  0.63764100  0.93036300  0.29269500  1
  O  O8  1  0.28383500  0.42977300  0.14593800  1
  O  O9  1  0.28383500  0.92977300  0.64593900  1
  O  O10  1  0.71616500  0.57022600  0.85406200  1
  O  O11  1  0.71616500  0.07022700  0.35406100  1
  O  O12  1  0.76463100  0.40281800  0.63819500  1
  O  O13  1  0.76463100  0.90281900  0.13819300  1
  O  O14  1  0.23537000  0.59718200  0.36180500  1
  O  O15  1  0.23536900  0.09718100  0.86180700  1
  O  O16  1  0.76721600  0.23836100  0.96658900  1
  O  O17  1  0.76721400  0.73836300  0.46658800  1
  O  O18  1  0.23278400  0.76163900  0.03341100  1
  O  O19  1  0.23278600  0.26163700  0.53341200  1
  O  O20  1  0.27177500  0.48608400  0.71887300  1
  O  O21  1  0.27177400  0.98608500  0.21887000  1
  O  O22  1  0.72822500  0.51391600  0.28112700  1
  O  O23  1  0.72822600  0.01391500  0.78113000  1
