# generated using pymatgen
data_K3GaS3
_symmetry_space_group_name_H-M   'P 1'
_cell_length_a   12.74268200
_cell_length_b   7.83411900
_cell_length_c   10.21125762
_cell_angle_alpha   52.34083742
_cell_angle_beta   90.00000000
_cell_angle_gamma   90.00000000
_symmetry_Int_Tables_number   1
_chemical_formula_structural   K3GaS3
_chemical_formula_sum   'K12 Ga4 S12'
_cell_volume   806.99065132
_cell_formula_units_Z   4
loop_
 _symmetry_equiv_pos_site_id
 _symmetry_equiv_pos_as_xyz
  1  'x, y, z'
loop_
 _atom_site_type_symbol
 _atom_site_label
 _atom_site_symmetry_multiplicity
 _atom_site_fract_x
 _atom_site_fract_y
 _atom_site_fract_z
 _atom_site_occupancy
  K  K0  1  0.91059100  0.34148300  0.39254900  1
  K  K1  1  0.41059100  0.65851700  0.10745100  1
  K  K2  1  0.08940900  0.65851700  0.60745100  1
  K  K3  1  0.58940900  0.34148300  0.89254900  1
  K  K4  1  0.18899700  0.13792700  0.57724300  1
  K  K5  1  0.68899700  0.86207300  0.92275700  1
  K  K6  1  0.81100300  0.86207300  0.42275700  1
  K  K7  1  0.31100300  0.13792700  0.07724300  1
  K  K8  1  0.62673200  0.38169700  0.47354000  1
  K  K9  1  0.12673200  0.61830300  0.02646000  1
  K  K10  1  0.37326800  0.61830300  0.52646000  1
  K  K11  1  0.87326800  0.38169700  0.97354000  1
  Ga  Ga12  1  0.93994300  0.06567000  0.83607800  1
  Ga  Ga13  1  0.43994300  0.93433000  0.66392200  1
  Ga  Ga14  1  0.06005700  0.93433000  0.16392200  1
  Ga  Ga15  1  0.56005700  0.06567000  0.33607800  1
  S  S16  1  0.39385000  0.15549600  0.37837900  1
  S  S17  1  0.89385000  0.84450400  0.12162100  1
  S  S18  1  0.60615000  0.84450400  0.62162100  1
  S  S19  1  0.10615000  0.15549600  0.87837900  1
  S  S20  1  0.67549700  0.34536600  0.18952800  1
  S  S21  1  0.17549700  0.65463400  0.31047200  1
  S  S22  1  0.32450300  0.65463400  0.81047200  1
  S  S23  1  0.82450300  0.34536600  0.68952800  1
  S  S24  1  0.54534800  0.87423400  0.23735300  1
  S  S25  1  0.04534800  0.12576600  0.26264700  1
  S  S26  1  0.45465200  0.12576600  0.76264700  1
  S  S27  1  0.95465200  0.87423400  0.73735300  1
