# generated using pymatgen
data_NdBC
_symmetry_space_group_name_H-M   'P 1'
_cell_length_a   8.45362300
_cell_length_b   8.48628900
_cell_length_c   12.30304700
_cell_angle_alpha   90.00000000
_cell_angle_beta   90.00000000
_cell_angle_gamma   90.00000000
_symmetry_Int_Tables_number   1
_chemical_formula_structural   NdBC
_chemical_formula_sum   'Nd20 B20 C20'
_cell_volume   882.61921230
_cell_formula_units_Z   20
loop_
 _symmetry_equiv_pos_site_id
 _symmetry_equiv_pos_as_xyz
  1  'x, y, z'
loop_
 _atom_site_type_symbol
 _atom_site_label
 _atom_site_symmetry_multiplicity
 _atom_site_fract_x
 _atom_site_fract_y
 _atom_site_fract_z
 _atom_site_occupancy
  Nd  Nd0  1  0.84328200  0.09200700  0.09653900  1
  Nd  Nd1  1  0.45150100  0.90197500  0.13986800  1
  Nd  Nd2  1  0.25456700  0.71149500  0.67311000  1
  Nd  Nd3  1  0.33937400  0.00869300  0.42015500  1
  Nd  Nd4  1  0.74543300  0.21149500  0.82689000  1
  Nd  Nd5  1  0.56169000  0.80131900  0.86545900  1
  Nd  Nd6  1  0.24543300  0.28850500  0.17311000  1
  Nd  Nd7  1  0.83937400  0.49130700  0.57984500  1
  Nd  Nd8  1  0.43831000  0.30131900  0.63454100  1
  Nd  Nd9  1  0.34328200  0.40799300  0.90346100  1
  Nd  Nd10  1  0.15671800  0.59200700  0.40346100  1
  Nd  Nd11  1  0.93831000  0.19868100  0.36545900  1
  Nd  Nd12  1  0.06169000  0.69868100  0.13454100  1
  Nd  Nd13  1  0.65671800  0.90799300  0.59653900  1
  Nd  Nd14  1  0.04849900  0.09802500  0.63986800  1
  Nd  Nd15  1  0.75456700  0.78850500  0.32689000  1
  Nd  Nd16  1  0.16062600  0.99130700  0.92015500  1
  Nd  Nd17  1  0.54849900  0.40197500  0.36013200  1
  Nd  Nd18  1  0.66062600  0.50869300  0.07984500  1
  Nd  Nd19  1  0.95150100  0.59802500  0.86013200  1
  B  B20  1  0.06244400  0.29851700  0.82104800  1
  B  B21  1  0.51927100  0.61072000  0.54127400  1
  B  B22  1  0.11659400  0.39756900  0.71280500  1
  B  B23  1  0.68457800  0.19250700  0.50884200  1
  B  B24  1  0.40211200  0.02348000  0.73940600  1
  B  B25  1  0.18457800  0.30749300  0.49115800  1
  B  B26  1  0.38340600  0.60243100  0.21280500  1
  B  B27  1  0.48072900  0.11072000  0.95872600  1
  B  B28  1  0.88340600  0.89756900  0.78719500  1
  B  B29  1  0.98072900  0.38928000  0.04127400  1
  B  B30  1  0.09788800  0.97652000  0.23940600  1
  B  B31  1  0.61659400  0.10243100  0.28719500  1
  B  B32  1  0.01927100  0.88928000  0.45872600  1
  B  B33  1  0.93755600  0.79851700  0.67895200  1
  B  B34  1  0.59788800  0.52348000  0.76059400  1
  B  B35  1  0.81542200  0.80749300  0.00884200  1
  B  B36  1  0.43755600  0.70148300  0.32104800  1
  B  B37  1  0.90211200  0.47652000  0.26059400  1
  B  B38  1  0.56244400  0.20148300  0.17895200  1
  B  B39  1  0.31542200  0.69250700  0.99115800  1
  C  C40  1  0.47396200  0.69336800  0.43934900  1
  C  C41  1  0.14605700  0.39626200  0.59250000  1
  C  C42  1  0.85363100  0.49655900  0.37440300  1
  C  C43  1  0.24354700  0.29880900  0.37901100  1
  C  C44  1  0.75645300  0.79880900  0.12098900  1
  C  C45  1  0.55655100  0.61086800  0.65930300  1
  C  C46  1  0.05655100  0.88913200  0.34069700  1
  C  C47  1  0.64605700  0.10373800  0.40750000  1
  C  C48  1  0.97396200  0.80663200  0.56065100  1
  C  C49  1  0.14636900  0.99655900  0.12559700  1
  C  C50  1  0.25645300  0.70119100  0.87901100  1
  C  C51  1  0.94344900  0.38913200  0.15930300  1
  C  C52  1  0.35394300  0.60373800  0.09250000  1
  C  C53  1  0.52603800  0.19336800  0.06065100  1
  C  C54  1  0.85394300  0.89626200  0.90750000  1
  C  C55  1  0.02603800  0.30663200  0.93934900  1
  C  C56  1  0.64636900  0.50344100  0.87440300  1
  C  C57  1  0.74354700  0.20119100  0.62098900  1
  C  C58  1  0.44344900  0.11086800  0.84069700  1
  C  C59  1  0.35363100  0.00344100  0.62559700  1
