# generated using pymatgen
data_Ba5Re3ClO15
_symmetry_space_group_name_H-M   'P 1'
_cell_length_a   11.12461371
_cell_length_b   11.12461371
_cell_length_c   7.93773300
_cell_angle_alpha   90.00000000
_cell_angle_beta   90.00000000
_cell_angle_gamma   119.99999829
_symmetry_Int_Tables_number   1
_chemical_formula_structural   Ba5Re3ClO15
_chemical_formula_sum   'Ba10 Re6 Cl2 O30'
_cell_volume   850.74029790
_cell_formula_units_Z   2
loop_
 _symmetry_equiv_pos_site_id
 _symmetry_equiv_pos_as_xyz
  1  'x, y, z'
loop_
 _atom_site_type_symbol
 _atom_site_label
 _atom_site_symmetry_multiplicity
 _atom_site_fract_x
 _atom_site_fract_y
 _atom_site_fract_z
 _atom_site_occupancy
  Ba  Ba0  1  0.26423000  0.26423000  0.22676400  1
  Ba  Ba1  1  0.00000000  0.26423000  0.72676400  1
  Ba  Ba2  1  0.73577000  0.00000000  0.22676400  1
  Ba  Ba3  1  0.00000000  0.73577000  0.22676400  1
  Ba  Ba4  1  0.33333300  0.66666700  0.48601800  1
  Ba  Ba5  1  0.66666700  0.33333300  0.48601800  1
  Ba  Ba6  1  0.73577000  0.73577000  0.72676400  1
  Ba  Ba7  1  0.26423000  0.00000000  0.72676400  1
  Ba  Ba8  1  0.33333300  0.66666700  0.98601800  1
  Ba  Ba9  1  0.66666700  0.33333300  0.98601800  1
  Re  Re10  1  0.39121400  0.39121400  0.78116600  1
  Re  Re11  1  0.00000000  0.39121400  0.28116600  1
  Re  Re12  1  0.00000000  0.60878600  0.78116600  1
  Re  Re13  1  0.39121400  0.00000000  0.28116600  1
  Re  Re14  1  0.60878600  0.60878600  0.28116600  1
  Re  Re15  1  0.60878600  0.00000000  0.78116600  1
  Cl  Cl16  1  0.00000000  0.00000000  0.94233200  1
  Cl  Cl17  1  0.00000000  0.00000000  0.44233200  1
  O  O18  1  0.13053200  0.55326200  0.74158600  1
  O  O19  1  0.38935300  0.25769100  0.92185600  1
  O  O20  1  0.86833800  0.61064700  0.92185600  1
  O  O21  1  0.13166200  0.38935300  0.42185600  1
  O  O22  1  0.70379000  0.70379000  0.10316200  1
  O  O23  1  0.42273000  0.86946800  0.74158600  1
  O  O24  1  0.13053200  0.57727000  0.24158600  1
  O  O25  1  0.44673800  0.57727000  0.74158600  1
  O  O26  1  0.86946800  0.44673800  0.24158600  1
  O  O27  1  0.38935300  0.13166200  0.42185600  1
  O  O28  1  0.00000000  0.70379000  0.60316200  1
  O  O29  1  0.61064700  0.74230900  0.42185600  1
  O  O30  1  0.74230900  0.61064700  0.42185600  1
  O  O31  1  0.74230900  0.13166200  0.92185600  1
  O  O32  1  0.70379000  0.00000000  0.60316200  1
  O  O33  1  0.29621000  0.00000000  0.10316200  1
  O  O34  1  0.55326200  0.13053200  0.74158600  1
  O  O35  1  0.42273000  0.55326200  0.24158600  1
  O  O36  1  0.86946800  0.42273000  0.74158600  1
  O  O37  1  0.44673800  0.86946800  0.24158600  1
  O  O38  1  0.29621000  0.29621000  0.60316200  1
  O  O39  1  0.57727000  0.44673800  0.74158600  1
  O  O40  1  0.00000000  0.29621000  0.10316200  1
  O  O41  1  0.55326200  0.42273000  0.24158600  1
  O  O42  1  0.57727000  0.13053200  0.24158600  1
  O  O43  1  0.86833800  0.25769100  0.42185600  1
  O  O44  1  0.13166200  0.74230900  0.92185600  1
  O  O45  1  0.61064700  0.86833800  0.92185600  1
  O  O46  1  0.25769100  0.86833800  0.42185600  1
  O  O47  1  0.25769100  0.38935300  0.92185600  1
