# generated using pymatgen
data_HoF3
_symmetry_space_group_name_H-M   'P 1'
_cell_length_a   4.42768200
_cell_length_b   6.36583100
_cell_length_c   6.89709400
_cell_angle_alpha   90.00000000
_cell_angle_beta   90.00000000
_cell_angle_gamma   90.00000000
_symmetry_Int_Tables_number   1
_chemical_formula_structural   HoF3
_chemical_formula_sum   'Ho4 F12'
_cell_volume   194.40063165
_cell_formula_units_Z   4
loop_
 _symmetry_equiv_pos_site_id
 _symmetry_equiv_pos_as_xyz
  1  'x, y, z'
loop_
 _atom_site_type_symbol
 _atom_site_label
 _atom_site_symmetry_multiplicity
 _atom_site_fract_x
 _atom_site_fract_y
 _atom_site_fract_z
 _atom_site_occupancy
  Ho  Ho0  1  0.55981500  0.13141800  0.75000000  1
  Ho  Ho1  1  0.94018500  0.63141800  0.75000000  1
  Ho  Ho2  1  0.05981500  0.36858200  0.25000000  1
  Ho  Ho3  1  0.44018500  0.86858200  0.25000000  1
  F  F4  1  0.87740600  0.33513200  0.93667900  1
  F  F5  1  0.09070500  0.97644400  0.75000000  1
  F  F6  1  0.62259400  0.83513200  0.56332100  1
  F  F7  1  0.90929500  0.02355600  0.25000000  1
  F  F8  1  0.40929500  0.47644400  0.75000000  1
  F  F9  1  0.37740600  0.16486800  0.43667900  1
  F  F10  1  0.12259400  0.66486800  0.43667900  1
  F  F11  1  0.62259400  0.83513200  0.93667900  1
  F  F12  1  0.37740600  0.16486800  0.06332100  1
  F  F13  1  0.59070500  0.52355600  0.25000000  1
  F  F14  1  0.12259400  0.66486800  0.06332100  1
  F  F15  1  0.87740600  0.33513200  0.56332100  1
