# generated using pymatgen
data_TiSn6F16
_symmetry_space_group_name_H-M   'P 1'
_cell_length_a   10.20837456
_cell_length_b   10.20837456
_cell_length_c   11.10167150
_cell_angle_alpha   89.08859721
_cell_angle_beta   89.08859721
_cell_angle_gamma   45.00003868
_symmetry_Int_Tables_number   1
_chemical_formula_structural   TiSn6F16
_chemical_formula_sum   'Ti2 Sn12 F32'
_cell_volume   817.94195418
_cell_formula_units_Z   2
loop_
 _symmetry_equiv_pos_site_id
 _symmetry_equiv_pos_as_xyz
  1  'x, y, z'
loop_
 _atom_site_type_symbol
 _atom_site_label
 _atom_site_symmetry_multiplicity
 _atom_site_fract_x
 _atom_site_fract_y
 _atom_site_fract_z
 _atom_site_occupancy
  Ti  Ti0  1  0.33064400  0.66935600  0.75000000  1
  Ti  Ti1  1  0.66935600  0.33064400  0.25000000  1
  Sn  Sn2  1  0.10079700  0.75245900  0.39605500  1
  Sn  Sn3  1  0.54025100  0.75444800  0.47008300  1
  Sn  Sn4  1  0.89920300  0.24754100  0.60394500  1
  Sn  Sn5  1  0.45974900  0.24555200  0.52991700  1
  Sn  Sn6  1  0.70996400  0.87793900  0.18073400  1
  Sn  Sn7  1  0.75245900  0.10079700  0.89605500  1
  Sn  Sn8  1  0.24754100  0.89920300  0.10394500  1
  Sn  Sn9  1  0.12206100  0.29003600  0.31926600  1
  Sn  Sn10  1  0.29003600  0.12206100  0.81926600  1
  Sn  Sn11  1  0.87793900  0.70996400  0.68073400  1
  Sn  Sn12  1  0.75444800  0.54025100  0.97008300  1
  Sn  Sn13  1  0.24555200  0.45974900  0.02991700  1
  F  F14  1  0.39398500  0.13496400  0.40601800  1
  F  F15  1  0.18599600  0.49751200  0.45881100  1
  F  F16  1  0.86503600  0.60601500  0.09398200  1
  F  F17  1  0.98809500  0.70893600  0.25311300  1
  F  F18  1  0.13496400  0.39398500  0.90601800  1
  F  F19  1  0.50248800  0.81400400  0.04118900  1
  F  F20  1  0.43727600  0.42958000  0.79028900  1
  F  F21  1  0.29106400  0.01190500  0.24688700  1
  F  F22  1  0.36606400  0.70104900  0.91110800  1
  F  F23  1  0.63393600  0.29895100  0.08889200  1
  F  F24  1  0.70104900  0.36606400  0.41110800  1
  F  F25  1  0.28924000  0.27208700  0.65973500  1
  F  F26  1  0.81400400  0.50248800  0.54118900  1
  F  F27  1  0.70893600  0.98809500  0.75311300  1
  F  F28  1  0.09313400  0.77166000  0.79292300  1
  F  F29  1  0.01190500  0.29106400  0.74688700  1
  F  F30  1  0.71076000  0.72791300  0.34026500  1
  F  F31  1  0.77166000  0.09313400  0.29292300  1
  F  F32  1  0.22834000  0.90686600  0.70707700  1
  F  F33  1  0.49751200  0.18599600  0.95881100  1
  F  F34  1  0.72791300  0.71076000  0.84026500  1
  F  F35  1  0.13808300  0.12120900  0.98391900  1
  F  F36  1  0.29895100  0.63393600  0.58889200  1
  F  F37  1  0.12120900  0.13808300  0.48391900  1
  F  F38  1  0.87879100  0.86191700  0.51608100  1
  F  F39  1  0.57042000  0.56272400  0.70971100  1
  F  F40  1  0.90686600  0.22834000  0.20707700  1
  F  F41  1  0.42958000  0.43727600  0.29028900  1
  F  F42  1  0.56272400  0.57042000  0.20971100  1
  F  F43  1  0.27208700  0.28924000  0.15973500  1
  F  F44  1  0.60601500  0.86503600  0.59398200  1
  F  F45  1  0.86191700  0.87879100  0.01608100  1
