# generated using pymatgen
data_Mg(B6C)2
_symmetry_space_group_name_H-M   'P 1'
_cell_length_a   6.91006530
_cell_length_b   6.91006530
_cell_length_c   6.91006530
_cell_angle_alpha   132.05232454
_cell_angle_beta   109.90264851
_cell_angle_gamma   89.41373888
_symmetry_Int_Tables_number   1
_chemical_formula_structural   Mg(B6C)2
_chemical_formula_sum   'Mg2 B24 C4'
_cell_volume   218.87057652
_cell_formula_units_Z   2
loop_
 _symmetry_equiv_pos_site_id
 _symmetry_equiv_pos_as_xyz
  1  'x, y, z'
loop_
 _atom_site_type_symbol
 _atom_site_label
 _atom_site_symmetry_multiplicity
 _atom_site_fract_x
 _atom_site_fract_y
 _atom_site_fract_z
 _atom_site_occupancy
  Mg  Mg0  1  0.38880500  0.75000000  0.63880500  1
  Mg  Mg1  1  0.61119500  0.25000000  0.36119500  1
  B  B2  1  0.63712100  0.84579300  0.31280100  1
  B  B3  1  0.22471100  0.40629500  0.81841500  1
  B  B4  1  0.77571000  0.77464100  0.67803500  1
  B  B5  1  0.03299300  0.82432000  0.68719900  1
  B  B6  1  0.36287900  0.67568000  0.20867200  1
  B  B7  1  0.96700700  0.17568000  0.31280100  1
  B  B8  1  0.40339400  0.40232500  0.67803500  1
  B  B9  1  0.77528900  0.59370500  0.18158500  1
  B  B10  1  0.36287900  0.15420700  0.68719900  1
  B  B11  1  0.35382000  0.33315900  0.02066100  1
  B  B12  1  0.59660600  0.59767500  0.32196500  1
  B  B13  1  0.81249700  0.83315900  0.97933900  1
  B  B14  1  0.96700700  0.65420700  0.79132800  1
  B  B15  1  0.08788000  0.90629500  0.18158500  1
  B  B16  1  0.59660600  0.27464100  0.99893100  1
  B  B17  1  0.63712100  0.32432000  0.79132800  1
  B  B18  1  0.40339400  0.72535900  0.00106900  1
  B  B19  1  0.77571000  0.09767500  0.00106900  1
  B  B20  1  0.22429000  0.90232500  0.99893100  1
  B  B21  1  0.91212000  0.09370500  0.81841500  1
  B  B22  1  0.64618000  0.66684100  0.97933900  1
  B  B23  1  0.22429000  0.22535900  0.32196500  1
  B  B24  1  0.18750300  0.16684100  0.02066100  1
  B  B25  1  0.03299300  0.34579300  0.20867200  1
  C  C26  1  0.96671600  0.33758100  0.62913500  1
  C  C27  1  0.20844600  0.83758100  0.37086500  1
  C  C28  1  0.79155400  0.16241900  0.62913500  1
  C  C29  1  0.03328400  0.66241900  0.37086500  1
