# generated using pymatgen
data_Ni3B7ClO13
_symmetry_space_group_name_H-M   'P 1'
_cell_length_a   8.58584300
_cell_length_b   8.60007000
_cell_length_c   12.15930700
_cell_angle_alpha   90.00000000
_cell_angle_beta   90.00000000
_cell_angle_gamma   90.00000000
_symmetry_Int_Tables_number   1
_chemical_formula_structural   Ni3B7ClO13
_chemical_formula_sum   'Ni12 B28 Cl4 O52'
_cell_volume   897.82925551
_cell_formula_units_Z   4
loop_
 _symmetry_equiv_pos_site_id
 _symmetry_equiv_pos_as_xyz
  1  'x, y, z'
loop_
 _atom_site_type_symbol
 _atom_site_label
 _atom_site_symmetry_multiplicity
 _atom_site_fract_x
 _atom_site_fract_y
 _atom_site_fract_z
 _atom_site_occupancy
  Ni  Ni0  1  0.25025100  0.75628300  0.71355000  1
  Ni  Ni1  1  0.46760300  0.98293700  0.99090400  1
  Ni  Ni2  1  0.53239700  0.48293700  0.99090400  1
  Ni  Ni3  1  0.46760300  0.51706300  0.49090400  1
  Ni  Ni4  1  0.03269100  0.51700400  0.49282500  1
  Ni  Ni5  1  0.03269100  0.98299600  0.99282500  1
  Ni  Ni6  1  0.74974900  0.25628300  0.71355000  1
  Ni  Ni7  1  0.74974900  0.24371700  0.21355000  1
  Ni  Ni8  1  0.25025100  0.74371700  0.21355000  1
  Ni  Ni9  1  0.53239700  0.01706300  0.49090400  1
  Ni  Ni10  1  0.96730900  0.01700400  0.49282500  1
  Ni  Ni11  1  0.96730900  0.48299600  0.99282500  1
  B  B12  1  0.24584300  0.24412300  0.48668200  1
  B  B13  1  0.40313400  0.24613100  0.65858200  1
  B  B14  1  0.24992500  0.45507400  0.84051000  1
  B  B15  1  0.09610100  0.25215500  0.15959400  1
  B  B16  1  0.59686600  0.75386900  0.15858200  1
  B  B17  1  0.24584300  0.25587700  0.98668200  1
  B  B18  1  0.75415700  0.75587700  0.98668200  1
  B  B19  1  0.75073700  0.90678700  0.31209200  1
  B  B20  1  0.75415700  0.74412300  0.48668200  1
  B  B21  1  0.75007500  0.95507400  0.84051000  1
  B  B22  1  0.49829300  0.99968500  0.23907000  1
  B  B23  1  0.24992500  0.04492600  0.34051000  1
  B  B24  1  0.09610100  0.24784500  0.65959400  1
  B  B25  1  0.59686600  0.74613100  0.65858200  1
  B  B26  1  0.75073700  0.59321300  0.81209200  1
  B  B27  1  0.90389900  0.75215500  0.15959400  1
  B  B28  1  0.75007500  0.54492600  0.34051000  1
  B  B29  1  0.24926300  0.09321300  0.81209200  1
  B  B30  1  0.50170700  0.49968500  0.23907000  1
  B  B31  1  0.00328800  0.99754300  0.23963100  1
  B  B32  1  0.00328800  0.50245700  0.73963100  1
  B  B33  1  0.99671200  0.49754300  0.23963100  1
  B  B34  1  0.40313400  0.25386900  0.15858200  1
  B  B35  1  0.49829300  0.50031500  0.73907000  1
  B  B36  1  0.90389900  0.74784500  0.65959400  1
  B  B37  1  0.24926300  0.40678700  0.31209200  1
  B  B38  1  0.50170700  0.00031500  0.73907000  1
  B  B39  1  0.99671200  0.00245700  0.73963100  1
  Cl  Cl40  1  0.74930500  0.29589600  0.01096500  1
  Cl  Cl41  1  0.74930500  0.20410400  0.51096500  1
  Cl  Cl42  1  0.25069500  0.70410400  0.51096500  1
  Cl  Cl43  1  0.25069500  0.79589600  0.01096500  1
  O  O44  1  0.74962000  0.76826000  0.22857800  1
  O  O45  1  0.05949800  0.41240100  0.64477100  1
  O  O46  1  0.94050200  0.91240100  0.64477100  1
  O  O47  1  0.16203900  0.96625900  0.75978200  1
  O  O48  1  0.33108900  0.54143400  0.76376200  1
  O  O49  1  0.59138400  0.95208800  0.33454100  1
  O  O50  1  0.52044400  0.16630900  0.21898500  1
  O  O51  1  0.36324800  0.17745000  0.05538200  1
  O  O52  1  0.47955600  0.66630900  0.21898500  1
  O  O53  1  0.32964900  0.38222600  0.92462100  1
  O  O54  1  0.40861600  0.45208800  0.33454100  1
  O  O55  1  0.74962000  0.73174000  0.72857800  1
  O  O56  1  0.83796100  0.03374100  0.25978200  1
  O  O57  1  0.66891100  0.45856600  0.26376200  1
  O  O58  1  0.83796100  0.46625900  0.75978200  1
  O  O59  1  0.91065500  0.53659000  0.34397400  1
  O  O60  1  0.25038000  0.23174000  0.72857800  1
  O  O61  1  0.02717500  0.83084100  0.21910900  1
  O  O62  1  0.17277600  0.35900200  0.41367200  1
  O  O63  1  0.25038000  0.26826000  0.22857800  1
  O  O64  1  0.54284400  0.91303800  0.14011500  1
  O  O65  1  0.63675200  0.82255000  0.55538200  1
  O  O66  1  0.12386100  0.17217500  0.55410200  1
  O  O67  1  0.63675200  0.67745000  0.05538200  1
  O  O68  1  0.82722400  0.64099800  0.91367200  1
  O  O69  1  0.47955600  0.83369100  0.71898500  1
  O  O70  1  0.97282500  0.16915900  0.71910900  1
  O  O71  1  0.33108900  0.95856600  0.26376200  1
  O  O72  1  0.87613900  0.82782500  0.05410200  1
  O  O73  1  0.97282500  0.33084100  0.21910900  1
  O  O74  1  0.54284400  0.58696200  0.64011500  1
  O  O75  1  0.67035100  0.88222600  0.92462100  1
  O  O76  1  0.40861600  0.04791200  0.83454100  1
  O  O77  1  0.91065500  0.96341000  0.84397400  1
  O  O78  1  0.08934500  0.46341000  0.84397400  1
  O  O79  1  0.87613900  0.67217500  0.55410200  1
  O  O80  1  0.12386100  0.32782500  0.05410200  1
  O  O81  1  0.45715600  0.08696200  0.64011500  1
  O  O82  1  0.36324800  0.32255000  0.55538200  1
  O  O83  1  0.94050200  0.58759900  0.14477100  1
  O  O84  1  0.17277600  0.14099800  0.91367200  1
  O  O85  1  0.52044400  0.33369100  0.71898500  1
  O  O86  1  0.32964900  0.11777400  0.42462100  1
  O  O87  1  0.05949800  0.08759900  0.14477100  1
  O  O88  1  0.16203900  0.53374100  0.25978200  1
  O  O89  1  0.82722400  0.85900200  0.41367200  1
  O  O90  1  0.66891100  0.04143400  0.76376200  1
  O  O91  1  0.02717500  0.66915900  0.71910900  1
  O  O92  1  0.45715600  0.41303800  0.14011500  1
  O  O93  1  0.08934500  0.03659000  0.34397400  1
  O  O94  1  0.67035100  0.61777400  0.42462100  1
  O  O95  1  0.59138400  0.54791200  0.83454100  1
