# generated using pymatgen
data_Sr4Al6CrO16
_symmetry_space_group_name_H-M   'P 1'
_cell_length_a   9.58658300
_cell_length_b   13.44389900
_cell_length_c   13.47741100
_cell_angle_alpha   90.00000000
_cell_angle_beta   90.00000000
_cell_angle_gamma   90.00000000
_symmetry_Int_Tables_number   1
_chemical_formula_structural   Sr4Al6CrO16
_chemical_formula_sum   'Sr16 Al24 Cr4 O64'
_cell_volume   1736.98292958
_cell_formula_units_Z   4
loop_
 _symmetry_equiv_pos_site_id
 _symmetry_equiv_pos_as_xyz
  1  'x, y, z'
loop_
 _atom_site_type_symbol
 _atom_site_label
 _atom_site_symmetry_multiplicity
 _atom_site_fract_x
 _atom_site_fract_y
 _atom_site_fract_z
 _atom_site_occupancy
  Sr  Sr0  1  0.46725300  0.20871400  0.00509500  1
  Sr  Sr1  1  0.97135100  0.98571500  0.26780200  1
  Sr  Sr2  1  0.02571100  0.75474700  0.00540200  1
  Sr  Sr3  1  0.03274700  0.70871400  0.50509500  1
  Sr  Sr4  1  0.53274700  0.70871400  0.99490500  1
  Sr  Sr5  1  0.45918200  0.48453200  0.28683000  1
  Sr  Sr6  1  0.52864900  0.48571500  0.76780200  1
  Sr  Sr7  1  0.96725300  0.20871400  0.49490500  1
  Sr  Sr8  1  0.04081800  0.98453200  0.78683000  1
  Sr  Sr9  1  0.95918200  0.48453200  0.21317000  1
  Sr  Sr10  1  0.02864900  0.48571500  0.73219800  1
  Sr  Sr11  1  0.54081800  0.98453200  0.71317000  1
  Sr  Sr12  1  0.47135100  0.98571500  0.23219800  1
  Sr  Sr13  1  0.97428900  0.25474700  0.99459800  1
  Sr  Sr14  1  0.47428900  0.25474700  0.50540200  1
  Sr  Sr15  1  0.52571100  0.75474700  0.49459800  1
  Al  Al16  1  0.25814100  0.61348100  0.12752500  1
  Al  Al17  1  0.00086000  0.73607200  0.25473100  1
  Al  Al18  1  0.26227300  0.61187500  0.87540900  1
  Al  Al19  1  0.26158000  0.86367300  0.62521500  1
  Al  Al20  1  0.24245100  0.86018300  0.37435400  1
  Al  Al21  1  0.76158000  0.86367300  0.87478500  1
  Al  Al22  1  0.25754900  0.36018300  0.87435400  1
  Al  Al23  1  0.48827700  0.23785100  0.25219100  1
  Al  Al24  1  0.99914000  0.23607200  0.74526900  1
  Al  Al25  1  0.49914000  0.23607200  0.75473100  1
  Al  Al26  1  0.73842000  0.36367300  0.37478500  1
  Al  Al27  1  0.23772700  0.11187500  0.37540900  1
  Al  Al28  1  0.74185900  0.11348100  0.87247500  1
  Al  Al29  1  0.98827700  0.23785100  0.24780900  1
  Al  Al30  1  0.76227300  0.61187500  0.62459100  1
  Al  Al31  1  0.01172300  0.73785100  0.75219100  1
  Al  Al32  1  0.74245100  0.86018300  0.12564600  1
  Al  Al33  1  0.24185900  0.11348100  0.62752500  1
  Al  Al34  1  0.50086000  0.73607200  0.24526900  1
  Al  Al35  1  0.75754900  0.36018300  0.62564600  1
  Al  Al36  1  0.75814100  0.61348100  0.37247500  1
  Al  Al37  1  0.73772700  0.11187500  0.12459100  1
  Al  Al38  1  0.23842000  0.36367300  0.12521500  1
  Al  Al39  1  0.51172300  0.73785100  0.74780900  1
  Cr  Cr40  1  0.70040800  0.99593700  0.48742600  1
  Cr  Cr41  1  0.79959200  0.49593700  0.98742600  1
  Cr  Cr42  1  0.20040800  0.99593700  0.01257400  1
  Cr  Cr43  1  0.29959200  0.49593700  0.51257400  1
  O  O44  1  0.77232700  0.64594900  0.49858600  1
  O  O45  1  0.39555000  0.15802900  0.33060700  1
  O  O46  1  0.27232700  0.64594900  0.00141400  1
  O  O47  1  0.92132000  0.65775600  0.67194900  1
  O  O48  1  0.85952600  0.03486400  0.45137900  1
  O  O49  1  0.20546000  0.90444700  0.92852700  1
  O  O50  1  0.72767300  0.14594900  0.99858600  1
  O  O51  1  0.88599600  0.58905100  0.04147000  1
  O  O52  1  0.76399900  0.82772900  0.00011800  1
  O  O53  1  0.73600100  0.32772900  0.50011800  1
  O  O54  1  0.92584100  0.63721100  0.32291100  1
  O  O55  1  0.26399900  0.82772900  0.49988200  1
  O  O56  1  0.11376100  0.95291700  0.10950300  1
  O  O57  1  0.57704100  0.31750000  0.33324800  1
  O  O58  1  0.88550300  0.18187600  0.83106200  1
  O  O59  1  0.29454000  0.40444700  0.42852700  1
  O  O60  1  0.07868000  0.15775600  0.32805100  1
  O  O61  1  0.64047400  0.53486400  0.95137900  1
  O  O62  1  0.11052100  0.31283100  0.81378300  1
  O  O63  1  0.23550000  0.98609700  0.34013900  1
  O  O64  1  0.10392300  0.81839600  0.67275200  1
  O  O65  1  0.39607700  0.31839600  0.17275200  1
  O  O66  1  0.07704100  0.31750000  0.16675200  1
  O  O67  1  0.38599600  0.58905100  0.45853000  1
  O  O68  1  0.77439100  0.98922100  0.83778000  1
  O  O69  1  0.60445000  0.65802900  0.66939300  1
  O  O70  1  0.61052100  0.31283100  0.68621700  1
  O  O71  1  0.38623900  0.45291700  0.60950300  1
  O  O72  1  0.14047400  0.53486400  0.54862100  1
  O  O73  1  0.42584100  0.63721100  0.17708900  1
  O  O74  1  0.79454000  0.40444700  0.07147300  1
  O  O75  1  0.76450000  0.48609700  0.65986100  1
  O  O76  1  0.88947900  0.81283100  0.18621700  1
  O  O77  1  0.11449700  0.68187600  0.16893800  1
  O  O78  1  0.61376100  0.95291700  0.39049700  1
  O  O79  1  0.61400400  0.08905100  0.54147000  1
  O  O80  1  0.73550000  0.98609700  0.15986100  1
  O  O81  1  0.89607700  0.31839600  0.32724800  1
  O  O82  1  0.10445000  0.65802900  0.83060700  1
  O  O83  1  0.57415900  0.13721100  0.82291100  1
  O  O84  1  0.22560900  0.48922100  0.16222000  1
  O  O85  1  0.72560900  0.48922100  0.33778000  1
  O  O86  1  0.70546000  0.90444700  0.57147300  1
  O  O87  1  0.61449700  0.68187600  0.33106200  1
  O  O88  1  0.89555000  0.15802900  0.16939300  1
  O  O89  1  0.07415900  0.13721100  0.67708900  1
  O  O90  1  0.57868000  0.15775600  0.17194900  1
  O  O91  1  0.07429200  0.81384600  0.34641100  1
  O  O92  1  0.88623900  0.45291700  0.89049700  1
  O  O93  1  0.11400400  0.08905100  0.95853000  1
  O  O94  1  0.42295900  0.81750000  0.66675200  1
  O  O95  1  0.38947900  0.81283100  0.31378300  1
  O  O96  1  0.38550300  0.18187600  0.66893800  1
  O  O97  1  0.57429200  0.81384600  0.15358900  1
  O  O98  1  0.35952600  0.03486400  0.04862100  1
  O  O99  1  0.60392300  0.81839600  0.82724800  1
  O  O100  1  0.42132000  0.65775600  0.82805100  1
  O  O101  1  0.42570800  0.31384600  0.84641100  1
  O  O102  1  0.23600100  0.32772900  0.99988200  1
  O  O103  1  0.92570800  0.31384600  0.65358900  1
  O  O104  1  0.27439100  0.98922100  0.66222000  1
  O  O105  1  0.26450000  0.48609700  0.84013900  1
  O  O106  1  0.22767300  0.14594900  0.50141400  1
  O  O107  1  0.92295900  0.81750000  0.83324800  1
