# generated using pymatgen
data_Co(IO3)2
_symmetry_space_group_name_H-M   'P 1'
_cell_length_a   5.33842030
_cell_length_b   10.95909415
_cell_length_c   10.91136929
_cell_angle_alpha   61.04482901
_cell_angle_beta   90.01605518
_cell_angle_gamma   90.00252895
_symmetry_Int_Tables_number   1
_chemical_formula_structural   Co(IO3)2
_chemical_formula_sum   'Co4 I8 O24'
_cell_volume   558.56548322
_cell_formula_units_Z   4
loop_
 _symmetry_equiv_pos_site_id
 _symmetry_equiv_pos_as_xyz
  1  'x, y, z'
loop_
 _atom_site_type_symbol
 _atom_site_label
 _atom_site_symmetry_multiplicity
 _atom_site_fract_x
 _atom_site_fract_y
 _atom_site_fract_z
 _atom_site_occupancy
  Co  Co0  1  0.56958200  0.99247900  0.01094200  1
  Co  Co1  1  0.06911100  0.00781000  0.48880200  1
  Co  Co2  1  0.56920800  0.49208800  0.51100000  1
  Co  Co3  1  0.06880400  0.50814500  0.98875500  1
  I  I4  1  0.96839600  0.31278300  0.83638000  1
  I  I5  1  0.96809700  0.81315000  0.33615000  1
  I  I6  1  0.46789900  0.18705000  0.16373200  1
  I  I7  1  0.46830300  0.68742700  0.66348600  1
  I  I8  1  0.99837400  0.34914300  0.33504600  1
  I  I9  1  0.99879800  0.84925800  0.83488900  1
  I  I10  1  0.49821200  0.65102000  0.16476100  1
  I  I11  1  0.49861400  0.15090400  0.66487600  1
  O  O12  1  0.78180300  0.17393900  0.97787800  1
  O  O13  1  0.78194700  0.67394000  0.47742900  1
  O  O14  1  0.28190100  0.32637100  0.02240700  1
  O  O15  1  0.28161700  0.82633500  0.52197000  1
  O  O16  1  0.78230000  0.33824100  0.68261600  1
  O  O17  1  0.78198000  0.83898000  0.18229500  1
  O  O18  1  0.28225600  0.66187800  0.81722700  1
  O  O19  1  0.28193100  0.16121200  0.31756800  1
  O  O20  1  0.36163900  0.53662200  0.64668500  1
  O  O21  1  0.36012600  0.03696200  0.14606700  1
  O  O22  1  0.86155200  0.46357100  0.85311200  1
  O  O23  1  0.86010600  0.96341100  0.35346900  1
  O  O24  1  0.84439600  0.68089800  0.94910500  1
  O  O25  1  0.84428500  0.18082800  0.44946800  1
  O  O26  1  0.34450100  0.81945300  0.05023500  1
  O  O27  1  0.34447500  0.31937900  0.55061300  1
  O  O28  1  0.85484800  0.38211300  0.16803600  1
  O  O29  1  0.85580200  0.88220800  0.66772000  1
  O  O30  1  0.35453000  0.61797200  0.33176200  1
  O  O31  1  0.35569100  0.11785100  0.83205400  1
  O  O32  1  0.28666900  0.53543900  0.13299100  1
  O  O33  1  0.28669600  0.03548100  0.63322400  1
  O  O34  1  0.78681600  0.46477000  0.36662800  1
  O  O35  1  0.78679000  0.96468700  0.86642000  1
