# generated using pymatgen
data_YSnAu
_symmetry_space_group_name_H-M   'P 1'
_cell_length_a   4.71249132
_cell_length_b   4.71249132
_cell_length_c   7.46824500
_cell_angle_alpha   90.00000000
_cell_angle_beta   90.00000000
_cell_angle_gamma   119.99999043
_symmetry_Int_Tables_number   1
_chemical_formula_structural   YSnAu
_chemical_formula_sum   'Y2 Sn2 Au2'
_cell_volume   143.63171848
_cell_formula_units_Z   2
loop_
 _symmetry_equiv_pos_site_id
 _symmetry_equiv_pos_as_xyz
  1  'x, y, z'
loop_
 _atom_site_type_symbol
 _atom_site_label
 _atom_site_symmetry_multiplicity
 _atom_site_fract_x
 _atom_site_fract_y
 _atom_site_fract_z
 _atom_site_occupancy
  Y  Y0  1  0.00000000  0.00000000  0.74771900  1
  Y  Y1  1  0.00000000  0.00000000  0.24771900  1
  Sn  Sn2  1  0.33333300  0.66666700  0.97196000  1
  Sn  Sn3  1  0.66666700  0.33333300  0.47196000  1
  Au  Au4  1  0.66666700  0.33333300  0.07261000  1
  Au  Au5  1  0.33333300  0.66666700  0.57261000  1
