# generated using pymatgen
data_Cs2U(Br2O)2
_symmetry_space_group_name_H-M   'P 1'
_cell_length_a   10.02538900
_cell_length_b   6.68767600
_cell_length_c   10.16058283
_cell_angle_alpha   74.88172742
_cell_angle_beta   90.00000000
_cell_angle_gamma   90.00000000
_symmetry_Int_Tables_number   1
_chemical_formula_structural   Cs2U(Br2O)2
_chemical_formula_sum   'Cs4 U2 Br8 O4'
_cell_volume   657.65427863
_cell_formula_units_Z   2
loop_
 _symmetry_equiv_pos_site_id
 _symmetry_equiv_pos_as_xyz
  1  'x, y, z'
loop_
 _atom_site_type_symbol
 _atom_site_label
 _atom_site_symmetry_multiplicity
 _atom_site_fract_x
 _atom_site_fract_y
 _atom_site_fract_z
 _atom_site_occupancy
  Cs  Cs0  1  0.88221100  0.32011700  0.33505800  1
  Cs  Cs1  1  0.11778900  0.67988300  0.66494200  1
  Cs  Cs2  1  0.38221100  0.67988300  0.16494200  1
  Cs  Cs3  1  0.61778900  0.32011700  0.83505800  1
  U  U4  1  0.00000000  0.00000000  0.00000000  1
  U  U5  1  0.50000000  0.00000000  0.50000000  1
  Br  Br6  1  0.72996100  0.74634500  0.52536800  1
  Br  Br7  1  0.27003900  0.25365500  0.47463200  1
  Br  Br8  1  0.44209200  0.83597200  0.78138500  1
  Br  Br9  1  0.77003900  0.74634500  0.02536800  1
  Br  Br10  1  0.05790800  0.83597200  0.28138500  1
  Br  Br11  1  0.55790800  0.16402800  0.21861500  1
  Br  Br12  1  0.22996100  0.25365500  0.97463200  1
  Br  Br13  1  0.94209200  0.16402800  0.71861500  1
  O  O14  1  0.60157800  0.20073200  0.53966100  1
  O  O15  1  0.39842200  0.79926800  0.46033900  1
  O  O16  1  0.89842200  0.20073200  0.03966100  1
  O  O17  1  0.10157800  0.79926800  0.96033900  1
