# generated using pymatgen
data_Sr9TmV7O28
_symmetry_space_group_name_H-M   'P 1'
_cell_length_a   14.91568957
_cell_length_b   14.91568957
_cell_length_c   14.91569024
_cell_angle_alpha   44.81317245
_cell_angle_beta   44.81317245
_cell_angle_gamma   44.81317572
_symmetry_Int_Tables_number   1
_chemical_formula_structural   Sr9TmV7O28
_chemical_formula_sum   'Sr18 Tm2 V14 O56'
_cell_volume   1499.73376153
_cell_formula_units_Z   2
loop_
 _symmetry_equiv_pos_site_id
 _symmetry_equiv_pos_as_xyz
  1  'x, y, z'
loop_
 _atom_site_type_symbol
 _atom_site_label
 _atom_site_symmetry_multiplicity
 _atom_site_fract_x
 _atom_site_fract_y
 _atom_site_fract_z
 _atom_site_occupancy
  Sr  Sr0  1  0.42254900  0.84653000  0.43292500  1
  Sr  Sr1  1  0.94746400  0.54657000  0.53033500  1
  Sr  Sr2  1  0.59213900  0.14687400  0.56430200  1
  Sr  Sr3  1  0.53033500  0.94746400  0.54657000  1
  Sr  Sr4  1  0.04657000  0.44746400  0.03033500  1
  Sr  Sr5  1  0.03033500  0.04657000  0.44746400  1
  Sr  Sr6  1  0.84653000  0.43292500  0.42254900  1
  Sr  Sr7  1  0.56430200  0.59213900  0.14687400  1
  Sr  Sr8  1  0.43292500  0.42254900  0.84653000  1
  Sr  Sr9  1  0.34653000  0.92254900  0.93292500  1
  Sr  Sr10  1  0.06430200  0.64687400  0.09213900  1
  Sr  Sr11  1  0.14687400  0.56430200  0.59213900  1
  Sr  Sr12  1  0.92254900  0.93292500  0.34653000  1
  Sr  Sr13  1  0.93292500  0.34653000  0.92254900  1
  Sr  Sr14  1  0.54657000  0.53033500  0.94746400  1
  Sr  Sr15  1  0.09213900  0.06430200  0.64687400  1
  Sr  Sr16  1  0.44746400  0.03033500  0.04657000  1
  Sr  Sr17  1  0.64687400  0.09213900  0.06430200  1
  Tm  Tm18  1  0.50007000  0.50007000  0.50007000  1
  Tm  Tm19  1  0.00007000  0.00007000  0.00007000  1
  V  V20  1  0.19166900  0.67959200  0.22323200  1
  V  V21  1  0.81300400  0.31142000  0.28013600  1
  V  V22  1  0.22323200  0.19166900  0.67959200  1
  V  V23  1  0.22951800  0.22951800  0.22951800  1
  V  V24  1  0.72323200  0.17959200  0.69166900  1
  V  V25  1  0.17959200  0.69166900  0.72323200  1
  V  V26  1  0.69166900  0.72323200  0.17959200  1
  V  V27  1  0.72951800  0.72951800  0.72951800  1
  V  V28  1  0.31142000  0.28013600  0.81300400  1
  V  V29  1  0.81142000  0.31300400  0.78013600  1
  V  V30  1  0.78013600  0.81142000  0.31300400  1
  V  V31  1  0.28013600  0.81300400  0.31142000  1
  V  V32  1  0.67959200  0.22323200  0.19166900  1
  V  V33  1  0.31300400  0.78013600  0.81142000  1
  O  O34  1  0.72638200  0.89639700  0.60086500  1
  O  O35  1  0.23295100  0.14245800  0.59795900  1
  O  O36  1  0.12293300  0.11986100  0.86436600  1
  O  O37  1  0.39272200  0.10632000  0.66320400  1
  O  O38  1  0.31305100  0.89307800  0.32361800  1
  O  O39  1  0.85761900  0.40483700  0.10157100  1
  O  O40  1  0.36436600  0.61986100  0.62293300  1
  O  O41  1  0.66320400  0.39272200  0.10632000  1
  O  O42  1  0.90483700  0.35761900  0.60157100  1
  O  O43  1  0.12912000  0.86905000  0.88828000  1
  O  O44  1  0.68628300  0.68628300  0.68628300  1
  O  O45  1  0.32361800  0.31305100  0.89307800  1
  O  O46  1  0.63571800  0.36504200  0.84551300  1
  O  O47  1  0.88828000  0.12912000  0.86905000  1
  O  O48  1  0.10157100  0.85761900  0.40483700  1
  O  O49  1  0.73295100  0.09795900  0.64245800  1
  O  O50  1  0.14148900  0.37146500  0.62520900  1
  O  O51  1  0.37146500  0.62520900  0.14148900  1
  O  O52  1  0.40483700  0.10157100  0.85761900  1
  O  O53  1  0.89639700  0.60086500  0.72638200  1
  O  O54  1  0.82361800  0.39307800  0.81305100  1
  O  O55  1  0.12520900  0.87146500  0.64148900  1
  O  O56  1  0.64148900  0.12520900  0.87146500  1
  O  O57  1  0.89307800  0.32361800  0.31305100  1
  O  O58  1  0.10086500  0.39639700  0.22638200  1
  O  O59  1  0.60632000  0.89272200  0.16320400  1
  O  O60  1  0.39639700  0.22638200  0.10086500  1
  O  O61  1  0.36504200  0.84551300  0.63571800  1
  O  O62  1  0.62520900  0.14148900  0.37146500  1
  O  O63  1  0.39307800  0.81305100  0.82361800  1
  O  O64  1  0.61986100  0.62293300  0.36436600  1
  O  O65  1  0.81305100  0.82361800  0.39307800  1
  O  O66  1  0.11986100  0.86436600  0.12293300  1
  O  O67  1  0.64245800  0.73295100  0.09795900  1
  O  O68  1  0.18628300  0.18628300  0.18628300  1
  O  O69  1  0.22638200  0.10086500  0.39639700  1
  O  O70  1  0.89272200  0.16320400  0.60632000  1
  O  O71  1  0.86504200  0.13571800  0.34551300  1
  O  O72  1  0.09795900  0.64245800  0.73295100  1
  O  O73  1  0.87146500  0.64148900  0.12520900  1
  O  O74  1  0.36905000  0.62912000  0.38828000  1
  O  O75  1  0.86436600  0.12293300  0.11986100  1
  O  O76  1  0.62912000  0.38828000  0.36905000  1
  O  O77  1  0.59795900  0.23295100  0.14245800  1
  O  O78  1  0.14245800  0.59795900  0.23295100  1
  O  O79  1  0.13571800  0.34551300  0.86504200  1
  O  O80  1  0.62293300  0.36436600  0.61986100  1
  O  O81  1  0.38828000  0.36905000  0.62912000  1
  O  O82  1  0.10632000  0.66320400  0.39272200  1
  O  O83  1  0.86905000  0.88828000  0.12912000  1
  O  O84  1  0.60157100  0.90483700  0.35761900  1
  O  O85  1  0.84551300  0.63571800  0.36504200  1
  O  O86  1  0.35761900  0.60157100  0.90483700  1
  O  O87  1  0.60086500  0.72638200  0.89639700  1
  O  O88  1  0.16320400  0.60632000  0.89272200  1
  O  O89  1  0.34551300  0.86504200  0.13571800  1
