# generated using pymatgen
data_Nd6S4BrN3
_symmetry_space_group_name_H-M   'P 1'
_cell_length_a   4.02922900
_cell_length_b   11.53751500
_cell_length_c   27.39314400
_cell_angle_alpha   90.00000000
_cell_angle_beta   90.00000000
_cell_angle_gamma   90.00000000
_symmetry_Int_Tables_number   1
_chemical_formula_structural   Nd6S4BrN3
_chemical_formula_sum   'Nd24 S16 Br4 N12'
_cell_volume   1273.43302985
_cell_formula_units_Z   4
loop_
 _symmetry_equiv_pos_site_id
 _symmetry_equiv_pos_as_xyz
  1  'x, y, z'
loop_
 _atom_site_type_symbol
 _atom_site_label
 _atom_site_symmetry_multiplicity
 _atom_site_fract_x
 _atom_site_fract_y
 _atom_site_fract_z
 _atom_site_occupancy
  Nd  Nd0  1  0.25000000  0.90059400  0.96480700  1
  Nd  Nd1  1  0.75000000  0.55789700  0.92200100  1
  Nd  Nd2  1  0.75000000  0.25213800  0.43574100  1
  Nd  Nd3  1  0.25000000  0.87582100  0.21712900  1
  Nd  Nd4  1  0.25000000  0.93753100  0.69244200  1
  Nd  Nd5  1  0.25000000  0.37582100  0.28287100  1
  Nd  Nd6  1  0.25000000  0.24296900  0.67080300  1
  Nd  Nd7  1  0.75000000  0.12417900  0.78287100  1
  Nd  Nd8  1  0.75000000  0.59940600  0.46480700  1
  Nd  Nd9  1  0.25000000  0.44210300  0.07799900  1
  Nd  Nd10  1  0.25000000  0.40059400  0.53519300  1
  Nd  Nd11  1  0.75000000  0.62417900  0.71712900  1
  Nd  Nd12  1  0.25000000  0.74296900  0.82919700  1
  Nd  Nd13  1  0.75000000  0.06246900  0.30755800  1
  Nd  Nd14  1  0.75000000  0.25703100  0.17080300  1
  Nd  Nd15  1  0.25000000  0.24786200  0.93574100  1
  Nd  Nd16  1  0.75000000  0.75213800  0.06425900  1
  Nd  Nd17  1  0.75000000  0.56246900  0.19244200  1
  Nd  Nd18  1  0.25000000  0.74786200  0.56425900  1
  Nd  Nd19  1  0.25000000  0.43753100  0.80755800  1
  Nd  Nd20  1  0.25000000  0.94210300  0.42200100  1
  Nd  Nd21  1  0.75000000  0.75703100  0.32919700  1
  Nd  Nd22  1  0.75000000  0.09940600  0.03519300  1
  Nd  Nd23  1  0.75000000  0.05789700  0.57799900  1
  S  S24  1  0.25000000  0.13687400  0.23561500  1
  S  S25  1  0.25000000  0.64312900  0.00640400  1
  S  S26  1  0.25000000  0.20746100  0.10207400  1
  S  S27  1  0.75000000  0.35687100  0.99359600  1
  S  S28  1  0.25000000  0.70746100  0.39792600  1
  S  S29  1  0.25000000  0.69219800  0.13809300  1
  S  S30  1  0.75000000  0.79253900  0.89792600  1
  S  S31  1  0.75000000  0.85687100  0.50640400  1
  S  S32  1  0.75000000  0.30780200  0.86190700  1
  S  S33  1  0.25000000  0.63687400  0.26438500  1
  S  S34  1  0.25000000  0.19219800  0.36190700  1
  S  S35  1  0.25000000  0.14312900  0.49359600  1
  S  S36  1  0.75000000  0.80780200  0.63809300  1
  S  S37  1  0.75000000  0.29253900  0.60207400  1
  S  S38  1  0.75000000  0.86312600  0.76438500  1
  S  S39  1  0.75000000  0.36312600  0.73561500  1
  Br  Br40  1  0.25000000  0.53817200  0.63763500  1
  Br  Br41  1  0.25000000  0.03817200  0.86236500  1
  Br  Br42  1  0.75000000  0.96182800  0.13763500  1
  Br  Br43  1  0.75000000  0.46182800  0.36236500  1
  N  N44  1  0.75000000  0.43929100  0.12503500  1
  N  N45  1  0.25000000  0.09822900  0.98606800  1
  N  N46  1  0.25000000  0.11178800  0.73737500  1
  N  N47  1  0.25000000  0.56070900  0.87496500  1
  N  N48  1  0.25000000  0.06070900  0.62503500  1
  N  N49  1  0.75000000  0.38821200  0.23737500  1
  N  N50  1  0.25000000  0.61178800  0.76262500  1
  N  N51  1  0.75000000  0.93929100  0.37496500  1
  N  N52  1  0.25000000  0.59822900  0.51393200  1
  N  N53  1  0.75000000  0.90177100  0.01393200  1
  N  N54  1  0.75000000  0.88821200  0.26262500  1
  N  N55  1  0.75000000  0.40177100  0.48606800  1
