# generated using pymatgen
data_ScP(H2O3)2
_symmetry_space_group_name_H-M   'P 1'
_cell_length_a   10.33755700
_cell_length_b   5.47845200
_cell_length_c   10.40894578
_cell_angle_alpha   59.89076813
_cell_angle_beta   90.00000000
_cell_angle_gamma   90.00000000
_symmetry_Int_Tables_number   1
_chemical_formula_structural   ScP(H2O3)2
_chemical_formula_sum   'Sc4 P4 H16 O24'
_cell_volume   509.95761143
_cell_formula_units_Z   4
loop_
 _symmetry_equiv_pos_site_id
 _symmetry_equiv_pos_as_xyz
  1  'x, y, z'
loop_
 _atom_site_type_symbol
 _atom_site_label
 _atom_site_symmetry_multiplicity
 _atom_site_fract_x
 _atom_site_fract_y
 _atom_site_fract_z
 _atom_site_occupancy
  Sc  Sc0  1  0.33051800  0.11093400  0.30033600  1
  Sc  Sc1  1  0.83051800  0.88906600  0.19966400  1
  Sc  Sc2  1  0.66948200  0.88906600  0.69966400  1
  Sc  Sc3  1  0.16948200  0.11093400  0.80033600  1
  P  P4  1  0.15001200  0.72517700  0.18173000  1
  P  P5  1  0.65001200  0.27482300  0.31827000  1
  P  P6  1  0.84998800  0.27482300  0.81827000  1
  P  P7  1  0.34998800  0.72517700  0.68173000  1
  H  H8  1  0.55063600  0.89386000  0.26922400  1
  H  H9  1  0.05063600  0.10614000  0.23077600  1
  H  H10  1  0.44936400  0.10614000  0.73077600  1
  H  H11  1  0.94936400  0.89386000  0.76922400  1
  H  H12  1  0.46215000  0.62524500  0.30298300  1
  H  H13  1  0.96215000  0.37475500  0.19701700  1
  H  H14  1  0.53785000  0.37475500  0.69701700  1
  H  H15  1  0.03785000  0.62524500  0.80298300  1
  H  H16  1  0.33694500  0.34162700  0.98058800  1
  H  H17  1  0.83694500  0.65837300  0.51941200  1
  H  H18  1  0.66305500  0.65837300  0.01941200  1
  H  H19  1  0.16305500  0.34162700  0.48058800  1
  H  H20  1  0.31803400  0.57671100  0.02389800  1
  H  H21  1  0.81803400  0.42328900  0.47610200  1
  H  H22  1  0.68196600  0.42328900  0.97610200  1
  H  H23  1  0.18196600  0.57671100  0.52389800  1
  O  O24  1  0.18175600  0.91541900  0.24897300  1
  O  O25  1  0.68175600  0.08458100  0.25102700  1
  O  O26  1  0.81824400  0.08458100  0.75102700  1
  O  O27  1  0.31824400  0.91541900  0.74897300  1
  O  O28  1  0.20991300  0.85059700  0.02459300  1
  O  O29  1  0.70991300  0.14940300  0.47540700  1
  O  O30  1  0.79008700  0.14940300  0.97540700  1
  O  O31  1  0.29008700  0.85059700  0.52459300  1
  O  O32  1  0.20818200  0.42742100  0.28443900  1
  O  O33  1  0.70818200  0.57257900  0.21556100  1
  O  O34  1  0.79181800  0.57257900  0.71556100  1
  O  O35  1  0.29181800  0.42742100  0.78443900  1
  O  O36  1  0.00046000  0.70303000  0.17507800  1
  O  O37  1  0.50046000  0.29697000  0.32492200  1
  O  O38  1  0.99954000  0.29697000  0.82492200  1
  O  O39  1  0.49954000  0.70303000  0.67507800  1
  O  O40  1  0.45981100  0.82110700  0.28580200  1
  O  O41  1  0.95981100  0.17889300  0.21419800  1
  O  O42  1  0.54018900  0.17889300  0.71419800  1
  O  O43  1  0.04018900  0.82110700  0.78580200  1
  O  O44  1  0.35368100  0.38551900  0.06018700  1
  O  O45  1  0.85368100  0.61448100  0.43981300  1
  O  O46  1  0.64631900  0.61448100  0.93981300  1
  O  O47  1  0.14631900  0.38551900  0.56018700  1
