# generated using pymatgen
data_Mn3B7BrO13
_symmetry_space_group_name_H-M   'P 1'
_cell_length_a   8.78522600
_cell_length_b   8.80523700
_cell_length_c   12.45452000
_cell_angle_alpha   90.00000000
_cell_angle_beta   90.00000000
_cell_angle_gamma   90.00000000
_symmetry_Int_Tables_number   1
_chemical_formula_structural   Mn3B7BrO13
_chemical_formula_sum   'Mn12 B28 Br4 O52'
_cell_volume   963.43181211
_cell_formula_units_Z   4
loop_
 _symmetry_equiv_pos_site_id
 _symmetry_equiv_pos_as_xyz
  1  'x, y, z'
loop_
 _atom_site_type_symbol
 _atom_site_label
 _atom_site_symmetry_multiplicity
 _atom_site_fract_x
 _atom_site_fract_y
 _atom_site_fract_z
 _atom_site_occupancy
  Mn  Mn0  1  0.74784200  0.24023100  0.23132900  1
  Mn  Mn1  1  0.02984600  0.98879400  0.00939200  1
  Mn  Mn2  1  0.52944900  0.01221600  0.50537800  1
  Mn  Mn3  1  0.52944900  0.48778400  0.00537800  1
  Mn  Mn4  1  0.97015400  0.01120600  0.50939200  1
  Mn  Mn5  1  0.74784200  0.25976900  0.73132900  1
  Mn  Mn6  1  0.25215800  0.74023100  0.23132900  1
  Mn  Mn7  1  0.97015400  0.48879400  0.00939200  1
  Mn  Mn8  1  0.02984600  0.51120600  0.50939200  1
  Mn  Mn9  1  0.25215800  0.75976900  0.73132900  1
  Mn  Mn10  1  0.47055100  0.51221600  0.50537800  1
  Mn  Mn11  1  0.47055100  0.98778400  0.00537800  1
  B  B12  1  0.90241300  0.74442400  0.67563600  1
  B  B13  1  0.49586300  0.50105000  0.75446500  1
  B  B14  1  0.24933700  0.04496700  0.35605900  1
  B  B15  1  0.99688000  0.00036600  0.75619100  1
  B  B16  1  0.99688000  0.49963400  0.25619100  1
  B  B17  1  0.24683200  0.24253700  0.50219100  1
  B  B18  1  0.75316800  0.74253700  0.50219100  1
  B  B19  1  0.24933700  0.45503300  0.85605900  1
  B  B20  1  0.40084900  0.25513600  0.17495600  1
  B  B21  1  0.75000700  0.59443200  0.82627400  1
  B  B22  1  0.24999300  0.09443200  0.82627400  1
  B  B23  1  0.75000700  0.90556800  0.32627400  1
  B  B24  1  0.09758700  0.24442400  0.67563600  1
  B  B25  1  0.50413700  0.00105000  0.75446500  1
  B  B26  1  0.00312000  0.50036700  0.75619100  1
  B  B27  1  0.90241300  0.75557600  0.17563600  1
  B  B28  1  0.09758700  0.25557600  0.17563600  1
  B  B29  1  0.75316800  0.75746300  0.00219100  1
  B  B30  1  0.24683200  0.25746300  0.00219100  1
  B  B31  1  0.59915100  0.74486400  0.67495600  1
  B  B32  1  0.75066300  0.95503300  0.85605900  1
  B  B33  1  0.49586300  0.99895000  0.25446500  1
  B  B34  1  0.75066300  0.54496700  0.35605900  1
  B  B35  1  0.00312000  0.99963300  0.25619100  1
  B  B36  1  0.50413700  0.49895000  0.25446500  1
  B  B37  1  0.24999300  0.40556800  0.32627400  1
  B  B38  1  0.40084900  0.24486400  0.67495600  1
  B  B39  1  0.59915100  0.75513600  0.17495600  1
  Br  Br40  1  0.74940300  0.23902100  0.51040300  1
  Br  Br41  1  0.25059700  0.76097900  0.01040300  1
  Br  Br42  1  0.74940300  0.26097900  0.01040300  1
  Br  Br43  1  0.25059700  0.73902100  0.51040300  1
  O  O44  1  0.15838700  0.53013500  0.28043000  1
  O  O45  1  0.05617800  0.09447600  0.16551600  1
  O  O46  1  0.97619400  0.16184200  0.72991000  1
  O  O47  1  0.53621400  0.59137100  0.65923300  1
  O  O48  1  0.48762300  0.66210700  0.23237300  1
  O  O49  1  0.87513100  0.82131500  0.06889200  1
  O  O50  1  0.40625100  0.45494900  0.34483900  1
  O  O51  1  0.97619400  0.33815800  0.22991000  1
  O  O52  1  0.33283700  0.53834300  0.78264600  1
  O  O53  1  0.67693400  0.88270000  0.93970000  1
  O  O54  1  0.46378600  0.40862900  0.15923300  1
  O  O55  1  0.02380600  0.66184200  0.72991000  1
  O  O56  1  0.12486900  0.17868500  0.56889200  1
  O  O57  1  0.09259500  0.03480500  0.35636400  1
  O  O58  1  0.90740500  0.53480500  0.35636400  1
  O  O59  1  0.36266900  0.31401800  0.57158500  1
  O  O60  1  0.59374900  0.95494900  0.34483900  1
  O  O61  1  0.15838700  0.96986500  0.78043000  1
  O  O62  1  0.51237700  0.16210700  0.23237300  1
  O  O63  1  0.18257000  0.35744100  0.42861800  1
  O  O64  1  0.66716300  0.46165700  0.28264600  1
  O  O65  1  0.51237700  0.33789300  0.73237300  1
  O  O66  1  0.40625100  0.04505100  0.84483900  1
  O  O67  1  0.02380600  0.83815800  0.22991000  1
  O  O68  1  0.84161300  0.46986500  0.78043000  1
  O  O69  1  0.46378600  0.09137100  0.65923300  1
  O  O70  1  0.53621400  0.90862900  0.15923300  1
  O  O71  1  0.90740500  0.96519500  0.85636400  1
  O  O72  1  0.33283700  0.96165700  0.28264600  1
  O  O73  1  0.09259500  0.46519500  0.85636400  1
  O  O74  1  0.87513100  0.67868500  0.56889200  1
  O  O75  1  0.75017800  0.77332700  0.24200100  1
  O  O76  1  0.81743000  0.85744100  0.42861800  1
  O  O77  1  0.81743000  0.64255900  0.92861800  1
  O  O78  1  0.18257000  0.14255900  0.92861800  1
  O  O79  1  0.63733100  0.81401800  0.57158500  1
  O  O80  1  0.66716300  0.03834300  0.78264600  1
  O  O81  1  0.05617800  0.40552400  0.66551600  1
  O  O82  1  0.94382200  0.59447600  0.16551600  1
  O  O83  1  0.12486900  0.32131500  0.06889200  1
  O  O84  1  0.75017800  0.72667300  0.74200100  1
  O  O85  1  0.67693400  0.61730000  0.43970000  1
  O  O86  1  0.24982200  0.22667300  0.74200100  1
  O  O87  1  0.32306600  0.11730000  0.43970000  1
  O  O88  1  0.59374900  0.54505100  0.84483900  1
  O  O89  1  0.24982200  0.27332700  0.24200100  1
  O  O90  1  0.32306600  0.38270000  0.93970000  1
  O  O91  1  0.36266900  0.18598200  0.07158500  1
  O  O92  1  0.84161300  0.03013500  0.28043000  1
  O  O93  1  0.63733100  0.68598200  0.07158500  1
  O  O94  1  0.94382200  0.90552400  0.66551600  1
  O  O95  1  0.48762300  0.83789300  0.73237300  1
