# generated using pymatgen
data_NaGaSiO4
_symmetry_space_group_name_H-M   'P 1'
_cell_length_a   8.84417592
_cell_length_b   8.84417592
_cell_length_c   8.36032600
_cell_angle_alpha   90.00000000
_cell_angle_beta   90.00000000
_cell_angle_gamma   119.99999941
_symmetry_Int_Tables_number   1
_chemical_formula_structural   NaGaSiO4
_chemical_formula_sum   'Na6 Ga6 Si6 O24'
_cell_volume   566.32872734
_cell_formula_units_Z   6
loop_
 _symmetry_equiv_pos_site_id
 _symmetry_equiv_pos_as_xyz
  1  'x, y, z'
loop_
 _atom_site_type_symbol
 _atom_site_label
 _atom_site_symmetry_multiplicity
 _atom_site_fract_x
 _atom_site_fract_y
 _atom_site_fract_z
 _atom_site_occupancy
  Na  Na0  1  0.66666700  0.33333300  0.06333400  1
  Na  Na1  1  0.00000000  0.00000000  0.06941600  1
  Na  Na2  1  0.33333300  0.66666700  0.56333400  1
  Na  Na3  1  0.66666700  0.33333300  0.49079600  1
  Na  Na4  1  0.00000000  0.00000000  0.56941600  1
  Na  Na5  1  0.33333300  0.66666700  0.99079600  1
  Ga  Ga6  1  0.31527100  0.34280200  0.25021400  1
  Ga  Ga7  1  0.68472900  0.65719800  0.75021400  1
  Ga  Ga8  1  0.02753100  0.68472900  0.25021400  1
  Ga  Ga9  1  0.65719800  0.97246900  0.25021400  1
  Ga  Ga10  1  0.97246900  0.31527100  0.75021400  1
  Ga  Ga11  1  0.34280200  0.02753100  0.75021400  1
  Si  Si12  1  0.97529800  0.31698900  0.36517400  1
  Si  Si13  1  0.68301100  0.65830900  0.36517400  1
  Si  Si14  1  0.31698900  0.34169100  0.86517400  1
  Si  Si15  1  0.65830900  0.97529800  0.86517400  1
  Si  Si16  1  0.34169100  0.02470200  0.36517400  1
  Si  Si17  1  0.02470200  0.68301100  0.86517400  1
  O  O18  1  0.40925400  0.22050200  0.87970600  1
  O  O19  1  0.61877800  0.88623500  0.04413900  1
  O  O20  1  0.18875200  0.40925400  0.37970600  1
  O  O21  1  0.59074600  0.77949800  0.37970600  1
  O  O22  1  0.81124800  0.59074600  0.87970600  1
  O  O23  1  0.44630900  0.53348000  0.78247000  1
  O  O24  1  0.86686400  0.76150300  0.26414800  1
  O  O25  1  0.08717000  0.55369100  0.78247000  1
  O  O26  1  0.26745700  0.38122200  0.04413900  1
  O  O27  1  0.89463900  0.13313600  0.26414800  1
  O  O28  1  0.77949800  0.18875200  0.87970600  1
  O  O29  1  0.38122200  0.11376500  0.54413900  1
  O  O30  1  0.76150300  0.89463900  0.76414800  1
  O  O31  1  0.22050200  0.81124800  0.37970600  1
  O  O32  1  0.11376500  0.73254300  0.04413900  1
  O  O33  1  0.10536100  0.86686400  0.76414800  1
  O  O34  1  0.55369100  0.46652000  0.28247000  1
  O  O35  1  0.91283000  0.44630900  0.28247000  1
  O  O36  1  0.46652000  0.91283000  0.78247000  1
  O  O37  1  0.88623500  0.26745700  0.54413900  1
  O  O38  1  0.23849700  0.10536100  0.26414800  1
  O  O39  1  0.13313600  0.23849700  0.76414800  1
  O  O40  1  0.53348000  0.08717000  0.28247000  1
  O  O41  1  0.73254300  0.61877800  0.54413900  1
