# generated using pymatgen
data_K3LiSiO4
_symmetry_space_group_name_H-M   'P 1'
_cell_length_a   9.86443000
_cell_length_b   11.45655700
_cell_length_c   11.92313576
_cell_angle_alpha   58.66428062
_cell_angle_beta   90.00000000
_cell_angle_gamma   90.00000000
_symmetry_Int_Tables_number   1
_chemical_formula_structural   K3LiSiO4
_chemical_formula_sum   'K24 Li8 Si8 O32'
_cell_volume   1150.91437268
_cell_formula_units_Z   8
loop_
 _symmetry_equiv_pos_site_id
 _symmetry_equiv_pos_as_xyz
  1  'x, y, z'
loop_
 _atom_site_type_symbol
 _atom_site_label
 _atom_site_symmetry_multiplicity
 _atom_site_fract_x
 _atom_site_fract_y
 _atom_site_fract_z
 _atom_site_occupancy
  K  K0  1  0.91766000  0.14548200  0.89093300  1
  K  K1  1  0.08134800  0.64896200  0.93995600  1
  K  K2  1  0.58134800  0.35103800  0.56004400  1
  K  K3  1  0.77068600  0.68558000  0.34086900  1
  K  K4  1  0.27068600  0.31442000  0.15913100  1
  K  K5  1  0.08864900  0.65403200  0.45689800  1
  K  K6  1  0.25837700  0.18394500  0.47395700  1
  K  K7  1  0.75837700  0.81605500  0.02604300  1
  K  K8  1  0.91135100  0.34596800  0.54310200  1
  K  K9  1  0.08759300  0.83554300  0.59424500  1
  K  K10  1  0.41135100  0.65403200  0.95689800  1
  K  K11  1  0.58864900  0.34596800  0.04310200  1
  K  K12  1  0.41240700  0.83554300  0.09424500  1
  K  K13  1  0.41766000  0.85451800  0.60906700  1
  K  K14  1  0.58234000  0.14548200  0.39093300  1
  K  K15  1  0.91865200  0.35103800  0.06004400  1
  K  K16  1  0.72931400  0.68558000  0.84086900  1
  K  K17  1  0.74162300  0.81605500  0.52604300  1
  K  K18  1  0.24162300  0.18394500  0.97395700  1
  K  K19  1  0.08234000  0.85451800  0.10906700  1
  K  K20  1  0.58759300  0.16445700  0.90575500  1
  K  K21  1  0.41865200  0.64896200  0.43995600  1
  K  K22  1  0.22931400  0.31442000  0.65913100  1
  K  K23  1  0.91240700  0.16445700  0.40575500  1
  Li  Li24  1  0.86346700  0.01255500  0.71746800  1
  Li  Li25  1  0.12061800  0.51541400  0.76468700  1
  Li  Li26  1  0.37938200  0.51541400  0.26468700  1
  Li  Li27  1  0.63653300  0.01255500  0.21746800  1
  Li  Li28  1  0.36346700  0.98744500  0.78253200  1
  Li  Li29  1  0.13653300  0.98744500  0.28253200  1
  Li  Li30  1  0.62061800  0.48458600  0.73531300  1
  Li  Li31  1  0.87938200  0.48458600  0.23531300  1
  Si  Si32  1  0.87329100  0.48224100  0.73366800  1
  Si  Si33  1  0.38935700  0.97770200  0.28163400  1
  Si  Si34  1  0.61064300  0.02229800  0.71836600  1
  Si  Si35  1  0.37329100  0.51775900  0.76633200  1
  Si  Si36  1  0.11064300  0.97770200  0.78163400  1
  Si  Si37  1  0.62670900  0.48224100  0.23366800  1
  Si  Si38  1  0.88935700  0.02229800  0.21836600  1
  Si  Si39  1  0.12670900  0.51775900  0.26633200  1
  O  O40  1  0.05799600  0.39808300  0.24317300  1
  O  O41  1  0.28052900  0.87886900  0.26165600  1
  O  O42  1  0.52199700  0.89145900  0.37388300  1
  O  O43  1  0.95763000  0.90561400  0.36262000  1
  O  O44  1  0.78052900  0.12113100  0.23834400  1
  O  O45  1  0.04237000  0.09438600  0.63738000  1
  O  O46  1  0.27422700  0.45257700  0.89878500  1
  O  O47  1  0.45763000  0.09438600  0.13738000  1
  O  O48  1  0.94200400  0.60191700  0.75682700  1
  O  O49  1  0.50675500  0.59919100  0.77861700  1
  O  O50  1  0.77097000  0.38018900  0.85768500  1
  O  O51  1  0.44200400  0.39808300  0.74317300  1
  O  O52  1  0.79805600  0.95254300  0.15039600  1
  O  O53  1  0.22903000  0.61981100  0.14231500  1
  O  O54  1  0.27097000  0.61981100  0.64231500  1
  O  O55  1  0.54237000  0.90561400  0.86262000  1
  O  O56  1  0.29805600  0.04745700  0.34960400  1
  O  O57  1  0.02199700  0.10854100  0.12611700  1
  O  O58  1  0.77422700  0.54742300  0.60121500  1
  O  O59  1  0.72577300  0.54742300  0.10121500  1
  O  O60  1  0.20194400  0.04745700  0.84960400  1
  O  O61  1  0.21947100  0.87886900  0.76165600  1
  O  O62  1  0.71947100  0.12113100  0.73834400  1
  O  O63  1  0.97800300  0.89145900  0.87388300  1
  O  O64  1  0.49324500  0.40080900  0.22138300  1
  O  O65  1  0.99324500  0.59919100  0.27861700  1
  O  O66  1  0.47800300  0.10854100  0.62611700  1
  O  O67  1  0.22577300  0.45257700  0.39878500  1
  O  O68  1  0.55799600  0.60191700  0.25682700  1
  O  O69  1  0.00675500  0.40080900  0.72138300  1
  O  O70  1  0.72903000  0.38018900  0.35768500  1
  O  O71  1  0.70194400  0.95254300  0.65039600  1
