# generated using pymatgen
data_Ba2(IrO3)3
_symmetry_space_group_name_H-M   'P 1'
_cell_length_a   8.28552831
_cell_length_b   8.28552831
_cell_length_c   8.28552831
_cell_angle_alpha   109.47122063
_cell_angle_beta   109.47122063
_cell_angle_gamma   109.47122063
_symmetry_Int_Tables_number   1
_chemical_formula_structural   Ba2(IrO3)3
_chemical_formula_sum   'Ba4 Ir6 O18'
_cell_volume   437.86348149
_cell_formula_units_Z   2
loop_
 _symmetry_equiv_pos_site_id
 _symmetry_equiv_pos_as_xyz
  1  'x, y, z'
loop_
 _atom_site_type_symbol
 _atom_site_label
 _atom_site_symmetry_multiplicity
 _atom_site_fract_x
 _atom_site_fract_y
 _atom_site_fract_z
 _atom_site_occupancy
  Ba  Ba0  1  0.00000000  0.00000000  0.37982300  1
  Ba  Ba1  1  0.00000000  0.37982300  0.00000000  1
  Ba  Ba2  1  0.62017700  0.62017700  0.62017700  1
  Ba  Ba3  1  0.37982300  0.00000000  0.00000000  1
  Ir  Ir4  1  0.34386300  0.50000000  0.84386300  1
  Ir  Ir5  1  0.84386300  0.34386300  0.50000000  1
  Ir  Ir6  1  0.50000000  0.15613700  0.65613700  1
  Ir  Ir7  1  0.15613700  0.65613700  0.50000000  1
  Ir  Ir8  1  0.50000000  0.84386300  0.34386300  1
  Ir  Ir9  1  0.65613700  0.50000000  0.15613700  1
  O  O10  1  0.35887000  0.00000000  0.35887000  1
  O  O11  1  0.35887000  0.35887000  0.00000000  1
  O  O12  1  0.00000000  0.64113000  0.64113000  1
  O  O13  1  0.64113000  0.64113000  0.00000000  1
  O  O14  1  0.00000000  0.35887000  0.35887000  1
  O  O15  1  0.64113000  0.00000000  0.64113000  1
  O  O16  1  0.35948900  0.30974800  0.63799000  1
  O  O17  1  0.04974000  0.32824200  0.69025200  1
  O  O18  1  0.72149800  0.36201000  0.67175800  1
  O  O19  1  0.36201000  0.67175800  0.72149800  1
  O  O20  1  0.27850200  0.95026000  0.64051100  1
  O  O21  1  0.63799000  0.35948900  0.30974800  1
  O  O22  1  0.30974800  0.63799000  0.35948900  1
  O  O23  1  0.69025200  0.04974000  0.32824200  1
  O  O24  1  0.95026000  0.64051100  0.27850200  1
  O  O25  1  0.67175800  0.72149800  0.36201000  1
  O  O26  1  0.64051100  0.27850200  0.95026000  1
  O  O27  1  0.32824200  0.69025200  0.04974000  1
