# generated using pymatgen
data_Ta2Te3
_symmetry_space_group_name_H-M   'P 1'
_cell_length_a   7.87658997
_cell_length_b   7.87658997
_cell_length_c   12.57896593
_cell_angle_alpha   56.24452932
_cell_angle_beta   56.24452932
_cell_angle_gamma   25.75566522
_symmetry_Int_Tables_number   1
_chemical_formula_structural   Ta2Te3
_chemical_formula_sum   'Ta4 Te6'
_cell_volume   278.63431897
_cell_formula_units_Z   2
loop_
 _symmetry_equiv_pos_site_id
 _symmetry_equiv_pos_as_xyz
  1  'x, y, z'
loop_
 _atom_site_type_symbol
 _atom_site_label
 _atom_site_symmetry_multiplicity
 _atom_site_fract_x
 _atom_site_fract_y
 _atom_site_fract_z
 _atom_site_occupancy
  Ta  Ta0  1  0.58376900  0.58376900  0.85522900  1
  Ta  Ta1  1  0.41623100  0.41623100  0.14477100  1
  Ta  Ta2  1  0.77250800  0.77250800  0.38894300  1
  Ta  Ta3  1  0.22749200  0.22749200  0.61105700  1
  Te  Te4  1  0.57248800  0.57248800  0.64027100  1
  Te  Te5  1  0.42751200  0.42751200  0.35972900  1
  Te  Te6  1  0.80600700  0.80600700  0.71167100  1
  Te  Te7  1  0.19399300  0.19399300  0.28832900  1
  Te  Te8  1  0.90104500  0.90104500  0.97228200  1
  Te  Te9  1  0.09895500  0.09895500  0.02771800  1
