# generated using pymatgen
data_Ho2Te5O13
_symmetry_space_group_name_H-M   'P 1'
_cell_length_a   7.01285300
_cell_length_b   8.77375060
_cell_length_c   10.78705501
_cell_angle_alpha   89.29975997
_cell_angle_beta   87.35599595
_cell_angle_gamma   75.01347203
_symmetry_Int_Tables_number   1
_chemical_formula_structural   Ho2Te5O13
_chemical_formula_sum   'Ho4 Te10 O26'
_cell_volume   640.45915864
_cell_formula_units_Z   2
loop_
 _symmetry_equiv_pos_site_id
 _symmetry_equiv_pos_as_xyz
  1  'x, y, z'
loop_
 _atom_site_type_symbol
 _atom_site_label
 _atom_site_symmetry_multiplicity
 _atom_site_fract_x
 _atom_site_fract_y
 _atom_site_fract_z
 _atom_site_occupancy
  Ho  Ho0  1  0.99974200  0.73815900  0.23896700  1
  Ho  Ho1  1  0.00025800  0.26184100  0.76103300  1
  Ho  Ho2  1  0.55322700  0.52798500  0.17869500  1
  Ho  Ho3  1  0.44677300  0.47201500  0.82130500  1
  Te  Te4  1  0.29120000  0.87477100  0.97764400  1
  Te  Te5  1  0.70880000  0.12522900  0.02235600  1
  Te  Te6  1  0.15466400  0.80332000  0.64459100  1
  Te  Te7  1  0.84533600  0.19668000  0.35540900  1
  Te  Te8  1  0.72804900  0.60550400  0.51080300  1
  Te  Te9  1  0.27195100  0.39449600  0.48919700  1
  Te  Te10  1  0.87760200  0.64858500  0.89295200  1
  Te  Te11  1  0.12239800  0.35141500  0.10704800  1
  Te  Te12  1  0.55925600  0.10011600  0.69922900  1
  Te  Te13  1  0.44074400  0.89988400  0.30077100  1
  O  O14  1  0.93396500  0.98335400  0.30721700  1
  O  O15  1  0.06603500  0.01664600  0.69278300  1
  O  O16  1  0.32863200  0.73968700  0.77638000  1
  O  O17  1  0.67136800  0.26031300  0.22362000  1
  O  O18  1  0.94052600  0.18262300  0.96060100  1
  O  O19  1  0.05947400  0.81737700  0.03939900  1
  O  O20  1  0.87561500  0.51030400  0.10517500  1
  O  O21  1  0.12438500  0.48969600  0.89482500  1
  O  O22  1  0.54002800  0.80508100  0.47864700  1
  O  O23  1  0.45997200  0.19491900  0.52135300  1
  O  O24  1  0.95662400  0.64946900  0.43266200  1
  O  O25  1  0.04337600  0.35053100  0.56733800  1
  O  O26  1  0.64937800  0.01883800  0.87487300  1
  O  O27  1  0.35062200  0.98116200  0.12512700  1
  O  O28  1  0.32654600  0.22871800  0.77697500  1
  O  O29  1  0.67345400  0.77128200  0.22302500  1
  O  O30  1  0.53272400  0.33058500  0.99991600  1
  O  O31  1  0.46727600  0.66941500  0.00008400  1
  O  O32  1  0.23573700  0.49622500  0.18688000  1
  O  O33  1  0.76426300  0.50377500  0.81312000  1
  O  O34  1  0.31441900  0.73496200  0.28523500  1
  O  O35  1  0.68558100  0.26503800  0.71476500  1
  O  O36  1  0.66291200  0.48583900  0.38045400  1
  O  O37  1  0.33708800  0.51416100  0.61954600  1
  O  O38  1  0.06732900  0.26539000  0.27525800  1
  O  O39  1  0.93267100  0.73461000  0.72474200  1
