# generated using pymatgen
data_Rb2GeO3
_symmetry_space_group_name_H-M   'P 1'
_cell_length_a   13.75889900
_cell_length_b   6.75039400
_cell_length_c   16.98221188
_cell_angle_alpha   72.71289103
_cell_angle_beta   90.00000000
_cell_angle_gamma   90.00000000
_symmetry_Int_Tables_number   1
_chemical_formula_structural   Rb2GeO3
_chemical_formula_sum   'Rb24 Ge12 O36'
_cell_volume   1506.02458330
_cell_formula_units_Z   12
loop_
 _symmetry_equiv_pos_site_id
 _symmetry_equiv_pos_as_xyz
  1  'x, y, z'
loop_
 _atom_site_type_symbol
 _atom_site_label
 _atom_site_symmetry_multiplicity
 _atom_site_fract_x
 _atom_site_fract_y
 _atom_site_fract_z
 _atom_site_occupancy
  Rb  Rb0  1  0.41391900  0.72719700  0.02826400  1
  Rb  Rb1  1  0.14417600  0.57653500  0.99562300  1
  Rb  Rb2  1  0.49554400  0.65379400  0.27941600  1
  Rb  Rb3  1  0.35582400  0.57653500  0.49562300  1
  Rb  Rb4  1  0.69709800  0.11320100  0.19869200  1
  Rb  Rb5  1  0.30290200  0.88679900  0.80130800  1
  Rb  Rb6  1  0.58608100  0.27280300  0.97173600  1
  Rb  Rb7  1  0.61542000  0.98038900  0.41837100  1
  Rb  Rb8  1  0.08608100  0.72719700  0.52826400  1
  Rb  Rb9  1  0.00445600  0.65379400  0.77941600  1
  Rb  Rb10  1  0.99554400  0.34620600  0.22058400  1
  Rb  Rb11  1  0.91391900  0.27280300  0.47173600  1
  Rb  Rb12  1  0.80290200  0.11320100  0.69869200  1
  Rb  Rb13  1  0.11542000  0.01961100  0.08162900  1
  Rb  Rb14  1  0.88284800  0.88714700  0.36035400  1
  Rb  Rb15  1  0.64417600  0.42346500  0.50437700  1
  Rb  Rb16  1  0.88458000  0.98038900  0.91837100  1
  Rb  Rb17  1  0.61715200  0.88714700  0.86035400  1
  Rb  Rb18  1  0.19709800  0.88679900  0.30130800  1
  Rb  Rb19  1  0.50445600  0.34620600  0.72058400  1
  Rb  Rb20  1  0.38458000  0.01961100  0.58162900  1
  Rb  Rb21  1  0.38284800  0.11285300  0.13964600  1
  Rb  Rb22  1  0.85582400  0.42346500  0.00437700  1
  Rb  Rb23  1  0.11715200  0.11285300  0.63964600  1
  Ge  Ge24  1  0.65200600  0.72942500  0.10071600  1
  Ge  Ge25  1  0.25349300  0.46788400  0.71377700  1
  Ge  Ge26  1  0.15200600  0.27057500  0.39928400  1
  Ge  Ge27  1  0.34799400  0.27057500  0.89928400  1
  Ge  Ge28  1  0.75349300  0.53211600  0.78622300  1
  Ge  Ge29  1  0.24650700  0.46788400  0.21377700  1
  Ge  Ge30  1  0.88209000  0.83013000  0.13536500  1
  Ge  Ge31  1  0.84799400  0.72942500  0.60071600  1
  Ge  Ge32  1  0.74650700  0.53211600  0.28622300  1
  Ge  Ge33  1  0.11791000  0.16987000  0.86463500  1
  Ge  Ge34  1  0.38209000  0.16987000  0.36463500  1
  Ge  Ge35  1  0.61791000  0.83013000  0.63536500  1
  O  O36  1  0.54139200  0.71180100  0.58041400  1
  O  O37  1  0.63902900  0.65152100  0.73925100  1
  O  O38  1  0.56125100  0.90050200  0.11306800  1
  O  O39  1  0.80516500  0.69790500  0.83668900  1
  O  O40  1  0.82956500  0.52379100  0.69843200  1
  O  O41  1  0.93874900  0.90050200  0.61306800  1
  O  O42  1  0.95860800  0.71180100  0.08041400  1
  O  O43  1  0.23032500  0.72501200  0.65722300  1
  O  O44  1  0.26423000  0.11529900  0.41838300  1
  O  O45  1  0.36632100  0.39315900  0.97468700  1
  O  O46  1  0.58222600  0.06719400  0.64752000  1
  O  O47  1  0.08222600  0.93280600  0.85248000  1
  O  O48  1  0.63367900  0.60684100  0.02531300  1
  O  O49  1  0.13367900  0.39315900  0.47468700  1
  O  O50  1  0.76967500  0.27498800  0.34277700  1
  O  O51  1  0.26967500  0.72501200  0.15722300  1
  O  O52  1  0.73032500  0.27498800  0.84277700  1
  O  O53  1  0.30516500  0.30209500  0.66331100  1
  O  O54  1  0.73577000  0.88470100  0.58161700  1
  O  O55  1  0.45860800  0.28819900  0.41958600  1
  O  O56  1  0.41777400  0.93280600  0.35248000  1
  O  O57  1  0.17043500  0.47620900  0.30156800  1
  O  O58  1  0.86632100  0.60684100  0.52531300  1
  O  O59  1  0.13902900  0.34847900  0.76074900  1
  O  O60  1  0.32956500  0.47620900  0.80156800  1
  O  O61  1  0.19483500  0.30209500  0.16331100  1
  O  O62  1  0.06125100  0.09949800  0.38693200  1
  O  O63  1  0.86097100  0.65152100  0.23925100  1
  O  O64  1  0.69483500  0.69790500  0.33668900  1
  O  O65  1  0.76423000  0.88470100  0.08161700  1
  O  O66  1  0.67043500  0.52379100  0.19843200  1
  O  O67  1  0.23577000  0.11529900  0.91838300  1
  O  O68  1  0.91777400  0.06719400  0.14752000  1
  O  O69  1  0.04139200  0.28819900  0.91958600  1
  O  O70  1  0.36097100  0.34847900  0.26074900  1
  O  O71  1  0.43874900  0.09949800  0.88693200  1
