# generated using pymatgen
data_ZnSnAs2
_symmetry_space_group_name_H-M   'P 1'
_cell_length_a   7.29898129
_cell_length_b   7.29898129
_cell_length_c   7.29898129
_cell_angle_alpha   131.91820410
_cell_angle_beta   131.91820410
_cell_angle_gamma   70.35824534
_symmetry_Int_Tables_number   1
_chemical_formula_structural   ZnSnAs2
_chemical_formula_sum   'Zn2 Sn2 As4'
_cell_volume   210.99648257
_cell_formula_units_Z   2
loop_
 _symmetry_equiv_pos_site_id
 _symmetry_equiv_pos_as_xyz
  1  'x, y, z'
loop_
 _atom_site_type_symbol
 _atom_site_label
 _atom_site_symmetry_multiplicity
 _atom_site_fract_x
 _atom_site_fract_y
 _atom_site_fract_z
 _atom_site_occupancy
  Zn  Zn0  1  0.75000000  0.25000000  0.50000000  1
  Zn  Zn1  1  0.00000000  0.00000000  0.00000000  1
  Sn  Sn2  1  0.25000000  0.75000000  0.50000000  1
  Sn  Sn3  1  0.50000000  0.50000000  0.00000000  1
  As  As4  1  0.10142900  0.12500000  0.47642900  1
  As  As5  1  0.64857100  0.62500000  0.52357100  1
  As  As6  1  0.87500000  0.35142900  0.97642900  1
  As  As7  1  0.37500000  0.89857100  0.02357100  1
