# generated using pymatgen
data_Ba3ScCO3F7
_symmetry_space_group_name_H-M   'P 1'
_cell_length_a   8.95972928
_cell_length_b   8.95972928
_cell_length_c   6.09462000
_cell_angle_alpha   90.00000000
_cell_angle_beta   90.00000000
_cell_angle_gamma   98.71116249
_symmetry_Int_Tables_number   1
_chemical_formula_structural   Ba3ScCO3F7
_chemical_formula_sum   'Ba6 Sc2 C2 O6 F14'
_cell_volume   483.61241313
_cell_formula_units_Z   2
loop_
 _symmetry_equiv_pos_site_id
 _symmetry_equiv_pos_as_xyz
  1  'x, y, z'
loop_
 _atom_site_type_symbol
 _atom_site_label
 _atom_site_symmetry_multiplicity
 _atom_site_fract_x
 _atom_site_fract_y
 _atom_site_fract_z
 _atom_site_occupancy
  Ba  Ba0  1  0.60306800  0.84450100  0.75000000  1
  Ba  Ba1  1  0.84450100  0.60306800  0.25000000  1
  Ba  Ba2  1  0.15549900  0.39693200  0.75000000  1
  Ba  Ba3  1  0.90549100  0.09450900  0.25000000  1
  Ba  Ba4  1  0.09450900  0.90549100  0.75000000  1
  Ba  Ba5  1  0.39693200  0.15549900  0.25000000  1
  Sc  Sc6  1  0.73044600  0.26955400  0.75000000  1
  Sc  Sc7  1  0.26955400  0.73044600  0.25000000  1
  C  C8  1  0.53614500  0.46385500  0.75000000  1
  C  C9  1  0.46385500  0.53614500  0.25000000  1
  O  O10  1  0.44221500  0.55778500  0.75000000  1
  O  O11  1  0.50797200  0.68274100  0.25000000  1
  O  O12  1  0.68274100  0.50797200  0.75000000  1
  O  O13  1  0.49202800  0.31725900  0.75000000  1
  O  O14  1  0.55778500  0.44221500  0.25000000  1
  O  O15  1  0.31725900  0.49202800  0.25000000  1
  F  F16  1  0.16061500  0.16061500  0.50000000  1
  F  F17  1  0.88480000  0.11520000  0.75000000  1
  F  F18  1  0.11520000  0.88480000  0.25000000  1
  F  F19  1  0.83938500  0.83938500  0.50000000  1
  F  F20  1  0.64081900  0.11795900  0.50607100  1
  F  F21  1  0.11795900  0.64081900  0.49392900  1
  F  F22  1  0.88204100  0.35918100  0.99392900  1
  F  F23  1  0.88204100  0.35918100  0.50607100  1
  F  F24  1  0.64081900  0.11795900  0.99392900  1
  F  F25  1  0.35918100  0.88204100  0.00607100  1
  F  F26  1  0.83938500  0.83938500  0.00000000  1
  F  F27  1  0.16061500  0.16061500  0.00000000  1
  F  F28  1  0.11795900  0.64081900  0.00607100  1
  F  F29  1  0.35918100  0.88204100  0.49392900  1
