# generated using pymatgen
data_KSbF6
_symmetry_space_group_name_H-M   'P 1'
_cell_length_a   9.00560072
_cell_length_b   9.00560072
_cell_length_c   9.00560072
_cell_angle_alpha   109.47122063
_cell_angle_beta   109.47122063
_cell_angle_gamma   109.47122063
_symmetry_Int_Tables_number   1
_chemical_formula_structural   KSbF6
_chemical_formula_sum   'K4 Sb4 F24'
_cell_volume   562.23279280
_cell_formula_units_Z   4
loop_
 _symmetry_equiv_pos_site_id
 _symmetry_equiv_pos_as_xyz
  1  'x, y, z'
loop_
 _atom_site_type_symbol
 _atom_site_label
 _atom_site_symmetry_multiplicity
 _atom_site_fract_x
 _atom_site_fract_y
 _atom_site_fract_z
 _atom_site_occupancy
  K  K0  1  0.50000000  0.00000000  0.50000000  1
  K  K1  1  0.00000000  0.50000000  0.50000000  1
  K  K2  1  0.00000000  0.00000000  0.00000000  1
  K  K3  1  0.50000000  0.50000000  0.00000000  1
  Sb  Sb4  1  0.50000000  0.00000000  0.00000000  1
  Sb  Sb5  1  0.00000000  0.00000000  0.50000000  1
  Sb  Sb6  1  0.50000000  0.50000000  0.50000000  1
  Sb  Sb7  1  0.00000000  0.50000000  0.00000000  1
  F  F8  1  0.66437500  0.19803500  0.24553300  1
  F  F9  1  0.96634000  0.04749800  0.30196500  1
  F  F10  1  0.41884200  0.25446700  0.45250200  1
  F  F11  1  0.25446700  0.45250200  0.41884200  1
  F  F12  1  0.08115800  0.53366000  0.83562500  1
  F  F13  1  0.24553300  0.66437500  0.19803500  1
  F  F14  1  0.19803500  0.24553300  0.66437500  1
  F  F15  1  0.30196500  0.96634000  0.04749800  1
  F  F16  1  0.53366000  0.83562500  0.08115800  1
  F  F17  1  0.45250200  0.41884200  0.25446700  1
  F  F18  1  0.83562500  0.08115800  0.53366000  1
  F  F19  1  0.04749800  0.30196500  0.96634000  1
  F  F20  1  0.33562500  0.80196500  0.75446700  1
  F  F21  1  0.03366000  0.95250200  0.69803500  1
  F  F22  1  0.58115800  0.74553300  0.54749800  1
  F  F23  1  0.74553300  0.54749800  0.58115800  1
  F  F24  1  0.91884200  0.46634000  0.16437500  1
  F  F25  1  0.75446700  0.33562500  0.80196500  1
  F  F26  1  0.80196500  0.75446700  0.33562500  1
  F  F27  1  0.69803500  0.03366000  0.95250200  1
  F  F28  1  0.46634000  0.16437500  0.91884200  1
  F  F29  1  0.54749800  0.58115800  0.74553300  1
  F  F30  1  0.16437500  0.91884200  0.46634000  1
  F  F31  1  0.95250200  0.69803500  0.03366000  1
