# generated using pymatgen
data_K3Nb6VO19
_symmetry_space_group_name_H-M   'P 1'
_cell_length_a   9.28439978
_cell_length_b   9.28439978
_cell_length_c   24.46717300
_cell_angle_alpha   90.00000000
_cell_angle_beta   90.00000000
_cell_angle_gamma   119.99999840
_symmetry_Int_Tables_number   1
_chemical_formula_structural   K3Nb6VO19
_chemical_formula_sum   'K12 Nb24 V4 O76'
_cell_volume   1826.51017660
_cell_formula_units_Z   4
loop_
 _symmetry_equiv_pos_site_id
 _symmetry_equiv_pos_as_xyz
  1  'x, y, z'
loop_
 _atom_site_type_symbol
 _atom_site_label
 _atom_site_symmetry_multiplicity
 _atom_site_fract_x
 _atom_site_fract_y
 _atom_site_fract_z
 _atom_site_occupancy
  K  K0  1  0.59417500  0.59417500  0.74108800  1
  K  K1  1  0.40582500  0.00000000  0.74108800  1
  K  K2  1  0.41673300  0.41673300  0.50000000  1
  K  K3  1  0.00000000  0.40582500  0.74108800  1
  K  K4  1  0.00000000  0.40582500  0.25891200  1
  K  K5  1  0.40389100  0.40389100  0.00000000  1
  K  K6  1  0.00000000  0.59610900  0.00000000  1
  K  K7  1  0.59610900  0.00000000  0.00000000  1
  K  K8  1  0.58326700  0.00000000  0.50000000  1
  K  K9  1  0.00000000  0.58326700  0.50000000  1
  K  K10  1  0.40582500  0.00000000  0.25891200  1
  K  K11  1  0.59417500  0.59417500  0.25891200  1
  Nb  Nb12  1  0.00000000  0.75712700  0.82577600  1
  Nb  Nb13  1  0.00000000  0.23221200  0.42162100  1
  Nb  Nb14  1  0.00000000  0.23221200  0.57837900  1
  Nb  Nb15  1  0.00000000  0.75712700  0.17422400  1
  Nb  Nb16  1  0.25324900  0.00000000  0.07781100  1
  Nb  Nb17  1  0.00000000  0.00000000  0.30107900  1
  Nb  Nb18  1  0.33333300  0.66666700  0.13120600  1
  Nb  Nb19  1  0.00000000  0.00000000  0.69892100  1
  Nb  Nb20  1  0.66666700  0.33333300  0.86879400  1
  Nb  Nb21  1  0.74675100  0.74675100  0.92218900  1
  Nb  Nb22  1  0.33333300  0.66666700  0.86879400  1
  Nb  Nb23  1  0.76778800  0.76778800  0.57837900  1
  Nb  Nb24  1  0.66666700  0.33333300  0.13120600  1
  Nb  Nb25  1  0.00000000  0.25324900  0.07781100  1
  Nb  Nb26  1  0.23221200  0.00000000  0.57837900  1
  Nb  Nb27  1  0.23221200  0.00000000  0.42162100  1
  Nb  Nb28  1  0.00000000  0.25324900  0.92218900  1
  Nb  Nb29  1  0.75712700  0.00000000  0.82577600  1
  Nb  Nb30  1  0.24287300  0.24287300  0.82577600  1
  Nb  Nb31  1  0.75712700  0.00000000  0.17422400  1
  Nb  Nb32  1  0.76778800  0.76778800  0.42162100  1
  Nb  Nb33  1  0.24287300  0.24287300  0.17422400  1
  Nb  Nb34  1  0.74675100  0.74675100  0.07781100  1
  Nb  Nb35  1  0.25324900  0.00000000  0.92218900  1
  V  V36  1  0.66666700  0.33333300  0.61856500  1
  V  V37  1  0.66666700  0.33333300  0.38143500  1
  V  V38  1  0.33333300  0.66666700  0.38143500  1
  V  V39  1  0.33333300  0.66666700  0.61856500  1
  O  O40  1  0.00000000  0.82271100  0.24625500  1
  O  O41  1  0.20998300  0.00000000  0.83868600  1
  O  O42  1  0.17494700  0.17494700  0.56690500  1
  O  O43  1  0.31558500  0.48178300  0.82426300  1
  O  O44  1  0.68858400  0.51805300  0.92062100  1
  O  O45  1  0.17433100  0.47584500  0.59225900  1
  O  O46  1  0.00000000  0.20998300  0.83868600  1
  O  O47  1  0.48194700  0.17053100  0.07937900  1
  O  O48  1  0.48194700  0.17053100  0.92062100  1
  O  O49  1  0.48178300  0.31558500  0.82426300  1
  O  O50  1  0.17433100  0.47584500  0.40774100  1
  O  O51  1  0.00000000  0.20826100  0.00000000  1
  O  O52  1  0.52415500  0.69848600  0.40774100  1
  O  O53  1  0.28551800  0.00000000  0.50000000  1
  O  O54  1  0.80389100  0.00000000  0.09055400  1
  O  O55  1  0.20998300  0.00000000  0.16131400  1
  O  O56  1  0.71448200  0.71448200  0.50000000  1
  O  O57  1  0.51821700  0.83380200  0.17573700  1
  O  O58  1  0.82271100  0.00000000  0.24625500  1
  O  O59  1  0.33333300  0.66666700  0.31315800  1
  O  O60  1  0.52415500  0.69848600  0.59225900  1
  O  O61  1  0.19610900  0.19610900  0.09055400  1
  O  O62  1  0.00000000  0.80389100  0.90944600  1
  O  O63  1  0.83380200  0.51821700  0.82426300  1
  O  O64  1  0.17740700  0.00000000  0.34154600  1
  O  O65  1  0.79001700  0.79001700  0.16131400  1
  O  O66  1  0.30151400  0.82566900  0.40774100  1
  O  O67  1  0.82566900  0.30151400  0.59225900  1
  O  O68  1  0.17053100  0.48194700  0.07937900  1
  O  O69  1  0.00000000  0.80389100  0.09055400  1
  O  O70  1  0.00000000  0.17740700  0.65845400  1
  O  O71  1  0.68441500  0.16619800  0.82426300  1
  O  O72  1  0.66666700  0.33333300  0.68684200  1
  O  O73  1  0.17494700  0.17494700  0.43309500  1
  O  O74  1  0.80389100  0.00000000  0.90944600  1
  O  O75  1  0.30151400  0.82566900  0.59225900  1
  O  O76  1  0.33333300  0.66666700  0.68684200  1
  O  O77  1  0.00000000  0.82271100  0.75374500  1
  O  O78  1  0.51805300  0.68858400  0.07937900  1
  O  O79  1  0.17728900  0.17728900  0.24625500  1
  O  O80  1  0.16619800  0.68441500  0.17573700  1
  O  O81  1  0.68858400  0.51805300  0.07937900  1
  O  O82  1  0.82946900  0.31141600  0.92062100  1
  O  O83  1  0.16619800  0.68441500  0.82426300  1
  O  O84  1  0.00000000  0.82505300  0.56690500  1
  O  O85  1  0.79173900  0.79173900  0.00000000  1
  O  O86  1  0.82566900  0.30151400  0.40774100  1
  O  O87  1  0.83380200  0.51821700  0.17573700  1
  O  O88  1  0.51821700  0.83380200  0.82426300  1
  O  O89  1  0.82505300  0.00000000  0.43309500  1
  O  O90  1  0.00000000  0.17740700  0.34154600  1
  O  O91  1  0.00000000  0.20998300  0.16131400  1
  O  O92  1  0.31141600  0.82946900  0.92062100  1
  O  O93  1  0.47584500  0.17433100  0.40774100  1
  O  O94  1  0.47584500  0.17433100  0.59225900  1
  O  O95  1  0.82946900  0.31141600  0.07937900  1
  O  O96  1  0.68441500  0.16619800  0.17573700  1
  O  O97  1  0.82271100  0.00000000  0.75374500  1
  O  O98  1  0.20826100  0.00000000  0.00000000  1
  O  O99  1  0.66666700  0.33333300  0.31315800  1
  O  O100  1  0.48178300  0.31558500  0.17573700  1
  O  O101  1  0.51805300  0.68858400  0.92062100  1
  O  O102  1  0.17740700  0.00000000  0.65845400  1
  O  O103  1  0.31558500  0.48178300  0.17573700  1
  O  O104  1  0.82505300  0.00000000  0.56690500  1
  O  O105  1  0.17053100  0.48194700  0.92062100  1
  O  O106  1  0.00000000  0.28551800  0.50000000  1
  O  O107  1  0.00000000  0.82505300  0.43309500  1
  O  O108  1  0.31141600  0.82946900  0.07937900  1
  O  O109  1  0.69848600  0.52415500  0.40774100  1
  O  O110  1  0.17728900  0.17728900  0.75374500  1
  O  O111  1  0.82259300  0.82259300  0.34154600  1
  O  O112  1  0.79001700  0.79001700  0.83868600  1
  O  O113  1  0.82259300  0.82259300  0.65845400  1
  O  O114  1  0.69848600  0.52415500  0.59225900  1
  O  O115  1  0.19610900  0.19610900  0.90944600  1
