# generated using pymatgen
data_K2Be2(Si2O5)3
_symmetry_space_group_name_H-M   'P 1'
_cell_length_a   8.64212432
_cell_length_b   8.64212476
_cell_length_c   11.62144600
_cell_angle_alpha   90.00000000
_cell_angle_beta   90.00000000
_cell_angle_gamma   127.88915947
_symmetry_Int_Tables_number   1
_chemical_formula_structural   K2Be2(Si2O5)3
_chemical_formula_sum   'K4 Be4 Si12 O30'
_cell_volume   684.99665122
_cell_formula_units_Z   2
loop_
 _symmetry_equiv_pos_site_id
 _symmetry_equiv_pos_as_xyz
  1  'x, y, z'
loop_
 _atom_site_type_symbol
 _atom_site_label
 _atom_site_symmetry_multiplicity
 _atom_site_fract_x
 _atom_site_fract_y
 _atom_site_fract_z
 _atom_site_occupancy
  K  K0  1  0.90268400  0.09731600  0.39846600  1
  K  K1  1  0.20732800  0.79267200  0.62279100  1
  K  K2  1  0.79267200  0.20732800  0.12279100  1
  K  K3  1  0.09731600  0.90268400  0.89846600  1
  Be  Be4  1  0.46888700  0.22801600  0.75479600  1
  Be  Be5  1  0.53111300  0.77198400  0.25479600  1
  Be  Be6  1  0.22801600  0.46888700  0.25479600  1
  Be  Be7  1  0.77198400  0.53111300  0.75479600  1
  Si  Si8  1  0.35188900  0.64811100  0.01906100  1
  Si  Si9  1  0.44868400  0.55131600  0.48185900  1
  Si  Si10  1  0.25860900  0.15111800  0.17029800  1
  Si  Si11  1  0.84888200  0.74139100  0.17029800  1
  Si  Si12  1  0.41697200  0.00112800  0.35090400  1
  Si  Si13  1  0.74139100  0.84888200  0.67029800  1
  Si  Si14  1  0.00112800  0.41697200  0.85090400  1
  Si  Si15  1  0.99887200  0.58302800  0.35090400  1
  Si  Si16  1  0.64811100  0.35188900  0.51906100  1
  Si  Si17  1  0.55131600  0.44868300  0.98185900  1
  Si  Si18  1  0.15111800  0.25860900  0.67029800  1
  Si  Si19  1  0.58302800  0.99887200  0.85090400  1
  O  O20  1  0.55204400  0.44795600  0.46495700  1
  O  O21  1  0.07112300  0.92887700  0.12738000  1
  O  O22  1  0.96734600  0.56231700  0.79302700  1
  O  O23  1  0.73074400  0.81655000  0.21513000  1
  O  O24  1  0.18345000  0.26925600  0.21513000  1
  O  O25  1  0.26925600  0.18345000  0.71513000  1
  O  O26  1  0.48330600  0.87613700  0.97276700  1
  O  O27  1  0.59809400  0.75675500  0.55473400  1
  O  O28  1  0.87613700  0.48330600  0.47276700  1
  O  O29  1  0.64811100  0.35188900  0.65796000  1
  O  O30  1  0.92887700  0.07112300  0.62738000  1
  O  O31  1  0.44795600  0.55204400  0.96495700  1
  O  O32  1  0.62058400  0.87188900  0.76833000  1
  O  O33  1  0.59650700  0.40349300  0.85660000  1
  O  O34  1  0.56231700  0.96734600  0.29302700  1
  O  O35  1  0.24324500  0.40190600  0.55473400  1
  O  O36  1  0.75675500  0.59809400  0.05473400  1
  O  O37  1  0.12386300  0.51669400  0.97276700  1
  O  O38  1  0.20224400  0.79775600  0.39035500  1
  O  O39  1  0.43768300  0.03265400  0.79302700  1
  O  O40  1  0.81655000  0.73074400  0.71513000  1
  O  O41  1  0.40349300  0.59650700  0.35660000  1
  O  O42  1  0.87188900  0.62058400  0.26833000  1
  O  O43  1  0.40190600  0.24324500  0.05473400  1
  O  O44  1  0.79775600  0.20224400  0.89035500  1
  O  O45  1  0.35188900  0.64811100  0.15796000  1
  O  O46  1  0.51669400  0.12386300  0.47276700  1
  O  O47  1  0.37941600  0.12811100  0.26833000  1
  O  O48  1  0.12811100  0.37941600  0.76833000  1
  O  O49  1  0.03265400  0.43768300  0.29302700  1
