# generated using pymatgen
data_Y3(Ge3Pt2)2
_symmetry_space_group_name_H-M   'P 1'
_cell_length_a   4.36151500
_cell_length_b   8.80589400
_cell_length_c   13.37570614
_cell_angle_alpha   80.54100661
_cell_angle_beta   90.00000000
_cell_angle_gamma   90.00000000
_symmetry_Int_Tables_number   1
_chemical_formula_structural   Y3(Ge3Pt2)2
_chemical_formula_sum   'Y6 Ge12 Pt8'
_cell_volume   506.73643962
_cell_formula_units_Z   2
loop_
 _symmetry_equiv_pos_site_id
 _symmetry_equiv_pos_as_xyz
  1  'x, y, z'
loop_
 _atom_site_type_symbol
 _atom_site_label
 _atom_site_symmetry_multiplicity
 _atom_site_fract_x
 _atom_site_fract_y
 _atom_site_fract_z
 _atom_site_occupancy
  Y  Y0  1  0.25000000  0.76528500  0.43851000  1
  Y  Y1  1  0.25000000  0.59030400  0.18752100  1
  Y  Y2  1  0.75000000  0.23471500  0.56149000  1
  Y  Y3  1  0.75000000  0.40969600  0.81247900  1
  Y  Y4  1  0.75000000  0.93431500  0.81393500  1
  Y  Y5  1  0.25000000  0.06568500  0.18606500  1
  Ge  Ge6  1  0.75000000  0.58606100  0.56773100  1
  Ge  Ge7  1  0.75000000  0.12621300  0.00567100  1
  Ge  Ge8  1  0.75000000  0.88045000  0.56712400  1
  Ge  Ge9  1  0.25000000  0.69605800  0.71589500  1
  Ge  Ge10  1  0.75000000  0.30394200  0.28410500  1
  Ge  Ge11  1  0.75000000  0.80566400  0.27797600  1
  Ge  Ge12  1  0.25000000  0.87378700  0.99432900  1
  Ge  Ge13  1  0.25000000  0.19433600  0.72202400  1
  Ge  Ge14  1  0.25000000  0.37736200  0.00159500  1
  Ge  Ge15  1  0.25000000  0.11955000  0.43287600  1
  Ge  Ge16  1  0.75000000  0.62263800  0.99840500  1
  Ge  Ge17  1  0.25000000  0.41393900  0.43226900  1
  Pt  Pt18  1  0.75000000  0.35315400  0.10061400  1
  Pt  Pt19  1  0.25000000  0.97033000  0.62464800  1
  Pt  Pt20  1  0.75000000  0.84865000  0.09112500  1
  Pt  Pt21  1  0.75000000  0.02967000  0.37535200  1
  Pt  Pt22  1  0.25000000  0.64684600  0.89938600  1
  Pt  Pt23  1  0.25000000  0.15135000  0.90887500  1
  Pt  Pt24  1  0.75000000  0.53319000  0.37568400  1
  Pt  Pt25  1  0.25000000  0.46681000  0.62431600  1
