# generated using pymatgen
data_KNaSmNbO5
_symmetry_space_group_name_H-M   'P 1'
_cell_length_a   5.74662600
_cell_length_b   5.74662600
_cell_length_c   8.36281600
_cell_angle_alpha   90.00000000
_cell_angle_beta   90.00000000
_cell_angle_gamma   90.00000000
_symmetry_Int_Tables_number   1
_chemical_formula_structural   KNaSmNbO5
_chemical_formula_sum   'K2 Na2 Sm2 Nb2 O10'
_cell_volume   276.17121358
_cell_formula_units_Z   2
loop_
 _symmetry_equiv_pos_site_id
 _symmetry_equiv_pos_as_xyz
  1  'x, y, z'
loop_
 _atom_site_type_symbol
 _atom_site_label
 _atom_site_symmetry_multiplicity
 _atom_site_fract_x
 _atom_site_fract_y
 _atom_site_fract_z
 _atom_site_occupancy
  K  K0  1  0.50000000  0.50000000  0.00000000  1
  K  K1  1  0.00000000  0.00000000  0.00000000  1
  Na  Na2  1  0.00000000  0.50000000  0.24128000  1
  Na  Na3  1  0.50000000  0.00000000  0.75872000  1
  Sm  Sm4  1  0.00000000  0.00000000  0.50000000  1
  Sm  Sm5  1  0.50000000  0.50000000  0.50000000  1
  Nb  Nb6  1  0.50000000  0.00000000  0.25942900  1
  Nb  Nb7  1  0.00000000  0.50000000  0.74057100  1
  O  O8  1  0.00000000  0.50000000  0.96456100  1
  O  O9  1  0.76807400  0.73192600  0.66741200  1
  O  O10  1  0.26807400  0.23192600  0.33258800  1
  O  O11  1  0.76807400  0.26807400  0.66741200  1
  O  O12  1  0.23192600  0.26807400  0.66741200  1
  O  O13  1  0.23192600  0.73192600  0.66741200  1
  O  O14  1  0.26807400  0.76807400  0.33258800  1
  O  O15  1  0.73192600  0.23192600  0.33258800  1
  O  O16  1  0.50000000  0.00000000  0.03543900  1
  O  O17  1  0.73192600  0.76807400  0.33258800  1
