# generated using pymatgen
data_Ho2Mn3Si5
_symmetry_space_group_name_H-M   'P 1'
_cell_length_a   10.56462700
_cell_length_b   10.56462700
_cell_length_c   5.40579700
_cell_angle_alpha   90.00000000
_cell_angle_beta   90.00000000
_cell_angle_gamma   90.00000000
_symmetry_Int_Tables_number   1
_chemical_formula_structural   Ho2Mn3Si5
_chemical_formula_sum   'Ho8 Mn12 Si20'
_cell_volume   603.34826666
_cell_formula_units_Z   4
loop_
 _symmetry_equiv_pos_site_id
 _symmetry_equiv_pos_as_xyz
  1  'x, y, z'
loop_
 _atom_site_type_symbol
 _atom_site_label
 _atom_site_symmetry_multiplicity
 _atom_site_fract_x
 _atom_site_fract_y
 _atom_site_fract_z
 _atom_site_occupancy
  Ho  Ho0  1  0.23647000  0.07562200  0.00000000  1
  Ho  Ho1  1  0.07562200  0.76353000  0.00000000  1
  Ho  Ho2  1  0.92437800  0.23647000  0.00000000  1
  Ho  Ho3  1  0.76353000  0.92437800  0.00000000  1
  Ho  Ho4  1  0.26353000  0.57562200  0.50000000  1
  Ho  Ho5  1  0.73647000  0.42437800  0.50000000  1
  Ho  Ho6  1  0.57562200  0.73647000  0.50000000  1
  Ho  Ho7  1  0.42437800  0.26353000  0.50000000  1
  Mn  Mn8  1  0.50000000  0.00000000  0.25000000  1
  Mn  Mn9  1  0.00000000  0.50000000  0.25000000  1
  Mn  Mn10  1  0.50000000  0.00000000  0.75000000  1
  Mn  Mn11  1  0.00000000  0.50000000  0.75000000  1
  Mn  Mn12  1  0.35443900  0.37863600  0.00000000  1
  Mn  Mn13  1  0.37863600  0.64556100  0.00000000  1
  Mn  Mn14  1  0.62136400  0.35443900  0.00000000  1
  Mn  Mn15  1  0.64556100  0.62136400  0.00000000  1
  Mn  Mn16  1  0.14556100  0.87863600  0.50000000  1
  Mn  Mn17  1  0.85443900  0.12136400  0.50000000  1
  Mn  Mn18  1  0.87863600  0.85443900  0.50000000  1
  Mn  Mn19  1  0.12136400  0.14556100  0.50000000  1
  Si  Si20  1  0.00000000  0.00000000  0.25776300  1
  Si  Si21  1  0.50000000  0.50000000  0.24223700  1
  Si  Si22  1  0.00000000  0.00000000  0.74223700  1
  Si  Si23  1  0.50000000  0.50000000  0.75776300  1
  Si  Si24  1  0.67476900  0.17476900  0.25000000  1
  Si  Si25  1  0.17476900  0.32523100  0.25000000  1
  Si  Si26  1  0.82523100  0.67476900  0.25000000  1
  Si  Si27  1  0.32523100  0.82523100  0.25000000  1
  Si  Si28  1  0.32523100  0.82523100  0.75000000  1
  Si  Si29  1  0.82523100  0.67476900  0.75000000  1
  Si  Si30  1  0.17476900  0.32523100  0.75000000  1
  Si  Si31  1  0.67476900  0.17476900  0.75000000  1
  Si  Si32  1  0.47578300  0.18528400  0.00000000  1
  Si  Si33  1  0.18528400  0.52421700  0.00000000  1
  Si  Si34  1  0.81471600  0.47578300  0.00000000  1
  Si  Si35  1  0.52421700  0.81471600  0.00000000  1
  Si  Si36  1  0.02421700  0.68528400  0.50000000  1
  Si  Si37  1  0.97578300  0.31471600  0.50000000  1
  Si  Si38  1  0.68528400  0.97578300  0.50000000  1
  Si  Si39  1  0.31471600  0.02421700  0.50000000  1
