# generated using pymatgen
data_Ga2BiS4
_symmetry_space_group_name_H-M   'P 1'
_cell_length_a   7.67334700
_cell_length_b   7.67334700
_cell_length_c   12.25078500
_cell_angle_alpha   90.00000000
_cell_angle_beta   90.00000000
_cell_angle_gamma   90.00000000
_symmetry_Int_Tables_number   1
_chemical_formula_structural   Ga2BiS4
_chemical_formula_sum   'Ga8 Bi4 S16'
_cell_volume   721.32933473
_cell_formula_units_Z   4
loop_
 _symmetry_equiv_pos_site_id
 _symmetry_equiv_pos_as_xyz
  1  'x, y, z'
loop_
 _atom_site_type_symbol
 _atom_site_label
 _atom_site_symmetry_multiplicity
 _atom_site_fract_x
 _atom_site_fract_y
 _atom_site_fract_z
 _atom_site_occupancy
  Ga  Ga0  1  0.00000000  0.50000000  0.25000000  1
  Ga  Ga1  1  0.00000000  0.50000000  0.00000000  1
  Ga  Ga2  1  0.00000000  0.50000000  0.75000000  1
  Ga  Ga3  1  0.50000000  0.00000000  0.50000000  1
  Ga  Ga4  1  0.50000000  0.00000000  0.00000000  1
  Ga  Ga5  1  0.50000000  0.00000000  0.75000000  1
  Ga  Ga6  1  0.00000000  0.50000000  0.50000000  1
  Ga  Ga7  1  0.50000000  0.00000000  0.25000000  1
  Bi  Bi8  1  0.00000000  0.00000000  0.12903900  1
  Bi  Bi9  1  0.50000000  0.50000000  0.37096100  1
  Bi  Bi10  1  0.50000000  0.50000000  0.62903900  1
  Bi  Bi11  1  0.00000000  0.00000000  0.87096100  1
  S  S12  1  0.65800700  0.16181100  0.62483600  1
  S  S13  1  0.34199300  0.16181100  0.37516400  1
  S  S14  1  0.65800700  0.83818900  0.37516400  1
  S  S15  1  0.84199300  0.33818900  0.87516400  1
  S  S16  1  0.83818900  0.65800700  0.62483600  1
  S  S17  1  0.66181100  0.84199300  0.87516400  1
  S  S18  1  0.83818900  0.34199300  0.37516400  1
  S  S19  1  0.84199300  0.66181100  0.12483600  1
  S  S20  1  0.16181100  0.65800700  0.37516400  1
  S  S21  1  0.15800700  0.33818900  0.12483600  1
  S  S22  1  0.16181100  0.34199300  0.62483600  1
  S  S23  1  0.33818900  0.84199300  0.12483600  1
  S  S24  1  0.34199300  0.83818900  0.62483600  1
  S  S25  1  0.15800700  0.66181100  0.87516400  1
  S  S26  1  0.33818900  0.15800700  0.87516400  1
  S  S27  1  0.66181100  0.15800700  0.12483600  1
