# generated using pymatgen
data_Ag3AsO4
_symmetry_space_group_name_H-M   'P 1'
_cell_length_a   6.24688600
_cell_length_b   6.24688600
_cell_length_c   6.24688600
_cell_angle_alpha   90.00000000
_cell_angle_beta   90.00000000
_cell_angle_gamma   90.00000000
_symmetry_Int_Tables_number   1
_chemical_formula_structural   Ag3AsO4
_chemical_formula_sum   'Ag6 As2 O8'
_cell_volume   243.77588491
_cell_formula_units_Z   2
loop_
 _symmetry_equiv_pos_site_id
 _symmetry_equiv_pos_as_xyz
  1  'x, y, z'
loop_
 _atom_site_type_symbol
 _atom_site_label
 _atom_site_symmetry_multiplicity
 _atom_site_fract_x
 _atom_site_fract_y
 _atom_site_fract_z
 _atom_site_occupancy
  Ag  Ag0  1  0.00000000  0.50000000  0.25000000  1
  Ag  Ag1  1  0.00000000  0.50000000  0.75000000  1
  Ag  Ag2  1  0.75000000  0.00000000  0.50000000  1
  Ag  Ag3  1  0.50000000  0.25000000  0.00000000  1
  Ag  Ag4  1  0.25000000  0.00000000  0.50000000  1
  Ag  Ag5  1  0.50000000  0.75000000  0.00000000  1
  As  As6  1  0.50000000  0.50000000  0.50000000  1
  As  As7  1  0.00000000  0.00000000  0.00000000  1
  O  O8  1  0.83922000  0.83922000  0.83922000  1
  O  O9  1  0.66078000  0.33922000  0.66078000  1
  O  O10  1  0.33922000  0.66078000  0.66078000  1
  O  O11  1  0.66078000  0.66078000  0.33922000  1
  O  O12  1  0.33922000  0.33922000  0.33922000  1
  O  O13  1  0.16078000  0.16078000  0.83922000  1
  O  O14  1  0.16078000  0.83922000  0.16078000  1
  O  O15  1  0.83922000  0.16078000  0.16078000  1
