# generated using pymatgen
data_Ce2Fe12P7
_symmetry_space_group_name_H-M   'P 1'
_cell_length_a   9.00486848
_cell_length_b   9.00486848
_cell_length_c   3.65676200
_cell_angle_alpha   90.00000000
_cell_angle_beta   90.00000000
_cell_angle_gamma   120.00000353
_symmetry_Int_Tables_number   1
_chemical_formula_structural   Ce2Fe12P7
_chemical_formula_sum   'Ce2 Fe12 P7'
_cell_volume   256.79233705
_cell_formula_units_Z   1
loop_
 _symmetry_equiv_pos_site_id
 _symmetry_equiv_pos_as_xyz
  1  'x, y, z'
loop_
 _atom_site_type_symbol
 _atom_site_label
 _atom_site_symmetry_multiplicity
 _atom_site_fract_x
 _atom_site_fract_y
 _atom_site_fract_z
 _atom_site_occupancy
  Ce  Ce0  1  0.00000000  0.00000000  0.00000000  1
  Ce  Ce1  1  0.33333300  0.66666700  0.50000000  1
  Fe  Fe2  1  0.09611900  0.39427400  0.00000000  1
  Fe  Fe3  1  0.29815500  0.90388100  0.00000000  1
  Fe  Fe4  1  0.60572600  0.70184500  0.00000000  1
  Fe  Fe5  1  0.81776200  0.60590800  0.00000000  1
  Fe  Fe6  1  0.78814600  0.18223800  0.00000000  1
  Fe  Fe7  1  0.39409200  0.21185400  0.00000000  1
  Fe  Fe8  1  0.04833700  0.76790600  0.50000000  1
  Fe  Fe9  1  0.71956900  0.95166300  0.50000000  1
  Fe  Fe10  1  0.23209400  0.28043100  0.50000000  1
  Fe  Fe11  1  0.88404600  0.43298100  0.50000000  1
  Fe  Fe12  1  0.54893500  0.11595400  0.50000000  1
  Fe  Fe13  1  0.56701900  0.45106500  0.50000000  1
  P  P14  1  0.07246600  0.63310200  0.00000000  1
  P  P15  1  0.56063600  0.92753400  0.00000000  1
  P  P16  1  0.36689800  0.43936400  0.00000000  1
  P  P17  1  0.77243000  0.73009000  0.50000000  1
  P  P18  1  0.95766000  0.22757000  0.50000000  1
  P  P19  1  0.26991000  0.04234000  0.50000000  1
  P  P20  1  0.66666700  0.33333300  0.00000000  1
