# generated using pymatgen
data_Sm2(CN2)3
_symmetry_space_group_name_H-M   'P 1'
_cell_length_a   7.61573552
_cell_length_b   7.61573552
_cell_length_c   5.31056741
_cell_angle_alpha   83.89183404
_cell_angle_beta   83.89183404
_cell_angle_gamma   29.88733680
_symmetry_Int_Tables_number   1
_chemical_formula_structural   Sm2(CN2)3
_chemical_formula_sum   'Sm2 C3 N6'
_cell_volume   152.54652904
_cell_formula_units_Z   1
loop_
 _symmetry_equiv_pos_site_id
 _symmetry_equiv_pos_as_xyz
  1  'x, y, z'
loop_
 _atom_site_type_symbol
 _atom_site_label
 _atom_site_symmetry_multiplicity
 _atom_site_fract_x
 _atom_site_fract_y
 _atom_site_fract_z
 _atom_site_occupancy
  Sm  Sm0  1  0.86547300  0.86547300  0.07114200  1
  Sm  Sm1  1  0.13452700  0.13452700  0.92885800  1
  C  C2  1  0.32794600  0.32794600  0.59386500  1
  C  C3  1  0.67205400  0.67205400  0.40613500  1
  C  C4  1  0.00000000  0.00000000  0.50000000  1
  N  N5  1  0.98908700  0.98908700  0.73350500  1
  N  N6  1  0.68952800  0.68952800  0.17048700  1
  N  N7  1  0.65756500  0.65756500  0.63673100  1
  N  N8  1  0.01091300  0.01091300  0.26649500  1
  N  N9  1  0.31047200  0.31047200  0.82951300  1
  N  N10  1  0.34243500  0.34243500  0.36326900  1
