# generated using pymatgen
data_FeSnH12(OF)6
_symmetry_space_group_name_H-M   'P 1'
_cell_length_a   6.70404177
_cell_length_b   8.92133543
_cell_length_c   20.03205035
_cell_angle_alpha   89.99958792
_cell_angle_beta   89.93539293
_cell_angle_gamma   99.98370214
_symmetry_Int_Tables_number   1
_chemical_formula_structural   FeSnH12(OF)6
_chemical_formula_sum   'Fe4 Sn4 H48 O24 F24'
_cell_volume   1179.95357621
_cell_formula_units_Z   4
loop_
 _symmetry_equiv_pos_site_id
 _symmetry_equiv_pos_as_xyz
  1  'x, y, z'
loop_
 _atom_site_type_symbol
 _atom_site_label
 _atom_site_symmetry_multiplicity
 _atom_site_fract_x
 _atom_site_fract_y
 _atom_site_fract_z
 _atom_site_occupancy
  Fe  Fe0  1  0.50004900  0.49984800  0.50003600  1
  Fe  Fe1  1  0.50009600  0.99997100  0.75003100  1
  Fe  Fe2  1  0.49998000  0.49998500  0.00004400  1
  Fe  Fe3  1  0.50001900  0.00008100  0.24994600  1
  Sn  Sn4  1  0.00017100  0.99988000  0.49995400  1
  Sn  Sn5  1  0.99998000  0.50000900  0.75001900  1
  Sn  Sn6  1  0.99983400  0.00012000  0.00005000  1
  Sn  Sn7  1  0.00000900  0.50001200  0.24996100  1
  H  H8  1  0.69913200  0.25741900  0.46698700  1
  H  H9  1  0.69932100  0.75754500  0.71689100  1
  H  H10  1  0.69909900  0.25753400  0.96685600  1
  H  H11  1  0.69715000  0.75721500  0.21763500  1
  H  H12  1  0.19166900  0.51143800  0.40618100  1
  H  H13  1  0.19170500  0.01128300  0.65617800  1
  H  H14  1  0.19136800  0.51144100  0.90616900  1
  H  H15  1  0.18906500  0.01182400  0.15652500  1
  H  H16  1  0.32367200  0.44508500  0.62708000  1
  H  H17  1  0.32372100  0.94503900  0.87707300  1
  H  H18  1  0.32351100  0.44487300  0.12689300  1
  H  H19  1  0.32193300  0.94531000  0.37633800  1
  H  H20  1  0.30091600  0.74243300  0.53309700  1
  H  H21  1  0.30067400  0.24249600  0.78310100  1
  H  H22  1  0.30087600  0.74260400  0.03304000  1
  H  H23  1  0.30279100  0.24289200  0.28236800  1
  H  H24  1  0.80874300  0.48853700  0.59382800  1
  H  H25  1  0.80842300  0.98868100  0.84385500  1
  H  H26  1  0.80841000  0.48858400  0.09381800  1
  H  H27  1  0.81086600  0.98819500  0.34344700  1
  H  H28  1  0.67650900  0.55508300  0.37309000  1
  H  H29  1  0.67621100  0.05491000  0.62299100  1
  H  H30  1  0.67627400  0.55490500  0.87295200  1
  H  H31  1  0.67803500  0.05464200  0.12365700  1
  H  H32  1  0.46347300  0.19727300  0.45745700  1
  H  H33  1  0.46354500  0.69745100  0.70760000  1
  H  H34  1  0.46337900  0.19736300  0.95755400  1
  H  H35  1  0.46210500  0.69797500  0.20622000  1
  H  H36  1  0.11253900  0.37267500  0.45463300  1
  H  H37  1  0.11248400  0.87278500  0.70475600  1
  H  H38  1  0.11254200  0.37269600  0.95465300  1
  H  H39  1  0.11083200  0.87228600  0.20449900  1
  H  H40  1  0.28185600  0.28792300  0.58779000  1
  H  H41  1  0.28167800  0.78790400  0.83781800  1
  H  H42  1  0.28198600  0.28775700  0.08758100  1
  H  H43  1  0.28325000  0.78782800  0.33714500  1
  H  H44  1  0.53661400  0.80259100  0.54245800  1
  H  H45  1  0.53643700  0.30261100  0.79237800  1
  H  H46  1  0.53652500  0.80275500  0.04251600  1
  H  H47  1  0.53786500  0.30210600  0.29377400  1
  H  H48  1  0.88755000  0.62728800  0.54535200  1
  H  H49  1  0.88754500  0.12717500  0.79525300  1
  H  H50  1  0.88741300  0.62735700  0.04534400  1
  H  H51  1  0.88917200  0.12773800  0.29548100  1
  H  H52  1  0.71804900  0.71215800  0.41241900  1
  H  H53  1  0.71824800  0.21211200  0.66220200  1
  H  H54  1  0.71804100  0.71208300  0.91221000  1
  H  H55  1  0.71677300  0.21214800  0.16283400  1
  O  O56  1  0.56668200  0.28926400  0.46241400  1
  O  O57  1  0.56684600  0.78942900  0.71242200  1
  O  O58  1  0.56660600  0.28937300  0.96235200  1
  O  O59  1  0.56531100  0.78958200  0.21218800  1
  O  O60  1  0.21419800  0.46550800  0.44948900  1
  O  O61  1  0.21429200  0.96551500  0.69952500  1
  O  O62  1  0.21429300  0.46547300  0.94943500  1
  O  O63  1  0.21173600  0.96567300  0.19975600  1
  O  O64  1  0.36439300  0.39032400  0.58821300  1
  O  O65  1  0.36439800  0.89022000  0.83821100  1
  O  O66  1  0.36460200  0.39009200  0.08806800  1
  O  O67  1  0.36505300  0.89051900  0.33783000  1
  O  O68  1  0.43338700  0.71057000  0.53764600  1
  O  O69  1  0.43314600  0.21061400  0.78759900  1
  O  O70  1  0.43333800  0.71075300  0.03759200  1
  O  O71  1  0.43463900  0.21050700  0.28781400  1
  O  O72  1  0.78583700  0.53447900  0.55056500  1
  O  O73  1  0.78574800  0.03443800  0.80052000  1
  O  O74  1  0.78578200  0.53453300  0.05051900  1
  O  O75  1  0.78822300  0.03440400  0.30022000  1
  O  O76  1  0.63536200  0.60982900  0.41191300  1
  O  O77  1  0.63558300  0.10978100  0.66184400  1
  O  O78  1  0.63561200  0.60965000  0.91183200  1
  O  O79  1  0.63494400  0.10948800  0.16215300  1
  F  F80  1  0.26509400  0.53883000  0.70069000  1
  F  F81  1  0.26479300  0.03866900  0.95060800  1
  F  F82  1  0.26433200  0.53865100  0.20012500  1
  F  F83  1  0.26466500  0.03839200  0.45023100  1
  F  F84  1  0.94007000  0.20102500  0.46819700  1
  F  F85  1  0.93998600  0.70110300  0.71818200  1
  F  F86  1  0.93976700  0.20111400  0.96812100  1
  F  F87  1  0.93843700  0.70044200  0.21808400  1
  F  F88  1  0.13786900  0.60287700  0.33099200  1
  F  F89  1  0.13765500  0.10214300  0.58111900  1
  F  F90  1  0.13679800  0.60224500  0.83128400  1
  F  F91  1  0.13734900  0.10259100  0.08114600  1
  F  F92  1  0.73570100  0.46133900  0.29982000  1
  F  F93  1  0.73517700  0.96133400  0.54939800  1
  F  F94  1  0.73483800  0.46122200  0.79930900  1
  F  F95  1  0.73534000  0.96160400  0.04977400  1
  F  F96  1  0.06025000  0.79890100  0.53186800  1
  F  F97  1  0.05999700  0.29888900  0.78180800  1
  F  F98  1  0.05991000  0.79897600  0.03181100  1
  F  F99  1  0.06153600  0.29959200  0.28187700  1
  F  F100  1  0.86321800  0.39775800  0.66873700  1
  F  F101  1  0.86235500  0.89783200  0.91889400  1
  F  F102  1  0.86210500  0.39710700  0.16894300  1
  F  F103  1  0.86263500  0.89743300  0.41884900  1
