# generated using pymatgen
data_Sb24(Cl7F17)5
_symmetry_space_group_name_H-M   'P 1'
_cell_length_a   11.07704651
_cell_length_b   11.80250892
_cell_length_c   24.90453884
_cell_angle_alpha   96.24879511
_cell_angle_beta   89.89707638
_cell_angle_gamma   89.90122313
_symmetry_Int_Tables_number   1
_chemical_formula_structural   Sb24(Cl7F17)5
_chemical_formula_sum   'Sb24 Cl35 F85'
_cell_volume   3236.58717824
_cell_formula_units_Z   1
loop_
 _symmetry_equiv_pos_site_id
 _symmetry_equiv_pos_as_xyz
  1  'x, y, z'
loop_
 _atom_site_type_symbol
 _atom_site_label
 _atom_site_symmetry_multiplicity
 _atom_site_fract_x
 _atom_site_fract_y
 _atom_site_fract_z
 _atom_site_occupancy
  Cl  Cl0  1  0.04776496  0.95206932  0.36254841  1
  Cl  Cl1  1  0.04763911  0.95172278  0.86263317  1
  Cl  Cl2  1  0.06801132  0.86479204  0.03140716  1
  Cl  Cl3  1  0.06693193  0.86578272  0.53250850  1
  Cl  Cl4  1  0.15702351  0.30787412  0.17000014  1
  Cl  Cl5  1  0.15615425  0.30876955  0.67081745  1
  Cl  Cl6  1  0.17365776  0.07179160  0.24778837  1
  Cl  Cl7  1  0.17439102  0.07184693  0.75020967  1
  Cl  Cl8  1  0.21953034  0.51765216  0.35985279  1
  Cl  Cl9  1  0.22184792  0.51236519  0.85665862  1
  Cl  Cl10  1  0.28125266  0.01720509  0.10934952  1
  Cl  Cl11  1  0.28292096  0.02005129  0.61103879  1
  Cl  Cl12  1  0.32561824  0.57170872  0.49858577  1
  Cl  Cl13  1  0.32698598  0.56779530  -0.00400997  1
  Cl  Cl14  1  0.34259243  0.80778275  0.42027541  1
  Cl  Cl15  1  0.34413105  0.80183307  0.91843856  1
  Cl  Cl16  1  0.43227227  0.36541225  0.28212874  1
  Cl  Cl17  1  0.45042402  0.45356351  0.61295214  1
  Cl  Cl18  1  0.45248014  0.45233470  0.11212558  1
  Cl  Cl19  1  0.55075620  0.54626580  0.88759525  1
  Cl  Cl20  1  0.54963294  0.55278771  0.39085938  1
  Cl  Cl21  1  0.65604221  0.19597327  0.07944782  1
  Cl  Cl22  1  0.65484844  0.19676509  0.58143803  1
  Cl  Cl23  1  0.67192491  0.43210338  1.00222662  1
  Cl  Cl24  1  0.67107701  0.43127157  0.50393545  1
  Cl  Cl25  1  0.71919934  0.98559717  0.39186593  1
  Cl  Cl26  1  0.71843883  0.98549838  0.89180071  1
  Cl  Cl27  1  0.78010057  0.48612931  0.64261364  1
  Cl  Cl28  1  0.78024009  0.48529719  0.14162262  1
  Cl  Cl29  1  0.82908806  0.93200127  0.25277066  1
  Cl  Cl30  1  0.82833280  0.93230113  0.75302612  1
  Cl  Cl31  1  0.84423297  0.69603470  0.32978369  1
  Cl  Cl32  1  0.84406059  0.69585899  0.82942886  1
  Cl  Cl33  1  0.95365032  0.05271622  0.64135790  1
  Cl  Cl34  1  0.95049841  0.05233824  0.14038643  1
  F  F35  1  0.01652576  0.37436246  0.45707232  1
  F  F36  1  0.01585541  0.37424784  0.95750372  1
  F  F37  1  0.04027613  0.34400440  0.32413164  1
  F  F38  1  0.04042123  0.34238437  0.82380880  1
  F  F39  1  0.09147454  0.76112782  0.26407237  1
  F  F40  1  0.09130983  0.76144867  0.76379816  1
  F  F41  1  0.07699847  0.67107614  0.44059215  1
  F  F42  1  0.07556037  0.66910859  0.93965758  1
  F  F43  1  0.10276312  0.16709289  0.05893270  1
  F  F44  1  0.10262385  0.16706688  0.55803353  1
  F  F45  1  0.12889626  0.82861127  0.16613896  1
  F  F46  1  0.12893321  0.82887930  0.66589394  1
  F  F47  1  0.14507271  0.54593958  0.22605565  1
  F  F48  1  0.14443837  0.54591198  0.72558147  1
  F  F49  1  0.15695354  0.38186488  0.04625540  1
  F  F50  1  0.15702397  0.38213467  0.54565384  1
  F  F51  1  0.18851561  0.61217851  0.12842660  1
  F  F52  1  0.18816320  0.61240215  0.62799795  1
  F  F53  1  0.19354576  0.21500706  0.46231607  1
  F  F54  1  0.19337407  0.21496071  0.96285117  1
  F  F55  1  0.30651237  0.71494669  0.71208264  1
  F  F56  1  0.30661061  0.71484735  0.21275174  1
  F  F57  1  0.31251085  0.11229374  0.37825196  1
  F  F58  1  0.31139043  0.11022644  0.87859735  1
  F  F59  1  0.34216424  0.88201968  0.29596539  1
  F  F60  1  0.34246617  0.88135129  0.79554914  1
  F  F61  1  0.35533896  0.04580031  0.47585015  1
  F  F62  1  0.35541994  0.04597338  0.97634284  1
  F  F63  1  0.37128465  0.32872625  0.41606770  1
  F  F64  1  0.37126869  0.32690364  0.91533550  1
  F  F65  1  0.39720063  0.66717345  0.30865199  1
  F  F66  1  0.39826139  0.66570667  0.80719448  1
  F  F67  1  0.42419763  0.17002718  0.19035271  1
  F  F68  1  0.41555697  0.18163305  0.69530420  1
  F  F69  1  0.40875550  0.26114134  0.01356438  1
  F  F70  1  0.40822569  0.26096713  0.51396348  1
  F  F71  1  0.46230757  0.34529798  0.78053458  1
  F  F72  1  0.45887053  0.84391281  0.57414336  1
  F  F73  1  0.45954716  0.84371560  0.07408335  1
  F  F74  1  0.48334927  0.87405120  0.20720100  1
  F  F75  1  0.48294925  0.87474831  0.70685617  1
  F  F76  1  0.51917858  0.12234857  0.29156704  1
  F  F77  1  0.51641625  0.12543241  0.79311933  1
  F  F78  1  0.54041740  0.15751345  0.92660649  1
  F  F79  1  0.53986575  0.15897154  0.42659202  1
  F  F80  1  0.53761866  0.65421043  0.22092897  1
  F  F81  1  0.53865506  0.65551107  0.71952420  1
  F  F82  1  0.58972368  0.73850243  0.98676924  1
  F  F83  1  0.58798537  0.73959503  0.48701597  1
  F  F84  1  0.58323344  0.82008383  0.30588096  1
  F  F85  1  0.58395667  0.82000978  0.80524660  1
  F  F86  1  0.60768437  0.32982764  0.19069896  1
  F  F87  1  0.60287357  0.33399980  0.69283481  1
  F  F88  1  0.62798461  0.67333611  0.08500713  1
  F  F89  1  0.62752009  0.67340415  0.58483567  1
  F  F90  1  0.64421415  0.95375022  0.02372320  1
  F  F91  1  0.64388125  0.95408342  0.52396167  1
  F  F92  1  0.66388669  0.11459318  0.20363695  1
  F  F93  1  0.65679616  0.11820330  0.70423484  1
  F  F94  1  0.68978581  0.88957301  0.12121540  1
  F  F95  1  0.68951283  0.88976080  0.62157272  1
  F  F96  1  0.69416173  0.28363198  0.28686967  1
  F  F97  1  0.69437751  0.28422637  0.78789879  1
  F  F98  1  0.80582264  0.78379799  0.53698807  1
  F  F99  1  0.80679418  0.78374513  0.03692017  1
  F  F100  1  0.80931606  0.38988769  0.37145538  1
  F  F101  1  0.81118305  0.38980310  0.87208266  1
  F  F102  1  0.83608125  0.61406378  0.95363653  1
  F  F103  1  0.83729188  0.61472151  0.45365796  1
  F  F104  1  0.85550443  0.45393370  0.27382212  1
  F  F105  1  0.85556181  0.45390731  0.77414938  1
  F  F106  1  0.87254312  0.17346453  0.33496423  1
  F  F107  1  0.87233292  0.17294659  0.83500035  1
  F  F108  1  0.89235262  0.82993155  0.44082552  1
  F  F109  1  0.89187533  0.82948216  0.94056392  1
  F  F110  1  0.91582346  0.32048254  0.55574627  1
  F  F111  1  0.91633076  0.31981964  0.05610103  1
  F  F112  1  0.91244326  0.23927783  0.23694857  1
  F  F113  1  0.91128822  0.23906789  0.73700815  1
  F  F114  1  0.96232125  0.15495280  0.47047045  1
  F  F115  1  0.96280882  0.15407669  0.97129508  1
  F  F116  1  0.96054189  0.65961719  0.67646399  1
  F  F117  1  0.96034849  0.65906572  0.17685723  1
  F  F118  1  0.98123223  0.62220848  0.54151371  1
  F  F119  1  0.98138530  0.62222523  0.04143714  1
  Sb  Sb120  1  0.04941354  0.27466491  0.01011942  1
  Sb  Sb121  1  0.04883224  0.27482644  0.50994716  1
  Sb  Sb122  1  0.12522501  0.68454207  0.19424848  1
  Sb  Sb123  1  0.12549880  0.68476694  0.69405681  1
  Sb  Sb124  1  0.14053159  0.11493033  0.16209486  1
  Sb  Sb125  1  0.14276370  0.11600038  0.66487399  1
  Sb  Sb126  1  0.35932686  0.61482114  0.41298596  1
  Sb  Sb127  1  0.36090361  0.60839558  0.90996564  1
  Sb  Sb128  1  0.37483728  0.18458441  0.44419453  1
  Sb  Sb129  1  0.37536139  0.18371545  0.94390507  1
  Sb  Sb130  1  0.45069606  0.77466885  0.26004494  1
  Sb  Sb131  1  0.45127619  0.77450578  0.75949908  1
  Sb  Sb132  1  0.55281786  0.22053947  0.23799359  1
  Sb  Sb133  1  0.54957772  0.22590387  0.74080670  1
  Sb  Sb134  1  0.62431490  0.81621046  0.05616376  1
  Sb  Sb135  1  0.62383318  0.81680762  0.55657267  1
  Sb  Sb136  1  0.64153040  0.38950349  0.08779599  1
  Sb  Sb137  1  0.63966766  0.39015260  0.59004929  1
  Sb  Sb138  1  0.85894203  0.88951466  0.33842400  1
  Sb  Sb139  1  0.85880520  0.88929166  0.83882665  1
  Sb  Sb140  1  0.87560285  0.31662568  0.30644484  1
  Sb  Sb141  1  0.87535224  0.31639739  0.80666245  1
  Sb  Sb142  1  0.94733841  0.72079635  0.48819434  1
  Sb  Sb143  1  0.94727113  0.71962077  0.98759522  1
