# generated using pymatgen
data_TbB4
_symmetry_space_group_name_H-M   'P 1'
_cell_length_a   7.11916600
_cell_length_b   7.11916600
_cell_length_c   4.03146300
_cell_angle_alpha   90.00000000
_cell_angle_beta   90.00000000
_cell_angle_gamma   90.00000000
_symmetry_Int_Tables_number   1
_chemical_formula_structural   TbB4
_chemical_formula_sum   'Tb4 B16'
_cell_volume   204.32472241
_cell_formula_units_Z   4
loop_
 _symmetry_equiv_pos_site_id
 _symmetry_equiv_pos_as_xyz
  1  'x, y, z'
loop_
 _atom_site_type_symbol
 _atom_site_label
 _atom_site_symmetry_multiplicity
 _atom_site_fract_x
 _atom_site_fract_y
 _atom_site_fract_z
 _atom_site_occupancy
  Tb  Tb0  1  0.81762000  0.31762000  0.00000000  1
  Tb  Tb1  1  0.31762000  0.18238000  0.00000000  1
  Tb  Tb2  1  0.68238000  0.81762000  0.00000000  1
  Tb  Tb3  1  0.18238000  0.68238000  0.00000000  1
  B  B4  1  0.53891000  0.32420700  0.50000000  1
  B  B5  1  0.82420700  0.03891100  0.50000000  1
  B  B6  1  0.03891100  0.17579300  0.50000000  1
  B  B7  1  0.32420700  0.46109000  0.50000000  1
  B  B8  1  0.67579300  0.53891000  0.50000000  1
  B  B9  1  0.50000000  0.50000000  0.79678900  1
  B  B10  1  0.96109000  0.82420700  0.50000000  1
  B  B11  1  0.58722200  0.08722200  0.50000000  1
  B  B12  1  0.41277800  0.91277800  0.50000000  1
  B  B13  1  0.08722200  0.41277800  0.50000000  1
  B  B14  1  0.46109000  0.67579300  0.50000000  1
  B  B15  1  0.17579300  0.96109000  0.50000000  1
  B  B16  1  0.00000000  0.00000000  0.79678900  1
  B  B17  1  0.50000000  0.50000000  0.20321100  1
  B  B18  1  0.91277800  0.58722200  0.50000000  1
  B  B19  1  0.00000000  0.00000000  0.20321100  1
