# generated using pymatgen
data_TbMg4Cu
_symmetry_space_group_name_H-M   'P 1'
_cell_length_a   11.99471328
_cell_length_b   11.99471328
_cell_length_c   4.03729900
_cell_angle_alpha   90.00000000
_cell_angle_beta   90.00000000
_cell_angle_gamma   112.80879680
_symmetry_Int_Tables_number   1
_chemical_formula_structural   TbMg4Cu
_chemical_formula_sum   'Tb4 Mg16 Cu4'
_cell_volume   535.43786151
_cell_formula_units_Z   4
loop_
 _symmetry_equiv_pos_site_id
 _symmetry_equiv_pos_as_xyz
  1  'x, y, z'
loop_
 _atom_site_type_symbol
 _atom_site_label
 _atom_site_symmetry_multiplicity
 _atom_site_fract_x
 _atom_site_fract_y
 _atom_site_fract_z
 _atom_site_occupancy
  Tb  Tb0  1  0.30255700  0.30255700  0.00000000  1
  Tb  Tb1  1  0.69744300  0.69744300  0.00000000  1
  Tb  Tb2  1  0.36792900  0.63207100  0.00000000  1
  Tb  Tb3  1  0.63207100  0.36792900  0.00000000  1
  Mg  Mg4  1  0.37471600  0.86465100  0.50000000  1
  Mg  Mg5  1  0.13534900  0.62528400  0.50000000  1
  Mg  Mg6  1  0.16452900  0.83547100  0.00000000  1
  Mg  Mg7  1  0.83547100  0.16452900  0.00000000  1
  Mg  Mg8  1  0.94987800  0.78963600  0.50000000  1
  Mg  Mg9  1  0.86465100  0.37471600  0.50000000  1
  Mg  Mg10  1  0.92442900  0.58733500  0.00000000  1
  Mg  Mg11  1  0.21036400  0.05012200  0.50000000  1
  Mg  Mg12  1  0.62528400  0.13534900  0.50000000  1
  Mg  Mg13  1  0.50000000  0.50000000  0.50000000  1
  Mg  Mg14  1  0.78963600  0.94987800  0.50000000  1
  Mg  Mg15  1  0.05012200  0.21036400  0.50000000  1
  Mg  Mg16  1  0.58733500  0.92442900  0.00000000  1
  Mg  Mg17  1  0.41266500  0.07557100  0.00000000  1
  Mg  Mg18  1  0.07557100  0.41266500  0.00000000  1
  Mg  Mg19  1  0.00000000  0.00000000  0.00000000  1
  Cu  Cu20  1  0.44585500  0.23458600  0.50000000  1
  Cu  Cu21  1  0.23458600  0.44585500  0.50000000  1
  Cu  Cu22  1  0.55414500  0.76541400  0.50000000  1
  Cu  Cu23  1  0.76541400  0.55414500  0.50000000  1
