# generated using pymatgen
data_Ce(PO3)3
_symmetry_space_group_name_H-M   'P 1'
_cell_length_a   7.15547375
_cell_length_b   7.15547375
_cell_length_c   7.44520200
_cell_angle_alpha   90.00000000
_cell_angle_beta   90.00000000
_cell_angle_gamma   105.05044453
_symmetry_Int_Tables_number   1
_chemical_formula_structural   Ce(PO3)3
_chemical_formula_sum   'Ce2 P6 O18'
_cell_volume   368.12423914
_cell_formula_units_Z   2
loop_
 _symmetry_equiv_pos_site_id
 _symmetry_equiv_pos_as_xyz
  1  'x, y, z'
loop_
 _atom_site_type_symbol
 _atom_site_label
 _atom_site_symmetry_multiplicity
 _atom_site_fract_x
 _atom_site_fract_y
 _atom_site_fract_z
 _atom_site_occupancy
  Ce  Ce0  1  0.37119600  0.37119600  0.00000000  1
  Ce  Ce1  1  0.62880400  0.62880400  0.50000000  1
  P  P2  1  0.83182000  0.18320300  0.04717500  1
  P  P3  1  0.16818000  0.81679700  0.54717500  1
  P  P4  1  0.18320300  0.83182000  0.95282500  1
  P  P5  1  0.81679700  0.16818000  0.45282500  1
  P  P6  1  0.75132600  0.75132600  0.00000000  1
  P  P7  1  0.24867400  0.24867400  0.50000000  1
  O  O8  1  0.75170100  0.96972500  0.95983900  1
  O  O9  1  0.24829900  0.03027500  0.45983900  1
  O  O10  1  0.96972500  0.75170100  0.04016100  1
  O  O11  1  0.03027500  0.24829900  0.54016100  1
  O  O12  1  0.67303900  0.63690000  0.83263600  1
  O  O13  1  0.32696100  0.36310000  0.33263600  1
  O  O14  1  0.63690000  0.67303900  0.16736400  1
  O  O15  1  0.36310000  0.32696100  0.66736400  1
  O  O16  1  0.71950600  0.32872100  0.46272400  1
  O  O17  1  0.28049400  0.67127900  0.96272400  1
  O  O18  1  0.32872100  0.71950600  0.53727600  1
  O  O19  1  0.67127900  0.28049400  0.03727600  1
  O  O20  1  0.72129400  0.97676900  0.53551700  1
  O  O21  1  0.27870600  0.02323100  0.03551700  1
  O  O22  1  0.97676900  0.72129400  0.46448300  1
  O  O23  1  0.02323100  0.27870600  0.96448300  1
  O  O24  1  0.87277000  0.12723000  0.25000000  1
  O  O25  1  0.12723000  0.87277000  0.75000000  1
