# generated using pymatgen
data_Ca4Al6MoO16
_symmetry_space_group_name_H-M   'P 1'
_cell_length_a   8.12287043
_cell_length_b   8.12287043
_cell_length_c   26.36826800
_cell_angle_alpha   90.00000000
_cell_angle_beta   90.00000000
_cell_angle_gamma   108.98142069
_symmetry_Int_Tables_number   1
_chemical_formula_structural   Ca4Al6MoO16
_chemical_formula_sum   'Ca16 Al24 Mo4 O64'
_cell_volume   1645.20184209
_cell_formula_units_Z   4
loop_
 _symmetry_equiv_pos_site_id
 _symmetry_equiv_pos_as_xyz
  1  'x, y, z'
loop_
 _atom_site_type_symbol
 _atom_site_label
 _atom_site_symmetry_multiplicity
 _atom_site_fract_x
 _atom_site_fract_y
 _atom_site_fract_z
 _atom_site_occupancy
  Ca  Ca0  1  0.97152700  0.43796900  0.51704300  1
  Ca  Ca1  1  0.00952200  0.48776000  0.75009200  1
  Ca  Ca2  1  0.43796900  0.97152700  0.48295700  1
  Ca  Ca3  1  0.25384500  0.30842200  0.86229600  1
  Ca  Ca4  1  0.48776000  0.00952200  0.24990800  1
  Ca  Ca5  1  0.47152700  0.93796900  0.98295700  1
  Ca  Ca6  1  0.26165700  0.23292100  0.62046500  1
  Ca  Ca7  1  0.80842200  0.75384500  0.36229600  1
  Ca  Ca8  1  0.50952200  0.98776000  0.74990800  1
  Ca  Ca9  1  0.30842200  0.25384500  0.13770400  1
  Ca  Ca10  1  0.93796900  0.47152700  0.01704300  1
  Ca  Ca11  1  0.75384500  0.80842200  0.63770400  1
  Ca  Ca12  1  0.23292100  0.26165700  0.37953500  1
  Ca  Ca13  1  0.98776000  0.50952200  0.25009200  1
  Ca  Ca14  1  0.76165700  0.73292100  0.87953500  1
  Ca  Ca15  1  0.73292100  0.76165700  0.12046500  1
  Al  Al16  1  0.74349000  0.74349000  0.00000000  1
  Al  Al17  1  0.87438400  0.12416000  0.81464200  1
  Al  Al18  1  0.12416000  0.87438400  0.18535800  1
  Al  Al19  1  0.59148500  0.36357300  0.93724500  1
  Al  Al20  1  0.62871800  0.36058400  0.44037400  1
  Al  Al21  1  0.75353000  0.75826300  0.24351400  1
  Al  Al22  1  0.36357300  0.59148500  0.06275500  1
  Al  Al23  1  0.88510800  0.13580200  0.31019700  1
  Al  Al24  1  0.38510800  0.63580200  0.18980300  1
  Al  Al25  1  0.86058400  0.12871800  0.94037400  1
  Al  Al26  1  0.13580200  0.88510800  0.68980300  1
  Al  Al27  1  0.72874300  0.72874300  0.50000000  1
  Al  Al28  1  0.12871800  0.86058400  0.05962600  1
  Al  Al29  1  0.62416000  0.37438400  0.31464200  1
  Al  Al30  1  0.09148500  0.86357300  0.56275500  1
  Al  Al31  1  0.86357300  0.09148500  0.43724500  1
  Al  Al32  1  0.25353000  0.25826300  0.25648600  1
  Al  Al33  1  0.75826300  0.75353000  0.75648600  1
  Al  Al34  1  0.22874300  0.22874300  0.00000000  1
  Al  Al35  1  0.24349000  0.24349000  0.50000000  1
  Al  Al36  1  0.63580200  0.38510800  0.81019700  1
  Al  Al37  1  0.36058400  0.62871800  0.55962600  1
  Al  Al38  1  0.25826300  0.25353000  0.74351400  1
  Al  Al39  1  0.37438400  0.62416000  0.68535800  1
  Mo  Mo40  1  0.74092400  0.26137100  0.63623300  1
  Mo  Mo41  1  0.24092400  0.76137100  0.86376700  1
  Mo  Mo42  1  0.26137100  0.74092400  0.36376700  1
  Mo  Mo43  1  0.76137100  0.24092400  0.13623300  1
  O  O44  1  0.43305800  0.60328400  0.12625200  1
  O  O45  1  0.69625700  0.17620600  0.45339100  1
  O  O46  1  0.27867000  0.55123100  0.39405000  1
  O  O47  1  0.40198000  0.25162200  0.30528400  1
  O  O48  1  0.82422700  0.43902200  0.67918800  1
  O  O49  1  0.93305800  0.10328400  0.37374800  1
  O  O50  1  0.75162200  0.90198000  0.80528400  1
  O  O51  1  0.15802700  0.94718200  0.12184300  1
  O  O52  1  0.55123100  0.27867000  0.60595000  1
  O  O53  1  0.42248200  0.32615700  0.78829600  1
  O  O54  1  0.72184000  0.56724400  0.27955400  1
  O  O55  1  0.29243400  0.08234000  0.70930200  1
  O  O56  1  0.90364600  0.26754800  0.58922400  1
  O  O57  1  0.79243400  0.58234000  0.79069800  1
  O  O58  1  0.26715300  0.40260600  0.54710600  1
  O  O59  1  0.58234000  0.79243400  0.20930200  1
  O  O60  1  0.32422700  0.93902200  0.82081200  1
  O  O61  1  0.56724400  0.72184000  0.72044600  1
  O  O62  1  0.68742700  0.05633200  0.66987200  1
  O  O63  1  0.43902200  0.82422700  0.32081200  1
  O  O64  1  0.65802700  0.44718200  0.37815700  1
  O  O65  1  0.93902200  0.32422700  0.17918800  1
  O  O66  1  0.55108400  0.73385500  0.03242100  1
  O  O67  1  0.40364600  0.76754800  0.91077600  1
  O  O68  1  0.76754800  0.40364600  0.08922400  1
  O  O69  1  0.44718200  0.65802700  0.62184300  1
  O  O70  1  0.22184000  0.06724400  0.22044600  1
  O  O71  1  0.36388100  0.29363200  0.94586500  1
  O  O72  1  0.17620600  0.69625700  0.54660900  1
  O  O73  1  0.18742700  0.55633200  0.83012800  1
  O  O74  1  0.52274400  0.74649700  0.51675700  1
  O  O75  1  0.79363200  0.86388100  0.44586500  1
  O  O76  1  0.10328400  0.93305800  0.62625200  1
  O  O77  1  0.72876500  0.22760800  0.79166600  1
  O  O78  1  0.55633200  0.18742700  0.16987200  1
  O  O79  1  0.72760800  0.22876500  0.29166600  1
  O  O80  1  0.60328400  0.43305800  0.87374800  1
  O  O81  1  0.40260600  0.26715300  0.45289400  1
  O  O82  1  0.94718200  0.15802700  0.87815700  1
  O  O83  1  0.73385500  0.55108400  0.96757900  1
  O  O84  1  0.05123100  0.77867000  0.89405000  1
  O  O85  1  0.25162200  0.40198000  0.69471600  1
  O  O86  1  0.32615700  0.42248200  0.21170400  1
  O  O87  1  0.22876500  0.72760800  0.70833400  1
  O  O88  1  0.19625700  0.67620600  0.04660900  1
  O  O89  1  0.90198000  0.75162200  0.19471600  1
  O  O90  1  0.29363200  0.36388100  0.05413500  1
  O  O91  1  0.74649700  0.52274400  0.48324300  1
  O  O92  1  0.06724400  0.22184000  0.77955400  1
  O  O93  1  0.77867000  0.05123100  0.10595000  1
  O  O94  1  0.02274400  0.24649700  0.98324300  1
  O  O95  1  0.05633200  0.68742700  0.33012800  1
  O  O96  1  0.24649700  0.02274400  0.01675700  1
  O  O97  1  0.08234000  0.29243400  0.29069800  1
  O  O98  1  0.23385500  0.05108400  0.53242100  1
  O  O99  1  0.90260600  0.76715300  0.04710600  1
  O  O100  1  0.82615700  0.92248200  0.28829600  1
  O  O101  1  0.22760800  0.72876500  0.20833400  1
  O  O102  1  0.86388100  0.79363200  0.55413500  1
  O  O103  1  0.92248200  0.82615700  0.71170400  1
  O  O104  1  0.05108400  0.23385500  0.46757900  1
  O  O105  1  0.76715300  0.90260600  0.95289400  1
  O  O106  1  0.26754800  0.90364600  0.41077600  1
  O  O107  1  0.67620600  0.19625700  0.95339100  1
