# generated using pymatgen
data_K2Zn(SO4)2
_symmetry_space_group_name_H-M   'P 1'
_cell_length_a   8.94267000
_cell_length_b   5.44336500
_cell_length_c   17.06914112
_cell_angle_alpha   73.21884049
_cell_angle_beta   90.00000000
_cell_angle_gamma   90.00000000
_symmetry_Int_Tables_number   1
_chemical_formula_structural   K2Zn(SO4)2
_chemical_formula_sum   'K8 Zn4 S8 O32'
_cell_volume   795.51124913
_cell_formula_units_Z   4
loop_
 _symmetry_equiv_pos_site_id
 _symmetry_equiv_pos_as_xyz
  1  'x, y, z'
loop_
 _atom_site_type_symbol
 _atom_site_label
 _atom_site_symmetry_multiplicity
 _atom_site_fract_x
 _atom_site_fract_y
 _atom_site_fract_z
 _atom_site_occupancy
  K  K0  1  0.85571300  0.00473800  0.72838900  1
  K  K1  1  0.82588200  0.78703500  0.47744600  1
  K  K2  1  0.35571300  0.99526200  0.77161100  1
  K  K3  1  0.67411800  0.78703500  0.97744600  1
  K  K4  1  0.14428700  0.99526200  0.27161100  1
  K  K5  1  0.17411800  0.21296500  0.52255400  1
  K  K6  1  0.32588200  0.21296500  0.02255400  1
  K  K7  1  0.64428700  0.00473800  0.22838900  1
  Zn  Zn8  1  0.02994000  0.61587500  0.13048300  1
  Zn  Zn9  1  0.97006000  0.38412500  0.86951700  1
  Zn  Zn10  1  0.47006000  0.61587500  0.63048300  1
  Zn  Zn11  1  0.52994000  0.38412500  0.36951700  1
  S  S12  1  0.38421300  0.58797000  0.17675200  1
  S  S13  1  0.89004900  0.18209200  0.07218400  1
  S  S14  1  0.11578700  0.58797000  0.67675200  1
  S  S15  1  0.60995100  0.18209200  0.57218400  1
  S  S16  1  0.10995100  0.81790800  0.92781600  1
  S  S17  1  0.39004900  0.81790800  0.42781600  1
  S  S18  1  0.88421300  0.41203000  0.32324800  1
  S  S19  1  0.61578700  0.41203000  0.82324800  1
  O  O20  1  0.61789900  0.18215200  0.48532600  1
  O  O21  1  0.23459200  0.67082800  0.90767400  1
  O  O22  1  0.04550400  0.60228100  0.75545000  1
  O  O23  1  0.37876300  0.32094700  0.17238800  1
  O  O24  1  0.96284900  0.70779000  0.90988600  1
  O  O25  1  0.53187600  0.24104600  0.89244300  1
  O  O26  1  0.03187600  0.75895400  0.60755700  1
  O  O27  1  0.26540800  0.67082800  0.40767400  1
  O  O28  1  0.38048100  0.09369700  0.37489500  1
  O  O29  1  0.76540800  0.32917200  0.09232600  1
  O  O30  1  0.11951900  0.09369700  0.87489500  1
  O  O31  1  0.95449600  0.39771900  0.24455000  1
  O  O32  1  0.45449600  0.60228100  0.25545000  1
  O  O33  1  0.53715100  0.70779000  0.40988600  1
  O  O34  1  0.61951900  0.90630300  0.62510500  1
  O  O35  1  0.88048100  0.90630300  0.12510500  1
  O  O36  1  0.77351800  0.30917300  0.82244400  1
  O  O37  1  0.46812400  0.75895400  0.10755700  1
  O  O38  1  0.27351800  0.69082700  0.67755600  1
  O  O39  1  0.62123700  0.67905300  0.82761200  1
  O  O40  1  0.12123700  0.32094700  0.67238800  1
  O  O41  1  0.73459200  0.32917200  0.59232600  1
  O  O42  1  0.54550400  0.39771900  0.74455000  1
  O  O43  1  0.46284900  0.29221000  0.59011400  1
  O  O44  1  0.11789900  0.81784800  0.01467400  1
  O  O45  1  0.96812400  0.24104600  0.39244300  1
  O  O46  1  0.87876300  0.67905300  0.32761200  1
  O  O47  1  0.88210100  0.18215200  0.98532600  1
  O  O48  1  0.22648200  0.69082700  0.17755600  1
  O  O49  1  0.38210100  0.81784800  0.51467400  1
  O  O50  1  0.72648200  0.30917300  0.32244400  1
  O  O51  1  0.03715100  0.29221000  0.09011400  1
