# generated using pymatgen
data_Eu(CuSb)2
_symmetry_space_group_name_H-M   'P 1'
_cell_length_a   4.52750300
_cell_length_b   4.52750300
_cell_length_c   10.89059200
_cell_angle_alpha   90.00000000
_cell_angle_beta   90.00000000
_cell_angle_gamma   90.00000000
_symmetry_Int_Tables_number   1
_chemical_formula_structural   Eu(CuSb)2
_chemical_formula_sum   'Eu2 Cu4 Sb4'
_cell_volume   223.23844137
_cell_formula_units_Z   2
loop_
 _symmetry_equiv_pos_site_id
 _symmetry_equiv_pos_as_xyz
  1  'x, y, z'
loop_
 _atom_site_type_symbol
 _atom_site_label
 _atom_site_symmetry_multiplicity
 _atom_site_fract_x
 _atom_site_fract_y
 _atom_site_fract_z
 _atom_site_occupancy
  Eu  Eu0  1  0.00000000  0.50000000  0.76146900  1
  Eu  Eu1  1  0.50000000  0.00000000  0.23853100  1
  Cu  Cu2  1  0.00000000  0.00000000  0.00000000  1
  Cu  Cu3  1  0.50000000  0.50000000  0.00000000  1
  Cu  Cu4  1  0.00000000  0.50000000  0.36223200  1
  Cu  Cu5  1  0.50000000  0.00000000  0.63776800  1
  Sb  Sb6  1  0.00000000  0.00000000  0.50000000  1
  Sb  Sb7  1  0.50000000  0.50000000  0.50000000  1
  Sb  Sb8  1  0.00000000  0.50000000  0.12999700  1
  Sb  Sb9  1  0.50000000  0.00000000  0.87000300  1
