# generated using pymatgen
data_Mn(PO3)2
_symmetry_space_group_name_H-M   'P 1'
_cell_length_a   7.48095123
_cell_length_b   7.48095123
_cell_length_c   10.32427399
_cell_angle_alpha   66.45614948
_cell_angle_beta   66.45614948
_cell_angle_gamma   70.04078237
_symmetry_Int_Tables_number   1
_chemical_formula_structural   Mn(PO3)2
_chemical_formula_sum   'Mn4 P8 O24'
_cell_volume   474.10472434
_cell_formula_units_Z   4
loop_
 _symmetry_equiv_pos_site_id
 _symmetry_equiv_pos_as_xyz
  1  'x, y, z'
loop_
 _atom_site_type_symbol
 _atom_site_label
 _atom_site_symmetry_multiplicity
 _atom_site_fract_x
 _atom_site_fract_y
 _atom_site_fract_z
 _atom_site_occupancy
  Mn  Mn0  1  0.00000000  0.50000000  0.50000000  1
  Mn  Mn1  1  0.50000000  0.00000000  0.00000000  1
  Mn  Mn2  1  0.54250000  0.45750000  0.75000000  1
  Mn  Mn3  1  0.45750000  0.54250000  0.25000000  1
  P  P4  1  0.80123200  0.81311100  0.69365100  1
  P  P5  1  0.18688900  0.19876800  0.80634900  1
  P  P6  1  0.19876800  0.18688900  0.30634900  1
  P  P7  1  0.81311100  0.80123200  0.19365100  1
  P  P8  1  0.75823500  0.22455600  0.47708000  1
  P  P9  1  0.77544400  0.24176500  0.02292000  1
  P  P10  1  0.24176500  0.77544400  0.52292000  1
  P  P11  1  0.22455600  0.75823500  0.97708000  1
  O  O12  1  0.03515200  0.80170100  0.65568100  1
  O  O13  1  0.19829900  0.96484800  0.84431900  1
  O  O14  1  0.96484800  0.19829900  0.34431900  1
  O  O15  1  0.80170100  0.03515200  0.15568100  1
  O  O16  1  0.73485300  0.99660300  0.56005200  1
  O  O17  1  0.00339700  0.26514700  0.93994800  1
  O  O18  1  0.26514700  0.00339700  0.43994800  1
  O  O19  1  0.99660300  0.73485300  0.06005200  1
  O  O20  1  0.69546100  0.85188100  0.83863900  1
  O  O21  1  0.14811900  0.30453900  0.66136100  1
  O  O22  1  0.30453900  0.14811900  0.16136100  1
  O  O23  1  0.85188100  0.69546100  0.33863900  1
  O  O24  1  0.78063200  0.62945400  0.67610300  1
  O  O25  1  0.37054600  0.21936800  0.82389700  1
  O  O26  1  0.21936800  0.37054600  0.32389700  1
  O  O27  1  0.62945400  0.78063200  0.17610300  1
  O  O28  1  0.78682600  0.30507200  0.57991500  1
  O  O29  1  0.69492800  0.21317400  0.92008500  1
  O  O30  1  0.21317400  0.69492800  0.42008500  1
  O  O31  1  0.30507200  0.78682600  0.07991500  1
  O  O32  1  0.40700200  0.66767400  0.58882400  1
  O  O33  1  0.33232600  0.59299800  0.91117600  1
  O  O34  1  0.59299800  0.33232600  0.41117600  1
  O  O35  1  0.66767400  0.40700200  0.08882400  1
