# generated using pymatgen
data_AlSb2(TeCl2)2
_symmetry_space_group_name_H-M   'P 1'
_cell_length_a   9.85488000
_cell_length_b   13.72276755
_cell_length_c   18.56542872
_cell_angle_alpha   77.62708848
_cell_angle_beta   88.09447922
_cell_angle_gamma   87.96360144
_symmetry_Int_Tables_number   1
_chemical_formula_structural   AlSb2(TeCl2)2
_chemical_formula_sum   'Al8 Sb16 Te16 Cl32'
_cell_volume   2450.00959887
_cell_formula_units_Z   8
loop_
 _symmetry_equiv_pos_site_id
 _symmetry_equiv_pos_as_xyz
  1  'x, y, z'
loop_
 _atom_site_type_symbol
 _atom_site_label
 _atom_site_symmetry_multiplicity
 _atom_site_fract_x
 _atom_site_fract_y
 _atom_site_fract_z
 _atom_site_occupancy
  Al  Al0  1  0.00659500  0.25197800  0.18509300  1
  Al  Al1  1  0.52940100  0.51733700  0.33149200  1
  Al  Al2  1  0.52353900  0.99617700  0.33797000  1
  Al  Al3  1  0.47059900  0.48266300  0.66850800  1
  Al  Al4  1  0.99340500  0.74802200  0.81490700  1
  Al  Al5  1  0.47646100  0.00382300  0.66203000  1
  Al  Al6  1  0.02123400  0.75808700  0.14027300  1
  Al  Al7  1  0.97876600  0.24191300  0.85972700  1
  Sb  Sb8  1  0.88139300  0.26374800  0.41674400  1
  Sb  Sb9  1  0.68355600  0.24295900  0.05220600  1
  Sb  Sb10  1  0.31644400  0.75704100  0.94779400  1
  Sb  Sb11  1  0.66341700  0.98328800  0.93709300  1
  Sb  Sb12  1  0.11860700  0.73625200  0.58325600  1
  Sb  Sb13  1  0.81394900  0.04704000  0.46494000  1
  Sb  Sb14  1  0.70471800  0.76384500  0.99578900  1
  Sb  Sb15  1  0.29528200  0.23615500  0.00421100  1
  Sb  Sb16  1  0.80782000  0.51434700  0.53234500  1
  Sb  Sb17  1  0.56646800  0.50650600  0.89586200  1
  Sb  Sb18  1  0.18605100  0.95296000  0.53506000  1
  Sb  Sb19  1  0.19218000  0.48565300  0.46765500  1
  Sb  Sb20  1  0.33658300  0.01671200  0.06290700  1
  Sb  Sb21  1  0.03774200  0.22342500  0.61611400  1
  Sb  Sb22  1  0.96225800  0.77657500  0.38388600  1
  Sb  Sb23  1  0.43353200  0.49349400  0.10413800  1
  Te  Te24  1  0.62407300  0.01787900  0.08426200  1
  Te  Te25  1  0.30465500  0.51456800  0.96435200  1
  Te  Te26  1  0.37592700  0.98212100  0.91573800  1
  Te  Te27  1  0.05580900  0.46820900  0.60951200  1
  Te  Te28  1  0.94300900  0.01546800  0.60591600  1
  Te  Te29  1  0.94419100  0.53179100  0.39048800  1
  Te  Te30  1  0.05699100  0.98453200  0.39408400  1
  Te  Te31  1  0.84774700  0.75226900  0.53023900  1
  Te  Te32  1  0.15225300  0.24773100  0.46976100  1
  Te  Te33  1  0.69534500  0.48543200  0.03564800  1
  Te  Te34  1  0.43476000  0.25887400  0.13388500  1
  Te  Te35  1  0.77531300  0.28635600  0.55879400  1
  Te  Te36  1  0.56524000  0.74112600  0.86611500  1
  Te  Te37  1  0.45810800  0.73181400  0.08315600  1
  Te  Te38  1  0.22468700  0.71364400  0.44120600  1
  Te  Te39  1  0.54189200  0.26818600  0.91684400  1
  Cl  Cl40  1  0.79275800  0.25135400  0.21582800  1
  Cl  Cl41  1  0.73249700  0.97010900  0.30256600  1
  Cl  Cl42  1  0.51302600  0.10359500  0.55649400  1
  Cl  Cl43  1  0.31729600  0.53857100  0.30197300  1
  Cl  Cl44  1  0.20724200  0.74864600  0.78417200  1
  Cl  Cl45  1  0.12180900  0.28261700  0.27416600  1
  Cl  Cl46  1  0.38624800  0.96604500  0.25821700  1
  Cl  Cl47  1  0.54617500  0.38625600  0.41947700  1
  Cl  Cl48  1  0.06639400  0.10911800  0.16196700  1
  Cl  Cl49  1  0.59882300  0.64342400  0.37031300  1
  Cl  Cl50  1  0.50179800  0.14798300  0.35000400  1
  Cl  Cl51  1  0.35393300  0.50290100  0.76493700  1
  Cl  Cl52  1  0.40117700  0.35657600  0.62968700  1
  Cl  Cl53  1  0.45382500  0.61374400  0.58052300  1
  Cl  Cl54  1  0.90653200  0.38371700  0.87985500  1
  Cl  Cl55  1  0.05256800  0.86943100  0.03901900  1
  Cl  Cl56  1  0.09346800  0.61628300  0.12014500  1
  Cl  Cl57  1  0.19323200  0.24297800  0.83184600  1
  Cl  Cl58  1  0.04169800  0.36526700  0.08683800  1
  Cl  Cl59  1  0.95830200  0.63473300  0.91316200  1
  Cl  Cl60  1  0.26750300  0.02989100  0.69743400  1
  Cl  Cl61  1  0.86625200  0.20395800  0.77219100  1
  Cl  Cl62  1  0.68270400  0.46142900  0.69802700  1
  Cl  Cl63  1  0.61375200  0.03395500  0.74178300  1
  Cl  Cl64  1  0.64606700  0.49709900  0.23506300  1
  Cl  Cl65  1  0.93360600  0.89088200  0.83803300  1
  Cl  Cl66  1  0.94743200  0.13056900  0.96098100  1
  Cl  Cl67  1  0.87819100  0.71738300  0.72583400  1
  Cl  Cl68  1  0.49820200  0.85201700  0.64999600  1
  Cl  Cl69  1  0.13374800  0.79604200  0.22780900  1
  Cl  Cl70  1  0.80676800  0.75702200  0.16815400  1
  Cl  Cl71  1  0.48697400  0.89640500  0.44350600  1
