# generated using pymatgen
data_BaCa4(CuN2)2
_symmetry_space_group_name_H-M   'P 1'
_cell_length_a   8.28299200
_cell_length_b   8.28299200
_cell_length_c   12.51500500
_cell_angle_alpha   90.00000000
_cell_angle_beta   90.00000000
_cell_angle_gamma   90.00000000
_symmetry_Int_Tables_number   1
_chemical_formula_structural   BaCa4(CuN2)2
_chemical_formula_sum   'Ba4 Ca16 Cu8 N16'
_cell_volume   858.62891829
_cell_formula_units_Z   4
loop_
 _symmetry_equiv_pos_site_id
 _symmetry_equiv_pos_as_xyz
  1  'x, y, z'
loop_
 _atom_site_type_symbol
 _atom_site_label
 _atom_site_symmetry_multiplicity
 _atom_site_fract_x
 _atom_site_fract_y
 _atom_site_fract_z
 _atom_site_occupancy
  Ba  Ba0  1  0.50000000  0.00000000  0.65549800  1
  Ba  Ba1  1  0.00000000  0.50000000  0.84450200  1
  Ba  Ba2  1  0.50000000  0.00000000  0.15549800  1
  Ba  Ba3  1  0.00000000  0.50000000  0.34450200  1
  Ca  Ca4  1  0.16684100  0.88097800  0.41270100  1
  Ca  Ca5  1  0.88097800  0.83315900  0.58729900  1
  Ca  Ca6  1  0.33315900  0.61902200  0.58729900  1
  Ca  Ca7  1  0.83315900  0.11902200  0.41270100  1
  Ca  Ca8  1  0.16684100  0.11902200  0.91270100  1
  Ca  Ca9  1  0.33315900  0.38097800  0.08729900  1
  Ca  Ca10  1  0.38097800  0.66684100  0.91270100  1
  Ca  Ca11  1  0.83315900  0.88097800  0.91270100  1
  Ca  Ca12  1  0.88097800  0.16684100  0.08729900  1
  Ca  Ca13  1  0.61902200  0.33315900  0.91270100  1
  Ca  Ca14  1  0.61902200  0.66684100  0.41270100  1
  Ca  Ca15  1  0.66684100  0.38097800  0.58729900  1
  Ca  Ca16  1  0.11902200  0.16684100  0.58729900  1
  Ca  Ca17  1  0.38097800  0.33315900  0.41270100  1
  Ca  Ca18  1  0.66684100  0.61902200  0.08729900  1
  Ca  Ca19  1  0.11902200  0.83315900  0.08729900  1
  Cu  Cu20  1  0.15303600  0.15303600  0.25000000  1
  Cu  Cu21  1  0.65303600  0.34696400  0.25000000  1
  Cu  Cu22  1  0.15303600  0.84696400  0.75000000  1
  Cu  Cu23  1  0.84696400  0.84696400  0.25000000  1
  Cu  Cu24  1  0.84696400  0.15303600  0.75000000  1
  Cu  Cu25  1  0.65303600  0.65303600  0.75000000  1
  Cu  Cu26  1  0.34696400  0.65303600  0.25000000  1
  Cu  Cu27  1  0.34696400  0.34696400  0.75000000  1
  N  N28  1  0.87440300  0.18052000  0.89690900  1
  N  N29  1  0.31948000  0.37440300  0.89690900  1
  N  N30  1  0.62559700  0.68052000  0.60309100  1
  N  N31  1  0.18052000  0.12559700  0.10309100  1
  N  N32  1  0.31948000  0.62559700  0.39690900  1
  N  N33  1  0.18052000  0.87440300  0.60309100  1
  N  N34  1  0.68052000  0.62559700  0.89690900  1
  N  N35  1  0.81948000  0.12559700  0.60309100  1
  N  N36  1  0.81948000  0.87440300  0.10309100  1
  N  N37  1  0.12559700  0.18052000  0.39690900  1
  N  N38  1  0.87440300  0.81948000  0.39690900  1
  N  N39  1  0.68052000  0.37440300  0.39690900  1
  N  N40  1  0.62559700  0.31948000  0.10309100  1
  N  N41  1  0.12559700  0.81948000  0.89690900  1
  N  N42  1  0.37440300  0.31948000  0.60309100  1
  N  N43  1  0.37440300  0.68052000  0.10309100  1
