# generated using pymatgen
data_TlPt2Se3
_symmetry_space_group_name_H-M   'P 1'
_cell_length_a   7.57321562
_cell_length_b   7.57321562
_cell_length_c   6.00833600
_cell_angle_alpha   90.00000000
_cell_angle_beta   90.00000000
_cell_angle_gamma   119.99999664
_symmetry_Int_Tables_number   1
_chemical_formula_structural   TlPt2Se3
_chemical_formula_sum   'Tl2 Pt4 Se6'
_cell_volume   298.43207681
_cell_formula_units_Z   2
loop_
 _symmetry_equiv_pos_site_id
 _symmetry_equiv_pos_as_xyz
  1  'x, y, z'
loop_
 _atom_site_type_symbol
 _atom_site_label
 _atom_site_symmetry_multiplicity
 _atom_site_fract_x
 _atom_site_fract_y
 _atom_site_fract_z
 _atom_site_occupancy
  Tl  Tl0  1  0.33333300  0.66666700  0.34812800  1
  Tl  Tl1  1  0.66666700  0.33333300  0.65187200  1
  Pt  Pt2  1  0.00000000  0.00000000  0.00000000  1
  Pt  Pt3  1  0.50000000  0.00000000  0.00000000  1
  Pt  Pt4  1  0.00000000  0.50000000  0.00000000  1
  Pt  Pt5  1  0.50000000  0.50000000  0.00000000  1
  Se  Se6  1  0.16982700  0.83017300  0.79295900  1
  Se  Se7  1  0.16982700  0.33965400  0.79295900  1
  Se  Se8  1  0.66034600  0.83017300  0.79295900  1
  Se  Se9  1  0.33965400  0.16982700  0.20704100  1
  Se  Se10  1  0.83017300  0.66034600  0.20704100  1
  Se  Se11  1  0.83017300  0.16982700  0.20704100  1
