# generated using pymatgen
data_KUSi2O7
_symmetry_space_group_name_H-M   'P 1'
_cell_length_a   9.25878600
_cell_length_b   9.25878600
_cell_length_c   8.35931400
_cell_angle_alpha   90.00000000
_cell_angle_beta   90.00000000
_cell_angle_gamma   90.00000000
_symmetry_Int_Tables_number   1
_chemical_formula_structural   KUSi2O7
_chemical_formula_sum   'K4 U4 Si8 O28'
_cell_volume   716.60318067
_cell_formula_units_Z   4
loop_
 _symmetry_equiv_pos_site_id
 _symmetry_equiv_pos_as_xyz
  1  'x, y, z'
loop_
 _atom_site_type_symbol
 _atom_site_label
 _atom_site_symmetry_multiplicity
 _atom_site_fract_x
 _atom_site_fract_y
 _atom_site_fract_z
 _atom_site_occupancy
  K  K0  1  0.17877000  0.32123000  0.50000000  1
  K  K1  1  0.32123000  0.82123000  0.50000000  1
  K  K2  1  0.82123000  0.67877000  0.50000000  1
  K  K3  1  0.67877000  0.17877000  0.50000000  1
  U  U4  1  0.00000000  0.00000000  0.75041400  1
  U  U5  1  0.50000000  0.50000000  0.75041400  1
  U  U6  1  0.00000000  0.00000000  0.24958600  1
  U  U7  1  0.50000000  0.50000000  0.24958600  1
  Si  Si8  1  0.11983400  0.61983400  0.80559800  1
  Si  Si9  1  0.38016600  0.11983400  0.19440200  1
  Si  Si10  1  0.61983400  0.88016600  0.80559800  1
  Si  Si11  1  0.11983400  0.61983400  0.19440200  1
  Si  Si12  1  0.38016600  0.11983400  0.80559800  1
  Si  Si13  1  0.61983400  0.88016600  0.19440200  1
  Si  Si14  1  0.88016600  0.38016600  0.80559800  1
  Si  Si15  1  0.88016600  0.38016600  0.19440200  1
  O  O16  1  0.87846400  0.37846400  0.00000000  1
  O  O17  1  0.27613500  0.57296800  0.73263600  1
  O  O18  1  0.57296800  0.72386500  0.26736400  1
  O  O19  1  0.50000000  0.50000000  0.00000000  1
  O  O20  1  0.12153600  0.62153600  0.00000000  1
  O  O21  1  0.92703200  0.22386500  0.73263600  1
  O  O22  1  0.57296800  0.72386500  0.73263600  1
  O  O23  1  0.07296800  0.77613500  0.73263600  1
  O  O24  1  0.50000000  0.00000000  0.74220400  1
  O  O25  1  0.00000000  0.50000000  0.25779600  1
  O  O26  1  0.00000000  0.50000000  0.74220400  1
  O  O27  1  0.62153600  0.87846400  0.00000000  1
  O  O28  1  0.72386500  0.42703200  0.26736400  1
  O  O29  1  0.77613500  0.92703200  0.26736400  1
  O  O30  1  0.22386500  0.07296800  0.26736400  1
  O  O31  1  0.37846400  0.12153600  0.00000000  1
  O  O32  1  0.42703200  0.27613500  0.73263600  1
  O  O33  1  0.50000000  0.00000000  0.25779600  1
  O  O34  1  0.77613500  0.92703200  0.73263600  1
  O  O35  1  0.92703200  0.22386500  0.26736400  1
  O  O36  1  0.22386500  0.07296800  0.73263600  1
  O  O37  1  0.72386500  0.42703200  0.73263600  1
  O  O38  1  0.27613500  0.57296800  0.26736400  1
  O  O39  1  0.42703200  0.27613500  0.26736400  1
  O  O40  1  0.00000000  0.00000000  0.50000000  1
  O  O41  1  0.07296800  0.77613500  0.26736400  1
  O  O42  1  0.00000000  0.00000000  0.00000000  1
  O  O43  1  0.50000000  0.50000000  0.50000000  1
