# generated using pymatgen
data_Pr4Te3N2
_symmetry_space_group_name_H-M   'P 1'
_cell_length_a   7.47471700
_cell_length_b   11.52857700
_cell_length_c   11.85068700
_cell_angle_alpha   90.00000000
_cell_angle_beta   90.00000000
_cell_angle_gamma   90.00000000
_symmetry_Int_Tables_number   1
_chemical_formula_structural   Pr4Te3N2
_chemical_formula_sum   'Pr16 Te12 N8'
_cell_volume   1021.20747903
_cell_formula_units_Z   4
loop_
 _symmetry_equiv_pos_site_id
 _symmetry_equiv_pos_as_xyz
  1  'x, y, z'
loop_
 _atom_site_type_symbol
 _atom_site_label
 _atom_site_symmetry_multiplicity
 _atom_site_fract_x
 _atom_site_fract_y
 _atom_site_fract_z
 _atom_site_occupancy
  Pr  Pr0  1  0.85430500  0.60976400  0.45000500  1
  Pr  Pr1  1  0.14569500  0.39023600  0.54999500  1
  Pr  Pr2  1  0.09021900  0.65950700  0.75000000  1
  Pr  Pr3  1  0.22797500  0.03102900  0.75000000  1
  Pr  Pr4  1  0.27202500  0.53102900  0.25000000  1
  Pr  Pr5  1  0.40978100  0.15950700  0.25000000  1
  Pr  Pr6  1  0.14569500  0.39023600  0.95000500  1
  Pr  Pr7  1  0.77202500  0.96897100  0.25000000  1
  Pr  Pr8  1  0.72797500  0.46897100  0.75000000  1
  Pr  Pr9  1  0.59021900  0.84049300  0.75000000  1
  Pr  Pr10  1  0.35430500  0.89023600  0.45000500  1
  Pr  Pr11  1  0.64569500  0.10976400  0.95000500  1
  Pr  Pr12  1  0.35430500  0.89023600  0.04999500  1
  Pr  Pr13  1  0.90978100  0.34049300  0.25000000  1
  Pr  Pr14  1  0.85430500  0.60976400  0.04999500  1
  Pr  Pr15  1  0.64569500  0.10976400  0.54999500  1
  Te  Te16  1  0.91761800  0.22713200  0.75000000  1
  Te  Te17  1  0.08238200  0.77286800  0.25000000  1
  Te  Te18  1  0.56610600  0.36460800  0.42127900  1
  Te  Te19  1  0.06610600  0.13539200  0.07872100  1
  Te  Te20  1  0.41761800  0.27286800  0.75000000  1
  Te  Te21  1  0.58238200  0.72713200  0.25000000  1
  Te  Te22  1  0.56610600  0.36460800  0.07872100  1
  Te  Te23  1  0.43389400  0.63539200  0.57872100  1
  Te  Te24  1  0.93389400  0.86460800  0.92127900  1
  Te  Te25  1  0.93389400  0.86460800  0.57872100  1
  Te  Te26  1  0.06610600  0.13539200  0.42127900  1
  Te  Te27  1  0.43389400  0.63539200  0.92127900  1
  N  N28  1  0.05357500  0.46713400  0.37810400  1
  N  N29  1  0.55357500  0.03286600  0.12189600  1
  N  N30  1  0.44642500  0.96713400  0.62189600  1
  N  N31  1  0.94642500  0.53286600  0.62189600  1
  N  N32  1  0.94642500  0.53286600  0.87810400  1
  N  N33  1  0.44642500  0.96713400  0.87810400  1
  N  N34  1  0.55357500  0.03286600  0.37810400  1
  N  N35  1  0.05357500  0.46713400  0.12189600  1
