# generated using pymatgen
data_Sm6Si4S17
_symmetry_space_group_name_H-M   'P 1'
_cell_length_a   8.93801800
_cell_length_b   9.89135247
_cell_length_c   14.17923087
_cell_angle_alpha   82.03676331
_cell_angle_beta   87.33921562
_cell_angle_gamma   88.98518570
_symmetry_Int_Tables_number   1
_chemical_formula_structural   Sm6Si4S17
_chemical_formula_sum   'Sm12 Si8 S34'
_cell_volume   1240.06577079
_cell_formula_units_Z   2
loop_
 _symmetry_equiv_pos_site_id
 _symmetry_equiv_pos_as_xyz
  1  'x, y, z'
loop_
 _atom_site_type_symbol
 _atom_site_label
 _atom_site_symmetry_multiplicity
 _atom_site_fract_x
 _atom_site_fract_y
 _atom_site_fract_z
 _atom_site_occupancy
  Sm  Sm0  1  0.91284000  0.91893100  0.83449400  1
  Sm  Sm1  1  0.66459000  0.59115000  0.65768100  1
  Sm  Sm2  1  0.08716000  0.08106900  0.16550600  1
  Sm  Sm3  1  0.01206100  0.76646500  0.46380200  1
  Sm  Sm4  1  0.36361000  0.06051400  0.67827600  1
  Sm  Sm5  1  0.44996700  0.73761900  0.00202400  1
  Sm  Sm6  1  0.10593400  0.38389600  0.81419500  1
  Sm  Sm7  1  0.63639000  0.93948600  0.32172400  1
  Sm  Sm8  1  0.98793900  0.23353500  0.53619800  1
  Sm  Sm9  1  0.55003300  0.26238100  0.99797600  1
  Sm  Sm10  1  0.89406600  0.61610400  0.18580500  1
  Sm  Sm11  1  0.33541000  0.40885000  0.34231900  1
  Si  Si12  1  0.76797000  0.56052200  0.90055200  1
  Si  Si13  1  0.24843300  0.05924000  0.92256400  1
  Si  Si14  1  0.23203000  0.43947800  0.09944800  1
  Si  Si15  1  0.72061700  0.94391300  0.60727000  1
  Si  Si16  1  0.75000500  0.49947800  0.41642900  1
  Si  Si17  1  0.24999500  0.50052200  0.58357100  1
  Si  Si18  1  0.75156700  0.94076000  0.07743600  1
  Si  Si19  1  0.27938300  0.05608700  0.39273000  1
  S  S20  1  0.48752700  0.15388400  0.39746400  1
  S  S21  1  0.70014000  0.69509300  0.45894300  1
  S  S22  1  0.69712500  0.36554700  0.54174100  1
  S  S23  1  0.65887000  0.00050000  0.94240600  1
  S  S24  1  0.99132100  0.62563900  0.88345200  1
  S  S25  1  0.10947300  0.20269300  0.34311700  1
  S  S26  1  0.00867900  0.37436100  0.11654800  1
  S  S27  1  0.98589900  0.50899500  0.37738300  1
  S  S28  1  0.64476900  0.46709000  0.29192900  1
  S  S29  1  0.34113000  0.99950000  0.05759400  1
  S  S30  1  0.32207200  0.48302100  0.95571800  1
  S  S31  1  0.81641100  0.02126100  0.46878600  1
  S  S32  1  0.68640700  0.08747600  0.70260400  1
  S  S33  1  0.74923700  0.38369100  0.83066000  1
  S  S34  1  0.37025200  0.28000700  0.16653700  1
  S  S35  1  0.74486200  0.11883500  0.14907000  1
  S  S36  1  0.51247300  0.84611600  0.60253600  1
  S  S37  1  0.67792800  0.51697900  0.04428200  1
  S  S38  1  0.29986000  0.30490700  0.54105700  1
  S  S39  1  0.93733600  0.85859800  0.27974600  1
  S  S40  1  0.03807000  0.15100700  0.95211300  1
  S  S41  1  0.62000400  0.78620800  0.16242800  1
  S  S42  1  0.96193000  0.84899300  0.04788700  1
  S  S43  1  0.25076300  0.61630900  0.16934000  1
  S  S44  1  0.01410100  0.49100500  0.62261700  1
  S  S45  1  0.62974800  0.71999300  0.83346300  1
  S  S46  1  0.25513800  0.88116500  0.85093000  1
  S  S47  1  0.37999600  0.21379200  0.83757200  1
  S  S48  1  0.31359300  0.91252400  0.29739600  1
  S  S49  1  0.89052700  0.79730700  0.65688300  1
  S  S50  1  0.35523100  0.53291000  0.70807100  1
  S  S51  1  0.18358900  0.97873900  0.53121400  1
  S  S52  1  0.06266400  0.14140200  0.72025400  1
  S  S53  1  0.30287500  0.63445300  0.45825900  1
