# generated using pymatgen
data_Li2SiO3
_symmetry_space_group_name_H-M   'P 1'
_cell_length_a   5.45951260
_cell_length_b   5.45951260
_cell_length_c   4.71962200
_cell_angle_alpha   90.00000000
_cell_angle_beta   90.00000000
_cell_angle_gamma   120.23631707
_symmetry_Int_Tables_number   1
_chemical_formula_structural   Li2SiO3
_chemical_formula_sum   'Li4 Si2 O6'
_cell_volume   121.53643146
_cell_formula_units_Z   2
loop_
 _symmetry_equiv_pos_site_id
 _symmetry_equiv_pos_as_xyz
  1  'x, y, z'
loop_
 _atom_site_type_symbol
 _atom_site_label
 _atom_site_symmetry_multiplicity
 _atom_site_fract_x
 _atom_site_fract_y
 _atom_site_fract_z
 _atom_site_occupancy
  Li  Li0  1  0.48200100  0.82953500  0.99429900  1
  Li  Li1  1  0.51799900  0.17046500  0.49429900  1
  Li  Li2  1  0.17046500  0.51799900  0.49429900  1
  Li  Li3  1  0.82953400  0.48200100  0.99429900  1
  Si  Si4  1  0.82827700  0.82827700  0.49953700  1
  Si  Si5  1  0.17172300  0.17172300  0.99953700  1
  O  O6  1  0.88521400  0.88521400  0.14541500  1
  O  O7  1  0.83577900  0.54542600  0.58082600  1
  O  O8  1  0.54542600  0.83577900  0.58082600  1
  O  O9  1  0.11478600  0.11478600  0.64541500  1
  O  O10  1  0.45457400  0.16422100  0.08082600  1
  O  O11  1  0.16422100  0.45457400  0.08082600  1
