# generated using pymatgen
data_Na2VPO6
_symmetry_space_group_name_H-M   'P 1'
_cell_length_a   12.57701500
_cell_length_b   6.28335300
_cell_length_c   8.27543598
_cell_angle_alpha   61.23147779
_cell_angle_beta   90.00000000
_cell_angle_gamma   90.00000000
_symmetry_Int_Tables_number   1
_chemical_formula_structural   Na2VPO6
_chemical_formula_sum   'Na8 V4 P4 O24'
_cell_volume   573.25404528
_cell_formula_units_Z   4
loop_
 _symmetry_equiv_pos_site_id
 _symmetry_equiv_pos_as_xyz
  1  'x, y, z'
loop_
 _atom_site_type_symbol
 _atom_site_label
 _atom_site_symmetry_multiplicity
 _atom_site_fract_x
 _atom_site_fract_y
 _atom_site_fract_z
 _atom_site_occupancy
  Na  Na0  1  0.07351200  0.73768000  0.06854100  1
  Na  Na1  1  0.14186100  0.88645000  0.42506400  1
  Na  Na2  1  0.64186100  0.11355000  0.07493600  1
  Na  Na3  1  0.35813900  0.88645000  0.92506400  1
  Na  Na4  1  0.57351200  0.26232000  0.43145900  1
  Na  Na5  1  0.85813900  0.11355000  0.57493600  1
  Na  Na6  1  0.92648800  0.26232000  0.93145900  1
  Na  Na7  1  0.42648800  0.73768000  0.56854100  1
  V  V8  1  0.78223000  0.59245100  0.12280500  1
  V  V9  1  0.28223000  0.40754900  0.37719500  1
  V  V10  1  0.21777000  0.40754900  0.87719500  1
  V  V11  1  0.71777000  0.59245100  0.62280500  1
  P  P12  1  0.88667500  0.78905200  0.30378400  1
  P  P13  1  0.11332500  0.21094800  0.69621600  1
  P  P14  1  0.61332500  0.78905200  0.80378400  1
  P  P15  1  0.38667500  0.21094800  0.19621600  1
  O  O16  1  0.65582100  0.77759100  0.98458200  1
  O  O17  1  0.89115400  0.52663800  0.32154200  1
  O  O18  1  0.30178300  0.09728800  0.35488900  1
  O  O19  1  0.80178300  0.90271200  0.14511100  1
  O  O20  1  0.27716600  0.67814200  0.76268900  1
  O  O21  1  0.10884600  0.47336200  0.67845800  1
  O  O22  1  0.00855700  0.07611700  0.75532900  1
  O  O23  1  0.72283400  0.32185800  0.23731100  1
  O  O24  1  0.35941100  0.40925000  0.53948700  1
  O  O25  1  0.69821700  0.90271200  0.64511100  1
  O  O26  1  0.14058900  0.40925000  0.03948700  1
  O  O27  1  0.64058900  0.59075000  0.46051300  1
  O  O28  1  0.85941100  0.59075000  0.96051300  1
  O  O29  1  0.34417900  0.22240900  0.01541800  1
  O  O30  1  0.22283400  0.67814200  0.26268900  1
  O  O31  1  0.50855700  0.92388300  0.74467100  1
  O  O32  1  0.15582100  0.22240900  0.51541800  1
  O  O33  1  0.77716600  0.32185800  0.73731100  1
  O  O34  1  0.49144300  0.07611700  0.25532900  1
  O  O35  1  0.19821700  0.09728800  0.85488900  1
  O  O36  1  0.60884600  0.52663800  0.82154200  1
  O  O37  1  0.99144300  0.92388300  0.24467100  1
  O  O38  1  0.39115400  0.47336200  0.17845800  1
  O  O39  1  0.84417900  0.77759100  0.48458200  1
