# generated using pymatgen
data_SnCl2
_symmetry_space_group_name_H-M   'P 1'
_cell_length_a   4.35374300
_cell_length_b   8.04588500
_cell_length_c   10.05593600
_cell_angle_alpha   90.00000000
_cell_angle_beta   90.00000000
_cell_angle_gamma   90.00000000
_symmetry_Int_Tables_number   1
_chemical_formula_structural   SnCl2
_chemical_formula_sum   'Sn4 Cl8'
_cell_volume   352.25657714
_cell_formula_units_Z   4
loop_
 _symmetry_equiv_pos_site_id
 _symmetry_equiv_pos_as_xyz
  1  'x, y, z'
loop_
 _atom_site_type_symbol
 _atom_site_label
 _atom_site_symmetry_multiplicity
 _atom_site_fract_x
 _atom_site_fract_y
 _atom_site_fract_z
 _atom_site_occupancy
  Sn  Sn0  1  0.75000000  0.27148700  0.05123400  1
  Sn  Sn1  1  0.25000000  0.72851300  0.94876600  1
  Sn  Sn2  1  0.25000000  0.22851300  0.55123400  1
  Sn  Sn3  1  0.75000000  0.77148700  0.44876600  1
  Cl  Cl4  1  0.25000000  0.00922700  0.35733800  1
  Cl  Cl5  1  0.25000000  0.64712900  0.58856900  1
  Cl  Cl6  1  0.25000000  0.50922700  0.14266200  1
  Cl  Cl7  1  0.75000000  0.99077300  0.64266200  1
  Cl  Cl8  1  0.75000000  0.35287100  0.41143100  1
  Cl  Cl9  1  0.75000000  0.85287100  0.08856900  1
  Cl  Cl10  1  0.25000000  0.14712900  0.91143100  1
  Cl  Cl11  1  0.75000000  0.49077300  0.85733800  1
