# generated using pymatgen
data_LaCN2F
_symmetry_space_group_name_H-M   'P 1'
_cell_length_a   4.80140634
_cell_length_b   4.80140634
_cell_length_c   7.86634900
_cell_angle_alpha   90.00000000
_cell_angle_beta   90.00000000
_cell_angle_gamma   132.10196860
_symmetry_Int_Tables_number   1
_chemical_formula_structural   LaCN2F
_chemical_formula_sum   'La2 C2 N4 F2'
_cell_volume   134.55084063
_cell_formula_units_Z   2
loop_
 _symmetry_equiv_pos_site_id
 _symmetry_equiv_pos_as_xyz
  1  'x, y, z'
loop_
 _atom_site_type_symbol
 _atom_site_label
 _atom_site_symmetry_multiplicity
 _atom_site_fract_x
 _atom_site_fract_y
 _atom_site_fract_z
 _atom_site_occupancy
  La  La0  1  0.22218400  0.77781600  0.25000000  1
  La  La1  1  0.77781600  0.22218400  0.75000000  1
  C  C2  1  0.50000000  0.50000000  0.50000000  1
  C  C3  1  0.50000000  0.50000000  0.00000000  1
  N  N4  1  0.63207600  0.36792400  0.05261900  1
  N  N5  1  0.36792400  0.63207600  0.55261900  1
  N  N6  1  0.63207600  0.36792400  0.44738100  1
  N  N7  1  0.36792400  0.63207600  0.94738100  1
  F  F8  1  0.08119000  0.91881000  0.75000000  1
  F  F9  1  0.91881000  0.08119000  0.25000000  1
