# generated using pymatgen
data_Pb3(ClO)2
_symmetry_space_group_name_H-M   'P 1'
_cell_length_a   5.94607400
_cell_length_b   9.81549000
_cell_length_c   12.12510300
_cell_angle_alpha   90.00000000
_cell_angle_beta   90.00000000
_cell_angle_gamma   90.00000000
_symmetry_Int_Tables_number   1
_chemical_formula_structural   Pb3(ClO)2
_chemical_formula_sum   'Pb12 Cl8 O8'
_cell_volume   707.66502382
_cell_formula_units_Z   4
loop_
 _symmetry_equiv_pos_site_id
 _symmetry_equiv_pos_as_xyz
  1  'x, y, z'
loop_
 _atom_site_type_symbol
 _atom_site_label
 _atom_site_symmetry_multiplicity
 _atom_site_fract_x
 _atom_site_fract_y
 _atom_site_fract_z
 _atom_site_occupancy
  Pb  Pb0  1  0.25000000  0.07861300  0.08118500  1
  Pb  Pb1  1  0.75000000  0.92138700  0.91881500  1
  Pb  Pb2  1  0.75000000  0.57861300  0.41881500  1
  Pb  Pb3  1  0.25000000  0.42138700  0.58118500  1
  Pb  Pb4  1  0.25000000  0.36404600  0.28502500  1
  Pb  Pb5  1  0.75000000  0.63595400  0.71497500  1
  Pb  Pb6  1  0.75000000  0.86404600  0.21497500  1
  Pb  Pb7  1  0.25000000  0.13595400  0.78502500  1
  Pb  Pb8  1  0.25000000  0.79311800  0.56264400  1
  Pb  Pb9  1  0.75000000  0.20688200  0.43735600  1
  Pb  Pb10  1  0.75000000  0.29311800  0.93735600  1
  Pb  Pb11  1  0.25000000  0.70688200  0.06264400  1
  Cl  Cl12  1  0.25000000  0.08596400  0.36402800  1
  Cl  Cl13  1  0.75000000  0.91403600  0.63597200  1
  Cl  Cl14  1  0.75000000  0.58596400  0.13597200  1
  Cl  Cl15  1  0.25000000  0.41403600  0.86402800  1
  Cl  Cl16  1  0.25000000  0.80863500  0.80845500  1
  Cl  Cl17  1  0.75000000  0.19136500  0.19154500  1
  Cl  Cl18  1  0.75000000  0.30863500  0.69154500  1
  Cl  Cl19  1  0.25000000  0.69136500  0.30845500  1
  O  O20  1  0.99478300  0.38671100  0.42119400  1
  O  O21  1  0.49478300  0.61328900  0.57880600  1
  O  O22  1  0.00521700  0.88671100  0.07880600  1
  O  O23  1  0.50521700  0.11328900  0.92119400  1
  O  O24  1  0.00521700  0.61328900  0.57880600  1
  O  O25  1  0.50521700  0.38671100  0.42119400  1
  O  O26  1  0.99478300  0.11328900  0.92119400  1
  O  O27  1  0.49478300  0.88671100  0.07880600  1
