# generated using pymatgen
data_Na10Co4O9
_symmetry_space_group_name_H-M   'P 1'
_cell_length_a   8.43118000
_cell_length_b   8.52508763
_cell_length_c   11.48275080
_cell_angle_alpha   86.37807060
_cell_angle_beta   110.19433686
_cell_angle_gamma   118.80406272
_symmetry_Int_Tables_number   1
_chemical_formula_structural   Na10Co4O9
_chemical_formula_sum   'Na20 Co8 O18'
_cell_volume   673.40418165
_cell_formula_units_Z   2
loop_
 _symmetry_equiv_pos_site_id
 _symmetry_equiv_pos_as_xyz
  1  'x, y, z'
loop_
 _atom_site_type_symbol
 _atom_site_label
 _atom_site_symmetry_multiplicity
 _atom_site_fract_x
 _atom_site_fract_y
 _atom_site_fract_z
 _atom_site_occupancy
  Na  Na0  1  0.86126300  0.67747400  0.11953400  1
  Na  Na1  1  0.62970000  0.83765900  0.36330700  1
  Na  Na2  1  0.47618000  0.57494900  0.12187600  1
  Na  Na3  1  0.37030000  0.16234100  0.63669300  1
  Na  Na4  1  0.65270400  0.58002900  0.62707700  1
  Na  Na5  1  0.17345500  0.65912800  0.37066900  1
  Na  Na6  1  0.09872000  0.77441400  0.61849300  1
  Na  Na7  1  0.34729600  0.41997100  0.37292300  1
  Na  Na8  1  0.00534700  0.36974300  0.14385500  1
  Na  Na9  1  0.73343100  0.97506300  0.11399100  1
  Na  Na10  1  0.84471100  0.88652300  0.88575400  1
  Na  Na11  1  0.52382000  0.42505100  0.87812400  1
  Na  Na12  1  0.13873700  0.32252600  0.88046600  1
  Na  Na13  1  0.82654500  0.34087200  0.62933100  1
  Na  Na14  1  0.50175000  0.88457300  0.60838300  1
  Na  Na15  1  0.49825000  0.11542700  0.39161700  1
  Na  Na16  1  0.15528900  0.11347700  0.11424600  1
  Na  Na17  1  0.26656900  0.02493700  0.88600900  1
  Na  Na18  1  0.99465300  0.63025700  0.85614500  1
  Na  Na19  1  0.90128000  0.22558600  0.38150700  1
  Co  Co20  1  0.57570900  0.24711700  0.15011300  1
  Co  Co21  1  0.42429100  0.75288300  0.84988700  1
  Co  Co22  1  0.93692500  0.03297800  0.64406500  1
  Co  Co23  1  0.29048300  0.81230700  0.14316200  1
  Co  Co24  1  0.70951700  0.18769300  0.85683800  1
  Co  Co25  1  0.06307500  0.96702200  0.35593500  1
  Co  Co26  1  0.24155100  0.46493900  0.65084000  1
  Co  Co27  1  0.75844900  0.53506100  0.34916000  1
  O  O28  1  0.55306900  0.03192100  0.21433900  1
  O  O29  1  0.84121900  0.43560800  0.24817800  1
  O  O30  1  0.35140300  0.57072000  0.53773200  1
  O  O31  1  0.25105800  0.93408700  0.47332700  1
  O  O32  1  0.09238700  0.83210000  0.02791900  1
  O  O33  1  0.64859700  0.42928000  0.46226800  1
  O  O34  1  0.20178000  0.24486500  0.71674600  1
  O  O35  1  0.94009300  0.84261400  0.72553300  1
  O  O36  1  0.15878100  0.56439200  0.75182200  1
  O  O37  1  0.44693100  0.96807900  0.78566100  1
  O  O38  1  0.30967100  0.62762400  0.22719000  1
  O  O39  1  0.05990700  0.15738600  0.27446700  1
  O  O40  1  0.39820800  0.29142100  0.03361700  1
  O  O41  1  0.69032900  0.37237600  0.77281000  1
  O  O42  1  0.74894200  0.06591300  0.52667300  1
  O  O43  1  0.79822000  0.75513500  0.28325400  1
  O  O44  1  0.90761300  0.16790000  0.97208100  1
  O  O45  1  0.60179200  0.70857900  0.96638300  1
