# generated using pymatgen
data_KZrVF7
_symmetry_space_group_name_H-M   'P 1'
_cell_length_a   6.61504800
_cell_length_b   8.07624100
_cell_length_c   11.34950200
_cell_angle_alpha   90.00000000
_cell_angle_beta   90.00000000
_cell_angle_gamma   90.00000000
_symmetry_Int_Tables_number   1
_chemical_formula_structural   KZrVF7
_chemical_formula_sum   'K4 Zr4 V4 F28'
_cell_volume   606.34398776
_cell_formula_units_Z   4
loop_
 _symmetry_equiv_pos_site_id
 _symmetry_equiv_pos_as_xyz
  1  'x, y, z'
loop_
 _atom_site_type_symbol
 _atom_site_label
 _atom_site_symmetry_multiplicity
 _atom_site_fract_x
 _atom_site_fract_y
 _atom_site_fract_z
 _atom_site_occupancy
  K  K0  1  0.26341400  0.00000000  0.25000000  1
  K  K1  1  0.73658600  0.00000000  0.75000000  1
  K  K2  1  0.23658600  0.50000000  0.25000000  1
  K  K3  1  0.76341400  0.50000000  0.75000000  1
  Zr  Zr4  1  0.75000000  0.75000000  0.40683500  1
  Zr  Zr5  1  0.25000000  0.25000000  0.59316500  1
  Zr  Zr6  1  0.25000000  0.75000000  0.90683500  1
  Zr  Zr7  1  0.75000000  0.25000000  0.09316500  1
  V  V8  1  0.75000000  0.25000000  0.40225900  1
  V  V9  1  0.25000000  0.25000000  0.90225900  1
  V  V10  1  0.25000000  0.75000000  0.59774100  1
  V  V11  1  0.75000000  0.75000000  0.09774100  1
  F  F12  1  0.05124900  0.19444100  0.04350000  1
  F  F13  1  0.05124900  0.80555900  0.45650000  1
  F  F14  1  0.44875100  0.69444100  0.45650000  1
  F  F15  1  0.44875100  0.30555900  0.04350000  1
  F  F16  1  0.94875100  0.80555900  0.95650000  1
  F  F17  1  0.94875100  0.19444100  0.54350000  1
  F  F18  1  0.55124900  0.30555900  0.54350000  1
  F  F19  1  0.55124900  0.69444100  0.95650000  1
  F  F20  1  0.25000000  0.75000000  0.08591000  1
  F  F21  1  0.25000000  0.25000000  0.41409000  1
  F  F22  1  0.75000000  0.25000000  0.91409000  1
  F  F23  1  0.75000000  0.75000000  0.58591000  1
  F  F24  1  0.93066500  0.78817600  0.25038300  1
  F  F25  1  0.93066500  0.21182400  0.24961700  1
  F  F26  1  0.56933500  0.28817600  0.24961700  1
  F  F27  1  0.56933500  0.71182400  0.25038300  1
  F  F28  1  0.06933500  0.21182400  0.74961700  1
  F  F29  1  0.06933500  0.78817600  0.75038300  1
  F  F30  1  0.43066500  0.71182400  0.75038300  1
  F  F31  1  0.43066500  0.28817600  0.74961700  1
  F  F32  1  0.66756200  0.00412700  0.10206900  1
  F  F33  1  0.66756200  0.99587300  0.39793100  1
  F  F34  1  0.83243800  0.50412700  0.39793100  1
  F  F35  1  0.83243800  0.49587300  0.10206900  1
  F  F36  1  0.33243800  0.99587300  0.89793100  1
  F  F37  1  0.33243800  0.00412700  0.60206900  1
  F  F38  1  0.16756200  0.49587300  0.60206900  1
  F  F39  1  0.16756200  0.50412700  0.89793100  1
