# generated using pymatgen
data_Sr3MgGeN4
_symmetry_space_group_name_H-M   'P 1'
_cell_length_a   5.99256900
_cell_length_b   9.69183100
_cell_length_c   10.41232900
_cell_angle_alpha   90.00000000
_cell_angle_beta   90.00000000
_cell_angle_gamma   90.00000000
_symmetry_Int_Tables_number   1
_chemical_formula_structural   Sr3MgGeN4
_chemical_formula_sum   'Sr12 Mg4 Ge4 N16'
_cell_volume   604.73730201
_cell_formula_units_Z   4
loop_
 _symmetry_equiv_pos_site_id
 _symmetry_equiv_pos_as_xyz
  1  'x, y, z'
loop_
 _atom_site_type_symbol
 _atom_site_label
 _atom_site_symmetry_multiplicity
 _atom_site_fract_x
 _atom_site_fract_y
 _atom_site_fract_z
 _atom_site_occupancy
  Sr  Sr0  1  0.75000000  0.40727800  0.00000000  1
  Sr  Sr1  1  0.11257800  0.90971100  0.84685200  1
  Sr  Sr2  1  0.38742200  0.59028900  0.34685200  1
  Sr  Sr3  1  0.88742200  0.09028900  0.15314800  1
  Sr  Sr4  1  0.88742200  0.40971100  0.34685200  1
  Sr  Sr5  1  0.75000000  0.09272200  0.50000000  1
  Sr  Sr6  1  0.38742200  0.90971100  0.15314800  1
  Sr  Sr7  1  0.61257800  0.40971100  0.65314800  1
  Sr  Sr8  1  0.25000000  0.59272200  0.00000000  1
  Sr  Sr9  1  0.11257800  0.59028900  0.65314800  1
  Sr  Sr10  1  0.61257800  0.09028900  0.84685200  1
  Sr  Sr11  1  0.25000000  0.90727800  0.50000000  1
  Mg  Mg12  1  0.15695900  0.25000000  0.75000000  1
  Mg  Mg13  1  0.84304100  0.75000000  0.25000000  1
  Mg  Mg14  1  0.34304100  0.25000000  0.25000000  1
  Mg  Mg15  1  0.65695900  0.75000000  0.75000000  1
  Ge  Ge16  1  0.75000000  0.76841200  0.50000000  1
  Ge  Ge17  1  0.75000000  0.73158800  0.00000000  1
  Ge  Ge18  1  0.25000000  0.26841200  0.00000000  1
  Ge  Ge19  1  0.25000000  0.23158800  0.50000000  1
  N  N20  1  0.98560200  0.66358300  0.41612700  1
  N  N21  1  0.38327100  0.37221000  0.86355100  1
  N  N22  1  0.88327100  0.87221000  0.63644900  1
  N  N23  1  0.01439800  0.16358300  0.91612700  1
  N  N24  1  0.48560200  0.16358300  0.08387300  1
  N  N25  1  0.48560200  0.33641700  0.41612700  1
  N  N26  1  0.98560200  0.83641700  0.08387300  1
  N  N27  1  0.01439800  0.33641700  0.58387300  1
  N  N28  1  0.88327100  0.62779000  0.86355100  1
  N  N29  1  0.51439800  0.66358300  0.58387300  1
  N  N30  1  0.61672900  0.62779000  0.13644900  1
  N  N31  1  0.38327100  0.12779000  0.63644900  1
  N  N32  1  0.61672900  0.87221000  0.36355100  1
  N  N33  1  0.11672900  0.37221000  0.13644900  1
  N  N34  1  0.11672900  0.12779000  0.36355100  1
  N  N35  1  0.51439800  0.83641700  0.91612700  1
