# generated using pymatgen
data_Yb8Ge3Sb5
_symmetry_space_group_name_H-M   'P 1'
_cell_length_a   11.93623721
_cell_length_b   11.93623721
_cell_length_c   11.93623721
_cell_angle_alpha   94.67832401
_cell_angle_beta   94.67832401
_cell_angle_gamma   146.81180202
_symmetry_Int_Tables_number   1
_chemical_formula_structural   Yb8Ge3Sb5
_chemical_formula_sum   'Yb16 Ge6 Sb10'
_cell_volume   892.12335263
_cell_formula_units_Z   2
loop_
 _symmetry_equiv_pos_site_id
 _symmetry_equiv_pos_as_xyz
  1  'x, y, z'
loop_
 _atom_site_type_symbol
 _atom_site_label
 _atom_site_symmetry_multiplicity
 _atom_site_fract_x
 _atom_site_fract_y
 _atom_site_fract_z
 _atom_site_occupancy
  Yb  Yb0  1  0.60198100  0.39801900  0.50000000  1
  Yb  Yb1  1  0.62862500  0.62862500  0.25725000  1
  Yb  Yb2  1  0.89801900  0.10198100  0.50000000  1
  Yb  Yb3  1  0.62862500  0.37137500  0.00000000  1
  Yb  Yb4  1  0.10198100  0.60198100  0.20396300  1
  Yb  Yb5  1  0.81420100  0.00000000  0.81420100  1
  Yb  Yb6  1  0.39801900  0.89801900  0.79603700  1
  Yb  Yb7  1  0.60198100  0.10198100  0.20396300  1
  Yb  Yb8  1  0.89801900  0.39801900  0.79603700  1
  Yb  Yb9  1  0.00000000  0.81420100  0.81420100  1
  Yb  Yb10  1  0.39801900  0.60198100  0.50000000  1
  Yb  Yb11  1  0.18579900  0.00000000  0.18579900  1
  Yb  Yb12  1  0.00000000  0.18579900  0.18579900  1
  Yb  Yb13  1  0.37137500  0.37137500  0.74275000  1
  Yb  Yb14  1  0.10198100  0.89801900  0.50000000  1
  Yb  Yb15  1  0.37137500  0.62862500  0.00000000  1
  Ge  Ge16  1  0.61791200  0.00000000  0.61791200  1
  Ge  Ge17  1  0.00000000  0.38208800  0.38208800  1
  Ge  Ge18  1  0.00000000  0.61791200  0.61791200  1
  Ge  Ge19  1  0.38208800  0.00000000  0.38208800  1
  Ge  Ge20  1  0.25000000  0.75000000  0.50000000  1
  Ge  Ge21  1  0.75000000  0.25000000  0.50000000  1
  Sb  Sb22  1  0.77069700  0.50000000  0.27069700  1
  Sb  Sb23  1  0.19434200  0.80565800  0.00000000  1
  Sb  Sb24  1  0.80565800  0.19434200  0.00000000  1
  Sb  Sb25  1  0.80565800  0.80565800  0.61131600  1
  Sb  Sb26  1  0.50000000  0.22930300  0.72930300  1
  Sb  Sb27  1  0.19434200  0.19434200  0.38868400  1
  Sb  Sb28  1  0.50000000  0.77069700  0.27069700  1
  Sb  Sb29  1  0.23956300  0.23956300  0.00000000  1
  Sb  Sb30  1  0.22930300  0.50000000  0.72930300  1
  Sb  Sb31  1  0.76043700  0.76043700  0.00000000  1
