# generated using pymatgen
data_Na3B6NO13
_symmetry_space_group_name_H-M   'P 1'
_cell_length_a   7.75786600
_cell_length_b   10.10589900
_cell_length_c   12.71359300
_cell_angle_alpha   90.00000000
_cell_angle_beta   90.00000000
_cell_angle_gamma   90.00000000
_symmetry_Int_Tables_number   1
_chemical_formula_structural   Na3B6NO13
_chemical_formula_sum   'Na12 B24 N4 O52'
_cell_volume   996.74836425
_cell_formula_units_Z   4
loop_
 _symmetry_equiv_pos_site_id
 _symmetry_equiv_pos_as_xyz
  1  'x, y, z'
loop_
 _atom_site_type_symbol
 _atom_site_label
 _atom_site_symmetry_multiplicity
 _atom_site_fract_x
 _atom_site_fract_y
 _atom_site_fract_z
 _atom_site_occupancy
  Na  Na0  1  0.88094400  0.25000000  0.71533700  1
  Na  Na1  1  0.50000000  0.50000000  0.00000000  1
  Na  Na2  1  0.00000000  0.00000000  0.50000000  1
  Na  Na3  1  0.00000000  0.50000000  0.50000000  1
  Na  Na4  1  0.38094400  0.75000000  0.78466300  1
  Na  Na5  1  0.50000000  0.50000000  0.50000000  1
  Na  Na6  1  0.61905600  0.25000000  0.21533700  1
  Na  Na7  1  0.50000000  0.00000000  0.00000000  1
  Na  Na8  1  0.00000000  0.00000000  0.00000000  1
  Na  Na9  1  0.00000000  0.50000000  0.00000000  1
  Na  Na10  1  0.50000000  0.00000000  0.50000000  1
  Na  Na11  1  0.11905600  0.75000000  0.28466300  1
  B  B12  1  0.72012900  0.75000000  0.50085300  1
  B  B13  1  0.47430700  0.97916300  0.25930800  1
  B  B14  1  0.97430700  0.02083700  0.24069200  1
  B  B15  1  0.02569300  0.52083700  0.75930800  1
  B  B16  1  0.56043500  0.75000000  0.31475800  1
  B  B17  1  0.22748400  0.12002300  0.33221600  1
  B  B18  1  0.97430700  0.47916300  0.24069200  1
  B  B19  1  0.06043500  0.25000000  0.18524200  1
  B  B20  1  0.27251600  0.37997700  0.83221600  1
  B  B21  1  0.77251600  0.87997700  0.66778400  1
  B  B22  1  0.43956500  0.25000000  0.68524200  1
  B  B23  1  0.22012900  0.25000000  0.99914700  1
  B  B24  1  0.93956500  0.75000000  0.81475800  1
  B  B25  1  0.77987100  0.75000000  0.00085300  1
  B  B26  1  0.47430700  0.52083700  0.25930800  1
  B  B27  1  0.27987100  0.25000000  0.49914700  1
  B  B28  1  0.72748400  0.62002300  0.16778400  1
  B  B29  1  0.72748400  0.87997700  0.16778400  1
  B  B30  1  0.52569300  0.47916300  0.74069200  1
  B  B31  1  0.52569300  0.02083700  0.74069200  1
  B  B32  1  0.02569300  0.97916300  0.75930800  1
  B  B33  1  0.27251600  0.12002300  0.83221600  1
  B  B34  1  0.22748400  0.37997700  0.33221600  1
  B  B35  1  0.77251600  0.62002300  0.66778400  1
  N  N36  1  0.21225300  0.75000000  0.55098100  1
  N  N37  1  0.71225300  0.25000000  0.94901900  1
  N  N38  1  0.28774700  0.75000000  0.05098100  1
  N  N39  1  0.78774700  0.25000000  0.44901900  1
  O  O40  1  0.38490400  0.09428100  0.27359500  1
  O  O41  1  0.09812600  0.48378200  0.31871600  1
  O  O42  1  0.88490400  0.90571900  0.22640500  1
  O  O43  1  0.23187000  0.85881300  0.08706800  1
  O  O44  1  0.90187400  0.98378200  0.68128400  1
  O  O45  1  0.44954600  0.86878200  0.32138000  1
  O  O46  1  0.40187400  0.48378200  0.81871600  1
  O  O47  1  0.44954600  0.63121800  0.32138000  1
  O  O48  1  0.23187000  0.64118700  0.08706800  1
  O  O49  1  0.26813000  0.85881300  0.58706800  1
  O  O50  1  0.76813000  0.14118700  0.91293200  1
  O  O51  1  0.26264500  0.36885200  0.44602200  1
  O  O52  1  0.90332700  0.25000000  0.51987200  1
  O  O53  1  0.94954600  0.36878200  0.17862000  1
  O  O54  1  0.94954600  0.13121800  0.17862000  1
  O  O55  1  0.73735500  0.63114800  0.55397800  1
  O  O56  1  0.55045400  0.36878200  0.67862000  1
  O  O57  1  0.38490400  0.40571900  0.27359500  1
  O  O58  1  0.76264500  0.86885200  0.05397800  1
  O  O59  1  0.73735500  0.86885200  0.55397800  1
  O  O60  1  0.76264500  0.63114800  0.05397800  1
  O  O61  1  0.73187000  0.35881300  0.41293200  1
  O  O62  1  0.88490400  0.59428100  0.22640500  1
  O  O63  1  0.84894000  0.75000000  0.70706600  1
  O  O64  1  0.81153000  0.75000000  0.89642000  1
  O  O65  1  0.76813000  0.35881300  0.91293200  1
  O  O66  1  0.90187400  0.51621800  0.68128400  1
  O  O67  1  0.34894000  0.25000000  0.79293400  1
  O  O68  1  0.05045400  0.86878200  0.82138000  1
  O  O69  1  0.23735500  0.36885200  0.94602200  1
  O  O70  1  0.59667300  0.25000000  0.01987200  1
  O  O71  1  0.11509600  0.40571900  0.77359500  1
  O  O72  1  0.09812600  0.01621800  0.31871600  1
  O  O73  1  0.15106000  0.25000000  0.29293400  1
  O  O74  1  0.61509600  0.59428100  0.72640500  1
  O  O75  1  0.23735500  0.13114800  0.94602200  1
  O  O76  1  0.40187400  0.01621800  0.81871600  1
  O  O77  1  0.05045400  0.63121800  0.82138000  1
  O  O78  1  0.11509600  0.09428100  0.77359500  1
  O  O79  1  0.40332700  0.75000000  0.98012800  1
  O  O80  1  0.68847000  0.75000000  0.39642000  1
  O  O81  1  0.55045400  0.13121800  0.67862000  1
  O  O82  1  0.26264500  0.13114800  0.44602200  1
  O  O83  1  0.09667300  0.75000000  0.48012800  1
  O  O84  1  0.65106000  0.75000000  0.20706600  1
  O  O85  1  0.59812600  0.98378200  0.18128400  1
  O  O86  1  0.31153000  0.25000000  0.60358000  1
  O  O87  1  0.73187000  0.14118700  0.41293200  1
  O  O88  1  0.26813000  0.64118700  0.58706800  1
  O  O89  1  0.61509600  0.90571900  0.72640500  1
  O  O90  1  0.59812600  0.51621800  0.18128400  1
  O  O91  1  0.18847000  0.25000000  0.10358000  1
