# generated using pymatgen
data_CsNdHgSe3
_symmetry_space_group_name_H-M   'P 1'
_cell_length_a   8.47573609
_cell_length_b   8.47573609
_cell_length_c   11.41265500
_cell_angle_alpha   90.00000000
_cell_angle_beta   90.00000000
_cell_angle_gamma   149.84600538
_symmetry_Int_Tables_number   1
_chemical_formula_structural   CsNdHgSe3
_chemical_formula_sum   'Cs2 Nd2 Hg2 Se6'
_cell_volume   411.83859261
_cell_formula_units_Z   2
loop_
 _symmetry_equiv_pos_site_id
 _symmetry_equiv_pos_as_xyz
  1  'x, y, z'
loop_
 _atom_site_type_symbol
 _atom_site_label
 _atom_site_symmetry_multiplicity
 _atom_site_fract_x
 _atom_site_fract_y
 _atom_site_fract_z
 _atom_site_occupancy
  Cs  Cs0  1  0.74364300  0.25635700  0.25000000  1
  Cs  Cs1  1  0.25635700  0.74364300  0.75000000  1
  Nd  Nd2  1  0.00000000  0.00000000  0.00000000  1
  Nd  Nd3  1  0.00000000  0.00000000  0.50000000  1
  Hg  Hg4  1  0.54393100  0.45606900  0.75000000  1
  Hg  Hg5  1  0.45606900  0.54393100  0.25000000  1
  Se  Se6  1  0.37864500  0.62135500  0.45292100  1
  Se  Se7  1  0.06126500  0.93873500  0.25000000  1
  Se  Se8  1  0.93873500  0.06126500  0.75000000  1
  Se  Se9  1  0.62135500  0.37864500  0.54707900  1
  Se  Se10  1  0.37864500  0.62135500  0.04707900  1
  Se  Se11  1  0.62135500  0.37864500  0.95292100  1
