# generated using pymatgen
data_Yb3Ga5O12
_symmetry_space_group_name_H-M   'P 1'
_cell_length_a   10.73512620
_cell_length_b   10.73512620
_cell_length_c   10.73512620
_cell_angle_alpha   109.47122063
_cell_angle_beta   109.47122063
_cell_angle_gamma   109.47122063
_symmetry_Int_Tables_number   1
_chemical_formula_structural   Yb3Ga5O12
_chemical_formula_sum   'Yb12 Ga20 O48'
_cell_volume   952.35654722
_cell_formula_units_Z   4
loop_
 _symmetry_equiv_pos_site_id
 _symmetry_equiv_pos_as_xyz
  1  'x, y, z'
loop_
 _atom_site_type_symbol
 _atom_site_label
 _atom_site_symmetry_multiplicity
 _atom_site_fract_x
 _atom_site_fract_y
 _atom_site_fract_z
 _atom_site_occupancy
  Yb  Yb0  1  0.25000000  0.37500000  0.12500000  1
  Yb  Yb1  1  0.87500000  0.62500000  0.25000000  1
  Yb  Yb2  1  0.37500000  0.12500000  0.25000000  1
  Yb  Yb3  1  0.75000000  0.62500000  0.87500000  1
  Yb  Yb4  1  0.12500000  0.37500000  0.75000000  1
  Yb  Yb5  1  0.87500000  0.75000000  0.62500000  1
  Yb  Yb6  1  0.25000000  0.87500000  0.62500000  1
  Yb  Yb7  1  0.75000000  0.12500000  0.37500000  1
  Yb  Yb8  1  0.37500000  0.75000000  0.12500000  1
  Yb  Yb9  1  0.62500000  0.87500000  0.75000000  1
  Yb  Yb10  1  0.12500000  0.25000000  0.37500000  1
  Yb  Yb11  1  0.62500000  0.25000000  0.87500000  1
  Ga  Ga12  1  0.00000000  0.50000000  0.50000000  1
  Ga  Ga13  1  0.25000000  0.12500000  0.87500000  1
  Ga  Ga14  1  0.37500000  0.62500000  0.75000000  1
  Ga  Ga15  1  0.50000000  0.50000000  0.50000000  1
  Ga  Ga16  1  0.00000000  0.00000000  0.00000000  1
  Ga  Ga17  1  0.25000000  0.62500000  0.37500000  1
  Ga  Ga18  1  0.50000000  0.00000000  0.00000000  1
  Ga  Ga19  1  0.50000000  0.50000000  0.00000000  1
  Ga  Ga20  1  0.62500000  0.75000000  0.37500000  1
  Ga  Ga21  1  0.00000000  0.00000000  0.50000000  1
  Ga  Ga22  1  0.12500000  0.75000000  0.87500000  1
  Ga  Ga23  1  0.75000000  0.37500000  0.62500000  1
  Ga  Ga24  1  0.75000000  0.87500000  0.12500000  1
  Ga  Ga25  1  0.37500000  0.25000000  0.62500000  1
  Ga  Ga26  1  0.87500000  0.12500000  0.75000000  1
  Ga  Ga27  1  0.50000000  0.00000000  0.50000000  1
  Ga  Ga28  1  0.12500000  0.87500000  0.25000000  1
  Ga  Ga29  1  0.87500000  0.25000000  0.12500000  1
  Ga  Ga30  1  0.00000000  0.50000000  0.00000000  1
  Ga  Ga31  1  0.62500000  0.37500000  0.25000000  1
  O  O32  1  0.88068000  0.97379300  0.79559300  1
  O  O33  1  0.90688700  0.38068000  0.58508600  1
  O  O34  1  0.58508600  0.90688700  0.38068000  1
  O  O35  1  0.67820000  0.09311300  0.97379300  1
  O  O36  1  0.67820000  0.08508600  0.70440700  1
  O  O37  1  0.88068000  0.40688700  0.08508600  1
  O  O38  1  0.91491400  0.11932000  0.59311300  1
  O  O39  1  0.08508600  0.70440700  0.67820000  1
  O  O40  1  0.38068000  0.29559300  0.47379300  1
  O  O41  1  0.52620700  0.40688700  0.82180000  1
  O  O42  1  0.29559300  0.47379300  0.38068000  1
  O  O43  1  0.40688700  0.82180000  0.52620700  1
  O  O44  1  0.79559300  0.88068000  0.97379300  1
  O  O45  1  0.32180000  0.90688700  0.02620700  1
  O  O46  1  0.97379300  0.67820000  0.09311300  1
  O  O47  1  0.29559300  0.32180000  0.91491400  1
  O  O48  1  0.52620700  0.61932000  0.70440700  1
  O  O49  1  0.97379300  0.79559300  0.88068000  1
  O  O50  1  0.17820000  0.20440700  0.58508600  1
  O  O51  1  0.08508600  0.88068000  0.40688700  1
  O  O52  1  0.32180000  0.91491400  0.29559300  1
  O  O53  1  0.70440700  0.67820000  0.08508600  1
  O  O54  1  0.90688700  0.02620700  0.32180000  1
  O  O55  1  0.11932000  0.02620700  0.20440700  1
  O  O56  1  0.82180000  0.79559300  0.41491400  1
  O  O57  1  0.58508600  0.17820000  0.20440700  1
  O  O58  1  0.47379300  0.38068000  0.29559300  1
  O  O59  1  0.38068000  0.58508600  0.90688700  1
  O  O60  1  0.70440700  0.52620700  0.61932000  1
  O  O61  1  0.02620700  0.32180000  0.90688700  1
  O  O62  1  0.59311300  0.17820000  0.47379300  1
  O  O63  1  0.91491400  0.29559300  0.32180000  1
  O  O64  1  0.61932000  0.41491400  0.09311300  1
  O  O65  1  0.20440700  0.11932000  0.02620700  1
  O  O66  1  0.09311300  0.97379300  0.67820000  1
  O  O67  1  0.82180000  0.52620700  0.40688700  1
  O  O68  1  0.40688700  0.08508600  0.88068000  1
  O  O69  1  0.02620700  0.20440700  0.11932000  1
  O  O70  1  0.17820000  0.47379300  0.59311300  1
  O  O71  1  0.41491400  0.82180000  0.79559300  1
  O  O72  1  0.47379300  0.59311300  0.17820000  1
  O  O73  1  0.11932000  0.59311300  0.91491400  1
  O  O74  1  0.79559300  0.41491400  0.82180000  1
  O  O75  1  0.61932000  0.70440700  0.52620700  1
  O  O76  1  0.20440700  0.58508600  0.17820000  1
  O  O77  1  0.41491400  0.09311300  0.61932000  1
  O  O78  1  0.59311300  0.91491400  0.11932000  1
  O  O79  1  0.09311300  0.61932000  0.41491400  1
