# generated using pymatgen
data_Nd3S2Cl5
_symmetry_space_group_name_H-M   'P 1'
_cell_length_a   6.62883100
_cell_length_b   7.09429300
_cell_length_c   22.12207968
_cell_angle_alpha   82.15748808
_cell_angle_beta   90.00000000
_cell_angle_gamma   90.00000000
_symmetry_Int_Tables_number   1
_chemical_formula_structural   Nd3S2Cl5
_chemical_formula_sum   'Nd12 S8 Cl20'
_cell_volume   1030.60178960
_cell_formula_units_Z   4
loop_
 _symmetry_equiv_pos_site_id
 _symmetry_equiv_pos_as_xyz
  1  'x, y, z'
loop_
 _atom_site_type_symbol
 _atom_site_label
 _atom_site_symmetry_multiplicity
 _atom_site_fract_x
 _atom_site_fract_y
 _atom_site_fract_z
 _atom_site_occupancy
  Nd  Nd0  1  0.95463800  0.33748300  0.09958100  1
  Nd  Nd1  1  0.54546600  0.70414800  0.40378300  1
  Nd  Nd2  1  0.04536200  0.66251700  0.90041900  1
  Nd  Nd3  1  0.54446100  0.35685800  0.25112800  1
  Nd  Nd4  1  0.54536200  0.83748300  0.09958100  1
  Nd  Nd5  1  0.04446100  0.14314200  0.74887200  1
  Nd  Nd6  1  0.95553900  0.85685800  0.25112800  1
  Nd  Nd7  1  0.45553900  0.64314200  0.74887200  1
  Nd  Nd8  1  0.95453400  0.20414800  0.40378300  1
  Nd  Nd9  1  0.45453400  0.29585200  0.59621700  1
  Nd  Nd10  1  0.45463800  0.16251700  0.90041900  1
  Nd  Nd11  1  0.04546600  0.79585200  0.59621700  1
  S  S12  1  0.30947500  0.90190600  0.82637600  1
  S  S13  1  0.19052500  0.40190600  0.82637600  1
  S  S14  1  0.30996200  0.96774200  0.66847600  1
  S  S15  1  0.69003800  0.03225800  0.33152400  1
  S  S16  1  0.80996200  0.53225800  0.33152400  1
  S  S17  1  0.80947500  0.59809400  0.17362400  1
  S  S18  1  0.19003800  0.46774200  0.66847600  1
  S  S19  1  0.69052500  0.09809400  0.17362400  1
  Cl  Cl20  1  0.72954400  0.39871100  0.48710900  1
  Cl  Cl21  1  0.77045600  0.89871100  0.48710900  1
  Cl  Cl22  1  0.86052100  0.77710000  0.75314900  1
  Cl  Cl23  1  0.22954400  0.10128900  0.51289100  1
  Cl  Cl24  1  0.34321800  0.48215600  0.11990400  1
  Cl  Cl25  1  0.81874000  0.65680900  0.01858200  1
  Cl  Cl26  1  0.15678200  0.98215600  0.11990400  1
  Cl  Cl27  1  0.65678200  0.51784400  0.88009600  1
  Cl  Cl28  1  0.63947900  0.27710000  0.75314900  1
  Cl  Cl29  1  0.66898600  0.62062000  0.62522500  1
  Cl  Cl30  1  0.16898600  0.87938000  0.37477500  1
  Cl  Cl31  1  0.36052100  0.72290000  0.24685100  1
  Cl  Cl32  1  0.68126000  0.15680900  0.01858200  1
  Cl  Cl33  1  0.31874000  0.84319100  0.98141800  1
  Cl  Cl34  1  0.18126000  0.34319100  0.98141800  1
  Cl  Cl35  1  0.33101400  0.37938000  0.37477500  1
  Cl  Cl36  1  0.27045600  0.60128900  0.51289100  1
  Cl  Cl37  1  0.13947900  0.22290000  0.24685100  1
  Cl  Cl38  1  0.83101400  0.12062000  0.62522500  1
  Cl  Cl39  1  0.84321800  0.01784400  0.88009600  1
