# generated using pymatgen
data_K2CrSO7
_symmetry_space_group_name_H-M   'P 1'
_cell_length_a   7.52305400
_cell_length_b   7.53030000
_cell_length_c   15.02335153
_cell_angle_alpha   61.38321881
_cell_angle_beta   90.00000000
_cell_angle_gamma   90.00000000
_symmetry_Int_Tables_number   1
_chemical_formula_structural   K2CrSO7
_chemical_formula_sum   'K8 Cr4 S4 O28'
_cell_volume   747.11938755
_cell_formula_units_Z   4
loop_
 _symmetry_equiv_pos_site_id
 _symmetry_equiv_pos_as_xyz
  1  'x, y, z'
loop_
 _atom_site_type_symbol
 _atom_site_label
 _atom_site_symmetry_multiplicity
 _atom_site_fract_x
 _atom_site_fract_y
 _atom_site_fract_z
 _atom_site_occupancy
  K  K0  1  0.38057800  0.97618700  0.65592800  1
  K  K1  1  0.20738200  0.45829600  0.86416000  1
  K  K2  1  0.88057800  0.02381300  0.84407200  1
  K  K3  1  0.29261800  0.45829600  0.36416000  1
  K  K4  1  0.79261800  0.54170400  0.13584000  1
  K  K5  1  0.70738200  0.54170400  0.63584000  1
  K  K6  1  0.61942200  0.02381300  0.34407200  1
  K  K7  1  0.11942200  0.97618700  0.15592800  1
  Cr  Cr8  1  0.33133900  0.90738600  0.91950800  1
  Cr  Cr9  1  0.66866100  0.09261400  0.08049200  1
  Cr  Cr10  1  0.83133900  0.09261400  0.58049200  1
  Cr  Cr11  1  0.16866100  0.90738600  0.41950800  1
  S  S12  1  0.70884800  0.50284800  0.88353800  1
  S  S13  1  0.20884800  0.49715200  0.61646200  1
  S  S14  1  0.29115200  0.49715200  0.11646200  1
  S  S15  1  0.79115200  0.50284800  0.38353800  1
  O  O16  1  0.71547300  0.15596600  0.65315800  1
  O  O17  1  0.07439600  0.37294300  0.69073800  1
  O  O18  1  0.09206100  0.67713100  0.53040100  1
  O  O19  1  0.83284600  0.40654500  0.84392600  1
  O  O20  1  0.20304000  0.03838300  0.95448200  1
  O  O21  1  0.21547300  0.84403400  0.84684200  1
  O  O22  1  0.57439600  0.62705700  0.80926200  1
  O  O23  1  0.79696000  0.96161700  0.04551800  1
  O  O24  1  0.99655500  0.03878500  0.35879300  1
  O  O25  1  0.40793900  0.67713100  0.03040100  1
  O  O26  1  0.29929400  0.39630300  0.56663000  1
  O  O27  1  0.92560400  0.62705700  0.30926200  1
  O  O28  1  0.79929400  0.60369700  0.93337000  1
  O  O29  1  0.66715400  0.40654500  0.34392600  1
  O  O30  1  0.29696000  0.03838300  0.45448200  1
  O  O31  1  0.70070600  0.60369700  0.43337000  1
  O  O32  1  0.00344500  0.96121500  0.64120700  1
  O  O33  1  0.90793900  0.32286900  0.46959900  1
  O  O34  1  0.49655500  0.96121500  0.14120700  1
  O  O35  1  0.33284600  0.59345500  0.65607400  1
  O  O36  1  0.28452700  0.84403400  0.34684200  1
  O  O37  1  0.20070600  0.39630300  0.06663000  1
  O  O38  1  0.50344500  0.03878500  0.85879300  1
  O  O39  1  0.42560400  0.37294300  0.19073800  1
  O  O40  1  0.59206100  0.32286900  0.96959900  1
  O  O41  1  0.70304000  0.96161700  0.54551800  1
  O  O42  1  0.16715400  0.59345500  0.15607400  1
  O  O43  1  0.78452700  0.15596600  0.15315800  1
