# generated using pymatgen
data_K2BeH4(SO5)2
_symmetry_space_group_name_H-M   'P 1'
_cell_length_a   11.72969000
_cell_length_b   7.38522900
_cell_length_c   11.21632896
_cell_angle_alpha   84.60100465
_cell_angle_beta   90.00000000
_cell_angle_gamma   90.00000000
_symmetry_Int_Tables_number   1
_chemical_formula_structural   K2BeH4(SO5)2
_chemical_formula_sum   'K8 Be4 H16 S8 O40'
_cell_volume   967.32019485
_cell_formula_units_Z   4
loop_
 _symmetry_equiv_pos_site_id
 _symmetry_equiv_pos_as_xyz
  1  'x, y, z'
loop_
 _atom_site_type_symbol
 _atom_site_label
 _atom_site_symmetry_multiplicity
 _atom_site_fract_x
 _atom_site_fract_y
 _atom_site_fract_z
 _atom_site_occupancy
  K  K0  1  0.76013500  0.98045000  0.90910600  1
  K  K1  1  0.26013500  0.51955000  0.09089400  1
  K  K2  1  0.23986500  0.01955000  0.09089400  1
  K  K3  1  0.73986500  0.48045000  0.90910600  1
  K  K4  1  0.90399700  0.31690900  0.60784500  1
  K  K5  1  0.40399700  0.18309100  0.39215500  1
  K  K6  1  0.09600300  0.68309100  0.39215500  1
  K  K7  1  0.59600300  0.81690900  0.60784500  1
  Be  Be8  1  0.91763300  0.08864000  0.23673000  1
  Be  Be9  1  0.41763300  0.41136000  0.76327000  1
  Be  Be10  1  0.08236700  0.91136000  0.76327000  1
  Be  Be11  1  0.58236700  0.58864000  0.23673000  1
  H  H12  1  0.52020500  0.79972700  0.09136300  1
  H  H13  1  0.02020500  0.70027300  0.90863700  1
  H  H14  1  0.47979500  0.20027300  0.90863700  1
  H  H15  1  0.97979500  0.29972700  0.09136300  1
  H  H16  1  0.58872200  0.90387400  0.19002200  1
  H  H17  1  0.08872200  0.59612600  0.80997800  1
  H  H18  1  0.41127800  0.09612600  0.80997800  1
  H  H19  1  0.91127800  0.40387400  0.19002200  1
  H  H20  1  0.76846300  0.60779100  0.29850600  1
  H  H21  1  0.26846300  0.89220900  0.70149400  1
  H  H22  1  0.81401800  0.02621600  0.41121000  1
  H  H23  1  0.73153700  0.10779100  0.29850600  1
  H  H24  1  0.68598200  0.52621600  0.41121000  1
  H  H25  1  0.18598200  0.97378400  0.58879000  1
  H  H26  1  0.31401800  0.47378400  0.58879000  1
  H  H27  1  0.23153700  0.39220900  0.70149400  1
  S  S28  1  0.94652500  0.74979300  0.12772800  1
  S  S29  1  0.44652500  0.75020700  0.87227200  1
  S  S30  1  0.05347500  0.25020700  0.87227200  1
  S  S31  1  0.55347500  0.24979300  0.12772800  1
  S  S32  1  0.88487300  0.82336700  0.63498800  1
  S  S33  1  0.38487300  0.67663300  0.36501200  1
  S  S34  1  0.11512700  0.17663300  0.36501200  1
  S  S35  1  0.61512700  0.32336700  0.63498800  1
  O  O36  1  0.39941500  0.87885200  0.77275100  1
  O  O37  1  0.57179300  0.74764800  0.86493100  1
  O  O38  1  0.92820700  0.24764800  0.86493100  1
  O  O39  1  0.42820700  0.25235200  0.13506900  1
  O  O40  1  0.90777300  0.69647300  0.00968100  1
  O  O41  1  0.40777300  0.80352700  0.99031900  1
  O  O42  1  0.09222700  0.30352700  0.99031900  1
  O  O43  1  0.59222700  0.19647300  0.00968100  1
  O  O44  1  0.89941500  0.62114800  0.22724900  1
  O  O45  1  0.07179300  0.75235200  0.13506900  1
  O  O46  1  0.10058500  0.37885200  0.77275100  1
  O  O47  1  0.60058500  0.12114800  0.22724900  1
  O  O48  1  0.89755900  0.93734200  0.13966400  1
  O  O49  1  0.39755900  0.56265800  0.86033600  1
  O  O50  1  0.10244100  0.06265800  0.86033600  1
  O  O51  1  0.60244100  0.43734200  0.13966400  1
  O  O52  1  0.95081600  0.68588200  0.57832000  1
  O  O53  1  0.45081600  0.81411800  0.42168000  1
  O  O54  1  0.04918400  0.31411800  0.42168000  1
  O  O55  1  0.54918400  0.18588200  0.57832000  1
  O  O56  1  0.81196800  0.74156500  0.73339700  1
  O  O57  1  0.31196800  0.75843500  0.26660300  1
  O  O58  1  0.18803200  0.25843500  0.26660300  1
  O  O59  1  0.68803200  0.24156500  0.73339700  1
  O  O60  1  0.81353600  0.93805900  0.54782800  1
  O  O61  1  0.31353600  0.56194100  0.45217200  1
  O  O62  1  0.18646400  0.06194100  0.45217200  1
  O  O63  1  0.68646400  0.43805900  0.54782800  1
  O  O64  1  0.96758400  0.95648300  0.68777900  1
  O  O65  1  0.46758400  0.54351700  0.31222100  1
  O  O66  1  0.03241600  0.04351700  0.31222100  1
  O  O67  1  0.53241600  0.45648300  0.68777900  1
  O  O68  1  0.81093700  0.09594100  0.32949900  1
  O  O69  1  0.31093700  0.40405900  0.67050100  1
  O  O70  1  0.18906300  0.90405900  0.67050100  1
  O  O71  1  0.68906300  0.59594100  0.32949900  1
  O  O72  1  0.91818300  0.28558500  0.15334500  1
  O  O73  1  0.58181700  0.78558500  0.15334500  1
  O  O74  1  0.08181700  0.71441500  0.84665500  1
  O  O75  1  0.41818300  0.21441500  0.84665500  1
