# generated using pymatgen
data_Ga2S3
_symmetry_space_group_name_H-M   'P 1'
_cell_length_a   6.58038061
_cell_length_b   6.58038061
_cell_length_c   7.12142118
_cell_angle_alpha   63.37942310
_cell_angle_beta   63.37942310
_cell_angle_gamma   59.57742874
_symmetry_Int_Tables_number   1
_chemical_formula_structural   Ga2S3
_chemical_formula_sum   'Ga4 S6'
_cell_volume   227.72675050
_cell_formula_units_Z   2
loop_
 _symmetry_equiv_pos_site_id
 _symmetry_equiv_pos_as_xyz
  1  'x, y, z'
loop_
 _atom_site_type_symbol
 _atom_site_label
 _atom_site_symmetry_multiplicity
 _atom_site_fract_x
 _atom_site_fract_y
 _atom_site_fract_z
 _atom_site_occupancy
  Ga  Ga0  1  0.13777100  0.26820400  0.38076600  1
  Ga  Ga1  1  0.26820400  0.13777100  0.88076600  1
  Ga  Ga2  1  0.44546700  0.64150100  0.37037600  1
  Ga  Ga3  1  0.64150100  0.44546700  0.87037600  1
  S  S4  1  0.42665700  0.25376000  0.49702500  1
  S  S5  1  0.25376000  0.42665700  0.99702500  1
  S  S6  1  0.76013700  0.58414700  0.48679700  1
  S  S7  1  0.58414700  0.76013700  0.98679700  1
  S  S8  1  0.91153500  0.09282000  0.01603600  1
  S  S9  1  0.09282000  0.91153500  0.51603600  1
