# generated using pymatgen
data_Tl3AsS3
_symmetry_space_group_name_H-M   'P 1'
_cell_length_a   5.81846600
_cell_length_b   12.70492000
_cell_length_c   22.37138700
_cell_angle_alpha   90.00000000
_cell_angle_beta   90.00000000
_cell_angle_gamma   90.00000000
_symmetry_Int_Tables_number   1
_chemical_formula_structural   Tl3AsS3
_chemical_formula_sum   'Tl24 As8 S24'
_cell_volume   1653.76328623
_cell_formula_units_Z   8
loop_
 _symmetry_equiv_pos_site_id
 _symmetry_equiv_pos_as_xyz
  1  'x, y, z'
loop_
 _atom_site_type_symbol
 _atom_site_label
 _atom_site_symmetry_multiplicity
 _atom_site_fract_x
 _atom_site_fract_y
 _atom_site_fract_z
 _atom_site_occupancy
  Tl  Tl0  1  0.91740700  0.77986300  0.18253500  1
  Tl  Tl1  1  0.41740700  0.72013700  0.81746500  1
  Tl  Tl2  1  0.07855300  0.83834500  0.97628900  1
  Tl  Tl3  1  0.57855300  0.66165500  0.02371100  1
  Tl  Tl4  1  0.92144700  0.33834500  0.52371100  1
  Tl  Tl5  1  0.58259300  0.27986300  0.18253500  1
  Tl  Tl6  1  0.07855300  0.66165500  0.47628900  1
  Tl  Tl7  1  0.58259300  0.22013700  0.68253500  1
  Tl  Tl8  1  0.42144700  0.33834500  0.97628900  1
  Tl  Tl9  1  0.41740700  0.77986300  0.31746500  1
  Tl  Tl10  1  0.57855300  0.83834500  0.52371100  1
  Tl  Tl11  1  0.91740700  0.72013700  0.68253500  1
  Tl  Tl12  1  0.08259300  0.22013700  0.81746500  1
  Tl  Tl13  1  0.95399800  0.93264200  0.80941900  1
  Tl  Tl14  1  0.45399800  0.93264200  0.69058100  1
  Tl  Tl15  1  0.08259300  0.27986300  0.31746500  1
  Tl  Tl16  1  0.04600200  0.43264200  0.69058100  1
  Tl  Tl17  1  0.04600200  0.06735800  0.19058100  1
  Tl  Tl18  1  0.95399800  0.56735800  0.30941900  1
  Tl  Tl19  1  0.92144700  0.16165500  0.02371100  1
  Tl  Tl20  1  0.42144700  0.16165500  0.47628900  1
  Tl  Tl21  1  0.54600200  0.06735800  0.30941900  1
  Tl  Tl22  1  0.54600200  0.43264200  0.80941900  1
  Tl  Tl23  1  0.45399800  0.56735800  0.19058100  1
  As  As24  1  0.45387100  0.54954600  0.58706600  1
  As  As25  1  0.04612900  0.04954600  0.58706600  1
  As  As26  1  0.54612900  0.04954600  0.91293400  1
  As  As27  1  0.04612900  0.45045400  0.08706600  1
  As  As28  1  0.54612900  0.45045400  0.41293400  1
  As  As29  1  0.95387100  0.95045400  0.41293400  1
  As  As30  1  0.95387100  0.54954600  0.91293400  1
  As  As31  1  0.45387100  0.95045400  0.08706600  1
  S  S32  1  0.61496600  0.39505700  0.31769300  1
  S  S33  1  0.61496600  0.10494300  0.81769300  1
  S  S34  1  0.11496600  0.39505700  0.18230700  1
  S  S35  1  0.34753800  0.55395600  0.91482200  1
  S  S36  1  0.88503400  0.89505700  0.31769300  1
  S  S37  1  0.11950700  0.62588800  0.09136900  1
  S  S38  1  0.88049300  0.12588800  0.40863100  1
  S  S39  1  0.11496600  0.10494300  0.68230700  1
  S  S40  1  0.61950700  0.87411200  0.90863100  1
  S  S41  1  0.38049300  0.12588800  0.09136900  1
  S  S42  1  0.65246200  0.05395600  0.58517800  1
  S  S43  1  0.61950700  0.62588800  0.40863100  1
  S  S44  1  0.15246200  0.44604400  0.41482200  1
  S  S45  1  0.15246200  0.05395600  0.91482200  1
  S  S46  1  0.65246200  0.44604400  0.08517800  1
  S  S47  1  0.88049300  0.37411200  0.90863100  1
  S  S48  1  0.38049300  0.37411200  0.59136900  1
  S  S49  1  0.38503400  0.60494300  0.68230700  1
  S  S50  1  0.84753800  0.55395600  0.58517800  1
  S  S51  1  0.38503400  0.89505700  0.18230700  1
  S  S52  1  0.11950700  0.87411200  0.59136900  1
  S  S53  1  0.34753800  0.94604400  0.41482200  1
  S  S54  1  0.84753800  0.94604400  0.08517800  1
  S  S55  1  0.88503400  0.60494300  0.81769300  1
