# generated using pymatgen
data_Na3CrF6
_symmetry_space_group_name_H-M   'P 1'
_cell_length_a   5.80622600
_cell_length_b   5.57048800
_cell_length_c   9.76482522
_cell_angle_alpha   55.60126609
_cell_angle_beta   90.00000000
_cell_angle_gamma   90.00000000
_symmetry_Int_Tables_number   1
_chemical_formula_structural   Na3CrF6
_chemical_formula_sum   'Na6 Cr2 F12'
_cell_volume   260.59850275
_cell_formula_units_Z   2
loop_
 _symmetry_equiv_pos_site_id
 _symmetry_equiv_pos_as_xyz
  1  'x, y, z'
loop_
 _atom_site_type_symbol
 _atom_site_label
 _atom_site_symmetry_multiplicity
 _atom_site_fract_x
 _atom_site_fract_y
 _atom_site_fract_z
 _atom_site_occupancy
  Na  Na0  1  0.55733700  0.72709500  0.25561900  1
  Na  Na1  1  0.05733700  0.27290500  0.24438100  1
  Na  Na2  1  0.44266300  0.27290500  0.74438100  1
  Na  Na3  1  0.94266300  0.72709500  0.75561900  1
  Na  Na4  1  0.50000000  0.50000000  0.00000000  1
  Na  Na5  1  0.00000000  0.50000000  0.50000000  1
  Cr  Cr6  1  0.50000000  0.00000000  0.50000000  1
  Cr  Cr7  1  0.00000000  0.00000000  0.00000000  1
  F  F8  1  0.22235300  0.75873600  0.57293600  1
  F  F9  1  0.72235300  0.24126400  0.92706400  1
  F  F10  1  0.77764700  0.24126400  0.42706400  1
  F  F11  1  0.27764700  0.75873600  0.07293600  1
  F  F12  1  0.32135600  0.33777700  0.44739300  1
  F  F13  1  0.82135600  0.66222300  0.05260700  1
  F  F14  1  0.67864400  0.66222300  0.55260700  1
  F  F15  1  0.17864400  0.33777700  0.94739300  1
  F  F16  1  0.05739600  0.10703200  0.77458000  1
  F  F17  1  0.55739600  0.89296800  0.72542000  1
  F  F18  1  0.94260400  0.89296800  0.22542000  1
  F  F19  1  0.44260400  0.10703200  0.27458000  1
