# generated using pymatgen
data_La5Sb4(O4F)3
_symmetry_space_group_name_H-M   'P 1'
_cell_length_a   12.29337400
_cell_length_b   12.29337400
_cell_length_c   11.62368400
_cell_angle_alpha   90.00000000
_cell_angle_beta   90.00000000
_cell_angle_gamma   90.00000000
_symmetry_Int_Tables_number   1
_chemical_formula_structural   La5Sb4(O4F)3
_chemical_formula_sum   'La20 Sb16 O48 F12'
_cell_volume   1756.65300684
_cell_formula_units_Z   4
loop_
 _symmetry_equiv_pos_site_id
 _symmetry_equiv_pos_as_xyz
  1  'x, y, z'
loop_
 _atom_site_type_symbol
 _atom_site_label
 _atom_site_symmetry_multiplicity
 _atom_site_fract_x
 _atom_site_fract_y
 _atom_site_fract_z
 _atom_site_occupancy
  La  La0  1  0.14788500  0.32887600  0.60507300  1
  La  La1  1  0.17112400  0.35211500  0.10507300  1
  La  La2  1  0.35211500  0.82887600  0.89492700  1
  La  La3  1  0.00000000  0.50000000  0.35127200  1
  La  La4  1  0.67112400  0.14788500  0.39492700  1
  La  La5  1  0.17112400  0.64788500  0.60507300  1
  La  La6  1  0.64788500  0.17112400  0.89492700  1
  La  La7  1  0.00000000  0.50000000  0.85127200  1
  La  La8  1  0.50000000  0.00000000  0.64872800  1
  La  La9  1  0.64788500  0.82887600  0.39492700  1
  La  La10  1  0.67112400  0.85211500  0.89492700  1
  La  La11  1  0.35211500  0.17112400  0.39492700  1
  La  La12  1  0.82887600  0.35211500  0.60507300  1
  La  La13  1  0.82887600  0.64788500  0.10507300  1
  La  La14  1  0.32887600  0.14788500  0.89492700  1
  La  La15  1  0.85211500  0.67112400  0.60507300  1
  La  La16  1  0.85211500  0.32887600  0.10507300  1
  La  La17  1  0.14788500  0.67112400  0.10507300  1
  La  La18  1  0.50000000  0.00000000  0.14872800  1
  La  La19  1  0.32887600  0.85211500  0.39492700  1
  Sb  Sb20  1  0.79925500  0.98614000  0.12926000  1
  Sb  Sb21  1  0.01386000  0.79925500  0.87074000  1
  Sb  Sb22  1  0.20074500  0.01386000  0.12926000  1
  Sb  Sb23  1  0.98614000  0.79925500  0.37074000  1
  Sb  Sb24  1  0.79925500  0.01386000  0.62926000  1
  Sb  Sb25  1  0.01386000  0.20074500  0.37074000  1
  Sb  Sb26  1  0.20074500  0.98614000  0.62926000  1
  Sb  Sb27  1  0.29925500  0.48614000  0.87074000  1
  Sb  Sb28  1  0.29925500  0.51386000  0.37074000  1
  Sb  Sb29  1  0.51386000  0.29925500  0.12926000  1
  Sb  Sb30  1  0.98614000  0.20074500  0.87074000  1
  Sb  Sb31  1  0.48614000  0.29925500  0.62926000  1
  Sb  Sb32  1  0.48614000  0.70074500  0.12926000  1
  Sb  Sb33  1  0.70074500  0.51386000  0.87074000  1
  Sb  Sb34  1  0.51386000  0.70074500  0.62926000  1
  Sb  Sb35  1  0.70074500  0.48614000  0.37074000  1
  O  O36  1  0.47356100  0.80872900  0.25707400  1
  O  O37  1  0.80872900  0.52643900  0.74292600  1
  O  O38  1  0.47907800  0.17345300  0.02611200  1
  O  O39  1  0.69127100  0.02643900  0.75707400  1
  O  O40  1  0.80043200  0.83778400  0.06300800  1
  O  O41  1  0.19127100  0.47356100  0.74292600  1
  O  O42  1  0.33778400  0.69956800  0.06300800  1
  O  O43  1  0.19127100  0.52643900  0.24292600  1
  O  O44  1  0.30872900  0.97356100  0.75707400  1
  O  O45  1  0.17345300  0.47907800  0.47388800  1
  O  O46  1  0.02643900  0.69127100  0.74292600  1
  O  O47  1  0.32654700  0.02092200  0.52611200  1
  O  O48  1  0.33778400  0.30043200  0.56300800  1
  O  O49  1  0.80043200  0.16221600  0.56300800  1
  O  O50  1  0.66221600  0.30043200  0.06300800  1
  O  O51  1  0.19956800  0.16221600  0.06300800  1
  O  O52  1  0.02092200  0.32654700  0.97388800  1
  O  O53  1  0.19956800  0.83778400  0.56300800  1
  O  O54  1  0.52092200  0.17345300  0.52611200  1
  O  O55  1  0.67345300  0.97907800  0.52611200  1
  O  O56  1  0.97356100  0.69127100  0.24292600  1
  O  O57  1  0.17345300  0.52092200  0.97388800  1
  O  O58  1  0.66221600  0.69956800  0.56300800  1
  O  O59  1  0.30043200  0.33778400  0.93699200  1
  O  O60  1  0.97356100  0.30872900  0.74292600  1
  O  O61  1  0.97907800  0.32654700  0.47388800  1
  O  O62  1  0.30043200  0.66221600  0.43699200  1
  O  O63  1  0.82654700  0.52092200  0.47388800  1
  O  O64  1  0.52643900  0.80872900  0.75707400  1
  O  O65  1  0.47907800  0.82654700  0.52611200  1
  O  O66  1  0.97907800  0.67345300  0.97388800  1
  O  O67  1  0.69956800  0.66221600  0.93699200  1
  O  O68  1  0.02643900  0.30872900  0.24292600  1
  O  O69  1  0.69127100  0.97356100  0.25707400  1
  O  O70  1  0.83778400  0.80043200  0.43699200  1
  O  O71  1  0.47356100  0.19127100  0.75707400  1
  O  O72  1  0.80872900  0.47356100  0.24292600  1
  O  O73  1  0.67345300  0.02092200  0.02611200  1
  O  O74  1  0.82654700  0.47907800  0.97388800  1
  O  O75  1  0.30872900  0.02643900  0.25707400  1
  O  O76  1  0.52643900  0.19127100  0.25707400  1
  O  O77  1  0.16221600  0.19956800  0.43699200  1
  O  O78  1  0.32654700  0.97907800  0.02611200  1
  O  O79  1  0.52092200  0.82654700  0.02611200  1
  O  O80  1  0.16221600  0.80043200  0.93699200  1
  O  O81  1  0.02092200  0.67345300  0.47388800  1
  O  O82  1  0.69956800  0.33778400  0.43699200  1
  O  O83  1  0.83778400  0.19956800  0.93699200  1
  F  F84  1  0.50000000  0.00000000  0.36950100  1
  F  F85  1  0.80518600  0.80518600  0.75000000  1
  F  F86  1  0.30518600  0.69481400  0.75000000  1
  F  F87  1  0.50000000  0.00000000  0.86950100  1
  F  F88  1  0.00000000  0.50000000  0.13049900  1
  F  F89  1  0.30518600  0.30518600  0.25000000  1
  F  F90  1  0.80518600  0.19481400  0.25000000  1
  F  F91  1  0.69481400  0.69481400  0.25000000  1
  F  F92  1  0.69481400  0.30518600  0.75000000  1
  F  F93  1  0.00000000  0.50000000  0.63049900  1
  F  F94  1  0.19481400  0.80518600  0.25000000  1
  F  F95  1  0.19481400  0.19481400  0.75000000  1
