# generated using pymatgen
data_SbF4
_symmetry_space_group_name_H-M   'P 1'
_cell_length_a   12.25595700
_cell_length_b   9.60751700
_cell_length_c   11.81984481
_cell_angle_alpha   73.09931512
_cell_angle_beta   90.00000000
_cell_angle_gamma   90.00000000
_symmetry_Int_Tables_number   1
_chemical_formula_structural   SbF4
_chemical_formula_sum   'Sb16 F64'
_cell_volume   1331.66786493
_cell_formula_units_Z   16
loop_
 _symmetry_equiv_pos_site_id
 _symmetry_equiv_pos_as_xyz
  1  'x, y, z'
loop_
 _atom_site_type_symbol
 _atom_site_label
 _atom_site_symmetry_multiplicity
 _atom_site_fract_x
 _atom_site_fract_y
 _atom_site_fract_z
 _atom_site_occupancy
  Sb  Sb0  1  0.57866600  0.24014500  0.55851800  1
  Sb  Sb1  1  0.07866600  0.75985500  0.94148200  1
  Sb  Sb2  1  0.65912300  0.77238000  0.04522500  1
  Sb  Sb3  1  0.90867000  0.20129800  0.70766600  1
  Sb  Sb4  1  0.92133400  0.24014500  0.05851800  1
  Sb  Sb5  1  0.84740400  0.38479500  0.35138000  1
  Sb  Sb6  1  0.84087700  0.77238000  0.54522500  1
  Sb  Sb7  1  0.34087700  0.22762000  0.95477500  1
  Sb  Sb8  1  0.59133000  0.20129800  0.20766600  1
  Sb  Sb9  1  0.34740400  0.61520500  0.14862000  1
  Sb  Sb10  1  0.42133400  0.75985500  0.44148200  1
  Sb  Sb11  1  0.40867000  0.79870200  0.79233400  1
  Sb  Sb12  1  0.15912300  0.22762000  0.45477500  1
  Sb  Sb13  1  0.65259600  0.38479500  0.85138000  1
  Sb  Sb14  1  0.15259600  0.61520500  0.64862000  1
  Sb  Sb15  1  0.09133000  0.79870200  0.29233400  1
  F  F16  1  0.41557700  0.64793100  0.32633300  1
  F  F17  1  0.68440500  0.62559600  0.96892200  1
  F  F18  1  0.79320500  0.13777800  0.13179400  1
  F  F19  1  0.88808800  0.34121700  0.54129600  1
  F  F20  1  0.45816100  0.35449000  0.48816700  1
  F  F21  1  0.08038000  0.85773300  0.06284400  1
  F  F22  1  0.11863700  0.08715400  0.37784600  1
  F  F23  1  0.81559500  0.62559600  0.46892200  1
  F  F24  1  0.58038000  0.14226700  0.43715600  1
  F  F25  1  0.02172600  0.33139900  0.72800200  1
  F  F26  1  0.67933800  0.38313200  0.45909800  1
  F  F27  1  0.47827400  0.33139900  0.22800200  1
  F  F28  1  0.32066200  0.61686800  0.54090200  1
  F  F29  1  0.65874900  0.17715200  0.89829700  1
  F  F30  1  0.38136300  0.08715400  0.87784600  1
  F  F31  1  0.05635600  0.13968600  0.58238800  1
  F  F32  1  0.49220700  0.09278300  0.66109600  1
  F  F33  1  0.77573000  0.88737800  0.96337600  1
  F  F34  1  0.50779300  0.90721700  0.33890400  1
  F  F35  1  0.27573000  0.11262200  0.53662400  1
  F  F36  1  0.84125100  0.17715200  0.39829700  1
  F  F37  1  0.58442300  0.35206900  0.67366700  1
  F  F38  1  0.94364400  0.86031400  0.41761200  1
  F  F39  1  0.30014600  0.65588200  0.75517200  1
  F  F40  1  0.00779300  0.09278300  0.16109600  1
  F  F41  1  0.17933800  0.61686800  0.04090200  1
  F  F42  1  0.15874900  0.82284800  0.60170300  1
  F  F43  1  0.96732700  0.65205800  0.62823000  1
  F  F44  1  0.22427000  0.11262200  0.03662400  1
  F  F45  1  0.72427000  0.88737800  0.46337600  1
  F  F46  1  0.70679500  0.13777800  0.63179400  1
  F  F47  1  0.61863700  0.91284600  0.12215400  1
  F  F48  1  0.74554200  0.66935200  0.17725800  1
  F  F49  1  0.41962000  0.85773300  0.56284400  1
  F  F50  1  0.52172600  0.66860100  0.77199800  1
  F  F51  1  0.29320500  0.86222200  0.36820600  1
  F  F52  1  0.91962000  0.14226700  0.93715600  1
  F  F53  1  0.11191200  0.65878300  0.45870400  1
  F  F54  1  0.88136300  0.91284600  0.62215400  1
  F  F55  1  0.97827400  0.66860100  0.27199800  1
  F  F56  1  0.31559500  0.37440400  0.03107800  1
  F  F57  1  0.34125100  0.82284800  0.10170300  1
  F  F58  1  0.54183900  0.64551000  0.51183300  1
  F  F59  1  0.04183900  0.35449000  0.98816700  1
  F  F60  1  0.18440500  0.37440400  0.53107800  1
  F  F61  1  0.82066200  0.38313200  0.95909800  1
  F  F62  1  0.55635600  0.86031400  0.91761200  1
  F  F63  1  0.25445800  0.33064800  0.82274200  1
  F  F64  1  0.24554200  0.33064800  0.32274200  1
  F  F65  1  0.69985400  0.34411800  0.24482800  1
  F  F66  1  0.61191200  0.34121700  0.04129600  1
  F  F67  1  0.99220700  0.90721700  0.83890400  1
  F  F68  1  0.46732700  0.34794200  0.87177000  1
  F  F69  1  0.95816100  0.64551000  0.01183300  1
  F  F70  1  0.53267300  0.65205800  0.12823000  1
  F  F71  1  0.75445800  0.66935200  0.67725800  1
  F  F72  1  0.44364400  0.13968600  0.08238800  1
  F  F73  1  0.80014600  0.34411800  0.74482800  1
  F  F74  1  0.03267300  0.34794200  0.37177000  1
  F  F75  1  0.91557700  0.35206900  0.17366700  1
  F  F76  1  0.38808800  0.65878300  0.95870400  1
  F  F77  1  0.08442300  0.64793100  0.82633300  1
  F  F78  1  0.20679500  0.86222200  0.86820600  1
  F  F79  1  0.19985400  0.65588200  0.25517200  1
