# generated using pymatgen
data_AgAuCl4
_symmetry_space_group_name_H-M   'P 1'
_cell_length_a   6.97006202
_cell_length_b   6.97006202
_cell_length_c   13.20699797
_cell_angle_alpha   64.71269876
_cell_angle_beta   64.71269876
_cell_angle_gamma   36.70282400
_symmetry_Int_Tables_number   1
_chemical_formula_structural   AgAuCl4
_chemical_formula_sum   'Ag2 Au2 Cl8'
_cell_volume   342.44373630
_cell_formula_units_Z   2
loop_
 _symmetry_equiv_pos_site_id
 _symmetry_equiv_pos_as_xyz
  1  'x, y, z'
loop_
 _atom_site_type_symbol
 _atom_site_label
 _atom_site_symmetry_multiplicity
 _atom_site_fract_x
 _atom_site_fract_y
 _atom_site_fract_z
 _atom_site_occupancy
  Ag  Ag0  1  0.50825800  0.49174200  0.75000000  1
  Ag  Ag1  1  0.49174200  0.50825800  0.25000000  1
  Au  Au2  1  0.00000000  0.00000000  0.00000000  1
  Au  Au3  1  0.00000000  0.00000000  0.50000000  1
  Cl  Cl4  1  0.05340500  0.16808000  0.09475900  1
  Cl  Cl5  1  0.83192000  0.94659500  0.40524100  1
  Cl  Cl6  1  0.43593200  0.81153600  0.35354300  1
  Cl  Cl7  1  0.18846400  0.56406800  0.14645700  1
  Cl  Cl8  1  0.56406800  0.18846400  0.64645700  1
  Cl  Cl9  1  0.94659500  0.83192000  0.90524100  1
  Cl  Cl10  1  0.16808000  0.05340500  0.59475900  1
  Cl  Cl11  1  0.81153600  0.43593200  0.85354300  1
