# generated using pymatgen
data_KAu(NO3)4
_symmetry_space_group_name_H-M   'P 1'
_cell_length_a   7.34531200
_cell_length_b   8.66038500
_cell_length_c   10.38908718
_cell_angle_alpha   59.34359102
_cell_angle_beta   90.00000000
_cell_angle_gamma   90.00000000
_symmetry_Int_Tables_number   1
_chemical_formula_structural   KAu(NO3)4
_chemical_formula_sum   'K2 Au2 N8 O24'
_cell_volume   568.51862360
_cell_formula_units_Z   2
loop_
 _symmetry_equiv_pos_site_id
 _symmetry_equiv_pos_as_xyz
  1  'x, y, z'
loop_
 _atom_site_type_symbol
 _atom_site_label
 _atom_site_symmetry_multiplicity
 _atom_site_fract_x
 _atom_site_fract_y
 _atom_site_fract_z
 _atom_site_occupancy
  K  K0  1  0.50000000  0.50000000  0.00000000  1
  K  K1  1  0.00000000  0.50000000  0.50000000  1
  Au  Au2  1  0.00000000  0.00000000  0.00000000  1
  Au  Au3  1  0.50000000  0.00000000  0.50000000  1
  N  N4  1  0.24418100  0.69698300  0.16150200  1
  N  N5  1  0.39237200  0.16655000  0.67103600  1
  N  N6  1  0.89237200  0.83345000  0.82896400  1
  N  N7  1  0.60762800  0.83345000  0.32896400  1
  N  N8  1  0.25581900  0.69698300  0.66150200  1
  N  N9  1  0.74418100  0.30301700  0.33849800  1
  N  N10  1  0.75581900  0.30301700  0.83849800  1
  N  N11  1  0.10762800  0.16655000  0.17103600  1
  O  O12  1  0.98402400  0.06972300  0.25082400  1
  O  O13  1  0.80365300  0.43498900  0.22445700  1
  O  O14  1  0.29625500  0.75509400  0.03183700  1
  O  O15  1  0.35089200  0.17000700  0.54130500  1
  O  O16  1  0.29584400  0.26752000  0.69327800  1
  O  O17  1  0.51597600  0.06972300  0.75082400  1
  O  O18  1  0.70415600  0.73248000  0.30672200  1
  O  O19  1  0.69634700  0.43498900  0.72445700  1
  O  O20  1  0.14910800  0.17000700  0.04130500  1
  O  O21  1  0.48402400  0.93027700  0.24917600  1
  O  O22  1  0.85089200  0.82999300  0.95869500  1
  O  O23  1  0.01597600  0.93027700  0.74917600  1
  O  O24  1  0.60607100  0.21775900  0.31269500  1
  O  O25  1  0.79625500  0.24490600  0.46816300  1
  O  O26  1  0.10607100  0.78224100  0.18730500  1
  O  O27  1  0.89392900  0.21775900  0.81269500  1
  O  O28  1  0.30365300  0.56501100  0.27554300  1
  O  O29  1  0.64910800  0.82999300  0.45869500  1
  O  O30  1  0.19634700  0.56501100  0.77554300  1
  O  O31  1  0.70374500  0.24490600  0.96816300  1
  O  O32  1  0.79584400  0.73248000  0.80672200  1
  O  O33  1  0.39392900  0.78224100  0.68730500  1
  O  O34  1  0.20415600  0.26752000  0.19327800  1
  O  O35  1  0.20374500  0.75509400  0.53183700  1
