# generated using pymatgen
data_KInSnSe4
_symmetry_space_group_name_H-M   'P 1'
_cell_length_a   12.94545600
_cell_length_b   8.04403000
_cell_length_c   18.88152994
_cell_angle_alpha   81.75242610
_cell_angle_beta   90.00000000
_cell_angle_gamma   90.00000000
_symmetry_Int_Tables_number   1
_chemical_formula_structural   KInSnSe4
_chemical_formula_sum   'K8 In8 Sn8 Se32'
_cell_volume   1945.86685130
_cell_formula_units_Z   8
loop_
 _symmetry_equiv_pos_site_id
 _symmetry_equiv_pos_as_xyz
  1  'x, y, z'
loop_
 _atom_site_type_symbol
 _atom_site_label
 _atom_site_symmetry_multiplicity
 _atom_site_fract_x
 _atom_site_fract_y
 _atom_site_fract_z
 _atom_site_occupancy
  K  K0  1  0.07038900  0.74677000  0.67914400  1
  K  K1  1  0.42961100  0.74677000  0.17914400  1
  K  K2  1  0.60151800  0.26402600  0.45602400  1
  K  K3  1  0.39848200  0.73597400  0.54397600  1
  K  K4  1  0.57038900  0.25323000  0.82085600  1
  K  K5  1  0.10151800  0.73597400  0.04397600  1
  K  K6  1  0.92961100  0.25323000  0.32085600  1
  K  K7  1  0.89848200  0.26402600  0.95602400  1
  In  In8  1  0.75705000  0.53148400  0.15775700  1
  In  In9  1  0.25705000  0.46851600  0.34224300  1
  In  In10  1  0.24339500  0.96271000  0.85773400  1
  In  In11  1  0.75660500  0.03729000  0.14226600  1
  In  In12  1  0.24295000  0.46851600  0.84224300  1
  In  In13  1  0.25660500  0.96271000  0.35773400  1
  In  In14  1  0.74339500  0.03729000  0.64226600  1
  In  In15  1  0.74295000  0.53148400  0.65775700  1
  Sn  Sn16  1  0.32838600  0.19768700  0.01523000  1
  Sn  Sn17  1  0.29556900  0.24378400  0.67557300  1
  Sn  Sn18  1  0.82838600  0.80231300  0.48477000  1
  Sn  Sn19  1  0.70443100  0.75621600  0.32442700  1
  Sn  Sn20  1  0.17161400  0.19768700  0.51523000  1
  Sn  Sn21  1  0.67161400  0.80231300  0.98477000  1
  Sn  Sn22  1  0.20443100  0.24378400  0.17557300  1
  Sn  Sn23  1  0.79556900  0.75621600  0.82442700  1
  Se  Se24  1  0.17214500  0.53358500  0.21181200  1
  Se  Se25  1  0.39700100  0.19348300  0.14475400  1
  Se  Se26  1  0.86510600  0.74696100  0.95472800  1
  Se  Se27  1  0.63489400  0.74696100  0.45472800  1
  Se  Se28  1  0.10299900  0.19348300  0.64475400  1
  Se  Se29  1  0.82785500  0.46641500  0.78818800  1
  Se  Se30  1  0.84736100  0.09702700  0.51902200  1
  Se  Se31  1  0.11859300  0.99745000  0.25388700  1
  Se  Se32  1  0.38315600  0.71077100  0.35908900  1
  Se  Se33  1  0.90430900  0.56136000  0.57191100  1
  Se  Se34  1  0.38140700  0.99745000  0.75388700  1
  Se  Se35  1  0.61684400  0.28922900  0.64091100  1
  Se  Se36  1  0.67214500  0.46641500  0.28818800  1
  Se  Se37  1  0.15263900  0.90297300  0.48097800  1
  Se  Se38  1  0.88315600  0.28922900  0.14091100  1
  Se  Se39  1  0.65263900  0.09702700  0.01902200  1
  Se  Se40  1  0.38221400  0.21602700  0.34660900  1
  Se  Se41  1  0.89700100  0.80651700  0.35524600  1
  Se  Se42  1  0.11684400  0.71077100  0.85908900  1
  Se  Se43  1  0.32785500  0.53358500  0.71181200  1
  Se  Se44  1  0.59569100  0.56136000  0.07191100  1
  Se  Se45  1  0.09569100  0.43864000  0.42808900  1
  Se  Se46  1  0.88221400  0.78397300  0.15339100  1
  Se  Se47  1  0.61859300  0.00255000  0.24611300  1
  Se  Se48  1  0.13489400  0.25303900  0.04527200  1
  Se  Se49  1  0.61778600  0.78397300  0.65339100  1
  Se  Se50  1  0.60299900  0.80651700  0.85524600  1
  Se  Se51  1  0.34736100  0.90297300  0.98097800  1
  Se  Se52  1  0.36510600  0.25303900  0.54527200  1
  Se  Se53  1  0.40430900  0.43864000  0.92808900  1
  Se  Se54  1  0.11778600  0.21602700  0.84660900  1
  Se  Se55  1  0.88140700  0.00255000  0.74611300  1
