# generated using pymatgen
data_NdSeClO3
_symmetry_space_group_name_H-M   'P 1'
_cell_length_a   5.42704500
_cell_length_b   11.29983900
_cell_length_c   13.66578000
_cell_angle_alpha   90.00000000
_cell_angle_beta   90.00000000
_cell_angle_gamma   90.00000000
_symmetry_Int_Tables_number   1
_chemical_formula_structural   NdSeClO3
_chemical_formula_sum   'Nd8 Se8 Cl8 O24'
_cell_volume   838.05033359
_cell_formula_units_Z   8
loop_
 _symmetry_equiv_pos_site_id
 _symmetry_equiv_pos_as_xyz
  1  'x, y, z'
loop_
 _atom_site_type_symbol
 _atom_site_label
 _atom_site_symmetry_multiplicity
 _atom_site_fract_x
 _atom_site_fract_y
 _atom_site_fract_z
 _atom_site_occupancy
  Nd  Nd0  1  0.25000000  0.42793200  0.85543500  1
  Nd  Nd1  1  0.75000000  0.92914600  0.10014500  1
  Nd  Nd2  1  0.25000000  0.07085400  0.89985500  1
  Nd  Nd3  1  0.25000000  0.92793200  0.64456500  1
  Nd  Nd4  1  0.25000000  0.57085400  0.60014500  1
  Nd  Nd5  1  0.75000000  0.42914600  0.39985500  1
  Nd  Nd6  1  0.75000000  0.07206800  0.35543500  1
  Nd  Nd7  1  0.75000000  0.57206800  0.14456500  1
  Se  Se8  1  0.75000000  0.24071300  0.97023600  1
  Se  Se9  1  0.25000000  0.25928700  0.47023600  1
  Se  Se10  1  0.75000000  0.74071300  0.52976400  1
  Se  Se11  1  0.25000000  0.15204800  0.18371500  1
  Se  Se12  1  0.75000000  0.84795200  0.81628500  1
  Se  Se13  1  0.25000000  0.75928700  0.02976400  1
  Se  Se14  1  0.75000000  0.34795200  0.68371500  1
  Se  Se15  1  0.25000000  0.65204800  0.31628500  1
  Cl  Cl16  1  0.25000000  0.16672300  0.70035800  1
  Cl  Cl17  1  0.75000000  0.33327700  0.20035800  1
  Cl  Cl18  1  0.75000000  0.83327700  0.29964200  1
  Cl  Cl19  1  0.25000000  0.48222500  0.06776800  1
  Cl  Cl20  1  0.75000000  0.01777500  0.56776800  1
  Cl  Cl21  1  0.25000000  0.98222500  0.43223200  1
  Cl  Cl22  1  0.75000000  0.51777500  0.93223200  1
  Cl  Cl23  1  0.25000000  0.66672300  0.79964200  1
  O  O24  1  0.25000000  0.65752300  0.44015100  1
  O  O25  1  0.75000000  0.58562100  0.52614500  1
  O  O26  1  0.49867000  0.05660100  0.20796000  1
  O  O27  1  0.25000000  0.15752300  0.05984900  1
  O  O28  1  0.00133000  0.05660100  0.20796000  1
  O  O29  1  0.25000000  0.41437900  0.47385500  1
  O  O30  1  0.75000000  0.08562100  0.97385500  1
  O  O31  1  0.49625800  0.74336900  0.11008300  1
  O  O32  1  0.50374200  0.25663100  0.88991700  1
  O  O33  1  0.50133000  0.44339900  0.70796000  1
  O  O34  1  0.99867000  0.44339900  0.70796000  1
  O  O35  1  0.99625800  0.25663100  0.88991700  1
  O  O36  1  0.75000000  0.84247700  0.94015100  1
  O  O37  1  0.25000000  0.91437900  0.02614500  1
  O  O38  1  0.99625800  0.75663100  0.61008300  1
  O  O39  1  0.50374200  0.75663100  0.61008300  1
  O  O40  1  0.00133000  0.55660100  0.29204000  1
  O  O41  1  0.50133000  0.94339900  0.79204000  1
  O  O42  1  0.00374200  0.24336900  0.38991700  1
  O  O43  1  0.49867000  0.55660100  0.29204000  1
  O  O44  1  0.75000000  0.34247700  0.55984900  1
  O  O45  1  0.49625800  0.24336900  0.38991700  1
  O  O46  1  0.99867000  0.94339900  0.79204000  1
  O  O47  1  0.00374200  0.74336900  0.11008300  1
