# generated using pymatgen
data_CeAs2Pd3
_symmetry_space_group_name_H-M   'P 1'
_cell_length_a   8.65265041
_cell_length_b   8.65265041
_cell_length_c   10.09712486
_cell_angle_alpha   72.70370087
_cell_angle_beta   72.70370087
_cell_angle_gamma   27.72759837
_symmetry_Int_Tables_number   1
_chemical_formula_structural   CeAs2Pd3
_chemical_formula_sum   'Ce3 As6 Pd9'
_cell_volume   334.82401779
_cell_formula_units_Z   3
loop_
 _symmetry_equiv_pos_site_id
 _symmetry_equiv_pos_as_xyz
  1  'x, y, z'
loop_
 _atom_site_type_symbol
 _atom_site_label
 _atom_site_symmetry_multiplicity
 _atom_site_fract_x
 _atom_site_fract_y
 _atom_site_fract_z
 _atom_site_occupancy
  Ce  Ce0  1  0.15569100  0.15569100  0.29789900  1
  Ce  Ce1  1  0.84430900  0.84430900  0.70210100  1
  Ce  Ce2  1  0.00000000  0.00000000  0.00000000  1
  As  As3  1  0.80112800  0.80112800  0.12914100  1
  As  As4  1  0.63661700  0.63661700  0.54364700  1
  As  As5  1  0.36338300  0.36338300  0.45635300  1
  As  As6  1  0.19887200  0.19887200  0.87085900  1
  As  As7  1  0.53761000  0.53761000  0.21268300  1
  As  As8  1  0.46239000  0.46239000  0.78731700  1
  Pd  Pd9  1  0.04254300  0.04254300  0.66565100  1
  Pd  Pd10  1  0.32181800  0.32181800  0.96693900  1
  Pd  Pd11  1  0.67818200  0.67818200  0.03306100  1
  Pd  Pd12  1  0.78026700  0.78026700  0.39178400  1
  Pd  Pd13  1  0.37446400  0.37446400  0.20381400  1
  Pd  Pd14  1  0.95745700  0.95745700  0.33434900  1
  Pd  Pd15  1  0.21973300  0.21973300  0.60821600  1
  Pd  Pd16  1  0.50000000  0.50000000  0.50000000  1
  Pd  Pd17  1  0.62553600  0.62553600  0.79618600  1
