# generated using pymatgen
data_La(IO3)3
_symmetry_space_group_name_H-M   'P 1'
_cell_length_a   7.29166815
_cell_length_b   7.29166815
_cell_length_c   28.19745420
_cell_angle_alpha   80.16981651
_cell_angle_beta   80.16981651
_cell_angle_gamma   59.16847787
_symmetry_Int_Tables_number   1
_chemical_formula_structural   La(IO3)3
_chemical_formula_sum   'La6 I18 O54'
_cell_volume   1262.28972151
_cell_formula_units_Z   6
loop_
 _symmetry_equiv_pos_site_id
 _symmetry_equiv_pos_as_xyz
  1  'x, y, z'
loop_
 _atom_site_type_symbol
 _atom_site_label
 _atom_site_symmetry_multiplicity
 _atom_site_fract_x
 _atom_site_fract_y
 _atom_site_fract_z
 _atom_site_occupancy
  La  La0  1  0.37400200  0.15611700  0.40655900  1
  La  La1  1  0.20706200  0.93934300  0.12682300  1
  La  La2  1  0.93934300  0.20706200  0.62682300  1
  La  La3  1  0.79014300  0.86255400  0.26477800  1
  La  La4  1  0.15611700  0.37400200  0.90655900  1
  La  La5  1  0.86255400  0.79014300  0.76477800  1
  I  I6  1  0.85784200  0.63669700  0.15070800  1
  I  I7  1  0.63669700  0.85784200  0.65070800  1
  I  I8  1  0.16883300  0.46689400  0.52256800  1
  I  I9  1  0.41300700  0.47397900  0.29077900  1
  I  I10  1  0.47397900  0.41300700  0.79077900  1
  I  I11  1  0.90770700  0.01022300  0.87935500  1
  I  I12  1  0.53358200  0.76657100  0.52797000  1
  I  I13  1  0.27649300  0.57349000  0.65038400  1
  I  I14  1  0.55226800  0.72750900  0.87738000  1
  I  I15  1  0.89344100  0.10177400  0.49977800  1
  I  I16  1  0.13272900  0.16228300  0.74124000  1
  I  I17  1  0.57349000  0.27649300  0.15038400  1
  I  I18  1  0.01022300  0.90770700  0.37935500  1
  I  I19  1  0.46689400  0.16883300  0.02256800  1
  I  I20  1  0.10177400  0.89344100  0.99977800  1
  I  I21  1  0.16228300  0.13272900  0.24124000  1
  I  I22  1  0.76657100  0.53358200  0.02797000  1
  I  I23  1  0.72750900  0.55226800  0.37738000  1
  O  O24  1  0.24060900  0.20606500  0.06864100  1
  O  O25  1  0.21061200  0.24042500  0.67833100  1
  O  O26  1  0.59385000  0.23165300  0.21631800  1
  O  O27  1  0.76697900  0.16100500  0.39860100  1
  O  O28  1  0.57623700  0.80963400  0.46107500  1
  O  O29  1  0.89457300  0.85770100  0.16437400  1
  O  O30  1  0.18914900  0.51082500  0.81174000  1
  O  O31  1  0.03463000  0.84335500  0.47314700  1
  O  O32  1  0.75806700  0.51066200  0.31373500  1
  O  O33  1  0.55566900  0.35828200  0.64726000  1
  O  O34  1  0.98810700  0.96635700  0.31323300  1
  O  O35  1  0.33808100  0.54280500  0.35414600  1
  O  O36  1  0.31439500  0.55054600  0.55183800  1
  O  O37  1  0.74451700  0.48444800  0.53850400  1
  O  O38  1  0.91627200  0.42403500  0.75839100  1
  O  O39  1  0.37470000  0.34173000  0.47198200  1
  O  O40  1  0.31339100  0.81143800  0.63092200  1
  O  O41  1  0.10379800  0.17205300  0.47805000  1
  O  O42  1  0.07329600  0.97003500  0.21880100  1
  O  O43  1  0.16100500  0.76697900  0.89860100  1
  O  O44  1  0.00524100  0.43474700  0.38898700  1
  O  O45  1  0.83013100  0.68490700  0.86178400  1
  O  O46  1  0.51082500  0.18914900  0.31174000  1
  O  O47  1  0.42403500  0.91627200  0.25839100  1
  O  O48  1  0.81236900  0.58040000  0.63736400  1
  O  O49  1  0.01671200  0.95146300  0.06275200  1
  O  O50  1  0.55445700  0.81907200  0.71509700  1
  O  O51  1  0.17205300  0.10379800  0.97805000  1
  O  O52  1  0.20606500  0.24060900  0.56864100  1
  O  O53  1  0.35828200  0.55566900  0.14726000  1
  O  O54  1  0.15425700  0.53863600  0.27326600  1
  O  O55  1  0.51066200  0.75806700  0.81373500  1
  O  O56  1  0.23165300  0.59385000  0.71631800  1
  O  O57  1  0.22360500  0.96930800  0.37903500  1
  O  O58  1  0.81907200  0.55445700  0.21509700  1
  O  O59  1  0.48444800  0.74451700  0.03850400  1
  O  O60  1  0.34173000  0.37470000  0.97198200  1
  O  O61  1  0.88994000  0.67106100  0.04621600  1
  O  O62  1  0.96930800  0.22360500  0.87903500  1
  O  O63  1  0.97003500  0.07329600  0.71880100  1
  O  O64  1  0.95146300  0.01671200  0.56275200  1
  O  O65  1  0.81143800  0.31339100  0.13092200  1
  O  O66  1  0.24042500  0.21061200  0.17833100  1
  O  O67  1  0.43474700  0.00524100  0.88898700  1
  O  O68  1  0.84335500  0.03463000  0.97314700  1
  O  O69  1  0.54280500  0.33808100  0.85414600  1
  O  O70  1  0.96635700  0.98810700  0.81323300  1
  O  O71  1  0.68490700  0.83013100  0.36178400  1
  O  O72  1  0.85770100  0.89457300  0.66437400  1
  O  O73  1  0.80963400  0.57623700  0.96107500  1
  O  O74  1  0.53863600  0.15425700  0.77326600  1
  O  O75  1  0.67106100  0.88994000  0.54621600  1
  O  O76  1  0.55054600  0.31439500  0.05183800  1
  O  O77  1  0.58040000  0.81236900  0.13736400  1
