# generated using pymatgen
data_FeP4
_symmetry_space_group_name_H-M   'P 1'
_cell_length_a   5.78797995
_cell_length_b   5.78797995
_cell_length_c   11.09396729
_cell_angle_alpha   89.57827365
_cell_angle_beta   89.57827365
_cell_angle_gamma   128.20211269
_symmetry_Int_Tables_number   1
_chemical_formula_structural   FeP4
_chemical_formula_sum   'Fe4 P16'
_cell_volume   292.01832789
_cell_formula_units_Z   4
loop_
 _symmetry_equiv_pos_site_id
 _symmetry_equiv_pos_as_xyz
  1  'x, y, z'
loop_
 _atom_site_type_symbol
 _atom_site_label
 _atom_site_symmetry_multiplicity
 _atom_site_fract_x
 _atom_site_fract_y
 _atom_site_fract_z
 _atom_site_occupancy
  Fe  Fe0  1  0.07590300  0.92409700  0.25000000  1
  Fe  Fe1  1  0.92409700  0.07590300  0.75000000  1
  Fe  Fe2  1  0.00000000  0.50000000  0.50000000  1
  Fe  Fe3  1  0.50000000  0.00000000  0.00000000  1
  P  P4  1  0.54319600  0.33675000  0.52408300  1
  P  P5  1  0.33675000  0.54319600  0.02408300  1
  P  P6  1  0.86853200  0.05495700  0.55000100  1
  P  P7  1  0.94504300  0.13146800  0.94999900  1
  P  P8  1  0.45680400  0.66325000  0.47591700  1
  P  P9  1  0.37075500  0.22628500  0.71586100  1
  P  P10  1  0.22628500  0.37075500  0.21586100  1
  P  P11  1  0.05495700  0.86853200  0.05000100  1
  P  P12  1  0.53021900  0.06598600  0.20697000  1
  P  P13  1  0.62924500  0.77371500  0.28413900  1
  P  P14  1  0.66325000  0.45680400  0.97591700  1
  P  P15  1  0.77371500  0.62924500  0.78413900  1
  P  P16  1  0.06598600  0.53021900  0.70697000  1
  P  P17  1  0.13146800  0.94504300  0.44999900  1
  P  P18  1  0.93401400  0.46978100  0.29303000  1
  P  P19  1  0.46978100  0.93401400  0.79303000  1
