# generated using pymatgen
data_Ni7Te6(ClO9)2
_symmetry_space_group_name_H-M   'P 1'
_cell_length_a   7.94917139
_cell_length_b   7.94917139
_cell_length_c   7.94917231
_cell_angle_alpha   90.59977681
_cell_angle_beta   90.59977681
_cell_angle_gamma   90.59977784
_symmetry_Int_Tables_number   1
_chemical_formula_structural   Ni7Te6(ClO9)2
_chemical_formula_sum   'Ni7 Te6 Cl2 O18'
_cell_volume   502.21969420
_cell_formula_units_Z   1
loop_
 _symmetry_equiv_pos_site_id
 _symmetry_equiv_pos_as_xyz
  1  'x, y, z'
loop_
 _atom_site_type_symbol
 _atom_site_label
 _atom_site_symmetry_multiplicity
 _atom_site_fract_x
 _atom_site_fract_y
 _atom_site_fract_z
 _atom_site_occupancy
  Ni  Ni0  1  0.45901200  0.13099700  0.38004900  1
  Ni  Ni1  1  0.38004900  0.45901200  0.13099700  1
  Ni  Ni2  1  0.86900300  0.61995100  0.54098800  1
  Ni  Ni3  1  0.13099700  0.38004900  0.45901200  1
  Ni  Ni4  1  0.50000000  0.50000000  0.50000000  1
  Ni  Ni5  1  0.61995100  0.54098800  0.86900300  1
  Ni  Ni6  1  0.54098800  0.86900300  0.61995100  1
  Te  Te7  1  0.79398000  0.30626100  0.20502400  1
  Te  Te8  1  0.30626100  0.20502400  0.79398000  1
  Te  Te9  1  0.69373900  0.79497600  0.20602000  1
  Te  Te10  1  0.20502400  0.79398000  0.30626100  1
  Te  Te11  1  0.79497600  0.20602000  0.69373900  1
  Te  Te12  1  0.20602000  0.69373900  0.79497600  1
  Cl  Cl13  1  0.79548900  0.79548900  0.79548900  1
  Cl  Cl14  1  0.20451100  0.20451100  0.20451100  1
  O  O15  1  0.08278500  0.53312100  0.66119000  1
  O  O16  1  0.42745100  0.00572200  0.80114100  1
  O  O17  1  0.19885900  0.57254900  0.99427800  1
  O  O18  1  0.33881000  0.91721500  0.46687900  1
  O  O19  1  0.71103900  0.43352600  0.64521100  1
  O  O20  1  0.80114100  0.42745100  0.00572200  1
  O  O21  1  0.00572200  0.80114100  0.42745100  1
  O  O22  1  0.46687900  0.33881000  0.91721500  1
  O  O23  1  0.64521100  0.71103900  0.43352600  1
  O  O24  1  0.28896100  0.56647400  0.35478900  1
  O  O25  1  0.66119000  0.08278500  0.53312100  1
  O  O26  1  0.57254900  0.99427800  0.19885900  1
  O  O27  1  0.35478900  0.28896100  0.56647400  1
  O  O28  1  0.53312100  0.66119000  0.08278500  1
  O  O29  1  0.91721500  0.46687900  0.33881000  1
  O  O30  1  0.99427800  0.19885900  0.57254900  1
  O  O31  1  0.43352600  0.64521100  0.71103900  1
  O  O32  1  0.56647400  0.35478900  0.28896100  1
