# generated using pymatgen
data_NdH12(NO5)3
_symmetry_space_group_name_H-M   'P 1'
_cell_length_a   6.87294514
_cell_length_b   9.31516649
_cell_length_c   11.86150108
_cell_angle_alpha   69.40623801
_cell_angle_beta   88.85363883
_cell_angle_gamma   68.08843080
_symmetry_Int_Tables_number   1
_chemical_formula_structural   NdH12(NO5)3
_chemical_formula_sum   'Nd2 H24 N6 O30'
_cell_volume   654.08990854
_cell_formula_units_Z   2
loop_
 _symmetry_equiv_pos_site_id
 _symmetry_equiv_pos_as_xyz
  1  'x, y, z'
loop_
 _atom_site_type_symbol
 _atom_site_label
 _atom_site_symmetry_multiplicity
 _atom_site_fract_x
 _atom_site_fract_y
 _atom_site_fract_z
 _atom_site_occupancy
  Nd  Nd0  1  0.30348200  0.59638500  0.22495800  1
  Nd  Nd1  1  0.69651800  0.40361500  0.77504200  1
  H  H2  1  0.09888200  0.64253200  0.97365600  1
  H  H3  1  0.90111800  0.35746800  0.02634400  1
  H  H4  1  0.30138300  0.47375500  0.00934100  1
  H  H5  1  0.69861700  0.52624500  0.99065900  1
  H  H6  1  0.08005100  0.65129000  0.44937200  1
  H  H7  1  0.91994900  0.34871000  0.55062800  1
  H  H8  1  0.28060700  0.48091500  0.50754000  1
  H  H9  1  0.71939300  0.51908500  0.49246000  1
  H  H10  1  0.84847000  0.88824300  0.12189600  1
  H  H11  1  0.15153000  0.11175700  0.87810400  1
  H  H12  1  0.81512800  0.72672100  0.20695000  1
  H  H13  1  0.18487200  0.27327900  0.79305000  1
  H  H14  1  0.11959800  0.34107200  0.22549100  1
  H  H15  1  0.88040200  0.65892800  0.77450900  1
  H  H16  1  0.13226200  0.32817800  0.36413700  1
  H  H17  1  0.86773800  0.67182200  0.63586300  1
  H  H18  1  0.06569700  0.13419800  0.19732200  1
  H  H19  1  0.93430300  0.86580200  0.80267800  1
  H  H20  1  0.23410700  0.17984300  0.11721500  1
  H  H21  1  0.76589300  0.82015700  0.88278500  1
  H  H22  1  0.26300900  0.16575600  0.55926700  1
  H  H23  1  0.73699100  0.83424400  0.44073300  1
  H  H24  1  0.09530400  0.11091800  0.51790500  1
  H  H25  1  0.90469600  0.88908200  0.48209500  1
  N  N26  1  0.43067400  0.82192700  0.32313300  1
  N  N27  1  0.56932600  0.17807300  0.67686700  1
  N  N28  1  0.43255100  0.82742500  0.99780300  1
  N  N29  1  0.56744900  0.17257500  0.00219700  1
  N  N30  1  0.67989800  0.27018500  0.31571900  1
  N  N31  1  0.32010200  0.72981500  0.68428100  1
  O  O32  1  0.21461700  0.55810400  0.04090100  1
  O  O33  1  0.78538300  0.44189600  0.95909900  1
  O  O34  1  0.19747500  0.56405400  0.43002200  1
  O  O35  1  0.80252500  0.43594600  0.56997800  1
  O  O36  1  0.92190300  0.77147500  0.17649200  1
  O  O37  1  0.07809700  0.22852400  0.82350800  1
  O  O38  1  0.13208800  0.40010000  0.27891900  1
  O  O39  1  0.86791200  0.59990000  0.72108100  1
  O  O40  1  0.09290600  0.22903000  0.14129400  1
  O  O41  1  0.90709400  0.77097000  0.85870600  1
  O  O42  1  0.12331000  0.20915300  0.51068200  1
  O  O43  1  0.87669000  0.79084700  0.48931800  1
  O  O44  1  0.57012000  0.67927400  0.32877200  1
  O  O45  1  0.42988000  0.32072600  0.67122800  1
  O  O46  1  0.24719100  0.86675600  0.26983900  1
  O  O47  1  0.75280900  0.13324400  0.73016100  1
  O  O48  1  0.47466000  0.91058400  0.36720900  1
  O  O49  1  0.52534000  0.08941600  0.63279100  1
  O  O50  1  0.55777900  0.68225100  0.07026100  1
  O  O51  1  0.44222100  0.31774900  0.92973900  1
  O  O52  1  0.24277100  0.88349200  0.01905100  1
  O  O53  1  0.75722900  0.11650800  0.98094900  1
  O  O54  1  0.49640200  0.91134500  0.90931700  1
  O  O55  1  0.50359800  0.08865500  0.09068300  1
  O  O56  1  0.60309400  0.34455400  0.20327500  1
  O  O57  1  0.39690600  0.65544600  0.79672500  1
  O  O58  1  0.58550700  0.34038200  0.38807700  1
  O  O59  1  0.41449300  0.65961800  0.61192300  1
  O  O60  1  0.83952400  0.13756500  0.35193000  1
  O  O61  1  0.16047600  0.86243500  0.64807000  1
