# generated using pymatgen
data_MgGeH12(OF)6
_symmetry_space_group_name_H-M   'P 1'
_cell_length_a   9.74186000
_cell_length_b   6.67695300
_cell_length_c   8.56176521
_cell_angle_alpha   79.69821514
_cell_angle_beta   90.00000000
_cell_angle_gamma   90.00000000
_symmetry_Int_Tables_number   1
_chemical_formula_structural   MgGeH12(OF)6
_chemical_formula_sum   'Mg2 Ge2 H24 O12 F12'
_cell_volume   547.93042324
_cell_formula_units_Z   2
loop_
 _symmetry_equiv_pos_site_id
 _symmetry_equiv_pos_as_xyz
  1  'x, y, z'
loop_
 _atom_site_type_symbol
 _atom_site_label
 _atom_site_symmetry_multiplicity
 _atom_site_fract_x
 _atom_site_fract_y
 _atom_site_fract_z
 _atom_site_occupancy
  Mg  Mg0  1  0.00000000  0.00000000  0.00000000  1
  Mg  Mg1  1  0.50000000  0.00000000  0.50000000  1
  Ge  Ge2  1  0.00000000  0.50000000  0.50000000  1
  Ge  Ge3  1  0.50000000  0.50000000  0.00000000  1
  H  H4  1  0.77171800  0.24959000  0.96613800  1
  H  H5  1  0.27171800  0.75041000  0.53386200  1
  H  H6  1  0.22828200  0.75041000  0.03386200  1
  H  H7  1  0.72828200  0.24959000  0.46613800  1
  H  H8  1  0.88932900  0.36365000  0.85648600  1
  H  H9  1  0.38932900  0.63635000  0.64351400  1
  H  H10  1  0.11067100  0.63635000  0.14351400  1
  H  H11  1  0.61067100  0.36365000  0.35648600  1
  H  H12  1  0.22658900  0.25590300  0.97216100  1
  H  H13  1  0.72658900  0.74409700  0.52783900  1
  H  H14  1  0.77341100  0.74409700  0.02783900  1
  H  H15  1  0.27341100  0.25590300  0.47216100  1
  H  H16  1  0.16978600  0.25230900  0.79897800  1
  H  H17  1  0.66978600  0.74769100  0.70102200  1
  H  H18  1  0.83021400  0.74769100  0.20102200  1
  H  H19  1  0.33021400  0.25230900  0.29897800  1
  H  H20  1  0.94076000  0.03618400  0.68246600  1
  H  H21  1  0.44076000  0.96381600  0.81753400  1
  H  H22  1  0.05924000  0.96381600  0.31753400  1
  H  H23  1  0.55924000  0.03618400  0.18246600  1
  H  H24  1  0.97187000  0.80124800  0.74112100  1
  H  H25  1  0.47187000  0.19875200  0.75887900  1
  H  H26  1  0.02813000  0.19875200  0.25887900  1
  H  H27  1  0.52813000  0.80124800  0.24112100  1
  O  O28  1  0.87026400  0.24901400  0.94265200  1
  O  O29  1  0.37026400  0.75098600  0.55734800  1
  O  O30  1  0.12973600  0.75098600  0.05734800  1
  O  O31  1  0.62973600  0.24901400  0.44265200  1
  O  O32  1  0.16501900  0.18376900  0.91024300  1
  O  O33  1  0.66501900  0.81623100  0.58975700  1
  O  O34  1  0.83498100  0.81623100  0.08975700  1
  O  O35  1  0.33498100  0.18376900  0.41024300  1
  O  O36  1  0.96902500  0.93445200  0.77405200  1
  O  O37  1  0.46902500  0.06554800  0.72594800  1
  O  O38  1  0.03097500  0.06554800  0.22594800  1
  O  O39  1  0.53097500  0.93445200  0.27405200  1
  F  F40  1  0.94471800  0.55029400  0.69451200  1
  F  F41  1  0.44471800  0.44970600  0.80548800  1
  F  F42  1  0.05528200  0.44970600  0.30548800  1
  F  F43  1  0.55528200  0.55029400  0.19451200  1
  F  F44  1  0.90456500  0.25886900  0.53262800  1
  F  F45  1  0.40456500  0.74113100  0.96737200  1
  F  F46  1  0.09543500  0.74113100  0.46737200  1
  F  F47  1  0.59543500  0.25886900  0.03262800  1
  F  F48  1  0.15329700  0.36685700  0.59164300  1
  F  F49  1  0.65329700  0.63314300  0.90835700  1
  F  F50  1  0.84670300  0.63314300  0.40835700  1
  F  F51  1  0.34670300  0.36685700  0.09164300  1
