# generated using pymatgen
data_CsGeBiS4
_symmetry_space_group_name_H-M   'P 1'
_cell_length_a   7.03109600
_cell_length_b   6.70322700
_cell_length_c   19.19211282
_cell_angle_alpha   70.79525427
_cell_angle_beta   90.00000000
_cell_angle_gamma   90.00000000
_symmetry_Int_Tables_number   1
_chemical_formula_structural   CsGeBiS4
_chemical_formula_sum   'Cs4 Ge4 Bi4 S16'
_cell_volume   854.20542608
_cell_formula_units_Z   4
loop_
 _symmetry_equiv_pos_site_id
 _symmetry_equiv_pos_as_xyz
  1  'x, y, z'
loop_
 _atom_site_type_symbol
 _atom_site_label
 _atom_site_symmetry_multiplicity
 _atom_site_fract_x
 _atom_site_fract_y
 _atom_site_fract_z
 _atom_site_occupancy
  Cs  Cs0  1  0.74491900  0.70585100  0.03531600  1
  Cs  Cs1  1  0.25508100  0.29414900  0.96468400  1
  Cs  Cs2  1  0.75508100  0.70585100  0.53531600  1
  Cs  Cs3  1  0.24491900  0.29414900  0.46468400  1
  Ge  Ge4  1  0.72171900  0.19869000  0.83799000  1
  Ge  Ge5  1  0.77828100  0.19869000  0.33799000  1
  Ge  Ge6  1  0.22171900  0.80131000  0.66201000  1
  Ge  Ge7  1  0.27828100  0.80131000  0.16201000  1
  Bi  Bi8  1  0.19341500  0.23912100  0.22438000  1
  Bi  Bi9  1  0.69341500  0.76087900  0.27562000  1
  Bi  Bi10  1  0.80658500  0.76087900  0.77562000  1
  Bi  Bi11  1  0.30658500  0.23912100  0.72438000  1
  S  S12  1  0.52411300  0.01970600  0.13856800  1
  S  S13  1  0.74486900  0.40831100  0.40598100  1
  S  S14  1  0.98087900  0.99631600  0.84845500  1
  S  S15  1  0.83937800  0.40966400  0.22121400  1
  S  S16  1  0.97588700  0.01970600  0.63856800  1
  S  S17  1  0.24486900  0.59168900  0.09401900  1
  S  S18  1  0.75513100  0.40831100  0.90598100  1
  S  S19  1  0.33937800  0.59033600  0.27878600  1
  S  S20  1  0.25513100  0.59168900  0.59401900  1
  S  S21  1  0.47588700  0.98029400  0.86143200  1
  S  S22  1  0.66062200  0.40966400  0.72121400  1
  S  S23  1  0.16062200  0.59033600  0.77878600  1
  S  S24  1  0.02411300  0.98029400  0.36143200  1
  S  S25  1  0.01912100  0.00368400  0.15154500  1
  S  S26  1  0.51912100  0.99631600  0.34845500  1
  S  S27  1  0.48087900  0.00368400  0.65154500  1
