# generated using pymatgen
data_Na15SnGe8P
_symmetry_space_group_name_H-M   'P 1'
_cell_length_a   10.94386902
_cell_length_b   10.94386902
_cell_length_c   11.25497800
_cell_angle_alpha   90.00000000
_cell_angle_beta   90.00000000
_cell_angle_gamma   107.46216460
_symmetry_Int_Tables_number   1
_chemical_formula_structural   Na15SnGe8P
_chemical_formula_sum   'Na30 Sn2 Ge16 P2'
_cell_volume   1285.86757448
_cell_formula_units_Z   2
loop_
 _symmetry_equiv_pos_site_id
 _symmetry_equiv_pos_as_xyz
  1  'x, y, z'
loop_
 _atom_site_type_symbol
 _atom_site_label
 _atom_site_symmetry_multiplicity
 _atom_site_fract_x
 _atom_site_fract_y
 _atom_site_fract_z
 _atom_site_occupancy
  Na  Na0  1  0.54307800  0.28210400  0.38340900  1
  Na  Na1  1  0.23265300  0.06425200  0.25000000  1
  Na  Na2  1  0.06425200  0.23265300  0.25000000  1
  Na  Na3  1  0.45692200  0.71789600  0.88340900  1
  Na  Na4  1  0.80340200  0.98913100  0.25000000  1
  Na  Na5  1  0.74914400  0.74914300  0.50305700  1
  Na  Na6  1  0.71789600  0.45692200  0.88340900  1
  Na  Na7  1  0.32096900  0.94180200  0.49922300  1
  Na  Na8  1  0.25085700  0.25085600  0.00305700  1
  Na  Na9  1  0.94180200  0.32096900  0.49922300  1
  Na  Na10  1  0.67903100  0.05819800  0.99922300  1
  Na  Na11  1  0.19659800  0.01086900  0.75000000  1
  Na  Na12  1  0.74914400  0.74914300  0.99694300  1
  Na  Na13  1  0.01086900  0.19659800  0.75000000  1
  Na  Na14  1  0.43263300  0.43263300  0.75000000  1
  Na  Na15  1  0.05819800  0.67903100  0.50077700  1
  Na  Na16  1  0.05819800  0.67903100  0.99922300  1
  Na  Na17  1  0.67903100  0.05819800  0.50077700  1
  Na  Na18  1  0.98913100  0.80340200  0.25000000  1
  Na  Na19  1  0.28210400  0.54307800  0.38340900  1
  Na  Na20  1  0.71789600  0.45692200  0.61659100  1
  Na  Na21  1  0.28210400  0.54307800  0.11659100  1
  Na  Na22  1  0.76734700  0.93574800  0.75000000  1
  Na  Na23  1  0.94180200  0.32096900  0.00077700  1
  Na  Na24  1  0.45692200  0.71789600  0.61659100  1
  Na  Na25  1  0.25085700  0.25085600  0.49694300  1
  Na  Na26  1  0.93574800  0.76734700  0.75000000  1
  Na  Na27  1  0.32096900  0.94180200  0.00077700  1
  Na  Na28  1  0.54307800  0.28210400  0.11659100  1
  Na  Na29  1  0.56736700  0.56736700  0.25000000  1
  Sn  Sn30  1  0.00000000  0.00000000  0.50000000  1
  Sn  Sn31  1  0.00000000  0.00000000  0.00000000  1
  Ge  Ge32  1  0.50484100  0.01127200  0.25000000  1
  Ge  Ge33  1  0.19627500  0.69669400  0.75000000  1
  Ge  Ge34  1  0.69669400  0.19627500  0.75000000  1
  Ge  Ge35  1  0.80920300  0.51705800  0.36375900  1
  Ge  Ge36  1  0.48294200  0.19079700  0.63624100  1
  Ge  Ge37  1  0.19079700  0.48294200  0.63624100  1
  Ge  Ge38  1  0.49515900  0.98872800  0.75000000  1
  Ge  Ge39  1  0.19079700  0.48294200  0.86375900  1
  Ge  Ge40  1  0.98872800  0.49515900  0.75000000  1
  Ge  Ge41  1  0.51705800  0.80920300  0.36375900  1
  Ge  Ge42  1  0.48294200  0.19079700  0.86375900  1
  Ge  Ge43  1  0.80920300  0.51705800  0.13624100  1
  Ge  Ge44  1  0.30330600  0.80372500  0.25000000  1
  Ge  Ge45  1  0.01127200  0.50484100  0.25000000  1
  Ge  Ge46  1  0.51705800  0.80920300  0.13624100  1
  Ge  Ge47  1  0.80372500  0.30330600  0.25000000  1
  P  P48  1  0.34384600  0.34384600  0.25000000  1
  P  P49  1  0.65615400  0.65615400  0.75000000  1
