# generated using pymatgen
data_Cr3B7ClO13
_symmetry_space_group_name_H-M   'P 1'
_cell_length_a   8.66643200
_cell_length_b   8.68615200
_cell_length_c   12.27319700
_cell_angle_alpha   90.00000000
_cell_angle_beta   90.00000000
_cell_angle_gamma   90.00000000
_symmetry_Int_Tables_number   1
_chemical_formula_structural   Cr3B7ClO13
_chemical_formula_sum   'Cr12 B28 Cl4 O52'
_cell_volume   923.90105671
_cell_formula_units_Z   4
loop_
 _symmetry_equiv_pos_site_id
 _symmetry_equiv_pos_as_xyz
  1  'x, y, z'
loop_
 _atom_site_type_symbol
 _atom_site_label
 _atom_site_symmetry_multiplicity
 _atom_site_fract_x
 _atom_site_fract_y
 _atom_site_fract_z
 _atom_site_occupancy
  Cr  Cr0  1  0.49666500  0.99721100  0.99769100  1
  Cr  Cr1  1  0.99770800  0.00188500  0.49838700  1
  Cr  Cr2  1  0.75040700  0.24894700  0.25561300  1
  Cr  Cr3  1  0.00229200  0.99811500  0.99838700  1
  Cr  Cr4  1  0.50333500  0.00278900  0.49769100  1
  Cr  Cr5  1  0.99770800  0.49811500  0.99838700  1
  Cr  Cr6  1  0.49666500  0.50278900  0.49769100  1
  Cr  Cr7  1  0.00229200  0.50188500  0.49838700  1
  Cr  Cr8  1  0.24959300  0.75105300  0.75561300  1
  Cr  Cr9  1  0.75040700  0.25105300  0.75561300  1
  Cr  Cr10  1  0.50333500  0.49721100  0.99769100  1
  Cr  Cr11  1  0.24959300  0.74894700  0.25561300  1
  B  B12  1  0.49963600  0.49958700  0.24792600  1
  B  B13  1  0.74966700  0.74968000  0.49837800  1
  B  B14  1  0.08955900  0.25078800  0.66841700  1
  B  B15  1  0.99952900  0.00098900  0.74835500  1
  B  B16  1  0.58753800  0.74962000  0.16747400  1
  B  B17  1  0.25033300  0.24968000  0.49837800  1
  B  B18  1  0.99952900  0.49901100  0.24835500  1
  B  B19  1  0.50036400  0.99958700  0.24792600  1
  B  B20  1  0.91044100  0.75078800  0.66841700  1
  B  B21  1  0.58753800  0.75038000  0.66747400  1
  B  B22  1  0.25033300  0.25032000  0.99837800  1
  B  B23  1  0.74964600  0.59011100  0.32842000  1
  B  B24  1  0.49963600  0.00041300  0.74792600  1
  B  B25  1  0.00047100  0.99901100  0.24835500  1
  B  B26  1  0.74966700  0.75032000  0.99837800  1
  B  B27  1  0.25035400  0.40988900  0.82842000  1
  B  B28  1  0.24967300  0.09246300  0.82752500  1
  B  B29  1  0.75032700  0.59246300  0.82752500  1
  B  B30  1  0.91044100  0.74921200  0.16841700  1
  B  B31  1  0.25035400  0.09011100  0.32842000  1
  B  B32  1  0.75032700  0.90753700  0.32752500  1
  B  B33  1  0.41246200  0.24962000  0.16747400  1
  B  B34  1  0.50036400  0.50041300  0.74792600  1
  B  B35  1  0.08955900  0.24921200  0.16841700  1
  B  B36  1  0.41246200  0.25038000  0.66747400  1
  B  B37  1  0.24967300  0.40753700  0.32752500  1
  B  B38  1  0.74964600  0.90988900  0.82842000  1
  B  B39  1  0.00047100  0.50098900  0.74835500  1
  Cl  Cl40  1  0.25017300  0.75521900  0.99180600  1
  Cl  Cl41  1  0.74982700  0.24478100  0.49180600  1
  Cl  Cl42  1  0.74982700  0.25521900  0.99180600  1
  Cl  Cl43  1  0.25017300  0.74478100  0.49180600  1
  O  O44  1  0.04885500  0.09138200  0.65265100  1
  O  O45  1  0.16637000  0.52595900  0.76884800  1
  O  O46  1  0.54888000  0.90990900  0.65214200  1
  O  O47  1  0.86533500  0.82561500  0.56847100  1
  O  O48  1  0.82497400  0.63336200  0.42876400  1
  O  O49  1  0.08977000  0.05126600  0.84386400  1
  O  O50  1  0.45112000  0.09009100  0.15214200  1
  O  O51  1  0.95114500  0.90861800  0.15265100  1
  O  O52  1  0.45112000  0.40990900  0.65214200  1
  O  O53  1  0.97423800  0.33558700  0.72804300  1
  O  O54  1  0.52665900  0.33404100  0.22783900  1
  O  O55  1  0.91023000  0.55126600  0.84386400  1
  O  O56  1  0.58951500  0.55021600  0.34359100  1
  O  O57  1  0.17502600  0.13336200  0.42876400  1
  O  O58  1  0.32553500  0.36486900  0.42791600  1
  O  O59  1  0.33371400  0.52405500  0.26805900  1
  O  O60  1  0.33371400  0.97594500  0.76805900  1
  O  O61  1  0.24956100  0.25042400  0.74880600  1
  O  O62  1  0.66628600  0.47594500  0.76805900  1
  O  O63  1  0.95114500  0.59138200  0.65265100  1
  O  O64  1  0.32553500  0.13513100  0.92791600  1
  O  O65  1  0.75043900  0.75042400  0.74880600  1
  O  O66  1  0.16637000  0.97404100  0.26884800  1
  O  O67  1  0.02576200  0.66441300  0.22804300  1
  O  O68  1  0.82497400  0.86663800  0.92876400  1
  O  O69  1  0.75043900  0.74957600  0.24880600  1
  O  O70  1  0.66628600  0.02405500  0.26805900  1
  O  O71  1  0.52665900  0.16595900  0.72783900  1
  O  O72  1  0.04885500  0.40861800  0.15265100  1
  O  O73  1  0.08977000  0.44873400  0.34386400  1
  O  O74  1  0.97423800  0.16441300  0.22804300  1
  O  O75  1  0.47334100  0.83404100  0.22783900  1
  O  O76  1  0.67446500  0.86486900  0.42791600  1
  O  O77  1  0.63309300  0.67471600  0.56831400  1
  O  O78  1  0.83363000  0.02595900  0.76884800  1
  O  O79  1  0.13466500  0.32561500  0.56847100  1
  O  O80  1  0.86533500  0.67438500  0.06847100  1
  O  O81  1  0.47334100  0.66595900  0.72783900  1
  O  O82  1  0.41048500  0.05021600  0.34359100  1
  O  O83  1  0.13466500  0.17438500  0.06847100  1
  O  O84  1  0.63309300  0.82528400  0.06831400  1
  O  O85  1  0.17502600  0.36663800  0.92876400  1
  O  O86  1  0.36690700  0.17471600  0.56831400  1
  O  O87  1  0.67446500  0.63513100  0.92791600  1
  O  O88  1  0.58951500  0.94978400  0.84359100  1
  O  O89  1  0.36690700  0.32528400  0.06831400  1
  O  O90  1  0.54888000  0.59009100  0.15214200  1
  O  O91  1  0.02576200  0.83558700  0.72804300  1
  O  O92  1  0.91023000  0.94873400  0.34386400  1
  O  O93  1  0.24956100  0.24957600  0.24880600  1
  O  O94  1  0.41048500  0.44978400  0.84359100  1
  O  O95  1  0.83363000  0.47404100  0.26884800  1
