# generated using pymatgen
data_K2FeH8(SO6)2
_symmetry_space_group_name_H-M   'P 1'
_cell_length_a   9.64904300
_cell_length_b   10.11180000
_cell_length_c   11.89938646
_cell_angle_alpha   84.88083031
_cell_angle_beta   90.00000000
_cell_angle_gamma   90.00000000
_symmetry_Int_Tables_number   1
_chemical_formula_structural   K2FeH8(SO6)2
_chemical_formula_sum   'K8 Fe4 H32 S8 O48'
_cell_volume   1156.38256270
_cell_formula_units_Z   4
loop_
 _symmetry_equiv_pos_site_id
 _symmetry_equiv_pos_as_xyz
  1  'x, y, z'
loop_
 _atom_site_type_symbol
 _atom_site_label
 _atom_site_symmetry_multiplicity
 _atom_site_fract_x
 _atom_site_fract_y
 _atom_site_fract_z
 _atom_site_occupancy
  K  K0  1  0.27078600  0.75985200  0.16853500  1
  K  K1  1  0.77078600  0.24014800  0.33146500  1
  K  K2  1  0.72921400  0.24014800  0.83146500  1
  K  K3  1  0.22921400  0.75985200  0.66853500  1
  K  K4  1  0.74129300  0.73945500  0.16793700  1
  K  K5  1  0.24129300  0.26054500  0.33206300  1
  K  K6  1  0.25870700  0.26054500  0.83206300  1
  K  K7  1  0.75870700  0.73945500  0.66793700  1
  Fe  Fe8  1  0.00000000  0.00000000  0.00000000  1
  Fe  Fe9  1  0.50000000  0.00000000  0.50000000  1
  Fe  Fe10  1  0.50000000  0.50000000  0.00000000  1
  Fe  Fe11  1  0.00000000  0.50000000  0.50000000  1
  H  H12  1  0.26009700  0.60365100  0.91942300  1
  H  H13  1  0.76009700  0.39634900  0.58057700  1
  H  H14  1  0.73990300  0.39634900  0.08057700  1
  H  H15  1  0.23990300  0.60365100  0.41942300  1
  H  H16  1  0.36045900  0.72716200  0.92096900  1
  H  H17  1  0.86045900  0.27283800  0.57903100  1
  H  H18  1  0.63954100  0.27283800  0.07903100  1
  H  H19  1  0.13954100  0.72716200  0.42096900  1
  H  H20  1  0.25167900  0.38772000  0.08190300  1
  H  H21  1  0.75167900  0.61228000  0.41809700  1
  H  H22  1  0.74832100  0.61228000  0.91809700  1
  H  H23  1  0.24832100  0.38772000  0.58190300  1
  H  H24  1  0.36263500  0.27073600  0.09076900  1
  H  H25  1  0.86263500  0.72926400  0.40923100  1
  H  H26  1  0.63736500  0.72926400  0.90923100  1
  H  H27  1  0.13736500  0.27073600  0.59076900  1
  H  H28  1  0.27933400  0.97071600  0.94140400  1
  H  H29  1  0.77933400  0.02928400  0.55859600  1
  H  H30  1  0.72066600  0.02928400  0.05859600  1
  H  H31  1  0.22066600  0.97071600  0.44140400  1
  H  H32  1  0.27809900  0.05156300  0.05343100  1
  H  H33  1  0.77809900  0.94843700  0.44656900  1
  H  H34  1  0.72190100  0.94843700  0.94656900  1
  H  H35  1  0.22190100  0.05156300  0.55343100  1
  H  H36  1  0.01339800  0.26603600  0.07659600  1
  H  H37  1  0.51339800  0.73396400  0.42340400  1
  H  H38  1  0.98660200  0.73396400  0.92340400  1
  H  H39  1  0.48660200  0.26603600  0.57659600  1
  H  H40  1  0.98179600  0.27276700  0.94690200  1
  H  H41  1  0.48179600  0.72723300  0.55309800  1
  H  H42  1  0.01820400  0.72723300  0.05309800  1
  H  H43  1  0.51820400  0.27276700  0.44690200  1
  S  S44  1  0.50629300  0.04925200  0.20262900  1
  S  S45  1  0.00629300  0.95074800  0.29737100  1
  S  S46  1  0.49370700  0.95074800  0.79737100  1
  S  S47  1  0.99370700  0.04925200  0.70262900  1
  S  S48  1  0.99345800  0.47887200  0.20895000  1
  S  S49  1  0.49345800  0.52112800  0.29105000  1
  S  S50  1  0.00654200  0.52112800  0.79105000  1
  S  S51  1  0.50654200  0.47887200  0.70895000  1
  O  O52  1  0.37256600  0.88287400  0.85850300  1
  O  O53  1  0.87256600  0.11712600  0.64149700  1
  O  O54  1  0.62743400  0.11712600  0.14149700  1
  O  O55  1  0.12743400  0.88287400  0.35850300  1
  O  O56  1  0.37395500  0.11426000  0.15841100  1
  O  O57  1  0.87395500  0.88574000  0.34158900  1
  O  O58  1  0.62604500  0.88574000  0.84158900  1
  O  O59  1  0.12604500  0.11426000  0.65841100  1
  O  O60  1  0.08747500  0.39378800  0.14534700  1
  O  O61  1  0.58747500  0.60621200  0.35465300  1
  O  O62  1  0.91252500  0.60621200  0.85465300  1
  O  O63  1  0.41252500  0.39378800  0.64534700  1
  O  O64  1  0.84636500  0.45442800  0.17965200  1
  O  O65  1  0.34636500  0.54557200  0.32034800  1
  O  O66  1  0.15363500  0.54557200  0.82034800  1
  O  O67  1  0.65363500  0.45442800  0.67965200  1
  O  O68  1  0.01978600  0.92818700  0.17585300  1
  O  O69  1  0.51978600  0.07181300  0.32414700  1
  O  O70  1  0.98021400  0.07181300  0.82414700  1
  O  O71  1  0.48021400  0.92818700  0.67585300  1
  O  O72  1  0.50562300  0.90722500  0.18458200  1
  O  O73  1  0.00562300  0.09277500  0.31541800  1
  O  O74  1  0.49437700  0.09277500  0.81541800  1
  O  O75  1  0.99437700  0.90722500  0.68458200  1
  O  O76  1  0.51370300  0.56289000  0.16763100  1
  O  O77  1  0.01370300  0.43711000  0.33236900  1
  O  O78  1  0.48629700  0.43711000  0.83236900  1
  O  O79  1  0.98629700  0.56289000  0.66763100  1
  O  O80  1  0.02672400  0.62164900  0.18380100  1
  O  O81  1  0.52672400  0.37835100  0.31619900  1
  O  O82  1  0.97327600  0.37835100  0.81619900  1
  O  O83  1  0.47327600  0.62164900  0.68380100  1
  O  O84  1  0.33581500  0.64103800  0.96389500  1
  O  O85  1  0.83581500  0.35896200  0.53610500  1
  O  O86  1  0.66418500  0.35896200  0.03610500  1
  O  O87  1  0.16418500  0.64103800  0.46389500  1
  O  O88  1  0.33827300  0.35667000  0.04755700  1
  O  O89  1  0.83827300  0.64333000  0.45244300  1
  O  O90  1  0.66172700  0.64333000  0.95244300  1
  O  O91  1  0.16172700  0.35667000  0.54755700  1
  O  O92  1  0.22000400  0.02359200  0.99033700  1
  O  O93  1  0.72000400  0.97640800  0.50966300  1
  O  O94  1  0.77999600  0.97640800  0.00966300  1
  O  O95  1  0.27999600  0.02359200  0.49033700  1
  O  O96  1  0.98092200  0.21115700  0.01645100  1
  O  O97  1  0.48092200  0.78884300  0.48354900  1
  O  O98  1  0.01907800  0.78884300  0.98354900  1
  O  O99  1  0.51907800  0.21115700  0.51645100  1
