# generated using pymatgen
data_Lu(BRu)4
_symmetry_space_group_name_H-M   'P 1'
_cell_length_a   9.17382212
_cell_length_b   9.17382212
_cell_length_c   9.17382212
_cell_angle_alpha   132.04050542
_cell_angle_beta   132.04050542
_cell_angle_gamma   70.16506050
_symmetry_Int_Tables_number   1
_chemical_formula_structural   Lu(BRu)4
_chemical_formula_sum   'Lu4 B16 Ru16'
_cell_volume   417.42017606
_cell_formula_units_Z   4
loop_
 _symmetry_equiv_pos_site_id
 _symmetry_equiv_pos_as_xyz
  1  'x, y, z'
loop_
 _atom_site_type_symbol
 _atom_site_label
 _atom_site_symmetry_multiplicity
 _atom_site_fract_x
 _atom_site_fract_y
 _atom_site_fract_z
 _atom_site_occupancy
  Lu  Lu0  1  0.00000000  0.50000000  0.50000000  1
  Lu  Lu1  1  0.50000000  0.00000000  0.50000000  1
  Lu  Lu2  1  0.25000000  0.25000000  0.00000000  1
  Lu  Lu3  1  0.75000000  0.75000000  0.00000000  1
  B  B4  1  0.50066400  0.69344200  0.53182500  1
  B  B5  1  0.21884000  0.91161700  0.96817500  1
  B  B6  1  0.03116000  0.49933600  0.19277700  1
  B  B7  1  0.71884000  0.75066400  0.30722300  1
  B  B8  1  0.94344200  0.25066400  0.03182500  1
  B  B9  1  0.66161700  0.19344200  0.19277700  1
  B  B10  1  0.08838300  0.05655800  0.30722300  1
  B  B11  1  0.24933600  0.55655800  0.96817500  1
  B  B12  1  0.30655800  0.83838300  0.80722300  1
  B  B13  1  0.80655800  0.99933600  0.46817500  1
  B  B14  1  0.74933600  0.78116000  0.69277700  1
  B  B15  1  0.44344200  0.41161700  0.69277700  1
  B  B16  1  0.53116000  0.33838300  0.53182500  1
  B  B17  1  0.16161700  0.96884000  0.46817500  1
  B  B18  1  0.00066400  0.46884000  0.80722300  1
  B  B19  1  0.58838300  0.28116000  0.03182500  1
  Ru  Ru20  1  0.03754400  0.80274800  0.46423900  1
  Ru  Ru21  1  0.32330500  0.28754400  0.73479500  1
  Ru  Ru22  1  0.53754400  0.07330500  0.23479500  1
  Ru  Ru23  1  0.21245600  0.17669500  0.26520500  1
  Ru  Ru24  1  0.92669500  0.16149000  0.46423900  1
  Ru  Ru25  1  0.33851000  0.57330500  0.53576100  1
  Ru  Ru26  1  0.69725200  0.46245600  0.53576100  1
  Ru  Ru27  1  0.82330500  0.08851000  0.03576100  1
  Ru  Ru28  1  0.71245600  0.44725200  0.03576100  1
  Ru  Ru29  1  0.55274800  0.58851000  0.26520500  1
  Ru  Ru30  1  0.83851000  0.30274800  0.76520500  1
  Ru  Ru31  1  0.91149000  0.94725200  0.73479500  1
  Ru  Ru32  1  0.19725200  0.66149000  0.23479500  1
  Ru  Ru33  1  0.05274800  0.78754400  0.96423900  1
  Ru  Ru34  1  0.41149000  0.67669500  0.96423900  1
  Ru  Ru35  1  0.42669500  0.96245600  0.76520500  1
