# generated using pymatgen
data_NaBi2AuO5
_symmetry_space_group_name_H-M   'P 1'
_cell_length_a   12.56700300
_cell_length_b   12.56700300
_cell_length_c   3.62009800
_cell_angle_alpha   90.00000000
_cell_angle_beta   90.00000000
_cell_angle_gamma   90.00000000
_symmetry_Int_Tables_number   1
_chemical_formula_structural   NaBi2AuO5
_chemical_formula_sum   'Na4 Bi8 Au4 O20'
_cell_volume   571.72050023
_cell_formula_units_Z   4
loop_
 _symmetry_equiv_pos_site_id
 _symmetry_equiv_pos_as_xyz
  1  'x, y, z'
loop_
 _atom_site_type_symbol
 _atom_site_label
 _atom_site_symmetry_multiplicity
 _atom_site_fract_x
 _atom_site_fract_y
 _atom_site_fract_z
 _atom_site_occupancy
  Na  Na0  1  0.30073300  0.80073300  0.50000000  1
  Na  Na1  1  0.80073300  0.69926700  0.50000000  1
  Na  Na2  1  0.69926700  0.19926700  0.50000000  1
  Na  Na3  1  0.19926700  0.30073300  0.50000000  1
  Bi  Bi4  1  0.05022900  0.76798400  0.00000000  1
  Bi  Bi5  1  0.26798400  0.55022900  0.00000000  1
  Bi  Bi6  1  0.76798400  0.94977100  0.00000000  1
  Bi  Bi7  1  0.44977100  0.26798400  0.00000000  1
  Bi  Bi8  1  0.94977100  0.23201600  0.00000000  1
  Bi  Bi9  1  0.55022900  0.73201600  0.00000000  1
  Bi  Bi10  1  0.23201600  0.05022900  0.00000000  1
  Bi  Bi11  1  0.73201600  0.44977100  0.00000000  1
  Au  Au12  1  0.00000000  0.50000000  0.50000000  1
  Au  Au13  1  0.00000000  0.00000000  0.50000000  1
  Au  Au14  1  0.50000000  0.50000000  0.50000000  1
  Au  Au15  1  0.50000000  0.00000000  0.50000000  1
  O  O16  1  0.50426700  0.16146400  0.50000000  1
  O  O17  1  0.21225300  0.71225300  0.00000000  1
  O  O18  1  0.11591100  0.11407800  0.50000000  1
  O  O19  1  0.61591100  0.38592200  0.50000000  1
  O  O20  1  0.33853600  0.99573300  0.50000000  1
  O  O21  1  0.16146400  0.49573300  0.50000000  1
  O  O22  1  0.88592200  0.11591100  0.50000000  1
  O  O23  1  0.49573300  0.83853600  0.50000000  1
  O  O24  1  0.99573300  0.66146400  0.50000000  1
  O  O25  1  0.28774700  0.21225300  0.00000000  1
  O  O26  1  0.78774700  0.28774700  0.00000000  1
  O  O27  1  0.83853600  0.50426700  0.50000000  1
  O  O28  1  0.61407800  0.61591100  0.50000000  1
  O  O29  1  0.38408900  0.61407800  0.50000000  1
  O  O30  1  0.38592200  0.38408900  0.50000000  1
  O  O31  1  0.11407800  0.88408900  0.50000000  1
  O  O32  1  0.71225300  0.78774700  0.00000000  1
  O  O33  1  0.88408900  0.88592200  0.50000000  1
  O  O34  1  0.00426700  0.33853600  0.50000000  1
  O  O35  1  0.66146400  0.00426700  0.50000000  1
