# generated using pymatgen
data_ReO3F
_symmetry_space_group_name_H-M   'P 1'
_cell_length_a   6.32300800
_cell_length_b   6.96133400
_cell_length_c   10.92125371
_cell_angle_alpha   89.75888100
_cell_angle_beta   90.00000000
_cell_angle_gamma   90.00000000
_symmetry_Int_Tables_number   1
_chemical_formula_structural   ReO3F
_chemical_formula_sum   'Re6 O18 F6'
_cell_volume   480.71187783
_cell_formula_units_Z   6
loop_
 _symmetry_equiv_pos_site_id
 _symmetry_equiv_pos_as_xyz
  1  'x, y, z'
loop_
 _atom_site_type_symbol
 _atom_site_label
 _atom_site_symmetry_multiplicity
 _atom_site_fract_x
 _atom_site_fract_y
 _atom_site_fract_z
 _atom_site_occupancy
  Re  Re0  1  0.03894000  0.00000000  0.25000000  1
  Re  Re1  1  0.27827600  0.33472000  0.64318900  1
  Re  Re2  1  0.96106000  0.00000000  0.75000000  1
  Re  Re3  1  0.72172400  0.33472000  0.14318900  1
  Re  Re4  1  0.72172400  0.66528000  0.35681100  1
  Re  Re5  1  0.27827600  0.66528000  0.85681100  1
  O  O6  1  0.20578800  0.85860400  0.16638100  1
  O  O7  1  0.76275500  0.52109600  0.48165800  1
  O  O8  1  0.79421200  0.14139600  0.83361900  1
  O  O9  1  0.95799100  0.83273700  0.38159200  1
  O  O10  1  0.48730800  0.19412000  0.60087800  1
  O  O11  1  0.20578800  0.14139600  0.33361900  1
  O  O12  1  0.56597600  0.50000000  0.25000000  1
  O  O13  1  0.04200900  0.16726300  0.61840800  1
  O  O14  1  0.23724500  0.47890400  0.51834200  1
  O  O15  1  0.48730800  0.80588000  0.89912200  1
  O  O16  1  0.95799100  0.16726300  0.11840800  1
  O  O17  1  0.51269200  0.80588000  0.39912200  1
  O  O18  1  0.43402400  0.50000000  0.75000000  1
  O  O19  1  0.76275500  0.47890400  0.01834200  1
  O  O20  1  0.79421200  0.85860400  0.66638100  1
  O  O21  1  0.04200900  0.83273700  0.88159200  1
  O  O22  1  0.23724500  0.52109600  0.98165800  1
  O  O23  1  0.51269200  0.19412000  0.10087800  1
  F  F24  1  0.94801900  0.50000000  0.25000000  1
  F  F25  1  0.05198100  0.50000000  0.75000000  1
  F  F26  1  0.76711900  0.16631300  0.30994300  1
  F  F27  1  0.23288100  0.83368700  0.69005700  1
  F  F28  1  0.76711900  0.83368700  0.19005700  1
  F  F29  1  0.23288100  0.16631300  0.80994300  1
