# generated using pymatgen
data_Y3Ni2
_symmetry_space_group_name_H-M   'P 1'
_cell_length_a   7.07096300
_cell_length_b   7.07096300
_cell_length_c   36.69076600
_cell_angle_alpha   90.00000000
_cell_angle_beta   90.00000000
_cell_angle_gamma   90.00000000
_symmetry_Int_Tables_number   1
_chemical_formula_structural   Y3Ni2
_chemical_formula_sum   'Y48 Ni32'
_cell_volume   1834.48391502
_cell_formula_units_Z   16
loop_
 _symmetry_equiv_pos_site_id
 _symmetry_equiv_pos_as_xyz
  1  'x, y, z'
loop_
 _atom_site_type_symbol
 _atom_site_label
 _atom_site_symmetry_multiplicity
 _atom_site_fract_x
 _atom_site_fract_y
 _atom_site_fract_z
 _atom_site_occupancy
  Y  Y0  1  0.83632300  0.98888600  0.41068600  1
  Y  Y1  1  0.93939000  0.69200400  0.76445000  1
  Y  Y2  1  0.84024400  0.66428200  0.31861300  1
  Y  Y3  1  0.81835800  0.18164200  0.75000000  1
  Y  Y4  1  0.53474800  0.46525200  0.25000000  1
  Y  Y5  1  0.70887200  0.48486300  0.40738300  1
  Y  Y6  1  0.83571800  0.34024400  0.56861300  1
  Y  Y7  1  0.68164200  0.68164200  0.50000000  1
  Y  Y8  1  0.48888600  0.66367700  0.16068600  1
  Y  Y9  1  0.65975600  0.16428200  0.93138700  1
  Y  Y10  1  0.98888600  0.83632300  0.58931400  1
  Y  Y11  1  0.30650000  0.85690400  0.82579700  1
  Y  Y12  1  0.33632300  0.51111400  0.33931400  1
  Y  Y13  1  0.66428200  0.84024400  0.68138700  1
  Y  Y14  1  0.20887200  0.01513700  0.34261700  1
  Y  Y15  1  0.69200400  0.93939000  0.23555000  1
  Y  Y16  1  0.66367700  0.48888600  0.83931400  1
  Y  Y17  1  0.14309600  0.69350000  0.67420300  1
  Y  Y18  1  0.16428200  0.65975600  0.06861300  1
  Y  Y19  1  0.46525200  0.53474800  0.75000000  1
  Y  Y20  1  0.80650000  0.64309600  0.92420300  1
  Y  Y21  1  0.51513700  0.29112800  0.09261700  1
  Y  Y22  1  0.16367700  0.01111400  0.91068600  1
  Y  Y23  1  0.80799600  0.43939000  0.01445000  1
  Y  Y24  1  0.96525200  0.96525200  0.00000000  1
  Y  Y25  1  0.01513700  0.20887200  0.65738300  1
  Y  Y26  1  0.35690400  0.19350000  0.57579700  1
  Y  Y27  1  0.15975600  0.33571800  0.81861300  1
  Y  Y28  1  0.31835800  0.31835800  0.00000000  1
  Y  Y29  1  0.06061000  0.30799600  0.26445000  1
  Y  Y30  1  0.34024400  0.83571800  0.43138700  1
  Y  Y31  1  0.18164200  0.81835800  0.25000000  1
  Y  Y32  1  0.03474800  0.03474800  0.50000000  1
  Y  Y33  1  0.30799600  0.06061000  0.73555000  1
  Y  Y34  1  0.69350000  0.14309600  0.32579700  1
  Y  Y35  1  0.33571800  0.15975600  0.18138700  1
  Y  Y36  1  0.43939000  0.80799600  0.98555000  1
  Y  Y37  1  0.48486300  0.70887200  0.59261700  1
  Y  Y38  1  0.56061000  0.19200400  0.48555000  1
  Y  Y39  1  0.19200400  0.56061000  0.51445000  1
  Y  Y40  1  0.64309600  0.80650000  0.07579700  1
  Y  Y41  1  0.01111400  0.16367700  0.08931400  1
  Y  Y42  1  0.51111400  0.33632300  0.66068600  1
  Y  Y43  1  0.98486300  0.79112800  0.15738300  1
  Y  Y44  1  0.29112800  0.51513700  0.90738300  1
  Y  Y45  1  0.79112800  0.98486300  0.84261700  1
  Y  Y46  1  0.19350000  0.35690400  0.42420300  1
  Y  Y47  1  0.85690400  0.30650000  0.17420300  1
  Ni  Ni48  1  0.01173400  0.65353400  0.85588200  1
  Ni  Ni49  1  0.10289700  0.62580800  0.97631800  1
  Ni  Ni50  1  0.12580800  0.39710300  0.72631800  1
  Ni  Ni51  1  0.15353400  0.48826600  0.60588200  1
  Ni  Ni52  1  0.51138400  0.19083800  0.79866100  1
  Ni  Ni53  1  0.98861600  0.69083800  0.45133900  1
  Ni  Ni54  1  0.48826600  0.15353400  0.39411800  1
  Ni  Ni55  1  0.01138400  0.30916200  0.95133900  1
  Ni  Ni56  1  0.62580800  0.10289700  0.02368200  1
  Ni  Ni57  1  0.51173400  0.84646600  0.89411800  1
  Ni  Ni58  1  0.98826600  0.34646600  0.35588200  1
  Ni  Ni59  1  0.19083800  0.51138400  0.20133900  1
  Ni  Ni60  1  0.80916200  0.48861600  0.70133900  1
  Ni  Ni61  1  0.65353400  0.01173400  0.14411800  1
  Ni  Ni62  1  0.94518600  0.31914900  0.88399300  1
  Ni  Ni63  1  0.39710300  0.12580800  0.27368200  1
  Ni  Ni64  1  0.48861600  0.80916200  0.29866100  1
  Ni  Ni65  1  0.05481400  0.68085100  0.38399300  1
  Ni  Ni66  1  0.89710300  0.37419200  0.47631800  1
  Ni  Ni67  1  0.69083800  0.98861600  0.54866100  1
  Ni  Ni68  1  0.60289700  0.87419200  0.77368200  1
  Ni  Ni69  1  0.34646600  0.98826600  0.64411800  1
  Ni  Ni70  1  0.81914900  0.55481400  0.63399300  1
  Ni  Ni71  1  0.31914900  0.94518600  0.11600700  1
  Ni  Ni72  1  0.68085100  0.05481400  0.61600700  1
  Ni  Ni73  1  0.37419200  0.89710300  0.52368200  1
  Ni  Ni74  1  0.55481400  0.81914900  0.36600700  1
  Ni  Ni75  1  0.18085100  0.44518600  0.13399300  1
  Ni  Ni76  1  0.30916200  0.01138400  0.04866100  1
  Ni  Ni77  1  0.44518600  0.18085100  0.86600700  1
  Ni  Ni78  1  0.87419200  0.60289700  0.22631800  1
  Ni  Ni79  1  0.84646600  0.51173400  0.10588200  1
