# generated using pymatgen
data_Nd5Sn4
_symmetry_space_group_name_H-M   'P 1'
_cell_length_a   8.32966500
_cell_length_b   8.46942900
_cell_length_c   16.00787300
_cell_angle_alpha   90.00000000
_cell_angle_beta   90.00000000
_cell_angle_gamma   90.00000000
_symmetry_Int_Tables_number   1
_chemical_formula_structural   Nd5Sn4
_chemical_formula_sum   'Nd20 Sn16'
_cell_volume   1129.31552150
_cell_formula_units_Z   4
loop_
 _symmetry_equiv_pos_site_id
 _symmetry_equiv_pos_as_xyz
  1  'x, y, z'
loop_
 _atom_site_type_symbol
 _atom_site_label
 _atom_site_symmetry_multiplicity
 _atom_site_fract_x
 _atom_site_fract_y
 _atom_site_fract_z
 _atom_site_occupancy
  Nd  Nd0  1  0.01763300  0.18076400  0.40083700  1
  Nd  Nd1  1  0.36813700  0.83710600  0.12013000  1
  Nd  Nd2  1  0.13186300  0.33710600  0.62013000  1
  Nd  Nd3  1  0.48236700  0.68076400  0.90083700  1
  Nd  Nd4  1  0.86813700  0.66289400  0.12013000  1
  Nd  Nd5  1  0.13186300  0.33710600  0.87987000  1
  Nd  Nd6  1  0.19933600  0.50236300  0.25000000  1
  Nd  Nd7  1  0.69933600  0.99763700  0.25000000  1
  Nd  Nd8  1  0.48236700  0.68076400  0.59916300  1
  Nd  Nd9  1  0.30066400  0.00236300  0.75000000  1
  Nd  Nd10  1  0.63186300  0.16289400  0.62013000  1
  Nd  Nd11  1  0.80066400  0.49763700  0.75000000  1
  Nd  Nd12  1  0.86813700  0.66289400  0.37987000  1
  Nd  Nd13  1  0.01763300  0.18076400  0.09916300  1
  Nd  Nd14  1  0.98236700  0.81923600  0.90083700  1
  Nd  Nd15  1  0.63186300  0.16289400  0.87987000  1
  Nd  Nd16  1  0.51763300  0.31923600  0.09916300  1
  Nd  Nd17  1  0.36813700  0.83710600  0.37987000  1
  Nd  Nd18  1  0.98236700  0.81923600  0.59916300  1
  Nd  Nd19  1  0.51763300  0.31923600  0.40083700  1
  Sn  Sn20  1  0.79071900  0.46431600  0.54235800  1
  Sn  Sn21  1  0.70928100  0.96431600  0.45764200  1
  Sn  Sn22  1  0.67706900  0.85790700  0.75000000  1
  Sn  Sn23  1  0.20928100  0.53568400  0.45764200  1
  Sn  Sn24  1  0.29071900  0.03568400  0.95764200  1
  Sn  Sn25  1  0.82293100  0.35790700  0.25000000  1
  Sn  Sn26  1  0.79071900  0.46431600  0.95764200  1
  Sn  Sn27  1  0.56818200  0.61480000  0.25000000  1
  Sn  Sn28  1  0.20928100  0.53568400  0.04235800  1
  Sn  Sn29  1  0.43181800  0.38520000  0.75000000  1
  Sn  Sn30  1  0.17706900  0.64209300  0.75000000  1
  Sn  Sn31  1  0.93181800  0.11480000  0.75000000  1
  Sn  Sn32  1  0.29071900  0.03568400  0.54235800  1
  Sn  Sn33  1  0.70928100  0.96431600  0.04235800  1
  Sn  Sn34  1  0.32293100  0.14209300  0.25000000  1
  Sn  Sn35  1  0.06818200  0.88520000  0.25000000  1
