# generated using pymatgen
data_Pb5SO8
_symmetry_space_group_name_H-M   'P 1'
_cell_length_a   12.00588100
_cell_length_b   7.48502200
_cell_length_c   11.91545491
_cell_angle_alpha   89.05872228
_cell_angle_beta   90.00000000
_cell_angle_gamma   90.00000000
_symmetry_Int_Tables_number   1
_chemical_formula_structural   Pb5SO8
_chemical_formula_sum   'Pb20 S4 O32'
_cell_volume   1070.62932336
_cell_formula_units_Z   4
loop_
 _symmetry_equiv_pos_site_id
 _symmetry_equiv_pos_as_xyz
  1  'x, y, z'
loop_
 _atom_site_type_symbol
 _atom_site_label
 _atom_site_symmetry_multiplicity
 _atom_site_fract_x
 _atom_site_fract_y
 _atom_site_fract_z
 _atom_site_occupancy
  Pb  Pb0  1  0.75863600  0.10832800  0.61214300  1
  Pb  Pb1  1  0.25863600  0.89167200  0.88785700  1
  Pb  Pb2  1  0.24136400  0.89167200  0.38785700  1
  Pb  Pb3  1  0.74136400  0.10832800  0.11214300  1
  Pb  Pb4  1  0.08962000  0.12316700  0.60701800  1
  Pb  Pb5  1  0.58962000  0.87683300  0.89298200  1
  Pb  Pb6  1  0.91038000  0.87683300  0.39298200  1
  Pb  Pb7  1  0.41038000  0.12316700  0.10701800  1
  Pb  Pb8  1  0.74144400  0.63265900  0.61178000  1
  Pb  Pb9  1  0.24144400  0.36734100  0.88822000  1
  Pb  Pb10  1  0.25855600  0.36734100  0.38822000  1
  Pb  Pb11  1  0.75855600  0.63265900  0.11178000  1
  Pb  Pb12  1  0.93944300  0.37555700  0.38599100  1
  Pb  Pb13  1  0.43944300  0.62444300  0.11400900  1
  Pb  Pb14  1  0.06055700  0.62444300  0.61400900  1
  Pb  Pb15  1  0.56055700  0.37555700  0.88599100  1
  Pb  Pb16  1  0.58338000  0.86130800  0.37125000  1
  Pb  Pb17  1  0.08338000  0.13869200  0.12875000  1
  Pb  Pb18  1  0.41662000  0.13869200  0.62875000  1
  Pb  Pb19  1  0.91662000  0.86130800  0.87125000  1
  S  S20  1  0.89511100  0.35619200  0.84676100  1
  S  S21  1  0.39511100  0.64380800  0.65323900  1
  S  S22  1  0.10488900  0.64380800  0.15323900  1
  S  S23  1  0.60488900  0.35619200  0.34676100  1
  O  O24  1  0.08378100  0.86707200  0.49184300  1
  O  O25  1  0.58378100  0.13292800  0.00815700  1
  O  O26  1  0.91621900  0.13292800  0.50815700  1
  O  O27  1  0.41621900  0.86707200  0.99184300  1
  O  O28  1  0.90103300  0.60911300  0.50209500  1
  O  O29  1  0.40103300  0.39088700  0.99790500  1
  O  O30  1  0.09896700  0.39088700  0.49790500  1
  O  O31  1  0.59896700  0.60911300  0.00209500  1
  O  O32  1  0.72726400  0.87280500  0.48891000  1
  O  O33  1  0.22726400  0.12719500  0.01109000  1
  O  O34  1  0.27273600  0.12719500  0.51109000  1
  O  O35  1  0.77273600  0.87280500  0.98891000  1
  O  O36  1  0.82399700  0.86257300  0.70834400  1
  O  O37  1  0.32399700  0.13742700  0.79165600  1
  O  O38  1  0.17600300  0.13742700  0.29165600  1
  O  O39  1  0.67600300  0.86257300  0.20834400  1
  O  O40  1  0.90862400  0.37419100  0.72144100  1
  O  O41  1  0.40862400  0.62580900  0.77855900  1
  O  O42  1  0.09137600  0.62580900  0.27855900  1
  O  O43  1  0.59137600  0.37419100  0.22144100  1
  O  O44  1  0.79727000  0.23826600  0.87199700  1
  O  O45  1  0.29727000  0.76173400  0.62800300  1
  O  O46  1  0.20273000  0.76173400  0.12800300  1
  O  O47  1  0.70273000  0.23826600  0.37199700  1
  O  O48  1  0.87141800  0.53799800  0.89367800  1
  O  O49  1  0.37141800  0.46200200  0.60632200  1
  O  O50  1  0.12858200  0.46200200  0.10632200  1
  O  O51  1  0.62858200  0.53799800  0.39367800  1
  O  O52  1  0.99730500  0.27643300  0.89687600  1
  O  O53  1  0.49730500  0.72356700  0.60312400  1
  O  O54  1  0.00269500  0.72356700  0.10312400  1
  O  O55  1  0.50269500  0.27643300  0.39687600  1
