# generated using pymatgen
data_TlPPbS4
_symmetry_space_group_name_H-M   'P 1'
_cell_length_a   6.66462400
_cell_length_b   8.94671000
_cell_length_c   12.52310700
_cell_angle_alpha   90.00000000
_cell_angle_beta   90.00000000
_cell_angle_gamma   90.00000000
_symmetry_Int_Tables_number   1
_chemical_formula_structural   TlPPbS4
_chemical_formula_sum   'Tl4 P4 Pb4 S16'
_cell_volume   746.70851591
_cell_formula_units_Z   4
loop_
 _symmetry_equiv_pos_site_id
 _symmetry_equiv_pos_as_xyz
  1  'x, y, z'
loop_
 _atom_site_type_symbol
 _atom_site_label
 _atom_site_symmetry_multiplicity
 _atom_site_fract_x
 _atom_site_fract_y
 _atom_site_fract_z
 _atom_site_occupancy
  Tl  Tl0  1  0.75000000  0.62909100  0.39170400  1
  Tl  Tl1  1  0.25000000  0.37090900  0.60829600  1
  Tl  Tl2  1  0.25000000  0.12909100  0.10829600  1
  Tl  Tl3  1  0.75000000  0.87090900  0.89170400  1
  P  P4  1  0.25000000  0.87339700  0.34692200  1
  P  P5  1  0.75000000  0.12660300  0.65307800  1
  P  P6  1  0.75000000  0.37339700  0.15307800  1
  P  P7  1  0.25000000  0.62660300  0.84692200  1
  Pb  Pb8  1  0.25000000  0.89514600  0.62960100  1
  Pb  Pb9  1  0.75000000  0.10485400  0.37039900  1
  Pb  Pb10  1  0.75000000  0.39514600  0.87039900  1
  Pb  Pb11  1  0.25000000  0.60485400  0.12960100  1
  S  S12  1  0.25000000  0.69477000  0.45023700  1
  S  S13  1  0.75000000  0.30523000  0.54976300  1
  S  S14  1  0.75000000  0.19477000  0.04976300  1
  S  S15  1  0.25000000  0.80523000  0.95023700  1
  S  S16  1  0.25000000  0.07179100  0.43091400  1
  S  S17  1  0.75000000  0.92820900  0.56908600  1
  S  S18  1  0.75000000  0.57179100  0.06908600  1
  S  S19  1  0.25000000  0.42820900  0.93091400  1
  S  S20  1  0.00399200  0.86335800  0.24849700  1
  S  S21  1  0.50399200  0.13664200  0.75150300  1
  S  S22  1  0.99600800  0.36335800  0.25150300  1
  S  S23  1  0.49600800  0.63664200  0.74849700  1
  S  S24  1  0.99600800  0.13664200  0.75150300  1
  S  S25  1  0.49600800  0.86335800  0.24849700  1
  S  S26  1  0.00399200  0.63664200  0.74849700  1
  S  S27  1  0.50399200  0.36335800  0.25150300  1
