# generated using pymatgen
data_HoCoSi
_symmetry_space_group_name_H-M   'P 1'
_cell_length_a   4.17833000
_cell_length_b   6.87221700
_cell_length_c   6.88214400
_cell_angle_alpha   90.00000000
_cell_angle_beta   90.00000000
_cell_angle_gamma   90.00000000
_symmetry_Int_Tables_number   1
_chemical_formula_structural   HoCoSi
_chemical_formula_sum   'Ho4 Co4 Si4'
_cell_volume   197.61657000
_cell_formula_units_Z   4
loop_
 _symmetry_equiv_pos_site_id
 _symmetry_equiv_pos_as_xyz
  1  'x, y, z'
loop_
 _atom_site_type_symbol
 _atom_site_label
 _atom_site_symmetry_multiplicity
 _atom_site_fract_x
 _atom_site_fract_y
 _atom_site_fract_z
 _atom_site_occupancy
  Ho  Ho0  1  0.25000000  0.18765600  0.98168400  1
  Ho  Ho1  1  0.75000000  0.81234400  0.01831600  1
  Ho  Ho2  1  0.25000000  0.31234400  0.48168400  1
  Ho  Ho3  1  0.75000000  0.68765600  0.51831600  1
  Co  Co4  1  0.25000000  0.56569200  0.14511500  1
  Co  Co5  1  0.75000000  0.43430800  0.85488500  1
  Co  Co6  1  0.25000000  0.93430800  0.64511500  1
  Co  Co7  1  0.75000000  0.06569200  0.35488500  1
  Si  Si8  1  0.25000000  0.60697700  0.80517600  1
  Si  Si9  1  0.75000000  0.39302300  0.19482400  1
  Si  Si10  1  0.25000000  0.89302300  0.30517600  1
  Si  Si11  1  0.75000000  0.10697700  0.69482400  1
