# generated using pymatgen
data_ThV4O12
_symmetry_space_group_name_H-M   'P 1'
_cell_length_a   16.05387739
_cell_length_b   16.05387739
_cell_length_c   16.05387739
_cell_angle_alpha   148.34550735
_cell_angle_beta   148.34550735
_cell_angle_gamma   45.37558519
_symmetry_Int_Tables_number   1
_chemical_formula_structural   ThV4O12
_chemical_formula_sum   'Th4 V16 O48'
_cell_volume   1135.83028355
_cell_formula_units_Z   4
loop_
 _symmetry_equiv_pos_site_id
 _symmetry_equiv_pos_as_xyz
  1  'x, y, z'
loop_
 _atom_site_type_symbol
 _atom_site_label
 _atom_site_symmetry_multiplicity
 _atom_site_fract_x
 _atom_site_fract_y
 _atom_site_fract_z
 _atom_site_occupancy
  Th  Th0  1  0.00000000  0.50000000  0.50000000  1
  Th  Th1  1  0.25000000  0.25000000  0.00000000  1
  Th  Th2  1  0.75000000  0.75000000  0.00000000  1
  Th  Th3  1  0.50000000  0.00000000  0.50000000  1
  V  V4  1  0.03447000  0.53093200  0.21518900  1
  V  V5  1  0.06928100  0.06574200  0.28481100  1
  V  V6  1  0.43425800  0.43071900  0.71518900  1
  V  V7  1  0.21553000  0.93071900  0.99646100  1
  V  V8  1  0.68071900  0.18425800  0.21518900  1
  V  V9  1  0.78093200  0.78447000  0.71518900  1
  V  V10  1  0.93425800  0.21906800  0.00353900  1
  V  V11  1  0.96906800  0.46553000  0.78481100  1
  V  V12  1  0.28093200  0.56574200  0.99646100  1
  V  V13  1  0.31574200  0.81928100  0.78481100  1
  V  V14  1  0.81574200  0.03093200  0.49646100  1
  V  V15  1  0.53447000  0.31928100  0.50353900  1
  V  V16  1  0.71553000  0.71906800  0.28481100  1
  V  V17  1  0.56928100  0.28447000  0.00353900  1
  V  V18  1  0.46906800  0.68425800  0.50353900  1
  V  V19  1  0.18071900  0.96553000  0.49646100  1
  O  O20  1  0.46812000  0.27404400  0.67236300  1
  O  O21  1  0.12500000  0.55847500  0.93347500  1
  O  O22  1  0.94152500  0.37500000  0.06652500  1
  O  O23  1  0.38017700  0.74908600  0.23858100  1
  O  O24  1  0.75091400  0.11982300  0.76141900  1
  O  O25  1  0.60168100  0.79575600  0.32763700  1
  O  O26  1  0.99908600  0.13017700  0.73858100  1
  O  O27  1  0.78188000  0.95424400  0.30592400  1
  O  O28  1  0.58708600  0.58708600  0.00000000  1
  O  O29  1  0.08708600  0.08708600  0.00000000  1
  O  O30  1  0.73949500  0.00091400  0.13109100  1
  O  O31  1  0.80847500  0.87500000  0.43347500  1
  O  O32  1  0.14831900  0.45424400  0.17236300  1
  O  O33  1  0.52404400  0.21812000  0.17236300  1
  O  O34  1  0.64831900  0.47595600  0.69407600  1
  O  O35  1  0.33708600  0.83708600  0.50000000  1
  O  O36  1  0.12500000  0.05847500  0.43347500  1
  O  O37  1  0.20424400  0.53188000  0.80592400  1
  O  O38  1  0.35840400  0.98949500  0.23858100  1
  O  O39  1  0.54575600  0.71812000  0.69407600  1
  O  O40  1  0.28188000  0.97595600  0.82763700  1
  O  O41  1  0.23949500  0.10840400  0.73858100  1
  O  O42  1  0.16291400  0.66291400  0.50000000  1
  O  O43  1  0.72595600  0.39831900  0.19407600  1
  O  O44  1  0.25091400  0.48949500  0.63109100  1
  O  O45  1  0.22595600  0.03188000  0.32763700  1
  O  O46  1  0.36982300  0.50091400  0.26141900  1
  O  O47  1  0.49908600  0.76050500  0.86890900  1
  O  O48  1  0.86982300  0.60840400  0.86890900  1
  O  O49  1  0.83708600  0.33708600  0.50000000  1
  O  O50  1  0.02404400  0.85168100  0.30592400  1
  O  O51  1  0.44152500  0.37500000  0.56652500  1
  O  O52  1  0.96812000  0.29575600  0.19407600  1
  O  O53  1  0.66291400  0.16291400  0.50000000  1
  O  O54  1  0.85840400  0.61982300  0.36890900  1
  O  O55  1  0.91291400  0.91291400  0.00000000  1
  O  O56  1  0.62500000  0.69152500  0.56652500  1
  O  O57  1  0.01050500  0.24908600  0.36890900  1
  O  O58  1  0.39159600  0.26050500  0.26141900  1
  O  O59  1  0.62500000  0.19152500  0.06652500  1
  O  O60  1  0.10168100  0.77404400  0.80592400  1
  O  O61  1  0.51050500  0.14159600  0.76141900  1
  O  O62  1  0.88017700  0.64159600  0.63109100  1
  O  O63  1  0.30847500  0.87500000  0.93347500  1
  O  O64  1  0.41291400  0.41291400  0.00000000  1
  O  O65  1  0.70424400  0.89831900  0.67236300  1
  O  O66  1  0.89159600  0.63017700  0.13109100  1
  O  O67  1  0.04575600  0.35168100  0.82763700  1
