# generated using pymatgen
data_V2P2PbO10
_symmetry_space_group_name_H-M   'P 1'
_cell_length_a   8.78720100
_cell_length_b   5.28343900
_cell_length_c   17.05588910
_cell_angle_alpha   88.94339450
_cell_angle_beta   90.00000000
_cell_angle_gamma   90.00000000
_symmetry_Int_Tables_number   1
_chemical_formula_structural   V2P2PbO10
_chemical_formula_sum   'V8 P8 Pb4 O40'
_cell_volume   791.71298914
_cell_formula_units_Z   4
loop_
 _symmetry_equiv_pos_site_id
 _symmetry_equiv_pos_as_xyz
  1  'x, y, z'
loop_
 _atom_site_type_symbol
 _atom_site_label
 _atom_site_symmetry_multiplicity
 _atom_site_fract_x
 _atom_site_fract_y
 _atom_site_fract_z
 _atom_site_occupancy
  V  V0  1  0.33459400  0.85452400  0.56855400  1
  V  V1  1  0.53686400  0.53719900  0.84873300  1
  V  V2  1  0.96313600  0.53719900  0.34873300  1
  V  V3  1  0.46313600  0.46280100  0.15126700  1
  V  V4  1  0.66540600  0.14547600  0.43144600  1
  V  V5  1  0.16540600  0.85452400  0.06855400  1
  V  V6  1  0.83459400  0.14547600  0.93144600  1
  V  V7  1  0.03686400  0.46280100  0.65126700  1
  P  P8  1  0.58857400  0.63283100  0.32241200  1
  P  P9  1  0.28223300  0.35747600  0.98159900  1
  P  P10  1  0.41142600  0.36716900  0.67758800  1
  P  P11  1  0.71776700  0.64252400  0.01840100  1
  P  P12  1  0.21776700  0.35747600  0.48159900  1
  P  P13  1  0.08857400  0.36716900  0.17758800  1
  P  P14  1  0.78223300  0.64252400  0.51840100  1
  P  P15  1  0.91142600  0.63283100  0.82241200  1
  Pb  Pb16  1  0.29698200  0.04828500  0.32027000  1
  Pb  Pb17  1  0.20301800  0.04828500  0.82027000  1
  Pb  Pb18  1  0.79698200  0.95171500  0.17973000  1
  Pb  Pb19  1  0.70301800  0.95171500  0.67973000  1
  O  O20  1  0.99095300  0.32042300  0.25198200  1
  O  O21  1  0.45889700  0.62118700  0.63735100  1
  O  O22  1  0.31611000  0.59796300  0.48729300  1
  O  O23  1  0.93853200  0.21330200  0.68519700  1
  O  O24  1  0.32979600  0.80885600  0.11344400  1
  O  O25  1  0.67020400  0.19114400  0.88655600  1
  O  O26  1  0.25920100  0.36891200  0.20163100  1
  O  O27  1  0.75920100  0.63108800  0.29836900  1
  O  O28  1  0.81893900  0.88854400  0.02077600  1
  O  O29  1  0.54110300  0.37881300  0.36264900  1
  O  O30  1  0.64045100  0.64595600  0.10139600  1
  O  O31  1  0.00904700  0.67957700  0.74801800  1
  O  O32  1  0.14045100  0.35404400  0.39860400  1
  O  O33  1  0.18106100  0.11145600  0.97922400  1
  O  O34  1  0.17020400  0.80885600  0.61344400  1
  O  O35  1  0.94387000  0.86352900  0.87519600  1
  O  O36  1  0.10186100  0.33694800  0.54802400  1
  O  O37  1  0.60186100  0.66305200  0.95197600  1
  O  O38  1  0.31893900  0.11145600  0.47922400  1
  O  O39  1  0.05613000  0.13647100  0.12480400  1
  O  O40  1  0.68106100  0.88854400  0.52077600  1
  O  O41  1  0.24079900  0.36891200  0.70163100  1
  O  O42  1  0.06146800  0.78669800  0.31480300  1
  O  O43  1  0.95889700  0.37881300  0.86264900  1
  O  O44  1  0.18389000  0.59796300  0.98729300  1
  O  O45  1  0.68389000  0.40203700  0.51270700  1
  O  O46  1  0.82979600  0.19114400  0.38655600  1
  O  O47  1  0.04110300  0.62118700  0.13735100  1
  O  O48  1  0.44387000  0.13647100  0.62480400  1
  O  O49  1  0.50904700  0.32042300  0.75198200  1
  O  O50  1  0.49095300  0.67957700  0.24801800  1
  O  O51  1  0.43853200  0.78669800  0.81480300  1
  O  O52  1  0.35954900  0.35404400  0.89860400  1
  O  O53  1  0.74079900  0.63108800  0.79836900  1
  O  O54  1  0.89813900  0.66305200  0.45197600  1
  O  O55  1  0.39813900  0.33694800  0.04802400  1
  O  O56  1  0.56146800  0.21330200  0.18519700  1
  O  O57  1  0.81611000  0.40203700  0.01270700  1
  O  O58  1  0.55613000  0.86352900  0.37519600  1
  O  O59  1  0.85954900  0.64595600  0.60139600  1
