# generated using pymatgen
data_Bi24Cl10O31
_symmetry_space_group_name_H-M   'P 1'
_cell_length_a   8.07054900
_cell_length_b   10.25274300
_cell_length_c   29.99864768
_cell_angle_alpha   88.93402471
_cell_angle_beta   90.00000000
_cell_angle_gamma   90.00000000
_symmetry_Int_Tables_number   1
_chemical_formula_structural   Bi24Cl10O31
_chemical_formula_sum   'Bi48 Cl20 O62'
_cell_volume   2481.81645796
_cell_formula_units_Z   2
loop_
 _symmetry_equiv_pos_site_id
 _symmetry_equiv_pos_as_xyz
  1  'x, y, z'
loop_
 _atom_site_type_symbol
 _atom_site_label
 _atom_site_symmetry_multiplicity
 _atom_site_fract_x
 _atom_site_fract_y
 _atom_site_fract_z
 _atom_site_occupancy
  Bi  Bi0  1  0.84868700  0.91610100  0.68612100  1
  Bi  Bi1  1  0.37584100  0.09656500  0.09874100  1
  Bi  Bi2  1  0.62415900  0.90343500  0.90125900  1
  Bi  Bi3  1  0.34296100  0.07672900  0.80401300  1
  Bi  Bi4  1  0.12138800  0.40143300  0.83356200  1
  Bi  Bi5  1  0.15131300  0.91610100  0.18612100  1
  Bi  Bi6  1  0.87861200  0.59856700  0.16643800  1
  Bi  Bi7  1  0.10621300  0.79690200  0.78160500  1
  Bi  Bi8  1  0.62420700  0.44285200  0.54708800  1
  Bi  Bi9  1  0.89378700  0.79690200  0.28160500  1
  Bi  Bi10  1  0.62420700  0.55714800  0.95291200  1
  Bi  Bi11  1  0.11929900  0.24862900  0.42659400  1
  Bi  Bi12  1  0.37579300  0.44285200  0.04708800  1
  Bi  Bi13  1  0.15963400  0.06501400  0.59131600  1
  Bi  Bi14  1  0.37579300  0.55714800  0.45291200  1
  Bi  Bi15  1  0.37584100  0.90343500  0.40125900  1
  Bi  Bi16  1  0.34599000  0.74415700  0.57323800  1
  Bi  Bi17  1  0.65401000  0.74415700  0.07323800  1
  Bi  Bi18  1  0.37497500  0.75648300  0.28329000  1
  Bi  Bi19  1  0.12387100  0.43029600  0.54528300  1
  Bi  Bi20  1  0.61820100  0.39478500  0.83688000  1
  Bi  Bi21  1  0.12138800  0.59856700  0.66643800  1
  Bi  Bi22  1  0.10621300  0.20309800  0.71839500  1
  Bi  Bi23  1  0.34296100  0.92327100  0.69598700  1
  Bi  Bi24  1  0.12387100  0.56970400  0.95471700  1
  Bi  Bi25  1  0.84036600  0.93498600  0.40868400  1
  Bi  Bi26  1  0.38179900  0.39478500  0.33688000  1
  Bi  Bi27  1  0.88070100  0.75137100  0.57340600  1
  Bi  Bi28  1  0.87612900  0.43029600  0.04528300  1
  Bi  Bi29  1  0.87861200  0.40143300  0.33356200  1
  Bi  Bi30  1  0.84036600  0.06501400  0.09131600  1
  Bi  Bi31  1  0.87612900  0.56970400  0.45471700  1
  Bi  Bi32  1  0.65703900  0.07672900  0.30401300  1
  Bi  Bi33  1  0.38179900  0.60521500  0.16312000  1
  Bi  Bi34  1  0.88070100  0.24862900  0.92659400  1
  Bi  Bi35  1  0.61820100  0.60521500  0.66312000  1
  Bi  Bi36  1  0.11929900  0.75137100  0.07340600  1
  Bi  Bi37  1  0.15963400  0.93498600  0.90868400  1
  Bi  Bi38  1  0.15131300  0.08389900  0.31387900  1
  Bi  Bi39  1  0.34599000  0.25584300  0.92676200  1
  Bi  Bi40  1  0.89378700  0.20309800  0.21839500  1
  Bi  Bi41  1  0.84868700  0.08389900  0.81387900  1
  Bi  Bi42  1  0.37497500  0.24351700  0.21671000  1
  Bi  Bi43  1  0.62502500  0.75648300  0.78329000  1
  Bi  Bi44  1  0.65703900  0.92327100  0.19598700  1
  Bi  Bi45  1  0.62502500  0.24351700  0.71671000  1
  Bi  Bi46  1  0.62415900  0.09656500  0.59874100  1
  Bi  Bi47  1  0.65401000  0.25584300  0.42676200  1
  Cl  Cl48  1  0.62588300  0.79722500  0.48853100  1
  Cl  Cl49  1  0.87252400  0.19939000  0.51639200  1
  Cl  Cl50  1  0.11407000  0.50000000  0.25000000  1
  Cl  Cl51  1  0.87252400  0.80061000  0.98360800  1
  Cl  Cl52  1  0.37411700  0.79722500  0.98853100  1
  Cl  Cl53  1  0.62108500  0.66425200  0.37105300  1
  Cl  Cl54  1  0.37891500  0.33574800  0.62894700  1
  Cl  Cl55  1  0.87247600  0.65286100  0.86790700  1
  Cl  Cl56  1  0.87247600  0.34713900  0.63209300  1
  Cl  Cl57  1  0.37411700  0.20277500  0.51146900  1
  Cl  Cl58  1  0.12747600  0.19939000  0.01639200  1
  Cl  Cl59  1  0.12752400  0.65286100  0.36790700  1
  Cl  Cl60  1  0.37891500  0.66425200  0.87105300  1
  Cl  Cl61  1  0.37450100  0.50000000  0.75000000  1
  Cl  Cl62  1  0.62588300  0.20277500  0.01146900  1
  Cl  Cl63  1  0.88593000  0.50000000  0.75000000  1
  Cl  Cl64  1  0.62108500  0.33574800  0.12894700  1
  Cl  Cl65  1  0.12752400  0.34713900  0.13209300  1
  Cl  Cl66  1  0.62549900  0.50000000  0.25000000  1
  Cl  Cl67  1  0.12747600  0.80061000  0.48360800  1
  O  O68  1  0.87369700  0.39243700  0.41210900  1
  O  O69  1  0.63268800  0.69475100  0.14577200  1
  O  O70  1  0.87369700  0.60756300  0.08789100  1
  O  O71  1  0.63121400  0.07581300  0.67027600  1
  O  O72  1  0.39475000  0.14063300  0.73128500  1
  O  O73  1  0.37480900  0.21598300  0.29624800  1
  O  O74  1  0.22165000  0.93096700  0.10580700  1
  O  O75  1  0.12410700  0.52715500  0.02813300  1
  O  O76  1  0.36731200  0.69475100  0.64577200  1
  O  O77  1  0.11430200  0.86199000  0.59138700  1
  O  O78  1  0.40335500  0.02048000  0.90084200  1
  O  O79  1  0.87692300  0.30682900  0.85373000  1
  O  O80  1  0.12307700  0.30682900  0.35373000  1
  O  O81  1  0.85026100  0.13221100  0.73404800  1
  O  O82  1  0.87692300  0.69317100  0.64627000  1
  O  O83  1  0.12368700  0.77616000  0.70511600  1
  O  O84  1  0.87883900  0.05693100  0.16187000  1
  O  O85  1  0.37480900  0.78401700  0.20375200  1
  O  O86  1  0.87589300  0.47284500  0.97186700  1
  O  O87  1  0.22165000  0.06903300  0.39419300  1
  O  O88  1  0.77835000  0.06903300  0.89419300  1
  O  O89  1  0.59664500  0.97952000  0.09915800  1
  O  O90  1  0.62710800  0.53104600  0.02791700  1
  O  O91  1  0.62156500  0.62605600  0.58873200  1
  O  O92  1  0.12116100  0.05693100  0.66187000  1
  O  O93  1  0.62519100  0.21598300  0.79624800  1
  O  O94  1  0.87589300  0.52715500  0.52813300  1
  O  O95  1  0.12630300  0.60756300  0.58789100  1
  O  O96  1  0.87883900  0.94306900  0.33813000  1
  O  O97  1  0.36878600  0.07581300  0.17027600  1
  O  O98  1  0.62519100  0.78401700  0.70375200  1
  O  O99  1  0.59664500  0.02048000  0.40084200  1
  O  O100  1  0.77835000  0.93096700  0.60580700  1
  O  O101  1  0.12630300  0.39243700  0.91210900  1
  O  O102  1  0.62710800  0.46895400  0.47208300  1
  O  O103  1  0.11430200  0.13801000  0.90861300  1
  O  O104  1  0.14973900  0.13221100  0.23404800  1
  O  O105  1  0.63121400  0.92418700  0.82972400  1
  O  O106  1  0.39475000  0.85936700  0.76871500  1
  O  O107  1  0.12368700  0.22384000  0.79488400  1
  O  O108  1  0.37289200  0.53104600  0.52791700  1
  O  O109  1  0.85080300  0.00000000  0.25000000  1
  O  O110  1  0.62156500  0.37394400  0.91126800  1
  O  O111  1  0.36878600  0.92418700  0.32972400  1
  O  O112  1  0.37843500  0.37394400  0.41126800  1
  O  O113  1  0.88569800  0.86199000  0.09138700  1
  O  O114  1  0.12116100  0.94306900  0.83813000  1
  O  O115  1  0.37843500  0.62605600  0.08873200  1
  O  O116  1  0.87631300  0.77616000  0.20511600  1
  O  O117  1  0.12410700  0.47284500  0.47186700  1
  O  O118  1  0.60525000  0.85936700  0.26871500  1
  O  O119  1  0.12307700  0.69317100  0.14627000  1
  O  O120  1  0.88569800  0.13801000  0.40861300  1
  O  O121  1  0.87631300  0.22384000  0.29488400  1
  O  O122  1  0.40335500  0.97952000  0.59915800  1
  O  O123  1  0.63268800  0.30524900  0.35422800  1
  O  O124  1  0.14919700  0.00000000  0.75000000  1
  O  O125  1  0.85026100  0.86778900  0.76595200  1
  O  O126  1  0.60525000  0.14063300  0.23128500  1
  O  O127  1  0.37289200  0.46895400  0.97208300  1
  O  O128  1  0.36731200  0.30524900  0.85422800  1
  O  O129  1  0.14973900  0.86778900  0.26595200  1
