# generated using pymatgen
data_CaCuSn
_symmetry_space_group_name_H-M   'P 1'
_cell_length_a   11.93141698
_cell_length_b   11.93141698
_cell_length_c   11.93141698
_cell_angle_alpha   157.69951375
_cell_angle_beta   141.02613092
_cell_angle_gamma   45.36085167
_symmetry_Int_Tables_number   1
_chemical_formula_structural   CaCuSn
_chemical_formula_sum   'Ca6 Cu6 Sn6'
_cell_volume   404.40342934
_cell_formula_units_Z   6
loop_
 _symmetry_equiv_pos_site_id
 _symmetry_equiv_pos_as_xyz
  1  'x, y, z'
loop_
 _atom_site_type_symbol
 _atom_site_label
 _atom_site_symmetry_multiplicity
 _atom_site_fract_x
 _atom_site_fract_y
 _atom_site_fract_z
 _atom_site_occupancy
  Ca  Ca0  1  0.76016600  0.83487700  0.92529000  1
  Ca  Ca1  1  0.66920100  0.66877400  0.00042700  1
  Ca  Ca2  1  0.42515400  0.50000000  0.92515400  1
  Ca  Ca3  1  0.00126500  0.00000000  0.00126500  1
  Ca  Ca4  1  0.09041300  0.16512300  0.92529000  1
  Ca  Ca5  1  0.33165300  0.33122600  0.00042700  1
  Cu  Cu6  1  0.06589200  0.76803800  0.29785500  1
  Cu  Cu7  1  0.55557800  0.92753700  0.62804100  1
  Cu  Cu8  1  0.52981700  0.23196200  0.29785500  1
  Cu  Cu9  1  0.23215600  0.60308200  0.62907400  1
  Cu  Cu10  1  0.70050500  0.07246300  0.62804100  1
  Cu  Cu11  1  0.02599100  0.39691800  0.62907400  1
  Sn  Sn12  1  0.73004000  0.43141000  0.29863000  1
  Sn  Sn13  1  0.20188900  0.90252200  0.29936700  1
  Sn  Sn14  1  0.89212700  0.26602000  0.62610700  1
  Sn  Sn15  1  0.36008700  0.73398000  0.62610700  1
  Sn  Sn16  1  0.86722000  0.56859000  0.29863000  1
  Sn  Sn17  1  0.39684600  0.09747800  0.29936700  1
