# generated using pymatgen
data_Sr2GeO4
_symmetry_space_group_name_H-M   'P 1'
_cell_length_a   7.29468900
_cell_length_b   5.91828100
_cell_length_c   11.25951132
_cell_angle_alpha   62.89049375
_cell_angle_beta   90.00000000
_cell_angle_gamma   90.00000000
_symmetry_Int_Tables_number   1
_chemical_formula_structural   Sr2GeO4
_chemical_formula_sum   'Sr8 Ge4 O16'
_cell_volume   432.69199525
_cell_formula_units_Z   4
loop_
 _symmetry_equiv_pos_site_id
 _symmetry_equiv_pos_as_xyz
  1  'x, y, z'
loop_
 _atom_site_type_symbol
 _atom_site_label
 _atom_site_symmetry_multiplicity
 _atom_site_fract_x
 _atom_site_fract_y
 _atom_site_fract_z
 _atom_site_occupancy
  Sr  Sr0  1  0.34525200  0.29830000  0.43098400  1
  Sr  Sr1  1  0.84525200  0.70170000  0.06901600  1
  Sr  Sr2  1  0.65474800  0.70170000  0.56901600  1
  Sr  Sr3  1  0.15474800  0.29830000  0.93098400  1
  Sr  Sr4  1  0.99489100  0.02031100  0.70034000  1
  Sr  Sr5  1  0.49489100  0.97968900  0.79966000  1
  Sr  Sr6  1  0.00510900  0.97968900  0.29966000  1
  Sr  Sr7  1  0.50510900  0.02031100  0.20034000  1
  Ge  Ge8  1  0.78386900  0.34873900  0.41598400  1
  Ge  Ge9  1  0.28386900  0.65126100  0.08401600  1
  Ge  Ge10  1  0.21613100  0.65126100  0.58401600  1
  Ge  Ge11  1  0.71613100  0.34873900  0.91598400  1
  O  O12  1  0.01780800  0.27439600  0.44300900  1
  O  O13  1  0.51780800  0.72560400  0.05699100  1
  O  O14  1  0.98219200  0.72560400  0.55699100  1
  O  O15  1  0.48219200  0.27439600  0.94300900  1
  O  O16  1  0.66596400  0.27061000  0.57048700  1
  O  O17  1  0.16596400  0.72939000  0.92951300  1
  O  O18  1  0.33403600  0.72939000  0.42951300  1
  O  O19  1  0.83403600  0.27061000  0.07048700  1
  O  O20  1  0.67410600  0.14343800  0.36005300  1
  O  O21  1  0.17410600  0.85656200  0.13994700  1
  O  O22  1  0.32589400  0.85656200  0.63994700  1
  O  O23  1  0.82589400  0.14343800  0.86005300  1
  O  O24  1  0.75210000  0.67534900  0.30318600  1
  O  O25  1  0.25210000  0.32465100  0.19681400  1
  O  O26  1  0.24790000  0.32465100  0.69681400  1
  O  O27  1  0.74790000  0.67534900  0.80318600  1
