# generated using pymatgen
data_Te10Mo3I10
_symmetry_space_group_name_H-M   'P 1'
_cell_length_a   11.19086400
_cell_length_b   11.23031269
_cell_length_c   18.14553302
_cell_angle_alpha   84.00523945
_cell_angle_beta   75.95011611
_cell_angle_gamma   67.22272871
_symmetry_Int_Tables_number   1
_chemical_formula_structural   Te10Mo3I10
_chemical_formula_sum   'Te20 Mo6 I20'
_cell_volume   2039.59555211
_cell_formula_units_Z   2
loop_
 _symmetry_equiv_pos_site_id
 _symmetry_equiv_pos_as_xyz
  1  'x, y, z'
loop_
 _atom_site_type_symbol
 _atom_site_label
 _atom_site_symmetry_multiplicity
 _atom_site_fract_x
 _atom_site_fract_y
 _atom_site_fract_z
 _atom_site_occupancy
  Te  Te0  1  0.94269400  0.76381600  0.72523300  1
  Te  Te1  1  0.05730600  0.23618400  0.27476700  1
  Te  Te2  1  0.72049600  0.49330800  0.71949400  1
  Te  Te3  1  0.27950400  0.50669200  0.28050600  1
  Te  Te4  1  0.87794700  0.57617300  0.60173000  1
  Te  Te5  1  0.12205300  0.42382700  0.39827000  1
  Te  Te6  1  0.82267900  0.47468800  0.89800900  1
  Te  Te7  1  0.17732100  0.52531200  0.10199100  1
  Te  Te8  1  0.04877000  0.53045700  0.87143600  1
  Te  Te9  1  0.95123000  0.46954300  0.12856400  1
  Te  Te10  1  0.53931900  0.74985500  0.85891700  1
  Te  Te11  1  0.46068100  0.25014500  0.14108300  1
  Te  Te12  1  0.60952200  0.96043400  0.82035300  1
  Te  Te13  1  0.39047800  0.03956600  0.17964700  1
  Te  Te14  1  0.66614700  0.96534000  0.62749000  1
  Te  Te15  1  0.33385300  0.03466000  0.37251000  1
  Te  Te16  1  0.18150600  0.43651500  0.64654300  1
  Te  Te17  1  0.81849400  0.56348500  0.35345700  1
  Te  Te18  1  0.92583300  0.84327000  0.92538300  1
  Te  Te19  1  0.07416700  0.15673000  0.07461700  1
  Mo  Mo20  1  0.71301700  0.74359500  0.72084400  1
  Mo  Mo21  1  0.28698300  0.25640500  0.27915600  1
  Mo  Mo22  1  0.93562500  0.52621100  0.75030100  1
  Mo  Mo23  1  0.06437500  0.47378900  0.24969900  1
  Mo  Mo24  1  0.79568100  0.72684900  0.86012300  1
  Mo  Mo25  1  0.20431900  0.27315100  0.13987700  1
  I  I26  1  0.48427600  0.81759200  0.65141400  1
  I  I27  1  0.51572400  0.18240800  0.34858600  1
  I  I28  1  0.80023600  0.89837600  0.47670300  1
  I  I29  1  0.19976400  0.10162400  0.52329700  1
  I  I30  1  0.81810400  0.10709000  0.65432000  1
  I  I31  1  0.18189600  0.89291000  0.34568000  1
  I  I32  1  0.06790400  0.24574100  0.73632400  1
  I  I33  1  0.93209600  0.75425900  0.26367600  1
  I  I34  1  0.38877600  0.37946900  0.72257000  1
  I  I35  1  0.61122400  0.62053100  0.27743000  1
  I  I36  1  0.22895900  0.64325400  0.55500300  1
  I  I37  1  0.77104100  0.35674600  0.44499700  1
  I  I38  1  0.69531700  0.77849800  0.02241800  1
  I  I39  1  0.30468300  0.22150200  0.97758200  1
  I  I40  1  0.78527200  0.11276800  0.92671600  1
  I  I41  1  0.21472800  0.88723200  0.07328400  1
  I  I42  1  0.16293300  0.84490500  0.82068000  1
  I  I43  1  0.83706700  0.15509500  0.17932000  1
  I  I44  1  0.54621500  0.44860800  0.88503300  1
  I  I45  1  0.45378500  0.55139200  0.11496700  1
