# generated using pymatgen
data_Na2CoP2O7
_symmetry_space_group_name_H-M   'P 1'
_cell_length_a   7.80324300
_cell_length_b   10.43801000
_cell_length_c   15.63692900
_cell_angle_alpha   90.00000000
_cell_angle_beta   90.00000000
_cell_angle_gamma   90.00000000
_symmetry_Int_Tables_number   1
_chemical_formula_structural   Na2CoP2O7
_chemical_formula_sum   'Na16 Co8 P16 O56'
_cell_volume   1273.63300326
_cell_formula_units_Z   8
loop_
 _symmetry_equiv_pos_site_id
 _symmetry_equiv_pos_as_xyz
  1  'x, y, z'
loop_
 _atom_site_type_symbol
 _atom_site_label
 _atom_site_symmetry_multiplicity
 _atom_site_fract_x
 _atom_site_fract_y
 _atom_site_fract_z
 _atom_site_occupancy
  Na  Na0  1  0.66666700  0.23707400  0.19610200  1
  Na  Na1  1  0.16666700  0.76292600  0.80389800  1
  Na  Na2  1  0.16666700  0.73707400  0.30389800  1
  Na  Na3  1  0.66666700  0.26292600  0.69610200  1
  Na  Na4  1  0.38405900  0.25022800  0.55158700  1
  Na  Na5  1  0.88405900  0.74977200  0.44841300  1
  Na  Na6  1  0.88405900  0.75022800  0.94841300  1
  Na  Na7  1  0.38405900  0.24977200  0.05158700  1
  Na  Na8  1  0.21776400  0.23404900  0.27366500  1
  Na  Na9  1  0.71776400  0.76595100  0.72633500  1
  Na  Na10  1  0.71776400  0.73404900  0.22633500  1
  Na  Na11  1  0.21776400  0.26595100  0.77366500  1
  Na  Na12  1  0.82766700  0.25340400  0.47497800  1
  Na  Na13  1  0.32766700  0.74659600  0.52502200  1
  Na  Na14  1  0.32766700  0.75340400  0.02502200  1
  Na  Na15  1  0.82766700  0.24659600  0.97497800  1
  Co  Co16  1  0.51095400  0.99548800  0.37083800  1
  Co  Co17  1  0.01095400  0.00451200  0.62916200  1
  Co  Co18  1  0.01095400  0.49548800  0.12916200  1
  Co  Co19  1  0.51095400  0.50451200  0.87083800  1
  Co  Co20  1  0.53679400  0.49714800  0.38056700  1
  Co  Co21  1  0.03679400  0.50285200  0.61943300  1
  Co  Co22  1  0.03679400  0.99714800  0.11943300  1
  Co  Co23  1  0.53679400  0.00285200  0.88056700  1
  P  P24  1  0.88714200  0.45022800  0.30939300  1
  P  P25  1  0.38714200  0.54977200  0.69060700  1
  P  P26  1  0.38714200  0.95022800  0.19060700  1
  P  P27  1  0.88714200  0.04977200  0.80939300  1
  P  P28  1  0.17254900  0.45452100  0.43839400  1
  P  P29  1  0.67254900  0.54547900  0.56160600  1
  P  P30  1  0.67254900  0.95452100  0.06160600  1
  P  P31  1  0.17254900  0.04547900  0.93839400  1
  P  P32  1  0.14753400  0.03373800  0.44724300  1
  P  P33  1  0.64753400  0.96626200  0.55275700  1
  P  P34  1  0.64753400  0.53373800  0.05275700  1
  P  P35  1  0.14753400  0.46626200  0.94724300  1
  P  P36  1  0.88621300  0.02345700  0.30434500  1
  P  P37  1  0.38621300  0.97654300  0.69565500  1
  P  P38  1  0.38621300  0.52345700  0.19565500  1
  P  P39  1  0.88621300  0.47654300  0.80434500  1
  O  O40  1  0.06078300  0.39843200  0.35748300  1
  O  O41  1  0.56078300  0.60156800  0.64251700  1
  O  O42  1  0.56078300  0.89843200  0.14251700  1
  O  O43  1  0.06078300  0.10156800  0.85748300  1
  O  O44  1  0.73757500  0.38488900  0.35729000  1
  O  O45  1  0.23757500  0.61511100  0.64271000  1
  O  O46  1  0.23757500  0.88488900  0.14271000  1
  O  O47  1  0.73757500  0.11511100  0.85729000  1
  O  O48  1  0.90645000  0.38866800  0.22024500  1
  O  O49  1  0.40645000  0.61133200  0.77975500  1
  O  O50  1  0.40645000  0.88866800  0.27975500  1
  O  O51  1  0.90645000  0.11133200  0.72024500  1
  O  O52  1  0.88191200  0.59529100  0.31200500  1
  O  O53  1  0.38191200  0.40470900  0.68799500  1
  O  O54  1  0.38191200  0.09529100  0.18799500  1
  O  O55  1  0.88191200  0.90470900  0.81200500  1
  O  O56  1  0.17478700  0.59961400  0.43501700  1
  O  O57  1  0.67478700  0.40038600  0.56498300  1
  O  O58  1  0.67478700  0.09961400  0.06498300  1
  O  O59  1  0.17478700  0.90038600  0.93501700  1
  O  O60  1  0.34713800  0.38911300  0.42298700  1
  O  O61  1  0.84713800  0.61088700  0.57701300  1
  O  O62  1  0.84713800  0.88911300  0.07701300  1
  O  O63  1  0.34713800  0.11088700  0.92298700  1
  O  O64  1  0.08777700  0.39487300  0.51820000  1
  O  O65  1  0.58777700  0.60512700  0.48180000  1
  O  O66  1  0.58777700  0.89487300  0.98180000  1
  O  O67  1  0.08777700  0.10512700  0.01820000  1
  O  O68  1  0.98510100  0.08188600  0.38868400  1
  O  O69  1  0.48510100  0.91811400  0.61131600  1
  O  O70  1  0.48510100  0.58188600  0.11131600  1
  O  O71  1  0.98510100  0.41811400  0.88868400  1
  O  O72  1  0.11024300  0.10214000  0.53282000  1
  O  O73  1  0.61024300  0.89786000  0.46718000  1
  O  O74  1  0.61024300  0.60214000  0.96718000  1
  O  O75  1  0.11024300  0.39786000  0.03282000  1
  O  O76  1  0.14818900  0.88865000  0.45203100  1
  O  O77  1  0.64818900  0.11135000  0.54796900  1
  O  O78  1  0.64818900  0.38865000  0.04796900  1
  O  O79  1  0.14818900  0.61135000  0.95203100  1
  O  O80  1  0.30637100  0.09560100  0.40536300  1
  O  O81  1  0.80637100  0.90439900  0.59463700  1
  O  O82  1  0.80637100  0.59560100  0.09463700  1
  O  O83  1  0.30637100  0.40439900  0.90536300  1
  O  O84  1  0.70617100  0.08233300  0.31396900  1
  O  O85  1  0.20617100  0.91766700  0.68603100  1
  O  O86  1  0.20617100  0.58233300  0.18603100  1
  O  O87  1  0.70617100  0.41766700  0.81396900  1
  O  O88  1  0.97799700  0.08688000  0.22771400  1
  O  O89  1  0.47799700  0.91312000  0.77228600  1
  O  O90  1  0.47799700  0.58688000  0.27228600  1
  O  O91  1  0.97799700  0.41312000  0.72771400  1
  O  O92  1  0.89426200  0.87829200  0.30599900  1
  O  O93  1  0.39426200  0.12170800  0.69400100  1
  O  O94  1  0.39426200  0.37829200  0.19400100  1
  O  O95  1  0.89426200  0.62170800  0.80599900  1
