# generated using pymatgen
data_Zr2(Ni7B2)3
_symmetry_space_group_name_H-M   'P 1'
_cell_length_a   7.49207353
_cell_length_b   7.49207353
_cell_length_c   7.49207353
_cell_angle_alpha   60.00000000
_cell_angle_beta   60.00000000
_cell_angle_gamma   60.00000000
_symmetry_Int_Tables_number   1
_chemical_formula_structural   Zr2(Ni7B2)3
_chemical_formula_sum   'Zr2 Ni21 B6'
_cell_volume   297.36585262
_cell_formula_units_Z   1
loop_
 _symmetry_equiv_pos_site_id
 _symmetry_equiv_pos_as_xyz
  1  'x, y, z'
loop_
 _atom_site_type_symbol
 _atom_site_label
 _atom_site_symmetry_multiplicity
 _atom_site_fract_x
 _atom_site_fract_y
 _atom_site_fract_z
 _atom_site_occupancy
  Zr  Zr0  1  0.75000000  0.75000000  0.75000000  1
  Zr  Zr1  1  0.25000000  0.25000000  0.25000000  1
  Ni  Ni2  1  0.00000000  0.00000000  0.00000000  1
  Ni  Ni3  1  0.61377700  0.61377700  0.15866900  1
  Ni  Ni4  1  0.61377700  0.15866900  0.61377700  1
  Ni  Ni5  1  0.15866900  0.61377700  0.61377700  1
  Ni  Ni6  1  0.61377700  0.61377700  0.61377700  1
  Ni  Ni7  1  0.38622300  0.38622300  0.84133100  1
  Ni  Ni8  1  0.38622300  0.84133100  0.38622300  1
  Ni  Ni9  1  0.84133100  0.38622300  0.38622300  1
  Ni  Ni10  1  0.38622300  0.38622300  0.38622300  1
  Ni  Ni11  1  0.00000000  0.00000000  0.33921000  1
  Ni  Ni12  1  0.66079000  0.00000000  0.33921000  1
  Ni  Ni13  1  0.00000000  0.66079000  0.33921000  1
  Ni  Ni14  1  0.66079000  0.33921000  0.00000000  1
  Ni  Ni15  1  0.00000000  0.33921000  0.00000000  1
  Ni  Ni16  1  0.00000000  0.33921000  0.66079000  1
  Ni  Ni17  1  0.33921000  0.66079000  0.00000000  1
  Ni  Ni18  1  0.33921000  0.00000000  0.66079000  1
  Ni  Ni19  1  0.33921000  0.00000000  0.00000000  1
  Ni  Ni20  1  0.00000000  0.00000000  0.66079000  1
  Ni  Ni21  1  0.00000000  0.66079000  0.00000000  1
  Ni  Ni22  1  0.66079000  0.00000000  0.00000000  1
  B  B23  1  0.72989000  0.72989000  0.27011000  1
  B  B24  1  0.27011000  0.72989000  0.27011000  1
  B  B25  1  0.72989000  0.27011000  0.27011000  1
  B  B26  1  0.27011000  0.27011000  0.72989000  1
  B  B27  1  0.72989000  0.27011000  0.72989000  1
  B  B28  1  0.27011000  0.72989000  0.72989000  1
