# generated using pymatgen
data_Th7Pt3
_symmetry_space_group_name_H-M   'P 1'
_cell_length_a   10.07785796
_cell_length_b   10.07785796
_cell_length_c   6.46304900
_cell_angle_alpha   90.00000000
_cell_angle_beta   90.00000000
_cell_angle_gamma   119.99999975
_symmetry_Int_Tables_number   1
_chemical_formula_structural   Th7Pt3
_chemical_formula_sum   'Th14 Pt6'
_cell_volume   568.46606928
_cell_formula_units_Z   2
loop_
 _symmetry_equiv_pos_site_id
 _symmetry_equiv_pos_as_xyz
  1  'x, y, z'
loop_
 _atom_site_type_symbol
 _atom_site_label
 _atom_site_symmetry_multiplicity
 _atom_site_fract_x
 _atom_site_fract_y
 _atom_site_fract_z
 _atom_site_occupancy
  Th  Th0  1  0.66666700  0.33333300  0.58166200  1
  Th  Th1  1  0.33333300  0.66666700  0.08166200  1
  Th  Th2  1  0.87151100  0.74302200  0.74561100  1
  Th  Th3  1  0.25697800  0.12848900  0.74561100  1
  Th  Th4  1  0.87151100  0.12848900  0.74561100  1
  Th  Th5  1  0.12848900  0.25697800  0.24561100  1
  Th  Th6  1  0.74302200  0.87151100  0.24561100  1
  Th  Th7  1  0.12848900  0.87151100  0.24561100  1
  Th  Th8  1  0.45583000  0.91166100  0.53116900  1
  Th  Th9  1  0.08833900  0.54417000  0.53116900  1
  Th  Th10  1  0.45583000  0.54417000  0.53116900  1
  Th  Th11  1  0.54417000  0.08833900  0.03116900  1
  Th  Th12  1  0.91166100  0.45583000  0.03116900  1
  Th  Th13  1  0.54417000  0.45583000  0.03116900  1
  Pt  Pt14  1  0.18832300  0.37664500  0.81068200  1
  Pt  Pt15  1  0.62335500  0.81167700  0.81068200  1
  Pt  Pt16  1  0.18832300  0.81167700  0.81068200  1
  Pt  Pt17  1  0.81167700  0.62335500  0.31068200  1
  Pt  Pt18  1  0.37664500  0.18832300  0.31068200  1
  Pt  Pt19  1  0.81167700  0.18832300  0.31068200  1
