# generated using pymatgen
data_Sb2IBr2F11
_symmetry_space_group_name_H-M   'P 1'
_cell_length_a   12.86802100
_cell_length_b   14.46686700
_cell_length_c   14.77406900
_cell_angle_alpha   90.00000000
_cell_angle_beta   90.00000000
_cell_angle_gamma   90.00000000
_symmetry_Int_Tables_number   1
_chemical_formula_structural   Sb2IBr2F11
_chemical_formula_sum   'Sb16 I8 Br16 F88'
_cell_volume   2750.33992211
_cell_formula_units_Z   8
loop_
 _symmetry_equiv_pos_site_id
 _symmetry_equiv_pos_as_xyz
  1  'x, y, z'
loop_
 _atom_site_type_symbol
 _atom_site_label
 _atom_site_symmetry_multiplicity
 _atom_site_fract_x
 _atom_site_fract_y
 _atom_site_fract_z
 _atom_site_occupancy
  Sb  Sb0  1  0.71200700  0.08476400  0.16496000  1
  Sb  Sb1  1  0.17480600  0.08545000  0.55122000  1
  Sb  Sb2  1  0.21200700  0.91523600  0.33504000  1
  Sb  Sb3  1  0.32519400  0.08545000  0.05122000  1
  Sb  Sb4  1  0.67480600  0.41455000  0.55122000  1
  Sb  Sb5  1  0.71200700  0.58476400  0.33504000  1
  Sb  Sb6  1  0.17480600  0.58545000  0.94878000  1
  Sb  Sb7  1  0.78799300  0.08476400  0.66496000  1
  Sb  Sb8  1  0.67480600  0.91455000  0.94878000  1
  Sb  Sb9  1  0.28799300  0.91523600  0.83504000  1
  Sb  Sb10  1  0.82519400  0.91455000  0.44878000  1
  Sb  Sb11  1  0.28799300  0.41523600  0.66496000  1
  Sb  Sb12  1  0.21200700  0.41523600  0.16496000  1
  Sb  Sb13  1  0.82519400  0.41455000  0.05122000  1
  Sb  Sb14  1  0.32519400  0.58545000  0.44878000  1
  Sb  Sb15  1  0.78799300  0.58476400  0.83504000  1
  I  I16  1  0.59790100  0.76171600  0.63926000  1
  I  I17  1  0.40209900  0.23828400  0.36074000  1
  I  I18  1  0.59790100  0.26171600  0.86074000  1
  I  I19  1  0.40209900  0.73828400  0.13926000  1
  I  I20  1  0.09790100  0.73828400  0.63926000  1
  I  I21  1  0.90209900  0.26171600  0.36074000  1
  I  I22  1  0.90209900  0.76171600  0.13926000  1
  I  I23  1  0.09790100  0.23828400  0.86074000  1
  Br  Br24  1  0.46916000  0.17972100  0.76700200  1
  Br  Br25  1  0.53084000  0.82027900  0.23299800  1
  Br  Br26  1  0.98242200  0.64030300  0.54719700  1
  Br  Br27  1  0.53084000  0.32027900  0.26700200  1
  Br  Br28  1  0.01757800  0.85969700  0.04719700  1
  Br  Br29  1  0.03084000  0.17972100  0.26700200  1
  Br  Br30  1  0.01757800  0.35969700  0.45280300  1
  Br  Br31  1  0.51757800  0.64030300  0.04719700  1
  Br  Br32  1  0.46916000  0.67972100  0.73299800  1
  Br  Br33  1  0.96916000  0.82027900  0.73299800  1
  Br  Br34  1  0.03084000  0.67972100  0.23299800  1
  Br  Br35  1  0.48242200  0.35969700  0.95280300  1
  Br  Br36  1  0.48242200  0.85969700  0.54719700  1
  Br  Br37  1  0.51757800  0.14030300  0.45280300  1
  Br  Br38  1  0.96916000  0.32027900  0.76700200  1
  Br  Br39  1  0.98242200  0.14030300  0.95280300  1
  F  F40  1  0.31092100  0.03847000  0.57130700  1
  F  F41  1  0.92434900  0.57453500  0.78725600  1
  F  F42  1  0.84564400  0.58750300  0.39077800  1
  F  F43  1  0.68907900  0.96153000  0.42869300  1
  F  F44  1  0.32968400  0.31167700  0.59518100  1
  F  F45  1  0.81092100  0.96153000  0.92869300  1
  F  F46  1  0.95812800  0.87507500  0.48844100  1
  F  F47  1  0.17031600  0.31167700  0.09518100  1
  F  F48  1  0.74188000  0.65752500  0.73346500  1
  F  F49  1  0.75812000  0.65752500  0.23346500  1
  F  F50  1  0.82101300  0.32828100  0.14754100  1
  F  F51  1  0.88320500  0.01255700  0.38039500  1
  F  F52  1  0.45812800  0.62492500  0.48844100  1
  F  F53  1  0.65435600  0.08750300  0.60922200  1
  F  F54  1  0.73547200  0.83185600  0.03719700  1
  F  F55  1  0.25812000  0.34247500  0.26653500  1
  F  F56  1  0.25362100  0.53116400  0.71750800  1
  F  F57  1  0.04187200  0.62492500  0.98844100  1
  F  F58  1  0.34564400  0.41249700  0.10922200  1
  F  F59  1  0.24637900  0.03116400  0.28249200  1
  F  F60  1  0.75362100  0.96883600  0.71750800  1
  F  F61  1  0.25362100  0.03116400  0.78249200  1
  F  F62  1  0.67031600  0.18832300  0.09518100  1
  F  F63  1  0.42434900  0.42546500  0.71274400  1
  F  F64  1  0.74188000  0.15752500  0.76653500  1
  F  F65  1  0.23547200  0.66814400  0.03719700  1
  F  F66  1  0.57565100  0.57453500  0.28725600  1
  F  F67  1  0.75362100  0.46883600  0.78249200  1
  F  F68  1  0.61679500  0.51255700  0.61960500  1
  F  F69  1  0.65435600  0.58750300  0.89077800  1
  F  F70  1  0.74637900  0.96883600  0.21750800  1
  F  F71  1  0.18907900  0.03847000  0.07130700  1
  F  F72  1  0.24188000  0.84247500  0.73346500  1
  F  F73  1  0.82968400  0.68832300  0.90481900  1
  F  F74  1  0.75812000  0.15752500  0.26653500  1
  F  F75  1  0.38320500  0.48744300  0.38039500  1
  F  F76  1  0.17898700  0.67171900  0.85245900  1
  F  F77  1  0.82101300  0.82828100  0.35245900  1
  F  F78  1  0.16310000  0.49234000  0.05561300  1
  F  F79  1  0.81092100  0.46153000  0.57130700  1
  F  F80  1  0.04187200  0.12492500  0.51155900  1
  F  F81  1  0.16310000  0.99234000  0.44438700  1
  F  F82  1  0.23547200  0.16814400  0.46280300  1
  F  F83  1  0.73547200  0.33185600  0.46280300  1
  F  F84  1  0.82968400  0.18832300  0.59518100  1
  F  F85  1  0.32968400  0.81167700  0.90481900  1
  F  F86  1  0.26452800  0.66814400  0.53719700  1
  F  F87  1  0.18907900  0.53847000  0.42869300  1
  F  F88  1  0.17031600  0.81167700  0.40481900  1
  F  F89  1  0.83690000  0.50766000  0.94438700  1
  F  F90  1  0.61679500  0.01255700  0.88039500  1
  F  F91  1  0.24188000  0.34247500  0.76653500  1
  F  F92  1  0.17898700  0.17171900  0.64754100  1
  F  F93  1  0.42434900  0.92546500  0.78725600  1
  F  F94  1  0.83690000  0.00766000  0.55561300  1
  F  F95  1  0.33690000  0.49234000  0.55561300  1
  F  F96  1  0.07565100  0.42546500  0.21274400  1
  F  F97  1  0.26452800  0.16814400  0.96280300  1
  F  F98  1  0.67031600  0.68832300  0.40481900  1
  F  F99  1  0.68907900  0.46153000  0.07130700  1
  F  F100  1  0.66310000  0.50766000  0.44438700  1
  F  F101  1  0.84564400  0.08750300  0.10922200  1
  F  F102  1  0.32101300  0.17171900  0.14754100  1
  F  F103  1  0.15435600  0.41249700  0.60922200  1
  F  F104  1  0.32101300  0.67171900  0.35245900  1
  F  F105  1  0.92434900  0.07453500  0.71274400  1
  F  F106  1  0.76452800  0.33185600  0.96280300  1
  F  F107  1  0.95812800  0.37507500  0.01155900  1
  F  F108  1  0.76452800  0.83185600  0.53719700  1
  F  F109  1  0.24637900  0.53116400  0.21750800  1
  F  F110  1  0.57565100  0.07453500  0.21274400  1
  F  F111  1  0.45812800  0.12492500  0.01155900  1
  F  F112  1  0.33690000  0.99234000  0.94438700  1
  F  F113  1  0.38320500  0.98744300  0.11960500  1
  F  F114  1  0.34564400  0.91249700  0.39077800  1
  F  F115  1  0.31092100  0.53847000  0.92869300  1
  F  F116  1  0.67898700  0.32828100  0.64754100  1
  F  F117  1  0.54187200  0.87507500  0.98844100  1
  F  F118  1  0.74637900  0.46883600  0.28249200  1
  F  F119  1  0.15435600  0.91249700  0.89077800  1
  F  F120  1  0.11679500  0.48744300  0.88039500  1
  F  F121  1  0.67898700  0.82828100  0.85245900  1
  F  F122  1  0.11679500  0.98744300  0.61960500  1
  F  F123  1  0.07565100  0.92546500  0.28725600  1
  F  F124  1  0.66310000  0.00766000  0.05561300  1
  F  F125  1  0.54187200  0.37507500  0.51155900  1
  F  F126  1  0.25812000  0.84247500  0.23346500  1
  F  F127  1  0.88320500  0.51255700  0.11960500  1
