# generated using pymatgen
data_NdAg(PO3)4
_symmetry_space_group_name_H-M   'P 1'
_cell_length_a   13.36581700
_cell_length_b   7.37338400
_cell_length_c   12.42862745
_cell_angle_alpha   54.09660562
_cell_angle_beta   90.00000000
_cell_angle_gamma   90.00000000
_symmetry_Int_Tables_number   1
_chemical_formula_structural   NdAg(PO3)4
_chemical_formula_sum   'Nd4 Ag4 P16 O48'
_cell_volume   992.14295239
_cell_formula_units_Z   4
loop_
 _symmetry_equiv_pos_site_id
 _symmetry_equiv_pos_as_xyz
  1  'x, y, z'
loop_
 _atom_site_type_symbol
 _atom_site_label
 _atom_site_symmetry_multiplicity
 _atom_site_fract_x
 _atom_site_fract_y
 _atom_site_fract_z
 _atom_site_occupancy
  Nd  Nd0  1  0.78149100  0.03448300  0.97791300  1
  Nd  Nd1  1  0.28149100  0.96551700  0.52208700  1
  Nd  Nd2  1  0.21850900  0.96551700  0.02208700  1
  Nd  Nd3  1  0.71850900  0.03448300  0.47791300  1
  Ag  Ag4  1  0.72275400  0.43179300  0.56742000  1
  Ag  Ag5  1  0.22275400  0.56820700  0.93258000  1
  Ag  Ag6  1  0.27724600  0.56820700  0.43258000  1
  Ag  Ag7  1  0.77724600  0.43179300  0.06742000  1
  P  P8  1  0.59985400  0.50701100  0.74662600  1
  P  P9  1  0.09985400  0.49298900  0.75337400  1
  P  P10  1  0.40014600  0.49298900  0.25337400  1
  P  P11  1  0.90014600  0.50701100  0.24662600  1
  P  P12  1  0.90995600  0.06245100  0.70230000  1
  P  P13  1  0.40995600  0.93754900  0.79770000  1
  P  P14  1  0.09004400  0.93754900  0.29770000  1
  P  P15  1  0.59004400  0.06245100  0.20230000  1
  P  P16  1  0.88642800  0.61349900  0.76306800  1
  P  P17  1  0.38642800  0.38650100  0.73693200  1
  P  P18  1  0.11357200  0.38650100  0.23693200  1
  P  P19  1  0.61357200  0.61349900  0.26306800  1
  P  P20  1  0.62588000  0.84204700  0.80409300  1
  P  P21  1  0.12588000  0.15795300  0.69590700  1
  P  P22  1  0.37412000  0.15795300  0.19590700  1
  P  P23  1  0.87412000  0.84204700  0.30409300  1
  O  O24  1  0.98654400  0.57573700  0.70788700  1
  O  O25  1  0.48654400  0.42426300  0.79211300  1
  O  O26  1  0.01345600  0.42426300  0.29211300  1
  O  O27  1  0.51345600  0.57573700  0.20788700  1
  O  O28  1  0.66435200  0.30225800  0.80036000  1
  O  O29  1  0.16435200  0.69774200  0.69964000  1
  O  O30  1  0.33564800  0.69774200  0.19964000  1
  O  O31  1  0.83564800  0.30225800  0.30036000  1
  O  O32  1  0.62083600  0.59613400  0.83565600  1
  O  O33  1  0.12083600  0.40386600  0.66434400  1
  O  O34  1  0.37916400  0.40386600  0.16434400  1
  O  O35  1  0.87916400  0.59613400  0.33565600  1
  O  O36  1  0.60717700  0.69090200  0.59991700  1
  O  O37  1  0.10717700  0.30909800  0.90008300  1
  O  O38  1  0.39282300  0.30909800  0.40008300  1
  O  O39  1  0.89282300  0.69090200  0.09991700  1
  O  O40  1  0.52054500  0.85728400  0.86176300  1
  O  O41  1  0.02054500  0.14271600  0.63823700  1
  O  O42  1  0.47945500  0.14271600  0.13823700  1
  O  O43  1  0.97945500  0.85728400  0.36176300  1
  O  O44  1  0.92046500  0.79283400  0.79063500  1
  O  O45  1  0.42046500  0.20716600  0.70936500  1
  O  O46  1  0.07953500  0.20716600  0.20936500  1
  O  O47  1  0.57953500  0.79283400  0.29063500  1
  O  O48  1  0.89020800  0.12369800  0.79611700  1
  O  O49  1  0.39020800  0.87630200  0.70388300  1
  O  O50  1  0.10979200  0.87630200  0.20388300  1
  O  O51  1  0.60979200  0.12369800  0.29611700  1
  O  O52  1  0.83963000  0.14868800  0.58711600  1
  O  O53  1  0.33963000  0.85131200  0.91288400  1
  O  O54  1  0.16037000  0.85131200  0.41288400  1
  O  O55  1  0.66037000  0.14868800  0.08711600  1
  O  O56  1  0.85694600  0.40374600  0.89521200  1
  O  O57  1  0.35694600  0.59625400  0.60478800  1
  O  O58  1  0.14305400  0.59625400  0.10478800  1
  O  O59  1  0.64305400  0.40374600  0.39521200  1
  O  O60  1  0.81219400  0.71596700  0.65198500  1
  O  O61  1  0.31219400  0.28403300  0.84801500  1
  O  O62  1  0.18780600  0.28403300  0.34801500  1
  O  O63  1  0.68780600  0.71596700  0.15198500  1
  O  O64  1  0.70642500  0.82733900  0.89338900  1
  O  O65  1  0.20642500  0.17266100  0.60661100  1
  O  O66  1  0.29357500  0.17266100  0.10661100  1
  O  O67  1  0.79357500  0.82733900  0.39338900  1
  O  O68  1  0.63245100  0.01751200  0.65694100  1
  O  O69  1  0.13245100  0.98248800  0.84305900  1
  O  O70  1  0.36754900  0.98248800  0.34305900  1
  O  O71  1  0.86754900  0.01751200  0.15694100  1
