# generated using pymatgen
data_ZrV2O7
_symmetry_space_group_name_H-M   'P 1'
_cell_length_a   9.05729600
_cell_length_b   9.05729600
_cell_length_c   9.05729600
_cell_angle_alpha   90.00000000
_cell_angle_beta   90.00000000
_cell_angle_gamma   90.00000000
_symmetry_Int_Tables_number   1
_chemical_formula_structural   ZrV2O7
_chemical_formula_sum   'Zr4 V8 O28'
_cell_volume   743.01175255
_cell_formula_units_Z   4
loop_
 _symmetry_equiv_pos_site_id
 _symmetry_equiv_pos_as_xyz
  1  'x, y, z'
loop_
 _atom_site_type_symbol
 _atom_site_label
 _atom_site_symmetry_multiplicity
 _atom_site_fract_x
 _atom_site_fract_y
 _atom_site_fract_z
 _atom_site_occupancy
  Zr  Zr0  1  0.50000000  0.00000000  0.50000000  1
  Zr  Zr1  1  0.00000000  0.00000000  0.00000000  1
  Zr  Zr2  1  0.50000000  0.50000000  0.00000000  1
  Zr  Zr3  1  0.00000000  0.50000000  0.50000000  1
  V  V4  1  0.38568500  0.38568500  0.38568500  1
  V  V5  1  0.61431500  0.61431500  0.61431500  1
  V  V6  1  0.38568500  0.11431500  0.88568500  1
  V  V7  1  0.11431500  0.61431500  0.88568500  1
  V  V8  1  0.11431500  0.88568500  0.38568500  1
  V  V9  1  0.88568500  0.38568500  0.11431500  1
  V  V10  1  0.88568500  0.11431500  0.61431500  1
  V  V11  1  0.61431500  0.88568500  0.11431500  1
  O  O12  1  0.00000000  0.00000000  0.50000000  1
  O  O13  1  0.50000000  0.50000000  0.50000000  1
  O  O14  1  0.79571200  0.90865400  0.06320900  1
  O  O15  1  0.56320900  0.70428800  0.09134600  1
  O  O16  1  0.09134600  0.93679100  0.20428800  1
  O  O17  1  0.50000000  0.00000000  0.00000000  1
  O  O18  1  0.93679100  0.29571200  0.59134600  1
  O  O19  1  0.20428800  0.40865400  0.43679100  1
  O  O20  1  0.40865400  0.06320900  0.70428800  1
  O  O21  1  0.90865400  0.43679100  0.29571200  1
  O  O22  1  0.70428800  0.40865400  0.06320900  1
  O  O23  1  0.29571200  0.59134600  0.93679100  1
  O  O24  1  0.56320900  0.79571200  0.59134600  1
  O  O25  1  0.06320900  0.79571200  0.90865400  1
  O  O26  1  0.79571200  0.59134600  0.56320900  1
  O  O27  1  0.40865400  0.43679100  0.20428800  1
  O  O28  1  0.43679100  0.20428800  0.40865400  1
  O  O29  1  0.90865400  0.06320900  0.79571200  1
  O  O30  1  0.09134600  0.56320900  0.70428800  1
  O  O31  1  0.59134600  0.93679100  0.29571200  1
  O  O32  1  0.00000000  0.50000000  0.00000000  1
  O  O33  1  0.70428800  0.09134600  0.56320900  1
  O  O34  1  0.93679100  0.20428800  0.09134600  1
  O  O35  1  0.20428800  0.09134600  0.93679100  1
  O  O36  1  0.06320900  0.70428800  0.40865400  1
  O  O37  1  0.29571200  0.90865400  0.43679100  1
  O  O38  1  0.59134600  0.56320900  0.79571200  1
  O  O39  1  0.43679100  0.29571200  0.90865400  1
