# generated using pymatgen
data_Na6Nb8(PO7)5
_symmetry_space_group_name_H-M   'P 1'
_cell_length_a   11.43941461
_cell_length_b   11.43941461
_cell_length_c   11.43941455
_cell_angle_alpha   46.70442983
_cell_angle_beta   46.70442983
_cell_angle_gamma   46.70443072
_symmetry_Int_Tables_number   1
_chemical_formula_structural   Na6Nb8(PO7)5
_chemical_formula_sum   'Na6 Nb8 P5 O35'
_cell_volume   724.40888670
_cell_formula_units_Z   1
loop_
 _symmetry_equiv_pos_site_id
 _symmetry_equiv_pos_as_xyz
  1  'x, y, z'
loop_
 _atom_site_type_symbol
 _atom_site_label
 _atom_site_symmetry_multiplicity
 _atom_site_fract_x
 _atom_site_fract_y
 _atom_site_fract_z
 _atom_site_occupancy
  Na  Na0  1  0.41871700  0.58128300  0.00000000  1
  Na  Na1  1  0.58128300  0.00000000  0.41871700  1
  Na  Na2  1  0.28589200  0.50000000  0.71410800  1
  Na  Na3  1  0.00000000  0.41871700  0.58128300  1
  Na  Na4  1  0.71410800  0.28589200  0.50000000  1
  Na  Na5  1  0.50000000  0.71410800  0.28589200  1
  Nb  Nb6  1  0.23611000  0.23611000  0.23611000  1
  Nb  Nb7  1  0.07254800  0.82038300  0.29727600  1
  Nb  Nb8  1  0.82038300  0.29727600  0.07254800  1
  Nb  Nb9  1  0.70272400  0.17961700  0.92745200  1
  Nb  Nb10  1  0.29727600  0.07254800  0.82038300  1
  Nb  Nb11  1  0.92745200  0.70272400  0.17961700  1
  Nb  Nb12  1  0.76389000  0.76389000  0.76389000  1
  Nb  Nb13  1  0.17961700  0.92745200  0.70272400  1
  P  P14  1  0.40454000  0.40454000  0.40454000  1
  P  P15  1  0.06006300  0.93993700  0.50000000  1
  P  P16  1  0.50000000  0.06006300  0.93993700  1
  P  P17  1  0.93993700  0.50000000  0.06006300  1
  P  P18  1  0.59546000  0.59546000  0.59546000  1
  O  O19  1  0.84225200  0.38396900  0.16878600  1
  O  O20  1  0.92538100  0.71222600  0.55979800  1
  O  O21  1  0.04777300  0.12995300  0.38985500  1
  O  O22  1  0.07461900  0.44020200  0.28777400  1
  O  O23  1  0.43372900  0.72427100  0.68841500  1
  O  O24  1  0.87004700  0.95222700  0.61014500  1
  O  O25  1  0.94548300  0.09997200  0.74718900  1
  O  O26  1  0.00000000  0.76786100  0.23213900  1
  O  O27  1  0.45410100  0.45410100  0.45410100  1
  O  O28  1  0.83121400  0.61603100  0.15774800  1
  O  O29  1  0.61014500  0.87004700  0.95222700  1
  O  O30  1  0.38985500  0.04777300  0.12995300  1
  O  O31  1  0.90002800  0.05451700  0.25281100  1
  O  O32  1  0.27572900  0.56627100  0.31158500  1
  O  O33  1  0.68841500  0.43372900  0.72427100  1
  O  O34  1  0.16878600  0.84225200  0.38396900  1
  O  O35  1  0.15774800  0.83121400  0.61603100  1
  O  O36  1  0.28777400  0.07461900  0.44020200  1
  O  O37  1  0.72427100  0.68841500  0.43372900  1
  O  O38  1  0.05451700  0.25281100  0.90002800  1
  O  O39  1  0.56627100  0.31158500  0.27572900  1
  O  O40  1  0.25281100  0.90002800  0.05451700  1
  O  O41  1  0.23213900  0.00000000  0.76786100  1
  O  O42  1  0.55979800  0.92538100  0.71222600  1
  O  O43  1  0.71222600  0.55979800  0.92538100  1
  O  O44  1  0.09997200  0.74718900  0.94548300  1
  O  O45  1  0.31158500  0.27572900  0.56627100  1
  O  O46  1  0.95222700  0.61014500  0.87004700  1
  O  O47  1  0.38396900  0.16878600  0.84225200  1
  O  O48  1  0.44020200  0.28777400  0.07461900  1
  O  O49  1  0.54589900  0.54589900  0.54589900  1
  O  O50  1  0.76786100  0.23213900  0.00000000  1
  O  O51  1  0.61603100  0.15774800  0.83121400  1
  O  O52  1  0.74718900  0.94548300  0.09997200  1
  O  O53  1  0.12995300  0.38985500  0.04777300  1
