# generated using pymatgen
data_Na9ZrP4ClO16
_symmetry_space_group_name_H-M   'P 1'
_cell_length_a   5.44039700
_cell_length_b   9.16774764
_cell_length_c   9.26593532
_cell_angle_alpha   111.07897785
_cell_angle_beta   91.87785270
_cell_angle_gamma   90.30469988
_symmetry_Int_Tables_number   1
_chemical_formula_structural   Na9ZrP4ClO16
_chemical_formula_sum   'Na9 Zr1 P4 Cl1 O16'
_cell_volume   430.92096782
_cell_formula_units_Z   1
loop_
 _symmetry_equiv_pos_site_id
 _symmetry_equiv_pos_as_xyz
  1  'x, y, z'
loop_
 _atom_site_type_symbol
 _atom_site_label
 _atom_site_symmetry_multiplicity
 _atom_site_fract_x
 _atom_site_fract_y
 _atom_site_fract_z
 _atom_site_occupancy
  Na  Na0  1  0.53487700  0.64608300  0.39626100  1
  Na  Na1  1  0.41823100  0.98232600  0.36403400  1
  Na  Na2  1  0.51449500  0.50466700  0.98677100  1
  Na  Na3  1  0.05054600  0.83053500  0.57236400  1
  Na  Na4  1  0.45444300  0.36356300  0.59045000  1
  Na  Na5  1  0.92080200  0.17874300  0.40974500  1
  Na  Na6  1  0.96904300  0.57481100  0.82763900  1
  Na  Na7  1  0.05345200  0.44028400  0.15793900  1
  Na  Na8  1  0.52533300  0.08364100  0.76588400  1
  Zr  Zr9  1  0.01166900  0.00198000  0.99667000  1
  P  P10  1  0.53124000  0.24497500  0.18300800  1
  P  P11  1  0.96274200  0.79103300  0.24032200  1
  P  P12  1  0.48458000  0.76574700  0.79731600  1
  P  P13  1  0.03211200  0.21337200  0.74058700  1
  Cl  Cl14  1  0.00308400  0.50150100  0.49504900  1
  O  O15  1  0.77318000  0.85253700  0.36812200  1
  O  O16  1  0.79793600  0.19901800  0.11895400  1
  O  O17  1  0.51467800  0.21532500  0.33502200  1
  O  O18  1  0.03148700  0.93845100  0.19205900  1
  O  O19  1  0.22402300  0.80883000  0.87148000  1
  O  O20  1  0.68758600  0.87470900  0.91146000  1
  O  O21  1  0.20242100  0.74903700  0.30899300  1
  O  O22  1  0.86767400  0.65203900  0.09808200  1
  O  O23  1  0.53511300  0.59696800  0.78017100  1
  O  O24  1  0.48045500  0.80424100  0.64926700  1
  O  O25  1  0.77475200  0.25518000  0.69372500  1
  O  O26  1  0.19962700  0.14736000  0.59916800  1
  O  O27  1  0.15887900  0.35308000  0.86958600  1
  O  O28  1  0.33830400  0.13625200  0.06048500  1
  O  O29  1  0.99223700  0.07133700  0.80000700  1
  O  O30  1  0.48799900  0.41337400  0.19438000  1
