# generated using pymatgen
data_BaTlVO4
_symmetry_space_group_name_H-M   'P 1'
_cell_length_a   6.01378700
_cell_length_b   8.02223400
_cell_length_c   10.63140900
_cell_angle_alpha   90.00000000
_cell_angle_beta   90.00000000
_cell_angle_gamma   90.00000000
_symmetry_Int_Tables_number   1
_chemical_formula_structural   BaTlVO4
_chemical_formula_sum   'Ba4 Tl4 V4 O16'
_cell_volume   512.90176533
_cell_formula_units_Z   4
loop_
 _symmetry_equiv_pos_site_id
 _symmetry_equiv_pos_as_xyz
  1  'x, y, z'
loop_
 _atom_site_type_symbol
 _atom_site_label
 _atom_site_symmetry_multiplicity
 _atom_site_fract_x
 _atom_site_fract_y
 _atom_site_fract_z
 _atom_site_occupancy
  Ba  Ba0  1  0.75000000  0.49591100  0.70215200  1
  Ba  Ba1  1  0.25000000  0.50408900  0.29784800  1
  Ba  Ba2  1  0.75000000  0.99591100  0.79784800  1
  Ba  Ba3  1  0.25000000  0.00408900  0.20215200  1
  Tl  Tl4  1  0.75000000  0.67139700  0.07262500  1
  Tl  Tl5  1  0.25000000  0.32860300  0.92737500  1
  Tl  Tl6  1  0.75000000  0.17139700  0.42737500  1
  Tl  Tl7  1  0.25000000  0.82860300  0.57262500  1
  V  V8  1  0.75000000  0.22223800  0.08026100  1
  V  V9  1  0.25000000  0.77776200  0.91973900  1
  V  V10  1  0.75000000  0.72223800  0.41973900  1
  V  V11  1  0.25000000  0.27776200  0.58026100  1
  O  O12  1  0.75000000  0.79499700  0.57548500  1
  O  O13  1  0.25000000  0.20500300  0.42451500  1
  O  O14  1  0.75000000  0.29499700  0.92451500  1
  O  O15  1  0.25000000  0.70500300  0.07548500  1
  O  O16  1  0.75000000  0.50557800  0.42680500  1
  O  O17  1  0.25000000  0.49442200  0.57319500  1
  O  O18  1  0.75000000  0.00557800  0.07319500  1
  O  O19  1  0.25000000  0.99442200  0.92680500  1
  O  O20  1  0.50721900  0.78772000  0.34376700  1
  O  O21  1  0.00721900  0.21228000  0.65623300  1
  O  O22  1  0.99278100  0.28772000  0.15623300  1
  O  O23  1  0.49278100  0.71228000  0.84376700  1
  O  O24  1  0.49278100  0.21228000  0.65623300  1
  O  O25  1  0.99278100  0.78772000  0.34376700  1
  O  O26  1  0.00721900  0.71228000  0.84376700  1
  O  O27  1  0.50721900  0.28772000  0.15623300  1
