# generated using pymatgen
data_MnBiAsO5
_symmetry_space_group_name_H-M   'P 1'
_cell_length_a   7.01100726
_cell_length_b   7.87488844
_cell_length_c   9.40299890
_cell_angle_alpha   77.77365928
_cell_angle_beta   93.34119258
_cell_angle_gamma   68.39311736
_symmetry_Int_Tables_number   1
_chemical_formula_structural   MnBiAsO5
_chemical_formula_sum   'Mn4 Bi4 As4 O20'
_cell_volume   466.38655797
_cell_formula_units_Z   4
loop_
 _symmetry_equiv_pos_site_id
 _symmetry_equiv_pos_as_xyz
  1  'x, y, z'
loop_
 _atom_site_type_symbol
 _atom_site_label
 _atom_site_symmetry_multiplicity
 _atom_site_fract_x
 _atom_site_fract_y
 _atom_site_fract_z
 _atom_site_occupancy
  Mn  Mn0  1  0.36970000  0.84712000  0.52008900  1
  Mn  Mn1  1  0.63030000  0.15288000  0.47991100  1
  Mn  Mn2  1  0.86970000  0.34712000  0.02008900  1
  Mn  Mn3  1  0.13030000  0.65288000  0.97991100  1
  Bi  Bi4  1  0.10458900  0.42352300  0.33171300  1
  Bi  Bi5  1  0.60458900  0.92352300  0.83171300  1
  Bi  Bi6  1  0.89541100  0.57647700  0.66828700  1
  Bi  Bi7  1  0.39541100  0.07647700  0.16828700  1
  As  As8  1  0.46717400  0.41399600  0.76359600  1
  As  As9  1  0.96717400  0.91399600  0.26359600  1
  As  As10  1  0.53282600  0.58600400  0.23640400  1
  As  As11  1  0.03282600  0.08600400  0.73640400  1
  O  O12  1  0.16378900  0.38291700  0.11821300  1
  O  O13  1  0.66378900  0.88291700  0.61821300  1
  O  O14  1  0.83621100  0.61708300  0.88178700  1
  O  O15  1  0.33621100  0.11708300  0.38178700  1
  O  O16  1  0.03460000  0.25730100  0.82581500  1
  O  O17  1  0.53460000  0.75730100  0.32581500  1
  O  O18  1  0.96540000  0.74269900  0.17418500  1
  O  O19  1  0.46540000  0.24269900  0.67418500  1
  O  O20  1  0.21733500  0.55687100  0.77964700  1
  O  O21  1  0.71733500  0.05687100  0.27964700  1
  O  O22  1  0.78266500  0.44312900  0.22035300  1
  O  O23  1  0.28266500  0.94312900  0.72035300  1
  O  O24  1  0.39568200  0.69664900  0.06369700  1
  O  O25  1  0.89568200  0.19664900  0.56369700  1
  O  O26  1  0.60431800  0.30335100  0.93630300  1
  O  O27  1  0.10431800  0.80335100  0.43630300  1
  O  O28  1  0.56357200  0.56217800  0.65576100  1
  O  O29  1  0.06357200  0.06217800  0.15576100  1
  O  O30  1  0.43642800  0.43782200  0.34423900  1
  O  O31  1  0.93642800  0.93782200  0.84423900  1
