# generated using pymatgen
data_Mn2PClO4
_symmetry_space_group_name_H-M   'P 1'
_cell_length_a   4.98438200
_cell_length_b   8.17942300
_cell_length_c   11.53503200
_cell_angle_alpha   90.00001694
_cell_angle_beta   89.99997857
_cell_angle_gamma   90.00059308
_symmetry_Int_Tables_number   1
_chemical_formula_structural   Mn2PClO4
_chemical_formula_sum   'Mn8 P4 Cl4 O16'
_cell_volume   470.27597339
_cell_formula_units_Z   4
loop_
 _symmetry_equiv_pos_site_id
 _symmetry_equiv_pos_as_xyz
  1  'x, y, z'
loop_
 _atom_site_type_symbol
 _atom_site_label
 _atom_site_symmetry_multiplicity
 _atom_site_fract_x
 _atom_site_fract_y
 _atom_site_fract_z
 _atom_site_occupancy
  Mn  Mn0  1  0.49898500  0.10409400  0.12033500  1
  Mn  Mn1  1  0.99898000  0.60409400  0.37966700  1
  Mn  Mn2  1  0.99575600  0.34554800  0.87575300  1
  Mn  Mn3  1  0.49575400  0.84554800  0.62425000  1
  Mn  Mn4  1  0.99885000  0.89592300  0.87968900  1
  Mn  Mn5  1  0.49892000  0.39593100  0.62031800  1
  Mn  Mn6  1  0.99568500  0.15446600  0.37575400  1
  Mn  Mn7  1  0.49568400  0.65447600  0.12424200  1
  P  P8  1  0.54609700  0.37816600  0.33625600  1
  P  P9  1  0.04609700  0.87816500  0.16374300  1
  P  P10  1  0.54609200  0.12183500  0.83624000  1
  P  P11  1  0.04609300  0.62183600  0.66375900  1
  Cl  Cl12  1  0.73930700  0.62039300  0.93549500  1
  Cl  Cl13  1  0.23931000  0.12039300  0.56450500  1
  Cl  Cl14  1  0.23932700  0.37963400  0.06451100  1
  Cl  Cl15  1  0.73932700  0.87963400  0.43548900  1
  O  O16  1  0.64597000  0.22329300  0.27101400  1
  O  O17  1  0.14596900  0.72329300  0.22898600  1
  O  O18  1  0.14594600  0.77669400  0.72899900  1
  O  O19  1  0.64594600  0.27669200  0.77100000  1
  O  O20  1  0.14523900  0.03612100  0.22545800  1
  O  O21  1  0.64524000  0.53611900  0.27454100  1
  O  O22  1  0.64525900  0.96386600  0.77455000  1
  O  O23  1  0.14525800  0.46386600  0.72544900  1
  O  O24  1  0.19857600  0.62483700  0.54450200  1
  O  O25  1  0.19856100  0.87515200  0.04449700  1
  O  O26  1  0.69856200  0.37515100  0.45550200  1
  O  O27  1  0.69857600  0.12483700  0.95549700  1
  O  O28  1  0.73735800  0.87860900  0.14955300  1
  O  O29  1  0.23735900  0.12136200  0.85044100  1
  O  O30  1  0.23736000  0.37860900  0.35044700  1
  O  O31  1  0.73735800  0.62136300  0.64955800  1
