# generated using pymatgen
data_Tm3(CuGe)4
_symmetry_space_group_name_H-M   'P 1'
_cell_length_a   7.91855697
_cell_length_b   7.91855697
_cell_length_c   7.91855697
_cell_angle_alpha   149.61680925
_cell_angle_beta   130.53852756
_cell_angle_gamma   59.16140757
_symmetry_Int_Tables_number   1
_chemical_formula_structural   Tm3(CuGe)4
_chemical_formula_sum   'Tm3 Cu4 Ge4'
_cell_volume   189.35325593
_cell_formula_units_Z   1
loop_
 _symmetry_equiv_pos_site_id
 _symmetry_equiv_pos_as_xyz
  1  'x, y, z'
loop_
 _atom_site_type_symbol
 _atom_site_label
 _atom_site_symmetry_multiplicity
 _atom_site_fract_x
 _atom_site_fract_y
 _atom_site_fract_z
 _atom_site_occupancy
  Tm  Tm0  1  0.12935500  0.12935500  0.00000000  1
  Tm  Tm1  1  0.87064500  0.87064500  0.00000000  1
  Tm  Tm2  1  0.50000000  0.00000000  0.50000000  1
  Cu  Cu3  1  0.47857200  0.66987300  0.80869800  1
  Cu  Cu4  1  0.86117500  0.66987300  0.19130200  1
  Cu  Cu5  1  0.13882500  0.33012700  0.80869800  1
  Cu  Cu6  1  0.52142800  0.33012700  0.19130200  1
  Ge  Ge7  1  0.28344800  0.78344800  0.50000000  1
  Ge  Ge8  1  0.71655200  0.21655200  0.50000000  1
  Ge  Ge9  1  0.19264000  0.50000000  0.69264000  1
  Ge  Ge10  1  0.80736000  0.50000000  0.30736000  1
