# generated using pymatgen
data_PBr3O
_symmetry_space_group_name_H-M   'P 1'
_cell_length_a   6.50252400
_cell_length_b   10.41646500
_cell_length_c   10.62522200
_cell_angle_alpha   90.00000000
_cell_angle_beta   90.00000000
_cell_angle_gamma   90.00000000
_symmetry_Int_Tables_number   1
_chemical_formula_structural   PBr3O
_chemical_formula_sum   'P4 Br12 O4'
_cell_volume   719.68149441
_cell_formula_units_Z   4
loop_
 _symmetry_equiv_pos_site_id
 _symmetry_equiv_pos_as_xyz
  1  'x, y, z'
loop_
 _atom_site_type_symbol
 _atom_site_label
 _atom_site_symmetry_multiplicity
 _atom_site_fract_x
 _atom_site_fract_y
 _atom_site_fract_z
 _atom_site_occupancy
  P  P0  1  0.38888400  0.31206400  0.75000000  1
  P  P1  1  0.61111600  0.68793600  0.25000000  1
  P  P2  1  0.88888400  0.18793600  0.25000000  1
  P  P3  1  0.11111600  0.81206400  0.75000000  1
  Br  Br4  1  0.81102600  0.65290300  0.08651900  1
  Br  Br5  1  0.89561500  0.97447000  0.75000000  1
  Br  Br6  1  0.31102600  0.84709700  0.91348100  1
  Br  Br7  1  0.68897400  0.15290300  0.41348100  1
  Br  Br8  1  0.18897400  0.34709700  0.91348100  1
  Br  Br9  1  0.81102600  0.65290300  0.41348100  1
  Br  Br10  1  0.39561500  0.52553000  0.25000000  1
  Br  Br11  1  0.68897400  0.15290300  0.08651900  1
  Br  Br12  1  0.10438500  0.02553000  0.25000000  1
  Br  Br13  1  0.18897400  0.34709700  0.58651900  1
  Br  Br14  1  0.31102600  0.84709700  0.58651900  1
  Br  Br15  1  0.60438500  0.47447000  0.75000000  1
  O  O16  1  0.50922500  0.81472100  0.25000000  1
  O  O17  1  0.99077500  0.31472100  0.25000000  1
  O  O18  1  0.49077500  0.18527900  0.75000000  1
  O  O19  1  0.00922500  0.68527900  0.75000000  1
