# generated using pymatgen
data_Sm2C3
_symmetry_space_group_name_H-M   'P 1'
_cell_length_a   7.34163510
_cell_length_b   7.34163510
_cell_length_c   7.34163510
_cell_angle_alpha   109.47122063
_cell_angle_beta   109.47122063
_cell_angle_gamma   109.47122063
_symmetry_Int_Tables_number   1
_chemical_formula_structural   Sm2C3
_chemical_formula_sum   'Sm8 C12'
_cell_volume   304.61865343
_cell_formula_units_Z   4
loop_
 _symmetry_equiv_pos_site_id
 _symmetry_equiv_pos_as_xyz
  1  'x, y, z'
loop_
 _atom_site_type_symbol
 _atom_site_label
 _atom_site_symmetry_multiplicity
 _atom_site_fract_x
 _atom_site_fract_y
 _atom_site_fract_z
 _atom_site_occupancy
  Sm  Sm0  1  0.10271800  0.50000000  0.00000000  1
  Sm  Sm1  1  0.00000000  0.10271800  0.50000000  1
  Sm  Sm2  1  0.39728200  0.39728200  0.39728200  1
  Sm  Sm3  1  0.60271800  0.50000000  0.00000000  1
  Sm  Sm4  1  0.50000000  0.00000000  0.10271800  1
  Sm  Sm5  1  0.00000000  0.60271800  0.50000000  1
  Sm  Sm6  1  0.50000000  0.00000000  0.60271800  1
  Sm  Sm7  1  0.89728200  0.89728200  0.89728200  1
  C  C8  1  0.04638500  0.79638500  0.25000000  1
  C  C9  1  0.79638500  0.25000000  0.04638500  1
  C  C10  1  0.20361500  0.95361500  0.25000000  1
  C  C11  1  0.54638500  0.75000000  0.29638500  1
  C  C12  1  0.29638500  0.54638500  0.75000000  1
  C  C13  1  0.95361500  0.25000000  0.20361500  1
  C  C14  1  0.45361500  0.70361500  0.75000000  1
  C  C15  1  0.25000000  0.20361500  0.95361500  1
  C  C16  1  0.25000000  0.04638500  0.79638500  1
  C  C17  1  0.75000000  0.45361500  0.70361500  1
  C  C18  1  0.70361500  0.75000000  0.45361500  1
  C  C19  1  0.75000000  0.29638500  0.54638500  1
