# generated using pymatgen
data_LuZr3F15
_symmetry_space_group_name_H-M   'P 1'
_cell_length_a   8.14152600
_cell_length_b   8.14723035
_cell_length_c   16.28577516
_cell_angle_alpha   100.19214191
_cell_angle_beta   100.17773695
_cell_angle_gamma   100.16496643
_symmetry_Int_Tables_number   1
_chemical_formula_structural   LuZr3F15
_chemical_formula_sum   'Lu4 Zr12 F60'
_cell_volume   1022.12567521
_cell_formula_units_Z   4
loop_
 _symmetry_equiv_pos_site_id
 _symmetry_equiv_pos_as_xyz
  1  'x, y, z'
loop_
 _atom_site_type_symbol
 _atom_site_label
 _atom_site_symmetry_multiplicity
 _atom_site_fract_x
 _atom_site_fract_y
 _atom_site_fract_z
 _atom_site_occupancy
  Lu  Lu0  1  0.32233600  0.17710900  0.87429400  1
  Lu  Lu1  1  0.24923400  0.67835500  0.41091200  1
  Lu  Lu2  1  0.75076600  0.32164500  0.58908800  1
  Lu  Lu3  1  0.67766400  0.82289100  0.12570600  1
  Zr  Zr4  1  0.25167000  0.67753300  0.91262800  1
  Zr  Zr5  1  0.17570400  0.74886400  0.66118000  1
  Zr  Zr6  1  0.25053300  0.25009900  0.62533100  1
  Zr  Zr7  1  0.17729700  0.75068900  0.16215300  1
  Zr  Zr8  1  0.32460900  0.17854000  0.37607000  1
  Zr  Zr9  1  0.24994100  0.24978600  0.12447600  1
  Zr  Zr10  1  0.75005900  0.75021400  0.87552400  1
  Zr  Zr11  1  0.67539100  0.82146000  0.62393000  1
  Zr  Zr12  1  0.82270300  0.24931100  0.83784700  1
  Zr  Zr13  1  0.74946700  0.74990100  0.37466900  1
  Zr  Zr14  1  0.82429600  0.25113600  0.33882000  1
  Zr  Zr15  1  0.74833000  0.32246700  0.08737200  1
  F  F16  1  0.00856400  0.77755900  0.88730100  1
  F  F17  1  0.03535600  0.46682700  0.87740900  1
  F  F18  1  0.04221200  0.15280800  0.84093900  1
  F  F19  1  0.00611900  0.77973600  0.38788100  1
  F  F20  1  0.18596900  0.65016800  0.77717300  1
  F  F21  1  0.24620900  0.95679800  0.76444700  1
  F  F22  1  0.02995600  0.45777400  0.37128500  1
  F  F23  1  0.31493100  0.94025600  0.92379600  1
  F  F24  1  0.21927100  0.22397900  0.99688900  1
  F  F25  1  0.22442100  0.99093900  0.61045100  1
  F  F26  1  0.15138700  0.68553000  0.52997900  1
  F  F27  1  0.05269500  0.15083100  0.34258300  1
  F  F28  1  0.34694100  0.45641500  0.90837500  1
  F  F29  1  0.27517700  0.27973900  0.75323200  1
  F  F30  1  0.28047300  0.51012400  0.63897200  1
  F  F31  1  0.18081700  0.65314700  0.27068400  1
  F  F32  1  0.25159000  0.96731800  0.26812300  1
  F  F33  1  0.31686300  0.95718400  0.42356400  1
  F  F34  1  0.21967100  0.22603400  0.49553900  1
  F  F35  1  0.22489300  0.99179300  0.11020900  1
  F  F36  1  0.15020700  0.68403000  0.02609700  1
  F  F37  1  0.49210500  0.72491200  0.85916900  1
  F  F38  1  0.44848100  0.81496500  0.67447700  1
  F  F39  1  0.34783600  0.44095500  0.40740600  1
  F  F40  1  0.27467000  0.27743600  0.25409800  1
  F  F41  1  0.27810100  0.50750900  0.13647400  1
  F  F42  1  0.54063000  0.25159100  0.98446600  1
  F  F43  1  0.46828300  0.75137100  0.52042100  1
  F  F44  1  0.56035900  0.18388100  0.82533100  1
  F  F45  1  0.50691300  0.27500600  0.63984100  1
  F  F46  1  0.49308700  0.72499400  0.36015900  1
  F  F47  1  0.43964100  0.81611900  0.17466900  1
  F  F48  1  0.53171700  0.24862900  0.47957900  1
  F  F49  1  0.45937000  0.74840900  0.01553400  1
  F  F50  1  0.72189900  0.49249100  0.86352600  1
  F  F51  1  0.72533000  0.72256400  0.74590200  1
  F  F52  1  0.65216400  0.55904500  0.59259400  1
  F  F53  1  0.55151900  0.18503500  0.32552300  1
  F  F54  1  0.50789500  0.27508800  0.14083100  1
  F  F55  1  0.84979300  0.31597000  0.97390300  1
  F  F56  1  0.77510700  0.00820700  0.88979100  1
  F  F57  1  0.78032900  0.77396600  0.50446100  1
  F  F58  1  0.68313700  0.04281600  0.57643600  1
  F  F59  1  0.74841000  0.03268200  0.73187700  1
  F  F60  1  0.81918300  0.34685300  0.72931600  1
  F  F61  1  0.71952700  0.48987600  0.36102800  1
  F  F62  1  0.72482300  0.72026100  0.24676800  1
  F  F63  1  0.65305900  0.54358500  0.09162500  1
  F  F64  1  0.94730500  0.84916900  0.65741700  1
  F  F65  1  0.84861300  0.31447000  0.47002100  1
  F  F66  1  0.77557900  0.00906100  0.38954900  1
  F  F67  1  0.78072900  0.77602100  0.00311100  1
  F  F68  1  0.68506900  0.05974400  0.07620400  1
  F  F69  1  0.97004400  0.54222600  0.62871500  1
  F  F70  1  0.75379100  0.04320200  0.23555300  1
  F  F71  1  0.81403100  0.34983200  0.22282700  1
  F  F72  1  0.99388100  0.22026400  0.61211900  1
  F  F73  1  0.95778800  0.84719200  0.15906100  1
  F  F74  1  0.96464400  0.53317300  0.12259100  1
  F  F75  1  0.99143600  0.22244100  0.11269900  1
