# generated using pymatgen
data_CsZr6BI14
_symmetry_space_group_name_H-M   'P 1'
_cell_length_a   11.02071683
_cell_length_b   11.02071683
_cell_length_c   13.22673800
_cell_angle_alpha   90.00000000
_cell_angle_beta   90.00000000
_cell_angle_gamma   94.67132524
_symmetry_Int_Tables_number   1
_chemical_formula_structural   CsZr6BI14
_chemical_formula_sum   'Cs2 Zr12 B2 I28'
_cell_volume   1601.13307063
_cell_formula_units_Z   2
loop_
 _symmetry_equiv_pos_site_id
 _symmetry_equiv_pos_as_xyz
  1  'x, y, z'
loop_
 _atom_site_type_symbol
 _atom_site_label
 _atom_site_symmetry_multiplicity
 _atom_site_fract_x
 _atom_site_fract_y
 _atom_site_fract_z
 _atom_site_occupancy
  Cs  Cs0  1  0.00000000  0.00000000  0.00000000  1
  Cs  Cs1  1  0.50000000  0.50000000  0.50000000  1
  Zr  Zr2  1  0.86917300  0.86917300  0.59670600  1
  Zr  Zr3  1  0.36917300  0.36917300  0.90329400  1
  Zr  Zr4  1  0.54268300  0.33186000  0.10808700  1
  Zr  Zr5  1  0.13082700  0.13082700  0.40329400  1
  Zr  Zr6  1  0.95731700  0.16814000  0.60808700  1
  Zr  Zr7  1  0.66814000  0.45731700  0.89191300  1
  Zr  Zr8  1  0.45731700  0.66814000  0.89191300  1
  Zr  Zr9  1  0.16814000  0.95731700  0.60808700  1
  Zr  Zr10  1  0.04268300  0.83186000  0.39191300  1
  Zr  Zr11  1  0.63082700  0.63082700  0.09670600  1
  Zr  Zr12  1  0.33186000  0.54268300  0.10808700  1
  Zr  Zr13  1  0.83186000  0.04268300  0.39191300  1
  B  B14  1  0.50000000  0.50000000  0.00000000  1
  B  B15  1  0.00000000  0.00000000  0.50000000  1
  I  I16  1  0.71108300  0.46436700  0.24704100  1
  I  I17  1  0.28891700  0.53563300  0.75295900  1
  I  I18  1  0.39628900  0.89628900  0.75000000  1
  I  I19  1  0.11134900  0.35983600  0.50678500  1
  I  I20  1  0.34556600  0.34556600  0.25743500  1
  I  I21  1  0.38865100  0.14016400  0.00678500  1
  I  I22  1  0.15443400  0.15443400  0.75743500  1
  I  I23  1  0.24857400  0.75142600  0.50000000  1
  I  I24  1  0.65443400  0.65443400  0.74256500  1
  I  I25  1  0.64016400  0.88865100  0.49321500  1
  I  I26  1  0.75142600  0.24857400  0.50000000  1
  I  I27  1  0.78891700  0.03563300  0.74704100  1
  I  I28  1  0.85983600  0.61134900  0.99321500  1
  I  I29  1  0.60371100  0.10371100  0.25000000  1
  I  I30  1  0.46436700  0.71108300  0.24704100  1
  I  I31  1  0.25142600  0.74857400  0.00000000  1
  I  I32  1  0.89628900  0.39628900  0.75000000  1
  I  I33  1  0.61134900  0.85983600  0.99321500  1
  I  I34  1  0.53563300  0.28891700  0.75295900  1
  I  I35  1  0.35983600  0.11134900  0.50678500  1
  I  I36  1  0.74857400  0.25142600  0.00000000  1
  I  I37  1  0.03563300  0.78891700  0.74704100  1
  I  I38  1  0.88865100  0.64016400  0.49321500  1
  I  I39  1  0.96436700  0.21108300  0.25295900  1
  I  I40  1  0.84556600  0.84556600  0.24256500  1
  I  I41  1  0.21108300  0.96436700  0.25295900  1
  I  I42  1  0.14016400  0.38865100  0.00678500  1
  I  I43  1  0.10371100  0.60371100  0.25000000  1
