# generated using pymatgen
data_Ni5Sn(BO5)2
_symmetry_space_group_name_H-M   'P 1'
_cell_length_a   6.17630400
_cell_length_b   9.39444700
_cell_length_c   12.40123500
_cell_angle_alpha   90.00000000
_cell_angle_beta   90.00000000
_cell_angle_gamma   90.00000000
_symmetry_Int_Tables_number   1
_chemical_formula_structural   Ni5Sn(BO5)2
_chemical_formula_sum   'Ni20 Sn4 B8 O40'
_cell_volume   719.55636960
_cell_formula_units_Z   4
loop_
 _symmetry_equiv_pos_site_id
 _symmetry_equiv_pos_as_xyz
  1  'x, y, z'
loop_
 _atom_site_type_symbol
 _atom_site_label
 _atom_site_symmetry_multiplicity
 _atom_site_fract_x
 _atom_site_fract_y
 _atom_site_fract_z
 _atom_site_occupancy
  Ni  Ni0  1  0.25000000  0.75947400  0.61419400  1
  Ni  Ni1  1  0.75000000  0.99064900  0.00054900  1
  Ni  Ni2  1  0.75000000  0.74052600  0.11419400  1
  Ni  Ni3  1  0.50461100  0.50351500  0.28194200  1
  Ni  Ni4  1  0.75000000  0.49064900  0.49945100  1
  Ni  Ni5  1  0.00461100  0.49648500  0.71805800  1
  Ni  Ni6  1  0.99538900  0.00351500  0.21805800  1
  Ni  Ni7  1  0.00461100  0.99648500  0.78194200  1
  Ni  Ni8  1  0.25000000  0.25947400  0.88580600  1
  Ni  Ni9  1  0.49538900  0.49648500  0.71805800  1
  Ni  Ni10  1  0.25000000  0.00935100  0.99945100  1
  Ni  Ni11  1  0.49538900  0.99648500  0.78194200  1
  Ni  Ni12  1  0.99538900  0.50351500  0.28194200  1
  Ni  Ni13  1  0.50000000  0.00000000  0.50000000  1
  Ni  Ni14  1  0.50461100  0.00351500  0.21805800  1
  Ni  Ni15  1  0.75000000  0.24052600  0.38580600  1
  Ni  Ni16  1  0.25000000  0.50935100  0.50054900  1
  Ni  Ni17  1  0.50000000  0.50000000  0.00000000  1
  Ni  Ni18  1  0.00000000  0.50000000  0.00000000  1
  Ni  Ni19  1  0.00000000  0.00000000  0.50000000  1
  Sn  Sn20  1  0.25000000  0.74098500  0.11634900  1
  Sn  Sn21  1  0.25000000  0.24098500  0.38365100  1
  Sn  Sn22  1  0.75000000  0.25901500  0.88365100  1
  Sn  Sn23  1  0.75000000  0.75901500  0.61634900  1
  B  B24  1  0.75000000  0.77308400  0.35744600  1
  B  B25  1  0.25000000  0.77823400  0.36370000  1
  B  B26  1  0.25000000  0.22691600  0.64255400  1
  B  B27  1  0.25000000  0.27823400  0.13630000  1
  B  B28  1  0.25000000  0.72691600  0.85744600  1
  B  B29  1  0.75000000  0.72176600  0.86370000  1
  B  B30  1  0.75000000  0.22176600  0.63630000  1
  B  B31  1  0.75000000  0.27308400  0.14255400  1
  O  O32  1  0.49060000  0.39013000  0.42146900  1
  O  O33  1  0.99980800  0.60496700  0.14270200  1
  O  O34  1  0.75000000  0.12533500  0.14118700  1
  O  O35  1  0.00940000  0.89013000  0.07853100  1
  O  O36  1  0.25000000  0.13126500  0.14125900  1
  O  O37  1  0.25000000  0.65023500  0.95560200  1
  O  O38  1  0.99980800  0.10496700  0.35729800  1
  O  O39  1  0.50940000  0.10987000  0.92146900  1
  O  O40  1  0.75000000  0.34976500  0.04439800  1
  O  O41  1  0.75000000  0.84950200  0.26234900  1
  O  O42  1  0.75000000  0.14481300  0.73406500  1
  O  O43  1  0.99060000  0.60987000  0.57853100  1
  O  O44  1  0.25000000  0.35518700  0.23406500  1
  O  O45  1  0.25000000  0.87466500  0.85881300  1
  O  O46  1  0.49980800  0.89503300  0.64270200  1
  O  O47  1  0.25000000  0.37466500  0.64118700  1
  O  O48  1  0.25000000  0.85518700  0.26593500  1
  O  O49  1  0.75000000  0.14675300  0.54071400  1
  O  O50  1  0.75000000  0.64481300  0.76593500  1
  O  O51  1  0.00019200  0.89503300  0.64270200  1
  O  O52  1  0.75000000  0.84976500  0.45560200  1
  O  O53  1  0.50019200  0.10496700  0.35729800  1
  O  O54  1  0.49060000  0.89013000  0.07853100  1
  O  O55  1  0.50019200  0.60496700  0.14270200  1
  O  O56  1  0.00019200  0.39503300  0.85729800  1
  O  O57  1  0.25000000  0.65049800  0.76234900  1
  O  O58  1  0.49980800  0.39503300  0.85729800  1
  O  O59  1  0.99060000  0.10987000  0.92146900  1
  O  O60  1  0.25000000  0.15049800  0.73765100  1
  O  O61  1  0.75000000  0.64675300  0.95928600  1
  O  O62  1  0.00940000  0.39013000  0.42146900  1
  O  O63  1  0.50940000  0.60987000  0.57853100  1
  O  O64  1  0.75000000  0.36873500  0.64125900  1
  O  O65  1  0.25000000  0.15023500  0.54439800  1
  O  O66  1  0.25000000  0.63126500  0.35874100  1
  O  O67  1  0.75000000  0.86873500  0.85874100  1
  O  O68  1  0.25000000  0.85324700  0.45928600  1
  O  O69  1  0.75000000  0.34950200  0.23765100  1
  O  O70  1  0.25000000  0.35324700  0.04071400  1
  O  O71  1  0.75000000  0.62533500  0.35881300  1
