# generated using pymatgen
data_Ba2SnTe5
_symmetry_space_group_name_H-M   'P 1'
_cell_length_a   6.98901500
_cell_length_b   7.08230000
_cell_length_c   24.56861300
_cell_angle_alpha   90.00000000
_cell_angle_beta   90.00000000
_cell_angle_gamma   90.00000000
_symmetry_Int_Tables_number   1
_chemical_formula_structural   Ba2SnTe5
_chemical_formula_sum   'Ba8 Sn4 Te20'
_cell_volume   1216.10459982
_cell_formula_units_Z   4
loop_
 _symmetry_equiv_pos_site_id
 _symmetry_equiv_pos_as_xyz
  1  'x, y, z'
loop_
 _atom_site_type_symbol
 _atom_site_label
 _atom_site_symmetry_multiplicity
 _atom_site_fract_x
 _atom_site_fract_y
 _atom_site_fract_z
 _atom_site_occupancy
  Ba  Ba0  1  0.99404700  0.98951100  0.90023700  1
  Ba  Ba1  1  0.99404700  0.98951100  0.59976300  1
  Ba  Ba2  1  0.00595300  0.01048900  0.40023700  1
  Ba  Ba3  1  0.49404700  0.51048900  0.90023700  1
  Ba  Ba4  1  0.49404700  0.51048900  0.59976300  1
  Ba  Ba5  1  0.50595300  0.48951100  0.40023700  1
  Ba  Ba6  1  0.50595300  0.48951100  0.09976300  1
  Ba  Ba7  1  0.00595300  0.01048900  0.09976300  1
  Sn  Sn8  1  0.89863900  0.41441300  0.25000000  1
  Sn  Sn9  1  0.60136100  0.91441300  0.75000000  1
  Sn  Sn10  1  0.39863900  0.08558700  0.25000000  1
  Sn  Sn11  1  0.10136100  0.58558700  0.75000000  1
  Te  Te12  1  0.50813900  0.52197500  0.75000000  1
  Te  Te13  1  0.99186100  0.02197500  0.25000000  1
  Te  Te14  1  0.99188600  0.48346300  0.85534700  1
  Te  Te15  1  0.35604900  0.14228900  0.99640900  1
  Te  Te16  1  0.49188600  0.01653700  0.64465300  1
  Te  Te17  1  0.85604900  0.35771100  0.99640900  1
  Te  Te18  1  0.00811400  0.51653700  0.35534700  1
  Te  Te19  1  0.00813900  0.97802500  0.75000000  1
  Te  Te20  1  0.49188600  0.01653700  0.85534700  1
  Te  Te21  1  0.64395100  0.85771100  0.00359100  1
  Te  Te22  1  0.14395100  0.64228900  0.49640900  1
  Te  Te23  1  0.50811400  0.98346300  0.14465300  1
  Te  Te24  1  0.64395100  0.85771100  0.49640900  1
  Te  Te25  1  0.00811400  0.51653700  0.14465300  1
  Te  Te26  1  0.35604900  0.14228900  0.50359100  1
  Te  Te27  1  0.49186100  0.47802500  0.25000000  1
  Te  Te28  1  0.50811400  0.98346300  0.35534700  1
  Te  Te29  1  0.85604900  0.35771100  0.50359100  1
  Te  Te30  1  0.99188600  0.48346300  0.64465300  1
  Te  Te31  1  0.14395100  0.64228900  0.00359100  1
