# generated using pymatgen
data_LiCuO
_symmetry_space_group_name_H-M   'P 1'
_cell_length_a   6.32392805
_cell_length_b   6.32392805
_cell_length_c   6.32392805
_cell_angle_alpha   95.53735813
_cell_angle_beta   95.53735813
_cell_angle_gamma   143.80486858
_symmetry_Int_Tables_number   1
_chemical_formula_structural   LiCuO
_chemical_formula_sum   'Li4 Cu4 O4'
_cell_volume   141.96238388
_cell_formula_units_Z   4
loop_
 _symmetry_equiv_pos_site_id
 _symmetry_equiv_pos_as_xyz
  1  'x, y, z'
loop_
 _atom_site_type_symbol
 _atom_site_label
 _atom_site_symmetry_multiplicity
 _atom_site_fract_x
 _atom_site_fract_y
 _atom_site_fract_z
 _atom_site_occupancy
  Li  Li0  1  0.00000000  0.65147900  0.65147900  1
  Li  Li1  1  0.00000000  0.34852100  0.34852100  1
  Li  Li2  1  0.65147900  0.00000000  0.65147900  1
  Li  Li3  1  0.34852100  0.00000000  0.34852100  1
  Cu  Cu4  1  0.34244100  0.34244100  0.68488100  1
  Cu  Cu5  1  0.65756000  0.65756000  0.31511900  1
  Cu  Cu6  1  0.34244100  0.65756000  0.00000000  1
  Cu  Cu7  1  0.65756000  0.34244100  0.00000000  1
  O  O8  1  0.50000000  0.81038500  0.31038500  1
  O  O9  1  0.50000000  0.18961500  0.68961500  1
  O  O10  1  0.81038500  0.50000000  0.31038500  1
  O  O11  1  0.18961500  0.50000000  0.68961500  1
