# generated using pymatgen
data_K4V2O7
_symmetry_space_group_name_H-M   'P 1'
_cell_length_a   6.13618848
_cell_length_b   6.13618848
_cell_length_c   7.37666666
_cell_angle_alpha   80.25469451
_cell_angle_beta   80.25469451
_cell_angle_gamma   62.25017138
_symmetry_Int_Tables_number   1
_chemical_formula_structural   K4V2O7
_chemical_formula_sum   'K4 V2 O7'
_cell_volume   240.95435045
_cell_formula_units_Z   1
loop_
 _symmetry_equiv_pos_site_id
 _symmetry_equiv_pos_as_xyz
  1  'x, y, z'
loop_
 _atom_site_type_symbol
 _atom_site_label
 _atom_site_symmetry_multiplicity
 _atom_site_fract_x
 _atom_site_fract_y
 _atom_site_fract_z
 _atom_site_occupancy
  K  K0  1  0.67930900  0.67930900  0.29829200  1
  K  K1  1  0.32069100  0.32069100  0.70170800  1
  K  K2  1  0.00000000  0.00000000  0.50000000  1
  K  K3  1  0.00000000  0.00000000  0.00000000  1
  V  V4  1  0.63550400  0.63550400  0.79857100  1
  V  V5  1  0.36449600  0.36449600  0.20142900  1
  O  O6  1  0.78486500  0.78486500  0.85931200  1
  O  O7  1  0.39497600  0.83864800  0.67289800  1
  O  O8  1  0.21513500  0.21513500  0.14068800  1
  O  O9  1  0.16135200  0.60502400  0.32710200  1
  O  O10  1  0.83864800  0.39497600  0.67289800  1
  O  O11  1  0.50000000  0.50000000  0.00000000  1
  O  O12  1  0.60502400  0.16135200  0.32710200  1
