# generated using pymatgen
data_Ba3Er2(PS4)4
_symmetry_space_group_name_H-M   'P 1'
_cell_length_a   10.39632400
_cell_length_b   12.72353600
_cell_length_c   19.42011800
_cell_angle_alpha   90.00000000
_cell_angle_beta   90.00000000
_cell_angle_gamma   90.00000000
_symmetry_Int_Tables_number   1
_chemical_formula_structural   Ba3Er2(PS4)4
_chemical_formula_sum   'Ba12 Er8 P16 S64'
_cell_volume   2568.85442088
_cell_formula_units_Z   4
loop_
 _symmetry_equiv_pos_site_id
 _symmetry_equiv_pos_as_xyz
  1  'x, y, z'
loop_
 _atom_site_type_symbol
 _atom_site_label
 _atom_site_symmetry_multiplicity
 _atom_site_fract_x
 _atom_site_fract_y
 _atom_site_fract_z
 _atom_site_occupancy
  Ba  Ba0  1  0.38265400  0.75000000  0.50000000  1
  Ba  Ba1  1  0.88265400  0.75000000  0.00000000  1
  Ba  Ba2  1  0.78937200  0.39075600  0.77288900  1
  Ba  Ba3  1  0.61734600  0.25000000  0.50000000  1
  Ba  Ba4  1  0.78937200  0.10924400  0.22711100  1
  Ba  Ba5  1  0.71062800  0.60924400  0.27288900  1
  Ba  Ba6  1  0.21062800  0.60924400  0.22711100  1
  Ba  Ba7  1  0.21062800  0.89075600  0.77288900  1
  Ba  Ba8  1  0.28937200  0.10924400  0.27288900  1
  Ba  Ba9  1  0.28937200  0.39075600  0.72711100  1
  Ba  Ba10  1  0.71062800  0.89075600  0.72711100  1
  Ba  Ba11  1  0.11734600  0.25000000  0.00000000  1
  Er  Er12  1  0.37135400  0.61253600  0.92665100  1
  Er  Er13  1  0.62864600  0.11253600  0.92665100  1
  Er  Er14  1  0.87135400  0.88746400  0.42665100  1
  Er  Er15  1  0.12864600  0.11253600  0.57334900  1
  Er  Er16  1  0.12864600  0.38746400  0.42665100  1
  Er  Er17  1  0.37135400  0.88746400  0.07334900  1
  Er  Er18  1  0.87135400  0.61253600  0.57334900  1
  Er  Er19  1  0.62864600  0.38746400  0.07334900  1
  P  P20  1  0.00461900  0.86000500  0.60173800  1
  P  P21  1  0.43649900  0.45159400  0.36909800  1
  P  P22  1  0.93649900  0.04840600  0.86909800  1
  P  P23  1  0.99538100  0.13999500  0.39826200  1
  P  P24  1  0.56350100  0.54840600  0.63090200  1
  P  P25  1  0.43649900  0.04840600  0.63090200  1
  P  P26  1  0.06350100  0.95159400  0.13090200  1
  P  P27  1  0.49538100  0.13999500  0.10173800  1
  P  P28  1  0.93649900  0.45159400  0.13090200  1
  P  P29  1  0.99538100  0.36000500  0.60173800  1
  P  P30  1  0.06350100  0.54840600  0.86909800  1
  P  P31  1  0.50461900  0.63999500  0.10173800  1
  P  P32  1  0.56350100  0.95159400  0.36909800  1
  P  P33  1  0.50461900  0.86000500  0.89826200  1
  P  P34  1  0.00461900  0.63999500  0.39826200  1
  P  P35  1  0.49538100  0.36000500  0.89826200  1
  S  S36  1  0.06457800  0.72937900  0.65060400  1
  S  S37  1  0.06977200  0.38742700  0.85284700  1
  S  S38  1  0.93022800  0.61257300  0.14715300  1
  S  S39  1  0.00365800  0.01401200  0.33360200  1
  S  S40  1  0.56977200  0.11257300  0.35284700  1
  S  S41  1  0.38852600  0.40203300  0.98380400  1
  S  S42  1  0.79001900  0.11377100  0.80924600  1
  S  S43  1  0.17925800  0.17054500  0.43232800  1
  S  S44  1  0.56457800  0.72937900  0.84939600  1
  S  S45  1  0.49634200  0.98598800  0.83360200  1
  S  S46  1  0.88852600  0.40203300  0.51619600  1
  S  S47  1  0.38550200  0.60564400  0.64960100  1
  S  S48  1  0.43542200  0.27062100  0.15060400  1
  S  S49  1  0.67925800  0.32945500  0.93232800  1
  S  S50  1  0.87857200  0.08518200  0.96755800  1
  S  S51  1  0.61147400  0.59796700  0.01619600  1
  S  S52  1  0.70998100  0.61377100  0.69075400  1
  S  S53  1  0.37857200  0.41481800  0.46755800  1
  S  S54  1  0.49634200  0.51401200  0.16639800  1
  S  S55  1  0.43022800  0.88742700  0.64715300  1
  S  S56  1  0.88852600  0.09796700  0.48380400  1
  S  S57  1  0.93022800  0.88742700  0.85284700  1
  S  S58  1  0.29001900  0.11377100  0.69075400  1
  S  S59  1  0.11449800  0.39435600  0.14960100  1
  S  S60  1  0.62142800  0.91481800  0.46755800  1
  S  S61  1  0.37857200  0.08518200  0.53244200  1
  S  S62  1  0.38852600  0.09796700  0.01619600  1
  S  S63  1  0.29001900  0.38622900  0.30924600  1
  S  S64  1  0.87857200  0.41481800  0.03244200  1
  S  S65  1  0.32074200  0.67054500  0.06767200  1
  S  S66  1  0.38550200  0.89435600  0.35039900  1
  S  S67  1  0.12142800  0.91481800  0.03244200  1
  S  S68  1  0.06977200  0.11257300  0.14715300  1
  S  S69  1  0.61449800  0.39435600  0.35039900  1
  S  S70  1  0.12142800  0.58518200  0.96755800  1
  S  S71  1  0.99634200  0.98598800  0.66639800  1
  S  S72  1  0.88550200  0.60564400  0.85039900  1
  S  S73  1  0.88550200  0.89435600  0.14960100  1
  S  S74  1  0.82074200  0.67054500  0.43232800  1
  S  S75  1  0.56457800  0.77062100  0.15060400  1
  S  S76  1  0.32074200  0.82945500  0.93232800  1
  S  S77  1  0.43022800  0.61257300  0.35284700  1
  S  S78  1  0.61147400  0.90203300  0.98380400  1
  S  S79  1  0.67925800  0.17054500  0.06767200  1
  S  S80  1  0.82074200  0.82945500  0.56767200  1
  S  S81  1  0.11147400  0.90203300  0.51619600  1
  S  S82  1  0.20998100  0.88622900  0.19075400  1
  S  S83  1  0.50365800  0.48598800  0.83360200  1
  S  S84  1  0.93542200  0.22937900  0.65060400  1
  S  S85  1  0.79001900  0.38622900  0.19075400  1
  S  S86  1  0.06457800  0.77062100  0.34939600  1
  S  S87  1  0.17925800  0.32945500  0.56767200  1
  S  S88  1  0.00365800  0.48598800  0.66639800  1
  S  S89  1  0.11449800  0.10564400  0.85039900  1
  S  S90  1  0.11147400  0.59796700  0.48380400  1
  S  S91  1  0.70998100  0.88622900  0.30924600  1
  S  S92  1  0.99634200  0.51401200  0.33360200  1
  S  S93  1  0.93542200  0.27062100  0.34939600  1
  S  S94  1  0.56977200  0.38742700  0.64715300  1
  S  S95  1  0.61449800  0.10564400  0.64960100  1
  S  S96  1  0.43542200  0.22937900  0.84939600  1
  S  S97  1  0.50365800  0.01401200  0.16639800  1
  S  S98  1  0.20998100  0.61377100  0.80924600  1
  S  S99  1  0.62142800  0.58518200  0.53244200  1
