# generated using pymatgen
data_Pr12Fe2I17
_symmetry_space_group_name_H-M   'P 1'
_cell_length_a   10.03488400
_cell_length_b   12.06692926
_cell_length_c   12.10343145
_cell_angle_alpha   93.42851625
_cell_angle_beta   104.68022953
_cell_angle_gamma   114.51807628
_symmetry_Int_Tables_number   1
_chemical_formula_structural   Pr12Fe2I17
_chemical_formula_sum   'Pr12 Fe2 I17'
_cell_volume   1267.06192824
_cell_formula_units_Z   1
loop_
 _symmetry_equiv_pos_site_id
 _symmetry_equiv_pos_as_xyz
  1  'x, y, z'
loop_
 _atom_site_type_symbol
 _atom_site_label
 _atom_site_symmetry_multiplicity
 _atom_site_fract_x
 _atom_site_fract_y
 _atom_site_fract_z
 _atom_site_occupancy
  Pr  Pr0  1  0.05798700  0.51017500  0.32307800  1
  Pr  Pr1  1  0.99133300  0.81112300  0.58335400  1
  Pr  Pr2  1  0.65008100  0.24085400  0.28234500  1
  Pr  Pr3  1  0.00866700  0.18887700  0.41664600  1
  Pr  Pr4  1  0.22214400  0.66987100  0.98794500  1
  Pr  Pr5  1  0.25993900  0.98539400  0.89249500  1
  Pr  Pr6  1  0.34991900  0.75914600  0.71765500  1
  Pr  Pr7  1  0.94201300  0.48982500  0.67692200  1
  Pr  Pr8  1  0.74006100  0.01460600  0.10750500  1
  Pr  Pr9  1  0.14620100  0.28725600  0.15304800  1
  Pr  Pr10  1  0.77785600  0.33012900  0.01205500  1
  Pr  Pr11  1  0.85379900  0.71274400  0.84695200  1
  Fe  Fe12  1  0.10413600  0.73805600  0.78550600  1
  Fe  Fe13  1  0.89586400  0.26194400  0.21449400  1
  I  I14  1  0.78395600  0.52919700  0.41691500  1
  I  I15  1  0.63946500  0.41831500  0.75746200  1
  I  I16  1  0.84176700  0.89371200  0.32321100  1
  I  I17  1  0.32511300  0.21183100  0.37044600  1
  I  I18  1  0.15823300  0.10628800  0.67678900  1
  I  I19  1  0.58916300  0.05344300  0.84203900  1
  I  I20  1  0.75214000  0.18122400  0.53728200  1
  I  I21  1  0.54780600  0.70584600  0.95267200  1
  I  I22  1  0.36053500  0.58168500  0.24253800  1
  I  I23  1  0.21604400  0.47080300  0.58308500  1
  I  I24  1  0.05596600  0.36661600  0.89614700  1
  I  I25  1  0.45219400  0.29415400  0.04732800  1
  I  I26  1  0.00000000  0.00000000  0.00000000  1
  I  I27  1  0.24786000  0.81877600  0.46271800  1
  I  I28  1  0.41083700  0.94655700  0.15796100  1
  I  I29  1  0.67488700  0.78816900  0.62955400  1
  I  I30  1  0.94403400  0.63338400  0.10385300  1
