# generated using pymatgen
data_YbAu2F9
_symmetry_space_group_name_H-M   'P 1'
_cell_length_a   9.33264700
_cell_length_b   11.35603100
_cell_length_c   22.22209300
_cell_angle_alpha   90.00000000
_cell_angle_beta   90.00000000
_cell_angle_gamma   90.00000000
_symmetry_Int_Tables_number   1
_chemical_formula_structural   YbAu2F9
_chemical_formula_sum   'Yb12 Au24 F108'
_cell_volume   2355.13805244
_cell_formula_units_Z   12
loop_
 _symmetry_equiv_pos_site_id
 _symmetry_equiv_pos_as_xyz
  1  'x, y, z'
loop_
 _atom_site_type_symbol
 _atom_site_label
 _atom_site_symmetry_multiplicity
 _atom_site_fract_x
 _atom_site_fract_y
 _atom_site_fract_z
 _atom_site_occupancy
  Yb  Yb0  1  0.04245900  0.40452400  0.91545100  1
  Yb  Yb1  1  0.54245900  0.09547600  0.91545100  1
  Yb  Yb2  1  0.31497300  0.00000000  0.75000000  1
  Yb  Yb3  1  0.95754100  0.40452400  0.41545100  1
  Yb  Yb4  1  0.04245900  0.59547600  0.58454900  1
  Yb  Yb5  1  0.45754100  0.09547600  0.41545100  1
  Yb  Yb6  1  0.68502700  0.00000000  0.25000000  1
  Yb  Yb7  1  0.95754100  0.59547600  0.08454900  1
  Yb  Yb8  1  0.81497300  0.50000000  0.75000000  1
  Yb  Yb9  1  0.54245900  0.90452400  0.58454900  1
  Yb  Yb10  1  0.18502700  0.50000000  0.25000000  1
  Yb  Yb11  1  0.45754100  0.90452400  0.08454900  1
  Au  Au12  1  0.66052000  0.60955200  0.49078100  1
  Au  Au13  1  0.86190100  0.28682600  0.17119500  1
  Au  Au14  1  0.16052000  0.10955200  0.00921900  1
  Au  Au15  1  0.93269700  0.92602300  0.66488500  1
  Au  Au16  1  0.33948000  0.39044800  0.50921900  1
  Au  Au17  1  0.56730300  0.57397700  0.16488500  1
  Au  Au18  1  0.63809900  0.21317400  0.67119500  1
  Au  Au19  1  0.86190100  0.71317400  0.32880500  1
  Au  Au20  1  0.13809900  0.28682600  0.67119500  1
  Au  Au21  1  0.36190100  0.21317400  0.17119500  1
  Au  Au22  1  0.13809900  0.71317400  0.82880500  1
  Au  Au23  1  0.06730300  0.92602300  0.16488500  1
  Au  Au24  1  0.93269700  0.07397700  0.83511500  1
  Au  Au25  1  0.43269700  0.42602300  0.83511500  1
  Au  Au26  1  0.66052000  0.39044800  0.00921900  1
  Au  Au27  1  0.33948000  0.60955200  0.99078100  1
  Au  Au28  1  0.43269700  0.57397700  0.66488500  1
  Au  Au29  1  0.16052000  0.89044800  0.49078100  1
  Au  Au30  1  0.63809900  0.78682600  0.82880500  1
  Au  Au31  1  0.56730300  0.42602300  0.33511500  1
  Au  Au32  1  0.83948000  0.89044800  0.99078100  1
  Au  Au33  1  0.83948000  0.10955200  0.50921900  1
  Au  Au34  1  0.36190100  0.78682600  0.32880500  1
  Au  Au35  1  0.06730300  0.07397700  0.33511500  1
  F  F36  1  0.91311500  0.39415300  0.10605100  1
  F  F37  1  0.22163000  0.28514200  0.11924200  1
  F  F38  1  0.50747400  0.41507500  0.06690800  1
  F  F39  1  0.26761500  0.88000500  0.15233200  1
  F  F40  1  0.30303600  0.31859900  0.23621900  1
  F  F41  1  0.63113600  0.52579400  0.67721800  1
  F  F42  1  0.99252600  0.08492500  0.56690800  1
  F  F43  1  0.00364100  0.35846100  0.22441200  1
  F  F44  1  0.86886400  0.02579400  0.32278200  1
  F  F45  1  0.27837000  0.21485800  0.61924200  1
  F  F46  1  0.69696400  0.68140100  0.76378100  1
  F  F47  1  0.26761500  0.11999500  0.34766800  1
  F  F48  1  0.99716900  0.22168000  0.87102100  1
  F  F49  1  0.19154100  0.63433800  0.05152100  1
  F  F50  1  0.92130100  0.26155500  0.48815700  1
  F  F51  1  0.69154100  0.13433800  0.44847900  1
  F  F52  1  0.42130100  0.76155500  0.01184300  1
  F  F53  1  0.57869900  0.76155500  0.51184300  1
  F  F54  1  0.00283100  0.22168000  0.37102100  1
  F  F55  1  0.07869900  0.73844500  0.51184300  1
  F  F56  1  0.50283100  0.72168000  0.12897900  1
  F  F57  1  0.76100600  0.95692700  0.53278800  1
  F  F58  1  0.99635900  0.35846100  0.72441200  1
  F  F59  1  0.22163000  0.71485800  0.38075800  1
  F  F60  1  0.13113600  0.02579400  0.82278200  1
  F  F61  1  0.99716900  0.77832000  0.62897900  1
  F  F62  1  0.30845900  0.13433800  0.94847900  1
  F  F63  1  0.27837000  0.78514200  0.88075800  1
  F  F64  1  0.19696400  0.81859900  0.76378100  1
  F  F65  1  0.37250100  0.57510700  0.80028800  1
  F  F66  1  0.76761500  0.38000500  0.34766800  1
  F  F67  1  0.77837000  0.28514200  0.61924200  1
  F  F68  1  0.08688500  0.39415300  0.60605100  1
  F  F69  1  0.91844700  0.55000700  0.66497600  1
  F  F70  1  0.08688500  0.60584700  0.89394900  1
  F  F71  1  0.91311500  0.60584700  0.39394900  1
  F  F72  1  0.41311500  0.10584700  0.10605100  1
  F  F73  1  0.19696400  0.18140100  0.73621900  1
  F  F74  1  0.76761500  0.61999500  0.15233200  1
  F  F75  1  0.41844700  0.05000700  0.83502400  1
  F  F76  1  0.50364100  0.85846100  0.27558800  1
  F  F77  1  0.08155300  0.55000700  0.16497600  1
  F  F78  1  0.49716900  0.27832000  0.87102100  1
  F  F79  1  0.26100600  0.54307300  0.53278800  1
  F  F80  1  0.23238500  0.38000500  0.84766800  1
  F  F81  1  0.80845900  0.36566200  0.94847900  1
  F  F82  1  0.76100600  0.04307300  0.96721200  1
  F  F83  1  0.72163000  0.78514200  0.38075800  1
  F  F84  1  0.23899400  0.04307300  0.46721200  1
  F  F85  1  0.12749900  0.92489300  0.30028800  1
  F  F86  1  0.49635900  0.14153900  0.72441200  1
  F  F87  1  0.50000000  0.00000000  0.00000000  1
  F  F88  1  0.77837000  0.71485800  0.88075800  1
  F  F89  1  0.63113600  0.47420600  0.82278200  1
  F  F90  1  0.49252600  0.41507500  0.56690800  1
  F  F91  1  0.23899400  0.95692700  0.03278800  1
  F  F92  1  0.69696400  0.31859900  0.73621900  1
  F  F93  1  0.00747400  0.08492500  0.06690800  1
  F  F94  1  0.13113600  0.97420600  0.67721800  1
  F  F95  1  0.80303600  0.81859900  0.26378100  1
  F  F96  1  0.73899400  0.54307300  0.03278800  1
  F  F97  1  0.99252600  0.91507500  0.93309200  1
  F  F98  1  0.50283100  0.27832000  0.37102100  1
  F  F99  1  0.00364100  0.64153900  0.27558800  1
  F  F100  1  0.69154100  0.86566200  0.05152100  1
  F  F101  1  0.80303600  0.18140100  0.23621900  1
  F  F102  1  0.73238500  0.88000500  0.65233200  1
  F  F103  1  0.57869900  0.23844500  0.98815700  1
  F  F104  1  0.50747400  0.58492500  0.43309200  1
  F  F105  1  0.37250100  0.42489300  0.69971200  1
  F  F106  1  0.30845900  0.86566200  0.55152100  1
  F  F107  1  0.36886400  0.52579400  0.17721800  1
  F  F108  1  0.86886400  0.97420600  0.17721800  1
  F  F109  1  0.42130100  0.23844500  0.48815700  1
  F  F110  1  0.80845900  0.63433800  0.55152100  1
  F  F111  1  0.87250100  0.07510700  0.69971200  1
  F  F112  1  0.36886400  0.47420600  0.32278200  1
  F  F113  1  0.73238500  0.11999500  0.84766800  1
  F  F114  1  0.26100600  0.45692700  0.96721200  1
  F  F115  1  0.99635900  0.64153900  0.77558800  1
  F  F116  1  0.00000000  0.50000000  0.00000000  1
  F  F117  1  0.50000000  0.00000000  0.50000000  1
  F  F118  1  0.58688500  0.10584700  0.60605100  1
  F  F119  1  0.23238500  0.61999500  0.65233200  1
  F  F120  1  0.62749900  0.42489300  0.19971200  1
  F  F121  1  0.58155300  0.05000700  0.33502400  1
  F  F122  1  0.00283100  0.77832000  0.12897900  1
  F  F123  1  0.41844700  0.94999300  0.66497600  1
  F  F124  1  0.49716900  0.72168000  0.62897900  1
  F  F125  1  0.62749900  0.57510700  0.30028800  1
  F  F126  1  0.49635900  0.85846100  0.77558800  1
  F  F127  1  0.12749900  0.07510700  0.19971200  1
  F  F128  1  0.00747400  0.91507500  0.43309200  1
  F  F129  1  0.58155300  0.94999300  0.16497600  1
  F  F130  1  0.58688500  0.89415300  0.89394900  1
  F  F131  1  0.50364100  0.14153900  0.22441200  1
  F  F132  1  0.73899400  0.45692700  0.46721200  1
  F  F133  1  0.00000000  0.50000000  0.50000000  1
  F  F134  1  0.08155300  0.44999300  0.33502400  1
  F  F135  1  0.91844700  0.44999300  0.83502400  1
  F  F136  1  0.92130100  0.73844500  0.01184300  1
  F  F137  1  0.87250100  0.92489300  0.80028800  1
  F  F138  1  0.41311500  0.89415300  0.39394900  1
  F  F139  1  0.49252600  0.58492500  0.93309200  1
  F  F140  1  0.72163000  0.21485800  0.11924200  1
  F  F141  1  0.19154100  0.36566200  0.44847900  1
  F  F142  1  0.30303600  0.68140100  0.26378100  1
  F  F143  1  0.07869900  0.26155500  0.98815700  1
