# generated using pymatgen
data_Na2Gd2MgSi4(O6F)2
_symmetry_space_group_name_H-M   'P 1'
_cell_length_a   7.59545900
_cell_length_b   5.22693500
_cell_length_c   14.49932706
_cell_angle_alpha   89.83647003
_cell_angle_beta   90.00000000
_cell_angle_gamma   90.00000000
_symmetry_Int_Tables_number   1
_chemical_formula_structural   Na2Gd2MgSi4(O6F)2
_chemical_formula_sum   'Na4 Gd4 Mg2 Si8 O24 F4'
_cell_volume   575.63501097
_cell_formula_units_Z   2
loop_
 _symmetry_equiv_pos_site_id
 _symmetry_equiv_pos_as_xyz
  1  'x, y, z'
loop_
 _atom_site_type_symbol
 _atom_site_label
 _atom_site_symmetry_multiplicity
 _atom_site_fract_x
 _atom_site_fract_y
 _atom_site_fract_z
 _atom_site_occupancy
  Na  Na0  1  0.54226400  0.49729700  0.21052600  1
  Na  Na1  1  0.45773600  0.50270300  0.78947400  1
  Na  Na2  1  0.95773600  0.49729700  0.71052600  1
  Na  Na3  1  0.04226400  0.50270300  0.28947400  1
  Gd  Gd4  1  0.77174700  0.48444900  0.95750100  1
  Gd  Gd5  1  0.72825300  0.48444900  0.45750100  1
  Gd  Gd6  1  0.22825300  0.51555100  0.04249900  1
  Gd  Gd7  1  0.27174700  0.51555100  0.54249900  1
  Mg  Mg8  1  0.50000000  0.00000000  0.00000000  1
  Mg  Mg9  1  0.00000000  0.00000000  0.50000000  1
  Si  Si10  1  0.74025300  0.97667900  0.31446100  1
  Si  Si11  1  0.24025300  0.02332100  0.18553900  1
  Si  Si12  1  0.37144600  0.03733800  0.38519700  1
  Si  Si13  1  0.62855400  0.96266200  0.61480300  1
  Si  Si14  1  0.12855400  0.03733800  0.88519700  1
  Si  Si15  1  0.87144600  0.96266200  0.11480300  1
  Si  Si16  1  0.25974700  0.02332100  0.68553900  1
  Si  Si17  1  0.75974700  0.97667900  0.81446100  1
  O  O18  1  0.73951200  0.13932200  0.05369100  1
  O  O19  1  0.54117400  0.86151300  0.34654800  1
  O  O20  1  0.26048800  0.86067800  0.94630900  1
  O  O21  1  0.94238500  0.71189200  0.05869700  1
  O  O22  1  0.76048800  0.13932200  0.55369100  1
  O  O23  1  0.77180400  0.85600500  0.21005100  1
  O  O24  1  0.55761500  0.71189200  0.55869700  1
  O  O25  1  0.87288300  0.83306600  0.38591000  1
  O  O26  1  0.45882600  0.13848700  0.65345200  1
  O  O27  1  0.05761500  0.28810800  0.94130300  1
  O  O28  1  0.12711700  0.16693400  0.61409000  1
  O  O29  1  0.62711700  0.83306600  0.88591000  1
  O  O30  1  0.95882600  0.86151300  0.84654800  1
  O  O31  1  0.04117400  0.13848700  0.15345200  1
  O  O32  1  0.72819600  0.85600500  0.71005100  1
  O  O33  1  0.74287600  0.28579300  0.31465100  1
  O  O34  1  0.37288300  0.16693400  0.11409000  1
  O  O35  1  0.44238500  0.28810800  0.44130300  1
  O  O36  1  0.27180400  0.14399500  0.28994900  1
  O  O37  1  0.24287600  0.71420700  0.18534900  1
  O  O38  1  0.75712400  0.28579300  0.81465100  1
  O  O39  1  0.22819600  0.14399500  0.78994900  1
  O  O40  1  0.25712400  0.71420700  0.68534900  1
  O  O41  1  0.23951200  0.86067800  0.44630900  1
  F  F42  1  0.46117300  0.33684300  0.93871600  1
  F  F43  1  0.53882700  0.66315700  0.06128400  1
  F  F44  1  0.96117300  0.66315700  0.56128400  1
  F  F45  1  0.03882700  0.33684300  0.43871600  1
