# generated using pymatgen
data_Cr2B
_symmetry_space_group_name_H-M   'P 1'
_cell_length_a   8.17092215
_cell_length_b   7.59844825
_cell_length_c   4.23370621
_cell_angle_alpha   82.05176819
_cell_angle_beta   67.07332377
_cell_angle_gamma   30.87490804
_symmetry_Int_Tables_number   1
_chemical_formula_structural   Cr2B
_chemical_formula_sum   'Cr8 B4'
_cell_volume   113.03784063
_cell_formula_units_Z   4
loop_
 _symmetry_equiv_pos_site_id
 _symmetry_equiv_pos_as_xyz
  1  'x, y, z'
loop_
 _atom_site_type_symbol
 _atom_site_label
 _atom_site_symmetry_multiplicity
 _atom_site_fract_x
 _atom_site_fract_y
 _atom_site_fract_z
 _atom_site_occupancy
  Cr  Cr0  1  0.33304900  0.33304900  0.16695100  1
  Cr  Cr1  1  0.91695100  0.91695100  0.08304900  1
  Cr  Cr2  1  0.91553800  0.58446200  0.91553800  1
  Cr  Cr3  1  0.08304900  0.08304900  0.91695100  1
  Cr  Cr4  1  0.33446200  0.66553800  0.33446200  1
  Cr  Cr5  1  0.58446200  0.91553800  0.58446200  1
  Cr  Cr6  1  0.16695100  0.16695100  0.33304900  1
  Cr  Cr7  1  0.66553800  0.33446200  0.66553800  1
  B  B8  1  0.37462300  0.37462300  0.62537700  1
  B  B9  1  0.62462300  0.62462300  0.87537700  1
  B  B10  1  0.62537700  0.62537700  0.37462300  1
  B  B11  1  0.87537700  0.87537700  0.62462300  1
