# generated using pymatgen
data_H5CNO3
_symmetry_space_group_name_H-M   'P 1'
_cell_length_a   7.36305500
_cell_length_b   8.77217500
_cell_length_c   10.74273700
_cell_angle_alpha   90.00000000
_cell_angle_beta   90.00000000
_cell_angle_gamma   90.00000000
_symmetry_Int_Tables_number   1
_chemical_formula_structural   H5CNO3
_chemical_formula_sum   'H40 C8 N8 O24'
_cell_volume   693.87345797
_cell_formula_units_Z   8
loop_
 _symmetry_equiv_pos_site_id
 _symmetry_equiv_pos_as_xyz
  1  'x, y, z'
loop_
 _atom_site_type_symbol
 _atom_site_label
 _atom_site_symmetry_multiplicity
 _atom_site_fract_x
 _atom_site_fract_y
 _atom_site_fract_z
 _atom_site_occupancy
  H  H0  1  0.63278700  0.36754200  0.46659200  1
  H  H1  1  0.86721300  0.86754200  0.46659200  1
  H  H2  1  0.66260500  0.44833500  0.06126800  1
  H  H3  1  0.01837800  0.37801200  0.76526900  1
  H  H4  1  0.63278700  0.86754200  0.03340800  1
  H  H5  1  0.70149400  0.00829500  0.93844100  1
  H  H6  1  0.01837800  0.87801200  0.73473100  1
  H  H7  1  0.30943300  0.66376100  0.06598000  1
  H  H8  1  0.80943300  0.33623900  0.56598000  1
  H  H9  1  0.69056700  0.83623900  0.56598000  1
  H  H10  1  0.16260500  0.05166500  0.93873200  1
  H  H11  1  0.13278700  0.13245800  0.53340800  1
  H  H12  1  0.70149400  0.50829500  0.56155900  1
  H  H13  1  0.30943300  0.16376100  0.43402000  1
  H  H14  1  0.80943300  0.83623900  0.93402000  1
  H  H15  1  0.19056700  0.66376100  0.43402000  1
  H  H16  1  0.83739500  0.94833500  0.06126800  1
  H  H17  1  0.20149400  0.49170500  0.06155900  1
  H  H18  1  0.86721300  0.36754200  0.03340800  1
  H  H19  1  0.20149400  0.99170500  0.43844100  1
  H  H20  1  0.79850600  0.50829500  0.93844100  1
  H  H21  1  0.33739500  0.05166500  0.56126800  1
  H  H22  1  0.98162200  0.62198800  0.23473100  1
  H  H23  1  0.19056700  0.16376100  0.06598000  1
  H  H24  1  0.69056700  0.33623900  0.93402000  1
  H  H25  1  0.36721300  0.63245800  0.53340800  1
  H  H26  1  0.29850600  0.99170500  0.06155900  1
  H  H27  1  0.83739500  0.44833500  0.43873200  1
  H  H28  1  0.36721300  0.13245800  0.96659200  1
  H  H29  1  0.29850600  0.49170500  0.43844100  1
  H  H30  1  0.33739500  0.55166500  0.93873200  1
  H  H31  1  0.51837800  0.12198800  0.23473100  1
  H  H32  1  0.98162200  0.12198800  0.26526900  1
  H  H33  1  0.79850600  0.00829500  0.56155900  1
  H  H34  1  0.48162200  0.87801200  0.76526900  1
  H  H35  1  0.16260500  0.55166500  0.56126800  1
  H  H36  1  0.48162200  0.37801200  0.73473100  1
  H  H37  1  0.13278700  0.63245800  0.96659200  1
  H  H38  1  0.66260500  0.94833500  0.43873200  1
  H  H39  1  0.51837800  0.62198800  0.26526900  1
  C  C40  1  0.48965900  0.84485300  0.25147400  1
  C  C41  1  0.51034100  0.65514700  0.75147400  1
  C  C42  1  0.98965900  0.15514700  0.75147400  1
  C  C43  1  0.48965900  0.34485300  0.24852600  1
  C  C44  1  0.98965900  0.65514700  0.74852600  1
  C  C45  1  0.01034100  0.34485300  0.25147400  1
  C  C46  1  0.01034100  0.84485300  0.24852600  1
  C  C47  1  0.51034100  0.15514700  0.74852600  1
  N  N48  1  0.74573100  0.91582600  0.99116200  1
  N  N49  1  0.74573100  0.41582600  0.50883800  1
  N  N50  1  0.24573100  0.08417400  0.49116200  1
  N  N51  1  0.75426900  0.41582600  0.99116200  1
  N  N52  1  0.24573100  0.58417400  0.00883800  1
  N  N53  1  0.25426900  0.58417400  0.49116200  1
  N  N54  1  0.75426900  0.91582600  0.50883800  1
  N  N55  1  0.25426900  0.08417400  0.00883800  1
  O  O56  1  0.96894500  0.21984600  0.31785100  1
  O  O57  1  0.48305500  0.52856400  0.80775600  1
  O  O58  1  0.53105500  0.21984600  0.18214900  1
  O  O59  1  0.92983800  0.66826900  0.85982800  1
  O  O60  1  0.42983800  0.33173100  0.35982800  1
  O  O61  1  0.03105500  0.78015400  0.68214900  1
  O  O62  1  0.57016200  0.66826900  0.64017200  1
  O  O63  1  0.01694500  0.02856400  0.80775600  1
  O  O64  1  0.07016200  0.83173100  0.35982800  1
  O  O65  1  0.42983800  0.83173100  0.14017200  1
  O  O66  1  0.96894500  0.71984600  0.18214900  1
  O  O67  1  0.51694500  0.97143600  0.30775600  1
  O  O68  1  0.03105500  0.28015400  0.81785100  1
  O  O69  1  0.92983800  0.16826900  0.64017200  1
  O  O70  1  0.46894500  0.78015400  0.81785100  1
  O  O71  1  0.57016200  0.16826900  0.85982800  1
  O  O72  1  0.48305500  0.02856400  0.69224400  1
  O  O73  1  0.46894500  0.28015400  0.68214900  1
  O  O74  1  0.98305500  0.97143600  0.19224400  1
  O  O75  1  0.98305500  0.47143600  0.30775600  1
  O  O76  1  0.51694500  0.47143600  0.19224400  1
  O  O77  1  0.07016200  0.33173100  0.14017200  1
  O  O78  1  0.53105500  0.71984600  0.31785100  1
  O  O79  1  0.01694500  0.52856400  0.69224400  1
