# generated using pymatgen
data_Ba6NaCu3Te14
_symmetry_space_group_name_H-M   'P 1'
_cell_length_a   14.32841355
_cell_length_b   14.32841355
_cell_length_c   9.13561600
_cell_angle_alpha   90.00000000
_cell_angle_beta   90.00000000
_cell_angle_gamma   119.99999792
_symmetry_Int_Tables_number   1
_chemical_formula_structural   Ba6NaCu3Te14
_chemical_formula_sum   'Ba12 Na2 Cu6 Te28'
_cell_volume   1624.29419684
_cell_formula_units_Z   2
loop_
 _symmetry_equiv_pos_site_id
 _symmetry_equiv_pos_as_xyz
  1  'x, y, z'
loop_
 _atom_site_type_symbol
 _atom_site_label
 _atom_site_symmetry_multiplicity
 _atom_site_fract_x
 _atom_site_fract_y
 _atom_site_fract_z
 _atom_site_occupancy
  Ba  Ba0  1  0.24352800  0.79227800  0.25000000  1
  Ba  Ba1  1  0.45124900  0.24352800  0.75000000  1
  Ba  Ba2  1  0.54875100  0.79227800  0.75000000  1
  Ba  Ba3  1  0.79227800  0.54875100  0.75000000  1
  Ba  Ba4  1  0.75647200  0.54875100  0.25000000  1
  Ba  Ba5  1  0.24352800  0.45124900  0.75000000  1
  Ba  Ba6  1  0.79227800  0.24352800  0.25000000  1
  Ba  Ba7  1  0.75647200  0.20772200  0.75000000  1
  Ba  Ba8  1  0.20772200  0.45124900  0.25000000  1
  Ba  Ba9  1  0.20772200  0.75647200  0.75000000  1
  Ba  Ba10  1  0.54875100  0.75647200  0.25000000  1
  Ba  Ba11  1  0.45124900  0.20772200  0.25000000  1
  Na  Na12  1  0.00000000  0.00000000  0.50000000  1
  Na  Na13  1  0.00000000  0.00000000  0.00000000  1
  Cu  Cu14  1  0.80766900  0.00000000  0.25000000  1
  Cu  Cu15  1  0.80766900  0.80766900  0.75000000  1
  Cu  Cu16  1  0.00000000  0.80766900  0.25000000  1
  Cu  Cu17  1  0.19233100  0.00000000  0.75000000  1
  Cu  Cu18  1  0.19233100  0.19233100  0.25000000  1
  Cu  Cu19  1  0.00000000  0.19233100  0.75000000  1
  Te  Te20  1  0.17194100  0.00000000  0.25000000  1
  Te  Te21  1  0.33333300  0.66666700  0.00000000  1
  Te  Te22  1  0.00000000  0.31813300  0.52607300  1
  Te  Te23  1  0.82805900  0.00000000  0.75000000  1
  Te  Te24  1  0.68186700  0.68186700  0.97392700  1
  Te  Te25  1  0.31813300  0.00000000  0.97392700  1
  Te  Te26  1  0.00000000  0.17194100  0.25000000  1
  Te  Te27  1  0.00000000  0.68186700  0.47392700  1
  Te  Te28  1  0.00000000  0.68186700  0.02607300  1
  Te  Te29  1  0.00000000  0.46762300  0.75000000  1
  Te  Te30  1  0.31813300  0.31813300  0.02607300  1
  Te  Te31  1  0.82805900  0.82805900  0.25000000  1
  Te  Te32  1  0.46762300  0.00000000  0.75000000  1
  Te  Te33  1  0.68186700  0.00000000  0.02607300  1
  Te  Te34  1  0.66666700  0.33333300  0.50000000  1
  Te  Te35  1  0.66666700  0.33333300  0.00000000  1
  Te  Te36  1  0.68186700  0.00000000  0.47392700  1
  Te  Te37  1  0.53237700  0.53237700  0.75000000  1
  Te  Te38  1  0.46762300  0.46762300  0.25000000  1
  Te  Te39  1  0.31813300  0.00000000  0.52607300  1
  Te  Te40  1  0.68186700  0.68186700  0.52607300  1
  Te  Te41  1  0.00000000  0.31813300  0.97392700  1
  Te  Te42  1  0.33333300  0.66666700  0.50000000  1
  Te  Te43  1  0.31813300  0.31813300  0.47392700  1
  Te  Te44  1  0.00000000  0.53237700  0.25000000  1
  Te  Te45  1  0.53237700  0.00000000  0.25000000  1
  Te  Te46  1  0.00000000  0.82805900  0.75000000  1
  Te  Te47  1  0.17194100  0.17194100  0.75000000  1
