# generated using pymatgen
data_NaGdO2
_symmetry_space_group_name_H-M   'P 1'
_cell_length_a   6.26566946
_cell_length_b   6.26566946
_cell_length_c   6.26566946
_cell_angle_alpha   136.11793341
_cell_angle_beta   136.11793341
_cell_angle_gamma   63.79806095
_symmetry_Int_Tables_number   1
_chemical_formula_structural   NaGdO2
_chemical_formula_sum   'Na2 Gd2 O4'
_cell_volume   116.62596082
_cell_formula_units_Z   2
loop_
 _symmetry_equiv_pos_site_id
 _symmetry_equiv_pos_as_xyz
  1  'x, y, z'
loop_
 _atom_site_type_symbol
 _atom_site_label
 _atom_site_symmetry_multiplicity
 _atom_site_fract_x
 _atom_site_fract_y
 _atom_site_fract_z
 _atom_site_occupancy
  Na  Na0  1  0.25000000  0.75000000  0.50000000  1
  Na  Na1  1  0.50000000  0.50000000  0.00000000  1
  Gd  Gd2  1  0.00000000  0.00000000  0.00000000  1
  Gd  Gd3  1  0.75000000  0.25000000  0.50000000  1
  O  O4  1  0.78010700  0.78010700  0.00000000  1
  O  O5  1  0.53010700  0.03010700  0.50000000  1
  O  O6  1  0.21989300  0.21989300  0.00000000  1
  O  O7  1  0.96989300  0.46989300  0.50000000  1
