# generated using pymatgen
data_BaYbSn3
_symmetry_space_group_name_H-M   'P 1'
_cell_length_a   9.32101969
_cell_length_b   9.32101969
_cell_length_c   17.42966800
_cell_angle_alpha   90.00000000
_cell_angle_beta   90.00000000
_cell_angle_gamma   118.72953051
_symmetry_Int_Tables_number   1
_chemical_formula_structural   BaYbSn3
_chemical_formula_sum   'Ba8 Yb8 Sn24'
_cell_volume   1327.89981798
_cell_formula_units_Z   8
loop_
 _symmetry_equiv_pos_site_id
 _symmetry_equiv_pos_as_xyz
  1  'x, y, z'
loop_
 _atom_site_type_symbol
 _atom_site_label
 _atom_site_symmetry_multiplicity
 _atom_site_fract_x
 _atom_site_fract_y
 _atom_site_fract_z
 _atom_site_occupancy
  Ba  Ba0  1  0.21568700  0.78431300  0.00000000  1
  Ba  Ba1  1  0.78431300  0.21568700  0.00000000  1
  Ba  Ba2  1  0.32492000  0.32492000  0.91390300  1
  Ba  Ba3  1  0.71568700  0.28431300  0.50000000  1
  Ba  Ba4  1  0.67508000  0.67508000  0.08609700  1
  Ba  Ba5  1  0.28431300  0.71568700  0.50000000  1
  Ba  Ba6  1  0.82492000  0.82492000  0.58609700  1
  Ba  Ba7  1  0.17508000  0.17508000  0.41390300  1
  Yb  Yb8  1  0.62232400  0.35370400  0.72750500  1
  Yb  Yb9  1  0.85370400  0.12232400  0.77249500  1
  Yb  Yb10  1  0.35370400  0.62232300  0.72750500  1
  Yb  Yb11  1  0.12232300  0.85370400  0.77249500  1
  Yb  Yb12  1  0.87767700  0.14629600  0.22750500  1
  Yb  Yb13  1  0.14629600  0.87767600  0.22750500  1
  Yb  Yb14  1  0.64629600  0.37767700  0.27249500  1
  Yb  Yb15  1  0.37767700  0.64629600  0.27249500  1
  Sn  Sn16  1  0.43439600  0.19753600  0.09295600  1
  Sn  Sn17  1  0.45811300  0.01237700  0.33561900  1
  Sn  Sn18  1  0.95811300  0.51237700  0.16438100  1
  Sn  Sn19  1  0.21828500  0.21828500  0.72030400  1
  Sn  Sn20  1  0.93512500  0.93512500  0.91361800  1
  Sn  Sn21  1  0.48762300  0.04188700  0.83561900  1
  Sn  Sn22  1  0.51237700  0.95811300  0.16438100  1
  Sn  Sn23  1  0.04188700  0.48762300  0.83561900  1
  Sn  Sn24  1  0.06487500  0.06487500  0.08638200  1
  Sn  Sn25  1  0.78171500  0.78171500  0.27969600  1
  Sn  Sn26  1  0.93439600  0.69753600  0.40704400  1
  Sn  Sn27  1  0.69753600  0.93439600  0.40704400  1
  Sn  Sn28  1  0.71828500  0.71828500  0.77969600  1
  Sn  Sn29  1  0.56560400  0.80246400  0.90704400  1
  Sn  Sn30  1  0.56487500  0.56487500  0.41361800  1
  Sn  Sn31  1  0.06560400  0.30246400  0.59295600  1
  Sn  Sn32  1  0.80246400  0.56560400  0.90704400  1
  Sn  Sn33  1  0.30246400  0.06560400  0.59295600  1
  Sn  Sn34  1  0.54188700  0.98762300  0.66438100  1
  Sn  Sn35  1  0.01237700  0.45811300  0.33561900  1
  Sn  Sn36  1  0.43512500  0.43512500  0.58638200  1
  Sn  Sn37  1  0.98762300  0.54188700  0.66438100  1
  Sn  Sn38  1  0.28171500  0.28171500  0.22030400  1
  Sn  Sn39  1  0.19753600  0.43439600  0.09295600  1
