# generated using pymatgen
data_Ge5Ir4
_symmetry_space_group_name_H-M   'P 1'
_cell_length_a   5.69136500
_cell_length_b   5.69136500
_cell_length_c   18.56880900
_cell_angle_alpha   90.00000000
_cell_angle_beta   90.00000000
_cell_angle_gamma   90.00000000
_symmetry_Int_Tables_number   1
_chemical_formula_structural   Ge5Ir4
_chemical_formula_sum   'Ge20 Ir16'
_cell_volume   601.47409397
_cell_formula_units_Z   4
loop_
 _symmetry_equiv_pos_site_id
 _symmetry_equiv_pos_as_xyz
  1  'x, y, z'
loop_
 _atom_site_type_symbol
 _atom_site_label
 _atom_site_symmetry_multiplicity
 _atom_site_fract_x
 _atom_site_fract_y
 _atom_site_fract_z
 _atom_site_occupancy
  Ge  Ge0  1  0.32242000  0.32242000  0.25000000  1
  Ge  Ge1  1  0.32242000  0.67758000  0.75000000  1
  Ge  Ge2  1  0.67758000  0.32242000  0.75000000  1
  Ge  Ge3  1  0.67758000  0.67758000  0.25000000  1
  Ge  Ge4  1  0.34268000  0.19773300  0.05507600  1
  Ge  Ge5  1  0.19773300  0.65732000  0.94492400  1
  Ge  Ge6  1  0.80226700  0.34268000  0.94492400  1
  Ge  Ge7  1  0.65732000  0.80226700  0.05507600  1
  Ge  Ge8  1  0.19773300  0.34268000  0.44492400  1
  Ge  Ge9  1  0.80226700  0.65732000  0.44492400  1
  Ge  Ge10  1  0.65732000  0.19773300  0.55507600  1
  Ge  Ge11  1  0.34268000  0.80226700  0.55507600  1
  Ge  Ge12  1  0.85493100  0.22425300  0.14462000  1
  Ge  Ge13  1  0.22425300  0.14506900  0.85538000  1
  Ge  Ge14  1  0.77574700  0.85493100  0.85538000  1
  Ge  Ge15  1  0.14506900  0.77574700  0.14462000  1
  Ge  Ge16  1  0.22425300  0.85493100  0.35538000  1
  Ge  Ge17  1  0.77574700  0.14506900  0.35538000  1
  Ge  Ge18  1  0.14506900  0.22425300  0.64462000  1
  Ge  Ge19  1  0.85493100  0.77574700  0.64462000  1
  Ir  Ir20  1  0.00000000  0.00000000  0.25000000  1
  Ir  Ir21  1  0.00000000  0.00000000  0.75000000  1
  Ir  Ir22  1  0.00000000  0.00000000  0.00000000  1
  Ir  Ir23  1  0.00000000  0.00000000  0.50000000  1
  Ir  Ir24  1  0.50000000  0.50000000  0.13595300  1
  Ir  Ir25  1  0.50000000  0.50000000  0.86404700  1
  Ir  Ir26  1  0.50000000  0.50000000  0.36404700  1
  Ir  Ir27  1  0.50000000  0.50000000  0.63595300  1
  Ir  Ir28  1  0.00000000  0.50000000  0.05557800  1
  Ir  Ir29  1  0.50000000  0.00000000  0.94442200  1
  Ir  Ir30  1  0.50000000  0.00000000  0.44442200  1
  Ir  Ir31  1  0.00000000  0.50000000  0.55557800  1
  Ir  Ir32  1  0.00000000  0.50000000  0.32332500  1
  Ir  Ir33  1  0.50000000  0.00000000  0.67667500  1
  Ir  Ir34  1  0.50000000  0.00000000  0.17667500  1
  Ir  Ir35  1  0.00000000  0.50000000  0.82332500  1
