# generated using pymatgen
data_Np2H12SO14
_symmetry_space_group_name_H-M   'P 1'
_cell_length_a   19.19845200
_cell_length_b   7.98165900
_cell_length_c   8.24052157
_cell_angle_alpha   83.74401848
_cell_angle_beta   90.00000000
_cell_angle_gamma   90.00000000
_symmetry_Int_Tables_number   1
_chemical_formula_structural   Np2H12SO14
_chemical_formula_sum   'Np8 H48 S4 O56'
_cell_volume   1255.22076024
_cell_formula_units_Z   4
loop_
 _symmetry_equiv_pos_site_id
 _symmetry_equiv_pos_as_xyz
  1  'x, y, z'
loop_
 _atom_site_type_symbol
 _atom_site_label
 _atom_site_symmetry_multiplicity
 _atom_site_fract_x
 _atom_site_fract_y
 _atom_site_fract_z
 _atom_site_occupancy
  Np  Np0  1  0.64352400  0.66071100  0.80314100  1
  Np  Np1  1  0.36110500  0.24023300  0.69859500  1
  Np  Np2  1  0.85647600  0.66071100  0.30314100  1
  Np  Np3  1  0.63889500  0.75976700  0.30140500  1
  Np  Np4  1  0.86110500  0.75976700  0.80140500  1
  Np  Np5  1  0.13889500  0.24023300  0.19859500  1
  Np  Np6  1  0.14352400  0.33928900  0.69685900  1
  Np  Np7  1  0.35647600  0.33928900  0.19685900  1
  H  H8  1  0.71304000  0.09905400  0.32314500  1
  H  H9  1  0.09492000  0.97523200  0.62737800  1
  H  H10  1  0.50093900  0.45841100  0.71007100  1
  H  H11  1  0.90508000  0.02476800  0.37262200  1
  H  H12  1  0.28696000  0.90094600  0.67685500  1
  H  H13  1  0.76497600  0.06154900  0.64585300  1
  H  H14  1  0.23502400  0.93845100  0.35414700  1
  H  H15  1  0.43494500  0.92472100  0.62160300  1
  H  H16  1  0.41160700  0.75006400  0.00186500  1
  H  H17  1  0.11449300  0.96344000  0.81294100  1
  H  H18  1  0.78696000  0.09905400  0.82314500  1
  H  H19  1  0.88550700  0.03656000  0.18705900  1
  H  H20  1  0.15585000  0.59187600  0.37249200  1
  H  H21  1  0.54803900  0.06257200  0.19140600  1
  H  H22  1  0.70092000  0.32918300  0.99382800  1
  H  H23  1  0.34415000  0.59187600  0.87249200  1
  H  H24  1  0.45196100  0.93742800  0.80859400  1
  H  H25  1  0.38550700  0.96344000  0.31294100  1
  H  H26  1  0.01112500  0.78700100  0.55239200  1
  H  H27  1  0.79908000  0.32918300  0.49382800  1
  H  H28  1  0.51112500  0.21299900  0.94760800  1
  H  H29  1  0.04803900  0.93742800  0.30859400  1
  H  H30  1  0.06505500  0.92472100  0.12160300  1
  H  H31  1  0.98079500  0.30136500  0.11360600  1
  H  H32  1  0.48079500  0.69863500  0.38639400  1
  H  H33  1  0.95196100  0.06257200  0.69140600  1
  H  H34  1  0.65585000  0.40812400  0.12750800  1
  H  H35  1  0.56505500  0.07527900  0.37839700  1
  H  H36  1  0.21304000  0.90094600  0.17685500  1
  H  H37  1  0.61449300  0.03656000  0.68705900  1
  H  H38  1  0.51920500  0.30136500  0.61360600  1
  H  H39  1  0.99906100  0.45841100  0.21007100  1
  H  H40  1  0.01920500  0.69863500  0.88639400  1
  H  H41  1  0.08839300  0.75006400  0.50186500  1
  H  H42  1  0.29908000  0.67081700  0.00617200  1
  H  H43  1  0.58839300  0.24993600  0.99813500  1
  H  H44  1  0.84415000  0.40812400  0.62750800  1
  H  H45  1  0.40508000  0.97523200  0.12737800  1
  H  H46  1  0.59492000  0.02476800  0.87262200  1
  H  H47  1  0.20092000  0.67081700  0.50617200  1
  H  H48  1  0.49906100  0.54158900  0.28992900  1
  H  H49  1  0.98887500  0.21299900  0.44760800  1
  H  H50  1  0.26497600  0.93845100  0.85414700  1
  H  H51  1  0.48887500  0.78700100  0.05239200  1
  H  H52  1  0.00093900  0.54158900  0.78992900  1
  H  H53  1  0.93494500  0.07527900  0.87839700  1
  H  H54  1  0.91160700  0.24993600  0.49813500  1
  H  H55  1  0.73502400  0.06154900  0.14585300  1
  S  S56  1  0.65729000  0.32782800  0.50031000  1
  S  S57  1  0.34271000  0.67217200  0.49969000  1
  S  S58  1  0.84271000  0.32782800  0.00031000  1
  S  S59  1  0.15729000  0.67217200  0.99969000  1
  O  O60  1  0.79885000  0.03042200  0.73311100  1
  O  O61  1  0.05299400  0.84172300  0.50446500  1
  O  O62  1  0.98164400  0.64685800  0.82651800  1
  O  O63  1  0.36951300  0.26241800  0.92260300  1
  O  O64  1  0.75999200  0.69489100  0.31289700  1
  O  O65  1  0.01835600  0.35314200  0.17348200  1
  O  O66  1  0.12309400  0.03103900  0.70748900  1
  O  O67  1  0.44700600  0.84172300  0.00446500  1
  O  O68  1  0.45036500  0.38382600  0.20581600  1
  O  O69  1  0.90411700  0.21308900  0.02401200  1
  O  O70  1  0.55299400  0.15827700  0.99553500  1
  O  O71  1  0.44615300  0.00585000  0.70037600  1
  O  O72  1  0.13048700  0.26241800  0.42260300  1
  O  O73  1  0.55384700  0.99415000  0.29962400  1
  O  O74  1  0.40411700  0.78691100  0.47598800  1
  O  O75  1  0.62309400  0.96896100  0.79251100  1
  O  O76  1  0.34388300  0.61110800  0.98914200  1
  O  O77  1  0.87690600  0.96896100  0.29251100  1
  O  O78  1  0.64689400  0.44799000  0.34879600  1
  O  O79  1  0.22125600  0.77585800  0.02160500  1
  O  O80  1  0.94615300  0.99415000  0.79962400  1
  O  O81  1  0.85310600  0.44799000  0.84879600  1
  O  O82  1  0.64396300  0.78317400  0.52476000  1
  O  O83  1  0.33299000  0.57883900  0.35602400  1
  O  O84  1  0.86951300  0.73758200  0.57739700  1
  O  O85  1  0.95036500  0.61617400  0.29418400  1
  O  O86  1  0.85603700  0.78317400  0.02476000  1
  O  O87  1  0.74000800  0.69489100  0.81289700  1
  O  O88  1  0.94700600  0.15827700  0.49553500  1
  O  O89  1  0.83299000  0.42116100  0.14397600  1
  O  O90  1  0.65611700  0.38889200  0.01085800  1
  O  O91  1  0.70115000  0.03042200  0.23311100  1
  O  O92  1  0.48164400  0.35314200  0.67348200  1
  O  O93  1  0.14689400  0.55201000  0.15120400  1
  O  O94  1  0.29885000  0.96957800  0.76688900  1
  O  O95  1  0.35603700  0.21682600  0.47524000  1
  O  O96  1  0.27874400  0.77585800  0.52160500  1
  O  O97  1  0.25999200  0.30510900  0.18710300  1
  O  O98  1  0.05384700  0.00585000  0.20037600  1
  O  O99  1  0.04963500  0.38382600  0.70581600  1
  O  O100  1  0.20115000  0.96957800  0.26688900  1
  O  O101  1  0.16701000  0.57883900  0.85602400  1
  O  O102  1  0.15611700  0.61110800  0.48914200  1
  O  O103  1  0.51835600  0.64685800  0.32651800  1
  O  O104  1  0.37690600  0.03103900  0.20748900  1
  O  O105  1  0.14396300  0.21682600  0.97524000  1
  O  O106  1  0.09588300  0.78691100  0.97598800  1
  O  O107  1  0.24000800  0.30510900  0.68710300  1
  O  O108  1  0.72125600  0.22414200  0.47839500  1
  O  O109  1  0.35310600  0.55201000  0.65120400  1
  O  O110  1  0.63048700  0.73758200  0.07739700  1
  O  O111  1  0.84388300  0.38889200  0.51085800  1
  O  O112  1  0.77874400  0.22414200  0.97839500  1
  O  O113  1  0.66701000  0.42116100  0.64397600  1
  O  O114  1  0.59588300  0.21308900  0.52401200  1
  O  O115  1  0.54963500  0.61617400  0.79418400  1
