# generated using pymatgen
data_Rb2SbAuS4
_symmetry_space_group_name_H-M   'P 1'
_cell_length_a   7.03085100
_cell_length_b   7.40093500
_cell_length_c   20.51561200
_cell_angle_alpha   90.00000000
_cell_angle_beta   90.00000000
_cell_angle_gamma   90.00000000
_symmetry_Int_Tables_number   1
_chemical_formula_structural   Rb2SbAuS4
_chemical_formula_sum   'Rb8 Sb4 Au4 S16'
_cell_volume   1067.52722895
_cell_formula_units_Z   4
loop_
 _symmetry_equiv_pos_site_id
 _symmetry_equiv_pos_as_xyz
  1  'x, y, z'
loop_
 _atom_site_type_symbol
 _atom_site_label
 _atom_site_symmetry_multiplicity
 _atom_site_fract_x
 _atom_site_fract_y
 _atom_site_fract_z
 _atom_site_occupancy
  Rb  Rb0  1  0.29592800  0.75000000  0.98785400  1
  Rb  Rb1  1  0.90030000  0.25000000  0.32910800  1
  Rb  Rb2  1  0.70407200  0.25000000  0.01214600  1
  Rb  Rb3  1  0.29592800  0.25000000  0.51214600  1
  Rb  Rb4  1  0.09970000  0.75000000  0.67089200  1
  Rb  Rb5  1  0.09970000  0.25000000  0.82910800  1
  Rb  Rb6  1  0.70407200  0.75000000  0.48785400  1
  Rb  Rb7  1  0.90030000  0.75000000  0.17089200  1
  Sb  Sb8  1  0.79210100  0.75000000  0.88904900  1
  Sb  Sb9  1  0.79210100  0.25000000  0.61095100  1
  Sb  Sb10  1  0.20789900  0.25000000  0.11095100  1
  Sb  Sb11  1  0.20789900  0.75000000  0.38904900  1
  Au  Au12  1  0.60971400  0.00000000  0.75000000  1
  Au  Au13  1  0.39028600  0.00000000  0.25000000  1
  Au  Au14  1  0.60971400  0.50000000  0.75000000  1
  Au  Au15  1  0.39028600  0.50000000  0.25000000  1
  S  S16  1  0.61117800  0.51676900  0.63750600  1
  S  S17  1  0.79805100  0.25000000  0.49694100  1
  S  S18  1  0.38882200  0.01676900  0.36249400  1
  S  S19  1  0.08980700  0.25000000  0.66094700  1
  S  S20  1  0.61117800  0.98323100  0.63750600  1
  S  S21  1  0.61117800  0.48323100  0.86249400  1
  S  S22  1  0.20194900  0.25000000  0.99694100  1
  S  S23  1  0.91019300  0.25000000  0.16094700  1
  S  S24  1  0.20194900  0.75000000  0.50305900  1
  S  S25  1  0.38882200  0.48323100  0.36249400  1
  S  S26  1  0.61117800  0.01676900  0.86249400  1
  S  S27  1  0.38882200  0.51676900  0.13750600  1
  S  S28  1  0.91019300  0.75000000  0.33905300  1
  S  S29  1  0.79805100  0.75000000  0.00305900  1
  S  S30  1  0.08980700  0.75000000  0.83905300  1
  S  S31  1  0.38882200  0.98323100  0.13750600  1
