# generated using pymatgen
data_K3Nb2AsSe11
_symmetry_space_group_name_H-M   'P 1'
_cell_length_a   10.14478449
_cell_length_b   10.14478449
_cell_length_c   10.09721085
_cell_angle_alpha   82.85039004
_cell_angle_beta   82.85039004
_cell_angle_gamma   82.47342233
_symmetry_Int_Tables_number   1
_chemical_formula_structural   K3Nb2AsSe11
_chemical_formula_sum   'K6 Nb4 As2 Se22'
_cell_volume   1016.00958953
_cell_formula_units_Z   2
loop_
 _symmetry_equiv_pos_site_id
 _symmetry_equiv_pos_as_xyz
  1  'x, y, z'
loop_
 _atom_site_type_symbol
 _atom_site_label
 _atom_site_symmetry_multiplicity
 _atom_site_fract_x
 _atom_site_fract_y
 _atom_site_fract_z
 _atom_site_occupancy
  K  K0  1  0.89941400  0.05565600  0.74994900  1
  K  K1  1  0.05565600  0.89941400  0.24994900  1
  K  K2  1  0.80051900  0.66277100  0.91621200  1
  K  K3  1  0.66277100  0.80051900  0.41621200  1
  K  K4  1  0.27232700  0.43081100  0.16523500  1
  K  K5  1  0.43081100  0.27232700  0.66523500  1
  Nb  Nb6  1  0.41016000  0.82675500  0.83067100  1
  Nb  Nb7  1  0.82675500  0.41016000  0.33067100  1
  Nb  Nb8  1  0.15755800  0.70896700  0.64647400  1
  Nb  Nb9  1  0.70896700  0.15755800  0.14647400  1
  As  As10  1  0.04555100  0.35099100  0.59756700  1
  As  As11  1  0.35099100  0.04555100  0.09756700  1
  Se  Se12  1  0.14143900  0.74008200  0.90388800  1
  Se  Se13  1  0.74008200  0.14143900  0.40388800  1
  Se  Se14  1  0.25916700  0.94361900  0.62738400  1
  Se  Se15  1  0.94361900  0.25916700  0.12738400  1
  Se  Se16  1  0.44107300  0.64024500  0.66778800  1
  Se  Se17  1  0.64024500  0.44107300  0.16778800  1
  Se  Se18  1  0.19874300  0.50730200  0.49220900  1
  Se  Se19  1  0.50730200  0.19874300  0.99220900  1
  Se  Se20  1  0.22567700  0.03282300  0.90511100  1
  Se  Se21  1  0.03282300  0.22567700  0.40511100  1
  Se  Se22  1  0.13153900  0.51898700  0.84375600  1
  Se  Se23  1  0.51898700  0.13153900  0.34375600  1
  Se  Se24  1  0.44170700  0.81467300  0.08932900  1
  Se  Se25  1  0.81467300  0.44170700  0.58932900  1
  Se  Se26  1  0.49323400  0.57454300  0.89238600  1
  Se  Se27  1  0.57454300  0.49323400  0.39238600  1
  Se  Se28  1  0.31065200  0.81562700  0.43908500  1
  Se  Se29  1  0.81562700  0.31065200  0.93908500  1
  Se  Se30  1  0.59717800  0.94246900  0.74692900  1
  Se  Se31  1  0.94246900  0.59717800  0.24692900  1
  Se  Se32  1  0.93833500  0.78502600  0.58659900  1
  Se  Se33  1  0.78502600  0.93833500  0.08659900  1
