# generated using pymatgen
data_Na3Mg2P5O16
_symmetry_space_group_name_H-M   'P 1'
_cell_length_a   6.94319100
_cell_length_b   5.24044700
_cell_length_c   18.84087628
_cell_angle_alpha   89.76663331
_cell_angle_beta   90.00000000
_cell_angle_gamma   90.00000000
_symmetry_Int_Tables_number   1
_chemical_formula_structural   Na3Mg2P5O16
_chemical_formula_sum   'Na6 Mg4 P10 O32'
_cell_volume   685.52759408
_cell_formula_units_Z   2
loop_
 _symmetry_equiv_pos_site_id
 _symmetry_equiv_pos_as_xyz
  1  'x, y, z'
loop_
 _atom_site_type_symbol
 _atom_site_label
 _atom_site_symmetry_multiplicity
 _atom_site_fract_x
 _atom_site_fract_y
 _atom_site_fract_z
 _atom_site_occupancy
  Na  Na0  1  0.64812500  0.74773900  0.03236000  1
  Na  Na1  1  0.03422400  0.50000000  0.75000000  1
  Na  Na2  1  0.35187500  0.25226100  0.96764000  1
  Na  Na3  1  0.35187500  0.74773900  0.53236000  1
  Na  Na4  1  0.96577600  0.50000000  0.25000000  1
  Na  Na5  1  0.64812500  0.25226100  0.46764000  1
  Mg  Mg6  1  0.17786200  0.73136800  0.09197900  1
  Mg  Mg7  1  0.17786200  0.26863200  0.40802100  1
  Mg  Mg8  1  0.82213800  0.26863200  0.90802100  1
  Mg  Mg9  1  0.82213800  0.73136800  0.59197900  1
  P  P10  1  0.74056600  0.00000000  0.75000000  1
  P  P11  1  0.25943400  0.00000000  0.25000000  1
  P  P12  1  0.47438200  0.24216200  0.13001900  1
  P  P13  1  0.47438200  0.75783800  0.36998100  1
  P  P14  1  0.87770000  0.77175400  0.41704900  1
  P  P15  1  0.52561800  0.75783800  0.86998100  1
  P  P16  1  0.12230000  0.77175400  0.91704900  1
  P  P17  1  0.12230000  0.22824600  0.58295100  1
  P  P18  1  0.52561800  0.24216200  0.63001900  1
  P  P19  1  0.87770000  0.22824600  0.08295100  1
  O  O20  1  0.39862200  0.03663100  0.08102000  1
  O  O21  1  0.60137800  0.96336900  0.91898000  1
  O  O22  1  0.60137800  0.03663100  0.58102000  1
  O  O23  1  0.70043100  0.78665000  0.35627700  1
  O  O24  1  0.39862200  0.96336900  0.41898000  1
  O  O25  1  0.59585800  0.80776700  0.78978900  1
  O  O26  1  0.43065300  0.51380500  0.10931400  1
  O  O27  1  0.97820600  0.59609600  0.88093100  1
  O  O28  1  0.14890100  0.16197700  0.30121100  1
  O  O29  1  0.21711100  0.33989500  0.51617000  1
  O  O30  1  0.97820600  0.40390400  0.61906900  1
  O  O31  1  0.02179400  0.59609600  0.38093100  1
  O  O32  1  0.93691600  0.04888500  0.42574500  1
  O  O33  1  0.85109900  0.16197700  0.80121100  1
  O  O34  1  0.21711100  0.66010500  0.98383000  1
  O  O35  1  0.43065300  0.48619500  0.39068600  1
  O  O36  1  0.40414200  0.19223300  0.21021100  1
  O  O37  1  0.93691600  0.95111500  0.07425500  1
  O  O38  1  0.06308400  0.95111500  0.57425500  1
  O  O39  1  0.59585800  0.19223300  0.71021100  1
  O  O40  1  0.78288900  0.33989500  0.01617000  1
  O  O41  1  0.14890100  0.83802300  0.19878900  1
  O  O42  1  0.29956900  0.78665000  0.85627700  1
  O  O43  1  0.02179400  0.40390400  0.11906900  1
  O  O44  1  0.06308400  0.04888500  0.92574500  1
  O  O45  1  0.56934700  0.48619500  0.89068600  1
  O  O46  1  0.29956900  0.21335000  0.64372300  1
  O  O47  1  0.56934700  0.51380500  0.60931400  1
  O  O48  1  0.78288900  0.66010500  0.48383000  1
  O  O49  1  0.70043100  0.21335000  0.14372300  1
  O  O50  1  0.40414200  0.80776700  0.28978900  1
  O  O51  1  0.85109900  0.83802300  0.69878900  1
