# generated using pymatgen
data_Ba4W(N2Cl)2
_symmetry_space_group_name_H-M   'P 1'
_cell_length_a   6.24006100
_cell_length_b   8.56835900
_cell_length_c   10.91093525
_cell_angle_alpha   81.17073882
_cell_angle_beta   90.00000000
_cell_angle_gamma   90.00000000
_symmetry_Int_Tables_number   1
_chemical_formula_structural   Ba4W(N2Cl)2
_chemical_formula_sum   'Ba8 W2 N8 Cl4'
_cell_volume   576.46294586
_cell_formula_units_Z   2
loop_
 _symmetry_equiv_pos_site_id
 _symmetry_equiv_pos_as_xyz
  1  'x, y, z'
loop_
 _atom_site_type_symbol
 _atom_site_label
 _atom_site_symmetry_multiplicity
 _atom_site_fract_x
 _atom_site_fract_y
 _atom_site_fract_z
 _atom_site_occupancy
  Ba  Ba0  1  0.75000000  0.28637200  0.29376000  1
  Ba  Ba1  1  0.75000000  0.00350500  0.62747000  1
  Ba  Ba2  1  0.75000000  0.44481800  0.62237900  1
  Ba  Ba3  1  0.75000000  0.81432400  0.09081500  1
  Ba  Ba4  1  0.25000000  0.99649500  0.37253000  1
  Ba  Ba5  1  0.25000000  0.55518200  0.37762100  1
  Ba  Ba6  1  0.25000000  0.18567600  0.90918500  1
  Ba  Ba7  1  0.25000000  0.71362800  0.70624000  1
  W  W8  1  0.75000000  0.77097600  0.39955400  1
  W  W9  1  0.25000000  0.22902400  0.60044600  1
  N  N10  1  0.25000000  0.03659500  0.70969200  1
  N  N11  1  0.00324500  0.24547800  0.49814700  1
  N  N12  1  0.50324500  0.75452200  0.50185300  1
  N  N13  1  0.99675500  0.75452200  0.50185300  1
  N  N14  1  0.75000000  0.61034500  0.29899100  1
  N  N15  1  0.75000000  0.96340500  0.29030800  1
  N  N16  1  0.49675500  0.24547800  0.49814700  1
  N  N17  1  0.25000000  0.38965500  0.70100900  1
  Cl  Cl18  1  0.25000000  0.32640300  0.16532900  1
  Cl  Cl19  1  0.75000000  0.67359700  0.83467100  1
  Cl  Cl20  1  0.25000000  0.84098700  0.09835900  1
  Cl  Cl21  1  0.75000000  0.15901300  0.90164100  1
