# generated using pymatgen
data_ErNbO4
_symmetry_space_group_name_H-M   'P 1'
_cell_length_a   6.56606741
_cell_length_b   6.56606741
_cell_length_c   5.13049585
_cell_angle_alpha   68.68142461
_cell_angle_beta   68.68142461
_cell_angle_gamma   114.29739695
_symmetry_Int_Tables_number   1
_chemical_formula_structural   ErNbO4
_chemical_formula_sum   'Er2 Nb2 O8'
_cell_volume   149.62453554
_cell_formula_units_Z   2
loop_
 _symmetry_equiv_pos_site_id
 _symmetry_equiv_pos_as_xyz
  1  'x, y, z'
loop_
 _atom_site_type_symbol
 _atom_site_label
 _atom_site_symmetry_multiplicity
 _atom_site_fract_x
 _atom_site_fract_y
 _atom_site_fract_z
 _atom_site_occupancy
  Er  Er0  1  0.62794300  0.37205700  0.75000000  1
  Er  Er1  1  0.37205700  0.62794300  0.25000000  1
  Nb  Nb2  1  0.10922700  0.89077300  0.75000000  1
  Nb  Nb3  1  0.89077300  0.10922700  0.25000000  1
  O  O4  1  0.78062700  0.71583600  0.20579900  1
  O  O5  1  0.28416400  0.21937300  0.29420100  1
  O  O6  1  0.21937300  0.28416400  0.79420100  1
  O  O7  1  0.71583600  0.78062700  0.70579900  1
  O  O8  1  0.37412900  0.95140300  0.83997600  1
  O  O9  1  0.04859700  0.62587100  0.66002400  1
  O  O10  1  0.62587100  0.04859700  0.16002400  1
  O  O11  1  0.95140300  0.37412900  0.33997600  1
