# generated using pymatgen
data_Na3Sc2(BO3)3
_symmetry_space_group_name_H-M   'P 1'
_cell_length_a   8.37150965
_cell_length_b   8.37150965
_cell_length_c   8.37150964
_cell_angle_alpha   62.55807396
_cell_angle_beta   62.55807396
_cell_angle_gamma   62.55807668
_symmetry_Int_Tables_number   1
_chemical_formula_structural   Na3Sc2(BO3)3
_chemical_formula_sum   'Na6 Sc4 B6 O18'
_cell_volume   438.49450319
_cell_formula_units_Z   2
loop_
 _symmetry_equiv_pos_site_id
 _symmetry_equiv_pos_as_xyz
  1  'x, y, z'
loop_
 _atom_site_type_symbol
 _atom_site_label
 _atom_site_symmetry_multiplicity
 _atom_site_fract_x
 _atom_site_fract_y
 _atom_site_fract_z
 _atom_site_occupancy
  Na  Na0  1  0.58450800  0.91549200  0.25000000  1
  Na  Na1  1  0.41549200  0.08450800  0.75000000  1
  Na  Na2  1  0.25000000  0.58450800  0.91549200  1
  Na  Na3  1  0.08450800  0.75000000  0.41549200  1
  Na  Na4  1  0.91549200  0.25000000  0.58450800  1
  Na  Na5  1  0.75000000  0.41549200  0.08450800  1
  Sc  Sc6  1  0.82811500  0.82811500  0.82811500  1
  Sc  Sc7  1  0.17188500  0.17188500  0.17188500  1
  Sc  Sc8  1  0.67188500  0.67188500  0.67188500  1
  Sc  Sc9  1  0.32811500  0.32811500  0.32811500  1
  B  B10  1  0.91113800  0.58886200  0.25000000  1
  B  B11  1  0.25000000  0.91113800  0.58886200  1
  B  B12  1  0.08886200  0.41113800  0.75000000  1
  B  B13  1  0.41113800  0.75000000  0.08886200  1
  B  B14  1  0.58886200  0.25000000  0.91113800  1
  B  B15  1  0.75000000  0.08886200  0.41113800  1
  O  O16  1  0.90652400  0.15078400  0.31392200  1
  O  O17  1  0.40652400  0.81392200  0.65078400  1
  O  O18  1  0.09347600  0.84921600  0.68607800  1
  O  O19  1  0.31392200  0.90652400  0.15078400  1
  O  O20  1  0.81392200  0.65078400  0.40652400  1
  O  O21  1  0.57123700  0.75000000  0.92876300  1
  O  O22  1  0.34921600  0.59347600  0.18607800  1
  O  O23  1  0.42876300  0.25000000  0.07123700  1
  O  O24  1  0.18607800  0.34921600  0.59347600  1
  O  O25  1  0.15078400  0.31392200  0.90652400  1
  O  O26  1  0.59347600  0.18607800  0.34921600  1
  O  O27  1  0.84921600  0.68607800  0.09347600  1
  O  O28  1  0.92876300  0.57123700  0.75000000  1
  O  O29  1  0.65078400  0.40652400  0.81392200  1
  O  O30  1  0.25000000  0.07123700  0.42876300  1
  O  O31  1  0.07123700  0.42876300  0.25000000  1
  O  O32  1  0.68607800  0.09347600  0.84921600  1
  O  O33  1  0.75000000  0.92876300  0.57123700  1
