# generated using pymatgen
data_NdMgSi2
_symmetry_space_group_name_H-M   'P 1'
_cell_length_a   18.65577684
_cell_length_b   18.65577684
_cell_length_c   18.65577684
_cell_angle_alpha   166.88595679
_cell_angle_beta   166.88595679
_cell_angle_gamma   18.58699707
_symmetry_Int_Tables_number   1
_chemical_formula_structural   NdMgSi2
_chemical_formula_sum   'Nd4 Mg4 Si8'
_cell_volume   334.22035905
_cell_formula_units_Z   4
loop_
 _symmetry_equiv_pos_site_id
 _symmetry_equiv_pos_as_xyz
  1  'x, y, z'
loop_
 _atom_site_type_symbol
 _atom_site_label
 _atom_site_symmetry_multiplicity
 _atom_site_fract_x
 _atom_site_fract_y
 _atom_site_fract_z
 _atom_site_occupancy
  Nd  Nd0  1  0.82774100  0.32774100  0.50000000  1
  Nd  Nd1  1  0.67225900  0.17225900  0.50000000  1
  Nd  Nd2  1  0.07774100  0.07774100  0.00000000  1
  Nd  Nd3  1  0.92225900  0.92225900  0.00000000  1
  Mg  Mg4  1  0.24999700  0.24999700  0.00000000  1
  Mg  Mg5  1  0.99999700  0.49999700  0.50000000  1
  Mg  Mg6  1  0.50000300  0.00000300  0.50000000  1
  Mg  Mg7  1  0.75000300  0.75000300  0.00000000  1
  Si  Si8  1  0.20210600  0.70210600  0.50000000  1
  Si  Si9  1  0.38917000  0.38917000  0.00000000  1
  Si  Si10  1  0.29789400  0.79789400  0.50000000  1
  Si  Si11  1  0.54789400  0.54789400  0.00000000  1
  Si  Si12  1  0.61083000  0.61083000  0.00000000  1
  Si  Si13  1  0.45210600  0.45210600  0.00000000  1
  Si  Si14  1  0.13917000  0.63917000  0.50000000  1
  Si  Si15  1  0.36083000  0.86083000  0.50000000  1
