# generated using pymatgen
data_K2UAs2O9
_symmetry_space_group_name_H-M   'P 1'
_cell_length_a   5.79354100
_cell_length_b   12.77036400
_cell_length_c   13.51120700
_cell_angle_alpha   90.00000000
_cell_angle_beta   90.00000000
_cell_angle_gamma   90.00000000
_symmetry_Int_Tables_number   1
_chemical_formula_structural   K2UAs2O9
_chemical_formula_sum   'K8 U4 As8 O36'
_cell_volume   999.63512708
_cell_formula_units_Z   4
loop_
 _symmetry_equiv_pos_site_id
 _symmetry_equiv_pos_as_xyz
  1  'x, y, z'
loop_
 _atom_site_type_symbol
 _atom_site_label
 _atom_site_symmetry_multiplicity
 _atom_site_fract_x
 _atom_site_fract_y
 _atom_site_fract_z
 _atom_site_occupancy
  K  K0  1  0.49552900  0.00000000  0.32929300  1
  K  K1  1  0.50447100  0.50000000  0.17070700  1
  K  K2  1  0.50447100  0.50000000  0.82929300  1
  K  K3  1  0.49552900  0.00000000  0.67070700  1
  K  K4  1  0.51648500  0.17134800  0.00000000  1
  K  K5  1  0.51648500  0.82865200  0.00000000  1
  K  K6  1  0.48351500  0.67134800  0.50000000  1
  K  K7  1  0.48351500  0.32865200  0.50000000  1
  U  U8  1  0.00000000  0.25000000  0.75000000  1
  U  U9  1  0.00000000  0.75000000  0.75000000  1
  U  U10  1  0.00000000  0.25000000  0.25000000  1
  U  U11  1  0.00000000  0.75000000  0.25000000  1
  As  As12  1  0.97844300  0.50000000  0.38032800  1
  As  As13  1  0.99526900  0.37139400  0.00000000  1
  As  As14  1  0.97844300  0.50000000  0.61967200  1
  As  As15  1  0.00473100  0.12860600  0.50000000  1
  As  As16  1  0.00473100  0.87139400  0.50000000  1
  As  As17  1  0.02155700  0.00000000  0.88032800  1
  As  As18  1  0.02155700  0.00000000  0.11967200  1
  As  As19  1  0.99526900  0.62860600  0.00000000  1
  O  O20  1  0.72868000  0.81958200  0.26840100  1
  O  O21  1  0.15395800  0.89184400  0.17111700  1
  O  O22  1  0.28298200  0.37573400  0.00000000  1
  O  O23  1  0.86317700  0.31404500  0.10110100  1
  O  O24  1  0.86049900  0.50000000  0.00000000  1
  O  O25  1  0.71701800  0.87573400  0.50000000  1
  O  O26  1  0.27132000  0.68041800  0.23159900  1
  O  O27  1  0.13682300  0.18595500  0.39889900  1
  O  O28  1  0.13682300  0.81404500  0.60110100  1
  O  O29  1  0.72868000  0.18041800  0.73159900  1
  O  O30  1  0.26519100  0.50000000  0.38826100  1
  O  O31  1  0.15395800  0.10815600  0.82888300  1
  O  O32  1  0.16223200  0.00000000  0.00000000  1
  O  O33  1  0.83776800  0.50000000  0.50000000  1
  O  O34  1  0.13950100  0.00000000  0.50000000  1
  O  O35  1  0.27132000  0.31958200  0.76840100  1
  O  O36  1  0.86317700  0.31404500  0.89889900  1
  O  O37  1  0.86317700  0.68595500  0.89889900  1
  O  O38  1  0.27132000  0.68041800  0.76840100  1
  O  O39  1  0.84604200  0.60815600  0.67111700  1
  O  O40  1  0.15395800  0.10815600  0.17111700  1
  O  O41  1  0.13682300  0.18595500  0.60110100  1
  O  O42  1  0.15395800  0.89184400  0.82888300  1
  O  O43  1  0.84604200  0.39184400  0.67111700  1
  O  O44  1  0.72868000  0.81958200  0.73159900  1
  O  O45  1  0.26519100  0.50000000  0.61173900  1
  O  O46  1  0.84604200  0.60815600  0.32888300  1
  O  O47  1  0.73480900  0.00000000  0.11173900  1
  O  O48  1  0.28298200  0.62426600  0.00000000  1
  O  O49  1  0.86317700  0.68595500  0.10110100  1
  O  O50  1  0.13682300  0.81404500  0.39889900  1
  O  O51  1  0.73480900  0.00000000  0.88826100  1
  O  O52  1  0.84604200  0.39184400  0.32888300  1
  O  O53  1  0.71701800  0.12426600  0.50000000  1
  O  O54  1  0.27132000  0.31958200  0.23159900  1
  O  O55  1  0.72868000  0.18041800  0.26840100  1
