# generated using pymatgen
data_SbSe6IF6
_symmetry_space_group_name_H-M   'P 1'
_cell_length_a   7.25856500
_cell_length_b   9.49630200
_cell_length_c   12.01905125
_cell_angle_alpha   60.25362157
_cell_angle_beta   90.00000000
_cell_angle_gamma   90.00000000
_symmetry_Int_Tables_number   1
_chemical_formula_structural   SbSe6IF6
_chemical_formula_sum   'Sb2 Se12 I2 F12'
_cell_volume   719.30048243
_cell_formula_units_Z   2
loop_
 _symmetry_equiv_pos_site_id
 _symmetry_equiv_pos_as_xyz
  1  'x, y, z'
loop_
 _atom_site_type_symbol
 _atom_site_label
 _atom_site_symmetry_multiplicity
 _atom_site_fract_x
 _atom_site_fract_y
 _atom_site_fract_z
 _atom_site_occupancy
  Sb  Sb0  1  0.00000000  0.00000000  0.00000000  1
  Sb  Sb1  1  0.00000000  0.00000000  0.50000000  1
  Se  Se2  1  0.74295400  0.33860400  0.61158700  1
  Se  Se3  1  0.25704600  0.66139600  0.38841300  1
  Se  Se4  1  0.24540100  0.55693400  0.89015000  1
  Se  Se5  1  0.75459900  0.44306600  0.10985000  1
  Se  Se6  1  0.43229600  0.24168400  0.61619800  1
  Se  Se7  1  0.74295400  0.66139600  0.88841300  1
  Se  Se8  1  0.56770400  0.75831600  0.38380200  1
  Se  Se9  1  0.75459900  0.55693400  0.39015000  1
  Se  Se10  1  0.24540100  0.44306600  0.60985000  1
  Se  Se11  1  0.25704600  0.33860400  0.11158700  1
  Se  Se12  1  0.56770400  0.24168400  0.11619800  1
  Se  Se13  1  0.43229600  0.75831600  0.88380200  1
  I  I14  1  0.72327900  0.50000000  0.75000000  1
  I  I15  1  0.27672100  0.50000000  0.25000000  1
  F  F16  1  0.10273800  0.21097600  0.88636300  1
  F  F17  1  0.77936600  0.94366300  0.60212200  1
  F  F18  1  0.22063400  0.94366300  0.10212200  1
  F  F19  1  0.89516300  0.08302300  0.10271100  1
  F  F20  1  0.89726200  0.78902400  0.11363700  1
  F  F21  1  0.22063400  0.05633700  0.39787800  1
  F  F22  1  0.89726200  0.21097600  0.38636300  1
  F  F23  1  0.10483700  0.91697700  0.89728900  1
  F  F24  1  0.10483700  0.08302300  0.60271100  1
  F  F25  1  0.10273800  0.78902400  0.61363700  1
  F  F26  1  0.89516300  0.91697700  0.39728900  1
  F  F27  1  0.77936600  0.05633700  0.89787800  1
