# generated using pymatgen
data_Co2P3O10
_symmetry_space_group_name_H-M   'P 1'
_cell_length_a   7.85606400
_cell_length_b   8.07739412
_cell_length_c   9.51111883
_cell_angle_alpha   97.69099810
_cell_angle_beta   111.20391397
_cell_angle_gamma   113.16003697
_symmetry_Int_Tables_number   1
_chemical_formula_structural   Co2P3O10
_chemical_formula_sum   'Co4 P6 O20'
_cell_volume   489.76656718
_cell_formula_units_Z   2
loop_
 _symmetry_equiv_pos_site_id
 _symmetry_equiv_pos_as_xyz
  1  'x, y, z'
loop_
 _atom_site_type_symbol
 _atom_site_label
 _atom_site_symmetry_multiplicity
 _atom_site_fract_x
 _atom_site_fract_y
 _atom_site_fract_z
 _atom_site_occupancy
  Co  Co0  1  0.17276000  0.25628100  0.45727300  1
  Co  Co1  1  0.29828500  0.70737100  0.03248200  1
  Co  Co2  1  0.70171500  0.29262900  0.96751800  1
  Co  Co3  1  0.82724000  0.74371900  0.54272700  1
  P  P4  1  0.86113700  0.44967200  0.73123500  1
  P  P5  1  0.83038100  0.08261100  0.75522800  1
  P  P6  1  0.22377400  0.13648100  0.76725600  1
  P  P7  1  0.77622600  0.86351900  0.23274400  1
  P  P8  1  0.16961900  0.91738900  0.24477200  1
  P  P9  1  0.13886300  0.55032800  0.26876500  1
  O  O10  1  0.77308400  0.50400200  0.58748100  1
  O  O11  1  0.10175300  0.56991200  0.82586000  1
  O  O12  1  0.81192700  0.23239100  0.66197500  1
  O  O13  1  0.23938400  0.89656300  0.11630600  1
  O  O14  1  0.25592500  0.28307500  0.68192900  1
  O  O15  1  0.87417900  0.06906600  0.33264700  1
  O  O16  1  0.76187300  0.45286800  0.84413500  1
  O  O17  1  0.07503400  0.15360500  0.84761800  1
  O  O18  1  0.57221900  0.80589900  0.08108500  1
  O  O19  1  0.28419700  0.11044400  0.36675500  1
  O  O20  1  0.71580300  0.88955600  0.63324500  1
  O  O21  1  0.42778100  0.19410100  0.91891500  1
  O  O22  1  0.92496600  0.84639500  0.15238200  1
  O  O23  1  0.23812700  0.54713200  0.15586500  1
  O  O24  1  0.12582100  0.93093400  0.66735300  1
  O  O25  1  0.74407500  0.71692500  0.31807100  1
  O  O26  1  0.76061600  0.10343700  0.88369400  1
  O  O27  1  0.18807300  0.76760900  0.33802500  1
  O  O28  1  0.89824700  0.43008800  0.17414000  1
  O  O29  1  0.22691600  0.49599800  0.41251900  1
