# generated using pymatgen
data_SnH22(Cl3O5)2
_symmetry_space_group_name_H-M   'P 1'
_cell_length_a   7.34695200
_cell_length_b   9.08627300
_cell_length_c   16.34311634
_cell_angle_alpha   59.12724548
_cell_angle_beta   90.00000000
_cell_angle_gamma   90.00000000
_symmetry_Int_Tables_number   1
_chemical_formula_structural   SnH22(Cl3O5)2
_chemical_formula_sum   'Sn2 H44 Cl12 O20'
_cell_volume   936.42182522
_cell_formula_units_Z   2
loop_
 _symmetry_equiv_pos_site_id
 _symmetry_equiv_pos_as_xyz
  1  'x, y, z'
loop_
 _atom_site_type_symbol
 _atom_site_label
 _atom_site_symmetry_multiplicity
 _atom_site_fract_x
 _atom_site_fract_y
 _atom_site_fract_z
 _atom_site_occupancy
  Sn  Sn0  1  0.50000000  0.00000000  0.50000000  1
  Sn  Sn1  1  0.00000000  0.00000000  0.00000000  1
  H  H2  1  0.38967200  0.53239200  0.23853700  1
  H  H3  1  0.61032800  0.46760800  0.76146300  1
  H  H4  1  0.29673700  0.63077700  0.13672500  1
  H  H5  1  0.23035600  0.14221100  0.20694000  1
  H  H6  1  0.88967200  0.46760800  0.26146300  1
  H  H7  1  0.26964400  0.14221100  0.70694000  1
  H  H8  1  0.49966000  0.47521200  0.13716700  1
  H  H9  1  0.90262000  0.85892300  0.41690300  1
  H  H10  1  0.50842200  0.04116200  0.18183400  1
  H  H11  1  0.09738000  0.14107700  0.58309700  1
  H  H12  1  0.49612600  0.66780100  0.31462600  1
  H  H13  1  0.59738000  0.85892300  0.91690300  1
  H  H14  1  0.49157800  0.95883800  0.81816600  1
  H  H15  1  0.19364800  0.16705600  0.29394500  1
  H  H16  1  0.45897600  0.68487800  0.88452600  1
  H  H17  1  0.02034600  0.46718600  0.89125600  1
  H  H18  1  0.00842200  0.95883800  0.31816600  1
  H  H19  1  0.77978800  0.42368700  0.62714100  1
  H  H20  1  0.69364800  0.83294400  0.20605500  1
  H  H21  1  0.79673700  0.36922300  0.36327500  1
  H  H22  1  0.80635200  0.83294400  0.70605500  1
  H  H23  1  0.72021200  0.42368700  0.12714100  1
  H  H24  1  0.04102400  0.68487800  0.38452600  1
  H  H25  1  0.11032800  0.53239200  0.73853700  1
  H  H26  1  0.22021200  0.57631300  0.37285900  1
  H  H27  1  0.70326300  0.36922300  0.86327500  1
  H  H28  1  0.95897600  0.31512200  0.61547400  1
  H  H29  1  0.52034600  0.53281400  0.60874400  1
  H  H30  1  0.20326300  0.63077700  0.63672500  1
  H  H31  1  0.99612600  0.33219900  0.18537400  1
  H  H32  1  0.47965400  0.46718600  0.39125600  1
  H  H33  1  0.00387400  0.66780100  0.81462600  1
  H  H34  1  0.27978800  0.57631300  0.87285900  1
  H  H35  1  0.40262000  0.14107700  0.08309700  1
  H  H36  1  0.54102400  0.31512200  0.11547400  1
  H  H37  1  0.30635200  0.16705600  0.79394500  1
  H  H38  1  0.73035600  0.85778900  0.29306000  1
  H  H39  1  0.99966000  0.52478800  0.36283300  1
  H  H40  1  0.97965400  0.53281400  0.10874400  1
  H  H41  1  0.76964400  0.85778900  0.79306000  1
  H  H42  1  0.50034000  0.52478800  0.86283300  1
  H  H43  1  0.99157800  0.04116200  0.68183400  1
  H  H44  1  0.00034000  0.47521200  0.63716700  1
  H  H45  1  0.50387400  0.33219900  0.68537400  1
  Cl  Cl46  1  0.20373200  0.15120500  0.44449700  1
  Cl  Cl47  1  0.89097600  0.14761000  0.83585000  1
  Cl  Cl48  1  0.70373200  0.84879500  0.05550300  1
  Cl  Cl49  1  0.61727400  0.24234800  0.51525400  1
  Cl  Cl50  1  0.39097600  0.85239000  0.66415000  1
  Cl  Cl51  1  0.88272600  0.24234800  0.01525400  1
  Cl  Cl52  1  0.60902400  0.14761000  0.33585000  1
  Cl  Cl53  1  0.38272600  0.75765200  0.48474600  1
  Cl  Cl54  1  0.79626800  0.84879500  0.55550300  1
  Cl  Cl55  1  0.29626800  0.15120500  0.94449700  1
  Cl  Cl56  1  0.10902400  0.85239000  0.16415000  1
  Cl  Cl57  1  0.11727400  0.75765200  0.98474600  1
  O  O58  1  0.08457500  0.56483000  0.83787300  1
  O  O59  1  0.63842600  0.47487200  0.81882400  1
  O  O60  1  0.06363400  0.14730400  0.63960300  1
  O  O61  1  0.93636600  0.85269600  0.36039700  1
  O  O62  1  0.58457500  0.43517000  0.66212700  1
  O  O63  1  0.13842600  0.52512800  0.68117600  1
  O  O64  1  0.56363400  0.85269600  0.86039700  1
  O  O65  1  0.13148300  0.14943200  0.24634200  1
  O  O66  1  0.43636600  0.14730400  0.13960300  1
  O  O67  1  0.86157400  0.47487200  0.31882400  1
  O  O68  1  0.41093900  0.56860000  0.89690400  1
  O  O69  1  0.86851700  0.85056800  0.75365800  1
  O  O70  1  0.41542500  0.56483000  0.33787300  1
  O  O71  1  0.08906100  0.56860000  0.39690400  1
  O  O72  1  0.36851700  0.14943200  0.74634200  1
  O  O73  1  0.36157400  0.52512800  0.18117600  1
  O  O74  1  0.91542500  0.43517000  0.16212700  1
  O  O75  1  0.91093900  0.43140000  0.60309600  1
  O  O76  1  0.63148300  0.85056800  0.25365800  1
  O  O77  1  0.58906100  0.43140000  0.10309600  1
