# generated using pymatgen
data_TlAgTe
_symmetry_space_group_name_H-M   'P 1'
_cell_length_a   4.93986400
_cell_length_b   8.07616400
_cell_length_c   8.76601500
_cell_angle_alpha   90.00000000
_cell_angle_beta   90.00000000
_cell_angle_gamma   90.00000000
_symmetry_Int_Tables_number   1
_chemical_formula_structural   TlAgTe
_chemical_formula_sum   'Tl4 Ag4 Te4'
_cell_volume   349.72149912
_cell_formula_units_Z   4
loop_
 _symmetry_equiv_pos_site_id
 _symmetry_equiv_pos_as_xyz
  1  'x, y, z'
loop_
 _atom_site_type_symbol
 _atom_site_label
 _atom_site_symmetry_multiplicity
 _atom_site_fract_x
 _atom_site_fract_y
 _atom_site_fract_z
 _atom_site_occupancy
  Tl  Tl0  1  0.25000000  0.18253700  0.98780600  1
  Tl  Tl1  1  0.75000000  0.68253700  0.51219400  1
  Tl  Tl2  1  0.25000000  0.31746300  0.48780600  1
  Tl  Tl3  1  0.75000000  0.81746300  0.01219400  1
  Ag  Ag4  1  0.25000000  0.58729800  0.16904500  1
  Ag  Ag5  1  0.75000000  0.41270200  0.83095500  1
  Ag  Ag6  1  0.75000000  0.08729800  0.33095500  1
  Ag  Ag7  1  0.25000000  0.91270200  0.66904500  1
  Te  Te8  1  0.75000000  0.40265600  0.18693200  1
  Te  Te9  1  0.75000000  0.09734400  0.68693200  1
  Te  Te10  1  0.25000000  0.59734400  0.81306800  1
  Te  Te11  1  0.25000000  0.90265600  0.31306800  1
