# generated using pymatgen
data_Ce4Ru3
_symmetry_space_group_name_H-M   'P 1'
_cell_length_a   8.05205664
_cell_length_b   8.05205664
_cell_length_c   6.03041158
_cell_angle_alpha   76.05104981
_cell_angle_beta   76.05104981
_cell_angle_gamma   116.67630025
_symmetry_Int_Tables_number   1
_chemical_formula_structural   Ce4Ru3
_chemical_formula_sum   'Ce8 Ru6'
_cell_volume   310.34777243
_cell_formula_units_Z   2
loop_
 _symmetry_equiv_pos_site_id
 _symmetry_equiv_pos_as_xyz
  1  'x, y, z'
loop_
 _atom_site_type_symbol
 _atom_site_label
 _atom_site_symmetry_multiplicity
 _atom_site_fract_x
 _atom_site_fract_y
 _atom_site_fract_z
 _atom_site_occupancy
  Ce  Ce0  1  0.87881900  0.61161900  0.16545700  1
  Ce  Ce1  1  0.34873700  0.34873700  0.27653700  1
  Ce  Ce2  1  0.12118100  0.38838100  0.83454300  1
  Ce  Ce3  1  0.38838100  0.12118100  0.83454300  1
  Ce  Ce4  1  0.16612100  0.83387900  0.50000000  1
  Ce  Ce5  1  0.65126300  0.65126300  0.72346300  1
  Ce  Ce6  1  0.83387900  0.16612100  0.50000000  1
  Ce  Ce7  1  0.61161900  0.87881900  0.16545700  1
  Ru  Ru8  1  0.81788600  0.42046600  0.74474900  1
  Ru  Ru9  1  0.99327900  0.99327900  0.25047600  1
  Ru  Ru10  1  0.42046600  0.81788600  0.74474900  1
  Ru  Ru11  1  0.57953400  0.18211400  0.25525100  1
  Ru  Ru12  1  0.00672100  0.00672100  0.74952400  1
  Ru  Ru13  1  0.18211400  0.57953400  0.25525100  1
