# generated using pymatgen
data_NaV3(PO4)3
_symmetry_space_group_name_H-M   'P 1'
_cell_length_a   9.16078611
_cell_length_b   9.16078611
_cell_length_c   9.16078611
_cell_angle_alpha   137.98311874
_cell_angle_beta   108.69638476
_cell_angle_gamma   86.35921864
_symmetry_Int_Tables_number   1
_chemical_formula_structural   NaV3(PO4)3
_chemical_formula_sum   'Na2 V6 P6 O24'
_cell_volume   468.56588584
_cell_formula_units_Z   2
loop_
 _symmetry_equiv_pos_site_id
 _symmetry_equiv_pos_as_xyz
  1  'x, y, z'
loop_
 _atom_site_type_symbol
 _atom_site_label
 _atom_site_symmetry_multiplicity
 _atom_site_fract_x
 _atom_site_fract_y
 _atom_site_fract_z
 _atom_site_occupancy
  Na  Na0  1  0.25000000  0.64938400  0.39938400  1
  Na  Na1  1  0.75000000  0.35061600  0.60061600  1
  V  V2  1  0.38604100  0.88604100  0.00000000  1
  V  V3  1  0.00000000  0.00000000  0.00000000  1
  V  V4  1  0.11395900  0.11395900  0.50000000  1
  V  V5  1  0.61395900  0.11395900  0.00000000  1
  V  V6  1  0.88604100  0.88604100  0.50000000  1
  V  V7  1  0.50000000  0.50000000  0.00000000  1
  P  P8  1  0.67652200  0.67652200  0.50000000  1
  P  P9  1  0.17652200  0.67652200  0.00000000  1
  P  P10  1  0.75000000  0.83343200  0.08343200  1
  P  P11  1  0.25000000  0.16656800  0.91656800  1
  P  P12  1  0.82347800  0.32347800  0.00000000  1
  P  P13  1  0.32347800  0.32347800  0.50000000  1
  O  O14  1  0.36541800  0.71225600  0.06566400  1
  O  O15  1  0.64970700  0.42914900  0.34981200  1
  O  O16  1  0.92066300  0.57085100  0.22055800  1
  O  O17  1  0.34453500  0.39158100  0.04704500  1
  O  O18  1  0.13458200  0.20024500  0.34683700  1
  O  O19  1  0.65546500  0.60841900  0.95295500  1
  O  O20  1  0.85340800  0.20024500  0.06566400  1
  O  O21  1  0.07933700  0.42914900  0.77944200  1
  O  O22  1  0.42066300  0.20010500  0.34981200  1
  O  O23  1  0.86522600  0.98390300  0.34912900  1
  O  O24  1  0.14659200  0.79975500  0.93433600  1
  O  O25  1  0.64659200  0.71225600  0.34683700  1
  O  O26  1  0.35340800  0.28774400  0.65316300  1
  O  O27  1  0.63477400  0.98390300  0.11867700  1
  O  O28  1  0.36522600  0.01609700  0.88132300  1
  O  O29  1  0.15546500  0.20251000  0.04704500  1
  O  O30  1  0.63458200  0.28774400  0.93433600  1
  O  O31  1  0.84453500  0.79749000  0.95295500  1
  O  O32  1  0.86541800  0.79975500  0.65316300  1
  O  O33  1  0.14970700  0.79989500  0.22055800  1
  O  O34  1  0.85029300  0.20010500  0.77944200  1
  O  O35  1  0.35029300  0.57085100  0.65018800  1
  O  O36  1  0.13477400  0.01609700  0.65087100  1
  O  O37  1  0.57933700  0.79989500  0.65018800  1
