# generated using pymatgen
data_Li5GeN3
_symmetry_space_group_name_H-M   'P 1'
_cell_length_a   8.30888800
_cell_length_b   8.36916087
_cell_length_c   21.10457866
_cell_angle_alpha   97.62481707
_cell_angle_beta   97.53831760
_cell_angle_gamma   109.22381657
_symmetry_Int_Tables_number   1
_chemical_formula_structural   Li5GeN3
_chemical_formula_sum   'Li80 Ge16 N48'
_cell_volume   1349.30268015
_cell_formula_units_Z   16
loop_
 _symmetry_equiv_pos_site_id
 _symmetry_equiv_pos_as_xyz
  1  'x, y, z'
loop_
 _atom_site_type_symbol
 _atom_site_label
 _atom_site_symmetry_multiplicity
 _atom_site_fract_x
 _atom_site_fract_y
 _atom_site_fract_z
 _atom_site_occupancy
  Li  Li0  1  0.39785400  0.88726800  0.06722200  1
  Li  Li1  1  0.90687900  0.88476600  0.08504300  1
  Li  Li2  1  0.17556800  0.65607800  0.08060800  1
  Li  Li3  1  0.32312900  0.57220500  0.17514800  1
  Li  Li4  1  0.01484700  0.52317100  0.24547400  1
  Li  Li5  1  0.66595400  0.64829900  0.08039700  1
  Li  Li6  1  0.42577200  0.66530500  0.33863000  1
  Li  Li7  1  0.52168700  0.51846000  0.25633400  1
  Li  Li8  1  0.40993700  0.44965100  0.08702600  1
  Li  Li9  1  0.08645100  0.32749400  0.17684700  1
  Li  Li10  1  0.56896600  0.54772900  0.41669200  1
  Li  Li11  1  0.83863700  0.33155500  0.42123100  1
  Li  Li12  1  0.83887100  0.62005200  0.17426200  1
  Li  Li13  1  0.84804900  0.08018900  0.15381800  1
  Li  Li14  1  0.00025300  0.27347300  0.50677500  1
  Li  Li15  1  0.71958300  0.19537900  0.59272100  1
  Li  Li16  1  0.33671300  0.31845700  0.42871300  1
  Li  Li17  1  0.57844600  0.36673100  0.16357700  1
  Li  Li18  1  0.28485000  0.24923300  0.23755000  1
  Li  Li19  1  0.90021100  0.13701300  0.33221700  1
  Li  Li20  1  0.67878500  0.41897400  0.33869700  1
  Li  Li21  1  0.06981100  0.33267500  0.67850800  1
  Li  Li22  1  0.72631200  0.23039400  0.73819500  1
  Li  Li23  1  0.07210200  0.11462200  0.42712800  1
  Li  Li24  1  0.76040000  0.00261700  0.51030800  1
  Li  Li25  1  0.59351800  0.06954400  0.91875700  1
  Li  Li26  1  0.42550600  0.19680500  0.33304100  1
  Li  Li27  1  0.23309000  0.21550800  0.75420300  1
  Li  Li28  1  0.51433900  0.98510200  0.75216000  1
  Li  Li29  1  0.00685200  0.01514800  0.23753200  1
  Li  Li30  1  0.63787200  0.14303200  0.08971200  1
  Li  Li31  1  0.35878500  0.07624500  0.15976100  1
  Li  Li32  1  0.51426300  0.26828600  0.51627900  1
  Li  Li33  1  0.84191100  0.06280300  0.66850700  1
  Li  Li34  1  0.49743000  0.73739000  0.48913000  1
  Li  Li35  1  0.47749200  0.00710600  0.25082600  1
  Li  Li36  1  0.76848000  0.76889800  0.25712400  1
  Li  Li37  1  0.66995300  0.91494500  0.84531100  1
  Li  Li38  1  0.36082500  0.84515200  0.92023400  1
  Li  Li39  1  0.00540300  0.97631000  0.75017700  1
  Li  Li40  1  0.58166200  0.81647600  0.66345700  1
  Li  Li41  1  0.73460500  0.97820500  0.00658100  1
  Li  Li42  1  0.24889900  0.01063000  0.49189700  1
  Li  Li43  1  0.34975900  0.08151800  0.67837400  1
  Li  Li44  1  0.92287200  0.90689700  0.58196000  1
  Li  Li45  1  0.11155300  0.83513900  0.16626900  1
  Li  Li46  1  0.84545200  0.85646200  0.92394900  1
  Li  Li47  1  0.26376800  0.74785100  0.25298400  1
  Li  Li48  1  0.91442600  0.65004000  0.32877800  1
  Li  Li49  1  0.09455900  0.84632600  0.66405500  1
  Li  Li50  1  0.74377400  0.78316900  0.75528600  1
  Li  Li51  1  0.42888100  0.67006100  0.84530600  1
  Li  Li52  1  0.63875300  0.90977000  0.32310200  1
  Li  Li53  1  0.67120200  0.68604500  0.57325400  1
  Li  Li54  1  0.30274100  0.79954800  0.41824600  1
  Li  Li55  1  0.00150100  0.74471800  0.49721000  1
  Li  Li56  1  0.18122000  0.94677300  0.84506000  1
  Li  Li57  1  0.49598600  0.72129000  0.99311700  1
  Li  Li58  1  0.18078600  0.42080200  0.82280000  1
  Li  Li59  1  0.43616300  0.45874100  0.58370900  1
  Li  Li60  1  0.06834600  0.56198900  0.41890000  1
  Li  Li61  1  0.15927000  0.67289800  0.57237500  1
  Li  Li62  1  0.91032000  0.70529200  0.83432200  1
  Li  Li63  1  0.00135900  0.75033000  0.00400200  1
  Li  Li64  1  0.24460700  0.47576300  0.99442300  1
  Li  Li65  1  0.61234200  0.59664500  0.91234500  1
  Li  Li66  1  0.76474400  0.50041600  0.50177600  1
  Li  Li67  1  0.24058600  0.50171700  0.49895800  1
  Li  Li68  1  0.93802800  0.43319700  0.58357200  1
  Li  Li69  1  0.56466200  0.31283300  0.65502800  1
  Li  Li70  1  0.75606900  0.51791000  0.99638000  1
  Li  Li71  1  0.30014200  0.58091100  0.65476600  1
  Li  Li72  1  0.34535200  0.34789300  0.90486600  1
  Li  Li73  1  0.96537100  0.47998900  0.76042000  1
  Li  Li74  1  0.68519100  0.41787700  0.83030100  1
  Li  Li75  1  0.80832200  0.33292200  0.91596500  1
  Li  Li76  1  0.10154200  0.10501100  0.92284400  1
  Li  Li77  1  0.44489900  0.16438300  0.83365700  1
  Li  Li78  1  0.96531200  0.23122300  0.99082100  1
  Li  Li79  1  0.23278900  0.97361300  0.99001700  1
  Ge  Ge80  1  0.90255700  0.41261700  0.08672000  1
  Ge  Ge81  1  0.75087400  0.24764800  0.24356700  1
  Ge  Ge82  1  0.17118900  0.40474000  0.32974800  1
  Ge  Ge83  1  0.56645500  0.08094500  0.42160300  1
  Ge  Ge84  1  0.15202800  0.15659900  0.08056000  1
  Ge  Ge85  1  0.17969600  0.18091100  0.58594600  1
  Ge  Ge86  1  0.42994200  0.92792900  0.58223700  1
  Ge  Ge87  1  0.15492200  0.93148100  0.33396300  1
  Ge  Ge88  1  0.23198200  0.74163500  0.75553300  1
  Ge  Ge89  1  0.81072300  0.82537400  0.41371600  1
  Ge  Ge90  1  0.57520000  0.83041100  0.16296100  1
  Ge  Ge91  1  0.07786500  0.58336700  0.91415200  1
  Ge  Ge92  1  0.82006700  0.59319800  0.66657000  1
  Ge  Ge93  1  0.48011700  0.49098200  0.74587300  1
  Ge  Ge94  1  0.48780100  0.25866100  0.99989400  1
  Ge  Ge95  1  0.91172800  0.16739400  0.82920500  1
  N  N96  1  0.65454300  0.90100000  0.08933000  1
  N  N97  1  0.92217300  0.63934000  0.08784000  1
  N  N98  1  0.58789200  0.61450900  0.17257500  1
  N  N99  1  0.83255800  0.33763300  0.16819900  1
  N  N100  1  0.67800600  0.67725500  0.33851300  1
  N  N101  1  0.30682500  0.54871400  0.40709200  1
  N  N102  1  0.25180600  0.48707600  0.25789500  1
  N  N103  1  0.13090800  0.38995600  0.08435700  1
  N  N104  1  0.92284200  0.38971400  0.32180700  1
  N  N105  1  0.58211000  0.30573800  0.42089700  1
  N  N106  1  0.25421400  0.25708700  0.51205000  1
  N  N107  1  0.53577900  0.26280200  0.24957500  1
  N  N108  1  0.73468000  0.25898100  0.01300800  1
  N  N109  1  0.39820400  0.18383000  0.07786700  1
  N  N110  1  0.49646700  0.99425100  0.49741000  1
  N  N111  1  0.32836300  0.33388400  0.66690500  1
  N  N112  1  0.16201700  0.16516100  0.33460300  1
  N  N113  1  0.95135900  0.16552500  0.58820400  1
  N  N114  1  0.98796800  0.23721700  0.75440300  1
  N  N115  1  0.10396600  0.08666400  0.15871100  1
  N  N116  1  0.57954300  0.06992200  0.65615700  1
  N  N117  1  0.25883700  0.96961700  0.75353800  1
  N  N118  1  0.79221100  0.05675400  0.41331300  1
  N  N119  1  0.92718900  0.95145100  0.83755500  1
  N  N120  1  0.74137800  0.01275100  0.24180100  1
  N  N121  1  0.39656200  0.93180500  0.34374800  1
  N  N122  1  0.19768400  0.94639600  0.58295800  1
  N  N123  1  0.06338600  0.85642100  0.40949100  1
  N  N124  1  0.02644800  0.77977500  0.25830200  1
  N  N125  1  0.35151900  0.82879200  0.16735600  1
  N  N126  1  0.15987100  0.66863500  0.83332300  1
  N  N127  1  0.00859500  0.00965800  0.00741800  1
  N  N128  1  0.83432400  0.81754400  0.66562900  1
  N  N129  1  0.45743600  0.71446500  0.74492300  1
  N  N130  1  0.59309300  0.83074100  0.92085000  1
  N  N131  1  0.23239900  0.72024300  0.98919500  1
  N  N132  1  0.75617300  0.75504700  0.49007900  1
  N  N133  1  0.41446000  0.69830600  0.57693000  1
  N  N134  1  0.85647800  0.58815700  0.91357600  1
  N  N135  1  0.68918600  0.43952400  0.59101300  1
  N  N136  1  0.72001600  0.51300600  0.74132600  1
  N  N137  1  0.06235800  0.58960100  0.67968300  1
  N  N138  1  0.00064300  0.50418500  0.49887200  1
  N  N139  1  0.49785800  0.48135300  0.99954800  1
  N  N140  1  0.42691900  0.41339600  0.82056000  1
  N  N141  1  0.07193100  0.34432900  0.90711400  1
  N  N142  1  0.35820000  0.10561300  0.92456900  1
  N  N143  1  0.68587700  0.16494900  0.83067800  1
