# generated using pymatgen
data_HfSCl6O
_symmetry_space_group_name_H-M   'P 1'
_cell_length_a   22.25344600
_cell_length_b   7.01628400
_cell_length_c   7.60977795
_cell_angle_alpha   64.99223324
_cell_angle_beta   90.00000000
_cell_angle_gamma   90.00000000
_symmetry_Int_Tables_number   1
_chemical_formula_structural   HfSCl6O
_chemical_formula_sum   'Hf4 S4 Cl24 O4'
_cell_volume   1076.77427392
_cell_formula_units_Z   4
loop_
 _symmetry_equiv_pos_site_id
 _symmetry_equiv_pos_as_xyz
  1  'x, y, z'
loop_
 _atom_site_type_symbol
 _atom_site_label
 _atom_site_symmetry_multiplicity
 _atom_site_fract_x
 _atom_site_fract_y
 _atom_site_fract_z
 _atom_site_occupancy
  Hf  Hf0  1  0.07411800  0.49826300  0.65131600  1
  Hf  Hf1  1  0.57411800  0.50173700  0.84868400  1
  Hf  Hf2  1  0.42588200  0.49826300  0.15131600  1
  Hf  Hf3  1  0.92588200  0.50173700  0.34868400  1
  S  S4  1  0.36044300  0.87200800  0.67970200  1
  S  S5  1  0.63955700  0.12799200  0.32029800  1
  S  S6  1  0.13955700  0.87200800  0.17970200  1
  S  S7  1  0.86044300  0.12799200  0.82029800  1
  Cl  Cl8  1  0.66513200  0.68187200  0.83114000  1
  Cl  Cl9  1  0.03388100  0.26192400  0.94738300  1
  Cl  Cl10  1  0.46611900  0.26192400  0.44738300  1
  Cl  Cl11  1  0.96611900  0.73807600  0.05261700  1
  Cl  Cl12  1  0.39118800  0.75263200  0.25145300  1
  Cl  Cl13  1  0.33486800  0.31812800  0.16886000  1
  Cl  Cl14  1  0.67409600  0.90545300  0.23810700  1
  Cl  Cl15  1  0.16513200  0.31812800  0.66886000  1
  Cl  Cl16  1  0.47393100  0.30325300  0.96231000  1
  Cl  Cl17  1  0.53388100  0.73807600  0.55261700  1
  Cl  Cl18  1  0.32590400  0.09454700  0.76189300  1
  Cl  Cl19  1  0.97393100  0.69674700  0.53769000  1
  Cl  Cl20  1  0.52606900  0.69674700  0.03769000  1
  Cl  Cl21  1  0.17409600  0.09454700  0.26189300  1
  Cl  Cl22  1  0.82590400  0.90545300  0.73810700  1
  Cl  Cl23  1  0.21789800  0.71304600  0.18084300  1
  Cl  Cl24  1  0.02606900  0.30325300  0.46231000  1
  Cl  Cl25  1  0.83486800  0.68187200  0.33114000  1
  Cl  Cl26  1  0.89118800  0.24736800  0.24854700  1
  Cl  Cl27  1  0.10881200  0.75263200  0.75145300  1
  Cl  Cl28  1  0.78210200  0.28695400  0.81915700  1
  Cl  Cl29  1  0.60881200  0.24736800  0.74854700  1
  Cl  Cl30  1  0.28210200  0.71304600  0.68084300  1
  Cl  Cl31  1  0.71789800  0.28695400  0.31915700  1
  O  O32  1  0.10276000  0.72685300  0.34281000  1
  O  O33  1  0.89724000  0.27314700  0.65719000  1
  O  O34  1  0.60276000  0.27314700  0.15719000  1
  O  O35  1  0.39724000  0.72685300  0.84281000  1
