# generated using pymatgen
data_Nd2WC2
_symmetry_space_group_name_H-M   'P 1'
_cell_length_a   5.83786100
_cell_length_b   5.83786100
_cell_length_c   10.40251900
_cell_angle_alpha   90.00000000
_cell_angle_beta   90.00000000
_cell_angle_gamma   90.00000000
_symmetry_Int_Tables_number   1
_chemical_formula_structural   Nd2WC2
_chemical_formula_sum   'Nd8 W4 C8'
_cell_volume   354.52430806
_cell_formula_units_Z   4
loop_
 _symmetry_equiv_pos_site_id
 _symmetry_equiv_pos_as_xyz
  1  'x, y, z'
loop_
 _atom_site_type_symbol
 _atom_site_label
 _atom_site_symmetry_multiplicity
 _atom_site_fract_x
 _atom_site_fract_y
 _atom_site_fract_z
 _atom_site_occupancy
  Nd  Nd0  1  0.19715700  0.19715700  0.34325400  1
  Nd  Nd1  1  0.80284300  0.80284300  0.65674600  1
  Nd  Nd2  1  0.30284300  0.69715700  0.84325400  1
  Nd  Nd3  1  0.80284300  0.80284300  0.34325400  1
  Nd  Nd4  1  0.19715700  0.19715700  0.65674600  1
  Nd  Nd5  1  0.69715700  0.30284300  0.15674600  1
  Nd  Nd6  1  0.69715700  0.30284300  0.84325400  1
  Nd  Nd7  1  0.30284300  0.69715700  0.15674600  1
  W  W8  1  0.17691500  0.17691500  0.00000000  1
  W  W9  1  0.82308500  0.82308500  0.00000000  1
  W  W10  1  0.32308500  0.67691500  0.50000000  1
  W  W11  1  0.67691500  0.32308500  0.50000000  1
  C  C12  1  0.00000000  0.00000000  0.14267400  1
  C  C13  1  0.50000000  0.50000000  0.35732600  1
  C  C14  1  0.50000000  0.50000000  0.64267400  1
  C  C15  1  0.50000000  0.00000000  0.00000000  1
  C  C16  1  0.00000000  0.50000000  0.00000000  1
  C  C17  1  0.00000000  0.00000000  0.85732600  1
  C  C18  1  0.50000000  0.00000000  0.50000000  1
  C  C19  1  0.00000000  0.50000000  0.50000000  1
