# generated using pymatgen
data_Ta2Tl3Cu3S8
_symmetry_space_group_name_H-M   'P 1'
_cell_length_a   10.30147182
_cell_length_b   10.30147182
_cell_length_c   7.44226537
_cell_angle_alpha   83.81463581
_cell_angle_beta   83.81463581
_cell_angle_gamma   31.45396645
_symmetry_Int_Tables_number   1
_chemical_formula_structural   Ta2Tl3Cu3S8
_chemical_formula_sum   'Ta2 Tl3 Cu3 S8'
_cell_volume   409.52548736
_cell_formula_units_Z   1
loop_
 _symmetry_equiv_pos_site_id
 _symmetry_equiv_pos_as_xyz
  1  'x, y, z'
loop_
 _atom_site_type_symbol
 _atom_site_label
 _atom_site_symmetry_multiplicity
 _atom_site_fract_x
 _atom_site_fract_y
 _atom_site_fract_z
 _atom_site_occupancy
  Ta  Ta0  1  0.85901300  0.40069500  0.31027300  1
  Ta  Ta1  1  0.59930500  0.14098700  0.68972700  1
  Tl  Tl2  1  0.32210100  0.31159900  0.21221300  1
  Tl  Tl3  1  0.68840100  0.67789900  0.78778700  1
  Tl  Tl4  1  0.98780700  0.01219300  0.00000000  1
  Cu  Cu5  1  0.73159300  0.26840700  0.50000000  1
  Cu  Cu6  1  0.35476100  0.89617600  0.31966600  1
  Cu  Cu7  1  0.10382400  0.64523900  0.68033400  1
  S  S8  1  0.26240400  0.30618600  0.62838800  1
  S  S9  1  0.05536800  0.13199700  0.55985800  1
  S  S10  1  0.69381400  0.73759600  0.37161200  1
  S  S11  1  0.14764400  0.17945400  0.07397300  1
  S  S12  1  0.86800300  0.94463200  0.44014200  1
  S  S13  1  0.45670400  0.46511400  0.75288900  1
  S  S14  1  0.53488600  0.54329600  0.24711100  1
  S  S15  1  0.82054600  0.85235600  0.92602700  1
