# generated using pymatgen
data_CsTiF4
_symmetry_space_group_name_H-M   'P 1'
_cell_length_a   8.03203800
_cell_length_b   8.03203800
_cell_length_c   6.64232900
_cell_angle_alpha   90.00000000
_cell_angle_beta   90.00000000
_cell_angle_gamma   90.00000000
_symmetry_Int_Tables_number   1
_chemical_formula_structural   CsTiF4
_chemical_formula_sum   'Cs4 Ti4 F16'
_cell_volume   428.52078489
_cell_formula_units_Z   4
loop_
 _symmetry_equiv_pos_site_id
 _symmetry_equiv_pos_as_xyz
  1  'x, y, z'
loop_
 _atom_site_type_symbol
 _atom_site_label
 _atom_site_symmetry_multiplicity
 _atom_site_fract_x
 _atom_site_fract_y
 _atom_site_fract_z
 _atom_site_occupancy
  Cs  Cs0  1  0.00000000  0.00000000  0.50000000  1
  Cs  Cs1  1  0.50000000  0.50000000  0.50000000  1
  Cs  Cs2  1  0.00000000  0.50000000  0.44839800  1
  Cs  Cs3  1  0.50000000  0.00000000  0.55160200  1
  Ti  Ti4  1  0.75000000  0.25000000  0.00000000  1
  Ti  Ti5  1  0.75000000  0.75000000  0.00000000  1
  Ti  Ti6  1  0.25000000  0.25000000  0.00000000  1
  Ti  Ti7  1  0.25000000  0.75000000  0.00000000  1
  F  F8  1  0.74778400  0.50000000  0.04612300  1
  F  F9  1  0.00000000  0.75221600  0.04612300  1
  F  F10  1  0.00000000  0.24778400  0.04612300  1
  F  F11  1  0.25221600  0.50000000  0.04612300  1
  F  F12  1  0.75221600  0.00000000  0.95387700  1
  F  F13  1  0.24778400  0.00000000  0.95387700  1
  F  F14  1  0.50000000  0.74778400  0.95387700  1
  F  F15  1  0.50000000  0.25221600  0.95387700  1
  F  F16  1  0.72011900  0.22011900  0.28542200  1
  F  F17  1  0.72011900  0.77988100  0.28542200  1
  F  F18  1  0.27988100  0.22011900  0.28542200  1
  F  F19  1  0.27988100  0.77988100  0.28542200  1
  F  F20  1  0.77988100  0.72011900  0.71457800  1
  F  F21  1  0.22011900  0.27988100  0.71457800  1
  F  F22  1  0.22011900  0.72011900  0.71457800  1
  F  F23  1  0.77988100  0.27988100  0.71457800  1
