# generated using pymatgen
data_CsCu2F5
_symmetry_space_group_name_H-M   'P 1'
_cell_length_a   7.46809500
_cell_length_b   7.22539700
_cell_length_c   11.50915738
_cell_angle_alpha   57.06108537
_cell_angle_beta   90.00000000
_cell_angle_gamma   90.00000000
_symmetry_Int_Tables_number   1
_chemical_formula_structural   CsCu2F5
_chemical_formula_sum   'Cs4 Cu8 F20'
_cell_volume   521.20289196
_cell_formula_units_Z   4
loop_
 _symmetry_equiv_pos_site_id
 _symmetry_equiv_pos_as_xyz
  1  'x, y, z'
loop_
 _atom_site_type_symbol
 _atom_site_label
 _atom_site_symmetry_multiplicity
 _atom_site_fract_x
 _atom_site_fract_y
 _atom_site_fract_z
 _atom_site_occupancy
  Cs  Cs0  1  0.47995400  0.37686200  0.87855900  1
  Cs  Cs1  1  0.02004600  0.37686200  0.37855900  1
  Cs  Cs2  1  0.52004600  0.62313800  0.12144100  1
  Cs  Cs3  1  0.97995400  0.62313800  0.62144100  1
  Cu  Cu4  1  0.23551500  0.00423800  0.75816100  1
  Cu  Cu5  1  0.76448500  0.99576200  0.24183900  1
  Cu  Cu6  1  0.50000000  0.50000000  0.50000000  1
  Cu  Cu7  1  0.26448500  0.00423800  0.25816100  1
  Cu  Cu8  1  0.73551500  0.99576200  0.74183900  1
  Cu  Cu9  1  0.00000000  0.00000000  0.00000000  1
  Cu  Cu10  1  0.50000000  0.00000000  0.50000000  1
  Cu  Cu11  1  0.00000000  0.50000000  0.00000000  1
  F  F12  1  0.29000500  0.30931400  0.64526600  1
  F  F13  1  0.48289300  0.92471900  0.75773300  1
  F  F14  1  0.70999500  0.69068600  0.35473400  1
  F  F15  1  0.82116300  0.30194900  0.14545600  1
  F  F16  1  0.25360100  0.98773200  0.47133800  1
  F  F17  1  0.51710700  0.07528100  0.24226700  1
  F  F18  1  0.75360100  0.01226800  0.02866200  1
  F  F19  1  0.01992200  0.31010200  0.92882700  1
  F  F20  1  0.48007800  0.31010200  0.42882700  1
  F  F21  1  0.98289300  0.07528100  0.74226700  1
  F  F22  1  0.67883700  0.30194900  0.64545600  1
  F  F23  1  0.01710700  0.92471900  0.25773300  1
  F  F24  1  0.98007800  0.68989800  0.07117300  1
  F  F25  1  0.24639900  0.98773200  0.97133800  1
  F  F26  1  0.51992200  0.68989800  0.57117300  1
  F  F27  1  0.79000500  0.69068600  0.85473400  1
  F  F28  1  0.20999500  0.30931400  0.14526600  1
  F  F29  1  0.74639900  0.01226800  0.52866200  1
  F  F30  1  0.32116300  0.69805100  0.35454400  1
  F  F31  1  0.17883700  0.69805100  0.85454400  1
