# generated using pymatgen
data_RbCeH2S2O9
_symmetry_space_group_name_H-M   'P 1'
_cell_length_a   8.90895900
_cell_length_b   10.28832200
_cell_length_c   10.62586497
_cell_angle_alpha   61.48871323
_cell_angle_beta   90.00000000
_cell_angle_gamma   90.00000000
_symmetry_Int_Tables_number   1
_chemical_formula_structural   RbCeH2S2O9
_chemical_formula_sum   'Rb4 Ce4 H8 S8 O36'
_cell_volume   855.83066643
_cell_formula_units_Z   4
loop_
 _symmetry_equiv_pos_site_id
 _symmetry_equiv_pos_as_xyz
  1  'x, y, z'
loop_
 _atom_site_type_symbol
 _atom_site_label
 _atom_site_symmetry_multiplicity
 _atom_site_fract_x
 _atom_site_fract_y
 _atom_site_fract_z
 _atom_site_occupancy
  Rb  Rb0  1  0.18652000  0.21854100  0.30683900  1
  Rb  Rb1  1  0.68652000  0.78145900  0.19316100  1
  Rb  Rb2  1  0.81348000  0.78145900  0.69316100  1
  Rb  Rb3  1  0.31348000  0.21854100  0.80683900  1
  Ce  Ce4  1  0.84701200  0.26351500  0.97052300  1
  Ce  Ce5  1  0.34701200  0.73648500  0.52947700  1
  Ce  Ce6  1  0.15298800  0.73648500  0.02947700  1
  Ce  Ce7  1  0.65298800  0.26351500  0.47052300  1
  H  H8  1  0.51931500  0.27132600  0.06497600  1
  H  H9  1  0.01931500  0.72867400  0.43502400  1
  H  H10  1  0.48068500  0.72867400  0.93502400  1
  H  H11  1  0.98068500  0.27132600  0.56497600  1
  H  H12  1  0.53425200  0.41824900  0.92056400  1
  H  H13  1  0.03425200  0.58175100  0.57943600  1
  H  H14  1  0.46574800  0.58175100  0.07943600  1
  H  H15  1  0.96574800  0.41824900  0.42056400  1
  S  S16  1  0.81757100  0.47740500  0.11456000  1
  S  S17  1  0.31757100  0.52259500  0.38544000  1
  S  S18  1  0.18242900  0.52259500  0.88544000  1
  S  S19  1  0.68242900  0.47740500  0.61456000  1
  S  S20  1  0.86907900  0.05351400  0.82375700  1
  S  S21  1  0.36907900  0.94648600  0.67624300  1
  S  S22  1  0.13092100  0.94648600  0.17624300  1
  S  S23  1  0.63092100  0.05351400  0.32375700  1
  O  O24  1  0.89523800  0.33192400  0.16347200  1
  O  O25  1  0.39523800  0.66807600  0.33652800  1
  O  O26  1  0.10476200  0.66807600  0.83652800  1
  O  O27  1  0.60476200  0.33192400  0.66347200  1
  O  O28  1  0.75468700  0.52035400  0.97037900  1
  O  O29  1  0.25468700  0.47964600  0.52962100  1
  O  O30  1  0.24531300  0.47964600  0.02962100  1
  O  O31  1  0.74531300  0.52035400  0.47037900  1
  O  O32  1  0.92389800  0.59151000  0.10945600  1
  O  O33  1  0.42389800  0.40849000  0.39054400  1
  O  O34  1  0.07610200  0.40849000  0.89054400  1
  O  O35  1  0.57610200  0.59151000  0.60945600  1
  O  O36  1  0.69662000  0.46148000  0.21813600  1
  O  O37  1  0.19662000  0.53852000  0.28186400  1
  O  O38  1  0.30338000  0.53852000  0.78186400  1
  O  O39  1  0.80338000  0.46148000  0.71813600  1
  O  O40  1  0.97477600  0.17969700  0.78778700  1
  O  O41  1  0.47477600  0.82030300  0.71221300  1
  O  O42  1  0.02522400  0.82030300  0.21221300  1
  O  O43  1  0.52522400  0.17969700  0.28778700  1
  O  O44  1  0.76000200  0.05512600  0.93092200  1
  O  O45  1  0.26000200  0.94487400  0.56907800  1
  O  O46  1  0.23999800  0.94487400  0.06907800  1
  O  O47  1  0.73999800  0.05512600  0.43092200  1
  O  O48  1  0.94910400  0.90902500  0.88766900  1
  O  O49  1  0.44910400  0.09097500  0.61233100  1
  O  O50  1  0.05089600  0.09097500  0.11233100  1
  O  O51  1  0.55089600  0.90902500  0.38766900  1
  O  O52  1  0.79000800  0.07142800  0.69335300  1
  O  O53  1  0.29000800  0.92857200  0.80664700  1
  O  O54  1  0.20999200  0.92857200  0.30664700  1
  O  O55  1  0.70999200  0.07142800  0.19335300  1
  O  O56  1  0.55232200  0.31143800  0.96476900  1
  O  O57  1  0.05232200  0.68856200  0.53523100  1
  O  O58  1  0.44767800  0.68856200  0.03523100  1
  O  O59  1  0.94767800  0.31143800  0.46476900  1
