# generated using pymatgen
data_TbVO3
_symmetry_space_group_name_H-M   'P 1'
_cell_length_a   5.35105400
_cell_length_b   5.75067200
_cell_length_c   7.66421100
_cell_angle_alpha   90.00000000
_cell_angle_beta   90.00000000
_cell_angle_gamma   90.00000000
_symmetry_Int_Tables_number   1
_chemical_formula_structural   TbVO3
_chemical_formula_sum   'Tb4 V4 O12'
_cell_volume   235.84429964
_cell_formula_units_Z   4
loop_
 _symmetry_equiv_pos_site_id
 _symmetry_equiv_pos_as_xyz
  1  'x, y, z'
loop_
 _atom_site_type_symbol
 _atom_site_label
 _atom_site_symmetry_multiplicity
 _atom_site_fract_x
 _atom_site_fract_y
 _atom_site_fract_z
 _atom_site_occupancy
  Tb  Tb0  1  0.51967900  0.56896300  0.75000000  1
  Tb  Tb1  1  0.98032100  0.06896300  0.75000000  1
  Tb  Tb2  1  0.48032100  0.43103700  0.25000000  1
  Tb  Tb3  1  0.01967900  0.93103700  0.25000000  1
  V  V4  1  0.00000000  0.50000000  0.00000000  1
  V  V5  1  0.50000000  0.00000000  0.50000000  1
  V  V6  1  0.00000000  0.50000000  0.50000000  1
  V  V7  1  0.50000000  0.00000000  0.00000000  1
  O  O8  1  0.69575600  0.31042400  0.94193900  1
  O  O9  1  0.30424400  0.68957600  0.44193900  1
  O  O10  1  0.80424400  0.81042400  0.55806100  1
  O  O11  1  0.19575600  0.18957600  0.44193900  1
  O  O12  1  0.69575600  0.31042400  0.55806100  1
  O  O13  1  0.88422800  0.54496400  0.25000000  1
  O  O14  1  0.19575600  0.18957600  0.05806100  1
  O  O15  1  0.38422800  0.95503600  0.75000000  1
  O  O16  1  0.80424400  0.81042400  0.94193900  1
  O  O17  1  0.61577200  0.04496400  0.25000000  1
  O  O18  1  0.30424400  0.68957600  0.05806100  1
  O  O19  1  0.11577200  0.45503600  0.75000000  1
