# generated using pymatgen
data_RbCuSnS3
_symmetry_space_group_name_H-M   'P 1'
_cell_length_a   7.91273281
_cell_length_b   7.91273281
_cell_length_c   20.48957400
_cell_angle_alpha   84.44870018
_cell_angle_beta   84.44870018
_cell_angle_gamma   90.01099804
_symmetry_Int_Tables_number   1
_chemical_formula_structural   RbCuSnS3
_chemical_formula_sum   'Rb8 Cu8 Sn8 S24'
_cell_volume   1270.81540445
_cell_formula_units_Z   8
loop_
 _symmetry_equiv_pos_site_id
 _symmetry_equiv_pos_as_xyz
  1  'x, y, z'
loop_
 _atom_site_type_symbol
 _atom_site_label
 _atom_site_symmetry_multiplicity
 _atom_site_fract_x
 _atom_site_fract_y
 _atom_site_fract_z
 _atom_site_occupancy
  Rb  Rb0  1  0.60198800  0.72765200  0.58999400  1
  Rb  Rb1  1  0.27234800  0.39801200  0.91000600  1
  Rb  Rb2  1  0.39801200  0.27234800  0.41000600  1
  Rb  Rb3  1  0.72765200  0.60198800  0.08999400  1
  Rb  Rb4  1  0.89687400  0.27259700  0.41024700  1
  Rb  Rb5  1  0.72740300  0.10312600  0.08975300  1
  Rb  Rb6  1  0.10312600  0.72740300  0.58975300  1
  Rb  Rb7  1  0.27259700  0.89687400  0.91024700  1
  Cu  Cu8  1  0.56378600  0.43621400  0.75000000  1
  Cu  Cu9  1  0.43621400  0.56378600  0.25000000  1
  Cu  Cu10  1  0.56215000  0.94006700  0.75007000  1
  Cu  Cu11  1  0.05993300  0.43785000  0.74993000  1
  Cu  Cu12  1  0.43785000  0.05993300  0.24993000  1
  Cu  Cu13  1  0.94006700  0.56215000  0.25007000  1
  Cu  Cu14  1  0.06252100  0.93747900  0.75000000  1
  Cu  Cu15  1  0.93747900  0.06252100  0.25000000  1
  Sn  Sn16  1  0.84284700  0.21737900  0.62874200  1
  Sn  Sn17  1  0.78262100  0.15715300  0.87125800  1
  Sn  Sn18  1  0.15715300  0.78262100  0.37125800  1
  Sn  Sn19  1  0.21737900  0.84284700  0.12874200  1
  Sn  Sn20  1  0.34266800  0.21807300  0.62937800  1
  Sn  Sn21  1  0.78192700  0.65733200  0.87062200  1
  Sn  Sn22  1  0.65733200  0.78192700  0.37062200  1
  Sn  Sn23  1  0.21807300  0.34266800  0.12937800  1
  S  S24  1  0.32765700  0.94152600  0.68925100  1
  S  S25  1  0.05847400  0.67234300  0.81074900  1
  S  S26  1  0.67234300  0.05847400  0.31074900  1
  S  S27  1  0.94152600  0.32765700  0.18925100  1
  S  S28  1  0.32725800  0.46346100  0.68980300  1
  S  S29  1  0.53653900  0.67274200  0.81019700  1
  S  S30  1  0.67274200  0.53653900  0.31019700  1
  S  S31  1  0.46346100  0.32725800  0.18980300  1
  S  S32  1  0.82795700  0.94131000  0.68756600  1
  S  S33  1  0.05869000  0.17204300  0.81243400  1
  S  S34  1  0.17204300  0.05869000  0.31243400  1
  S  S35  1  0.94131000  0.82795700  0.18756600  1
  S  S36  1  0.82783600  0.46533400  0.68693100  1
  S  S37  1  0.53466600  0.17216400  0.81306900  1
  S  S38  1  0.17216400  0.53466600  0.31306900  1
  S  S39  1  0.46533400  0.82783600  0.18693100  1
  S  S40  1  0.61078900  0.23688300  0.55192200  1
  S  S41  1  0.76311700  0.38921100  0.94807800  1
  S  S42  1  0.38921100  0.76311700  0.44807800  1
  S  S43  1  0.23688300  0.61078900  0.05192200  1
  S  S44  1  0.11341000  0.23721900  0.55188700  1
  S  S45  1  0.76278100  0.88659000  0.94811300  1
  S  S46  1  0.88659000  0.76278100  0.44811300  1
  S  S47  1  0.23721900  0.11341000  0.05188700  1
