# generated using pymatgen
data_Mn3Ag2(P2O7)2
_symmetry_space_group_name_H-M   'P 1'
_cell_length_a   5.46161100
_cell_length_b   6.67433010
_cell_length_c   16.69377859
_cell_angle_alpha   80.77788015
_cell_angle_beta   81.92487652
_cell_angle_gamma   72.63077292
_symmetry_Int_Tables_number   1
_chemical_formula_structural   Mn3Ag2(P2O7)2
_chemical_formula_sum   'Mn6 Ag4 P8 O28'
_cell_volume   570.49817049
_cell_formula_units_Z   2
loop_
 _symmetry_equiv_pos_site_id
 _symmetry_equiv_pos_as_xyz
  1  'x, y, z'
loop_
 _atom_site_type_symbol
 _atom_site_label
 _atom_site_symmetry_multiplicity
 _atom_site_fract_x
 _atom_site_fract_y
 _atom_site_fract_z
 _atom_site_occupancy
  Mn  Mn0  1  0.25165500  0.96846500  0.33852700  1
  Mn  Mn1  1  0.74834500  0.03153500  0.66147300  1
  Mn  Mn2  1  0.82800600  0.71171900  0.42284500  1
  Mn  Mn3  1  0.17199400  0.28828100  0.57715500  1
  Mn  Mn4  1  0.97244300  0.37617700  0.19622000  1
  Mn  Mn5  1  0.02755700  0.62382300  0.80378000  1
  Ag  Ag6  1  0.89327400  0.74258300  0.02138900  1
  Ag  Ag7  1  0.10672600  0.25741700  0.97861100  1
  Ag  Ag8  1  0.40782800  0.72855600  0.12853200  1
  Ag  Ag9  1  0.59217200  0.27144400  0.87146800  1
  P  P10  1  0.57594200  0.24052300  0.08553500  1
  P  P11  1  0.42405800  0.75947700  0.91446500  1
  P  P12  1  0.82482400  0.90832600  0.22004800  1
  P  P13  1  0.17517600  0.09167400  0.77995200  1
  P  P14  1  0.71602700  0.21860100  0.46017100  1
  P  P15  1  0.28397300  0.78139900  0.53982900  1
  P  P16  1  0.37015800  0.44035100  0.32255200  1
  P  P17  1  0.62984200  0.55964900  0.67744800  1
  O  O18  1  0.72953000  0.39042600  0.09871100  1
  O  O19  1  0.27047000  0.60957400  0.90128900  1
  O  O20  1  0.69106400  0.12947900  0.00932300  1
  O  O21  1  0.30893600  0.87052100  0.99067700  1
  O  O22  1  0.28339800  0.34295500  0.09010800  1
  O  O23  1  0.71660200  0.65704500  0.90989200  1
  O  O24  1  0.60245200  0.05531300  0.16356200  1
  O  O25  1  0.39754800  0.94468700  0.83643800  1
  O  O26  1  0.95897200  0.71391900  0.17441400  1
  O  O27  1  0.04102800  0.28608100  0.82558600  1
  O  O28  1  0.01614900  0.03296100  0.22652600  1
  O  O29  1  0.98385100  0.96703900  0.77347400  1
  O  O30  1  0.66733100  0.86134400  0.30040600  1
  O  O31  1  0.33266900  0.13865600  0.69959400  1
  O  O32  1  0.85697900  0.38457100  0.46113000  1
  O  O33  1  0.14302100  0.61542900  0.53887000  1
  O  O34  1  0.88810500  0.02464400  0.42083800  1
  O  O35  1  0.11189500  0.97535600  0.57916200  1
  O  O36  1  0.58131200  0.15896000  0.54421700  1
  O  O37  1  0.41868800  0.84104000  0.45578300  1
  O  O38  1  0.46823600  0.31674700  0.40868100  1
  O  O39  1  0.53176400  0.68325300  0.59131900  1
  O  O40  1  0.59657600  0.46760900  0.26289200  1
  O  O41  1  0.40342400  0.53239100  0.73710800  1
  O  O42  1  0.22122300  0.30122200  0.29668500  1
  O  O43  1  0.77877700  0.69877800  0.70331500  1
  O  O44  1  0.18596300  0.65391800  0.34365000  1
  O  O45  1  0.81403700  0.34608200  0.65635000  1
