# generated using pymatgen
data_Ni(SbO3)2
_symmetry_space_group_name_H-M   'P 1'
_cell_length_a   4.71843900
_cell_length_b   10.48815103
_cell_length_c   9.43768700
_cell_angle_alpha   63.26294685
_cell_angle_beta   89.99966609
_cell_angle_gamma   89.99949871
_symmetry_Int_Tables_number   1
_chemical_formula_structural   Ni(SbO3)2
_chemical_formula_sum   'Ni4 Sb8 O24'
_cell_volume   417.11279872
_cell_formula_units_Z   4
loop_
 _symmetry_equiv_pos_site_id
 _symmetry_equiv_pos_as_xyz
  1  'x, y, z'
loop_
 _atom_site_type_symbol
 _atom_site_label
 _atom_site_symmetry_multiplicity
 _atom_site_fract_x
 _atom_site_fract_y
 _atom_site_fract_z
 _atom_site_occupancy
  Ni  Ni0  1  0.49994800  0.50004600  0.99995400  1
  Ni  Ni1  1  0.99995300  0.00000300  0.49991100  1
  Ni  Ni2  1  0.50014400  0.49995400  0.49995500  1
  Ni  Ni3  1  0.99994100  0.00001500  0.00005600  1
  Sb  Sb4  1  0.50003300  0.16768300  0.16614900  1
  Sb  Sb5  1  0.50001600  0.16766000  0.66616500  1
  Sb  Sb6  1  0.99996800  0.66767100  0.16615500  1
  Sb  Sb7  1  0.99998600  0.66767100  0.66615100  1
  Sb  Sb8  1  0.49996600  0.83234100  0.83384300  1
  Sb  Sb9  1  0.49995100  0.83231700  0.33386000  1
  Sb  Sb10  1  0.00004800  0.33232400  0.33384700  1
  Sb  Sb11  1  0.00003100  0.33232400  0.83385100  1
  O  O12  1  0.19044400  0.50000900  0.84525000  1
  O  O13  1  0.19046100  0.50000600  0.34525200  1
  O  O14  1  0.80953400  0.49998400  0.15476100  1
  O  O15  1  0.80955200  0.49998200  0.65476200  1
  O  O16  1  0.30955500  0.00001800  0.34524200  1
  O  O17  1  0.30953000  0.00001200  0.84526600  1
  O  O18  1  0.69044100  0.99998800  0.15477700  1
  O  O19  1  0.69046700  0.99999500  0.65475200  1
  O  O20  1  0.19704300  0.17085000  0.01312600  1
  O  O21  1  0.19704400  0.17084100  0.51311100  1
  O  O22  1  0.80296600  0.17086200  0.31603000  1
  O  O23  1  0.80297400  0.17084900  0.81605100  1
  O  O24  1  0.30294600  0.67086600  0.01311200  1
  O  O25  1  0.30296700  0.67083400  0.51312100  1
  O  O26  1  0.69702900  0.67087200  0.81603300  1
  O  O27  1  0.69704500  0.67086100  0.31603200  1
  O  O28  1  0.80293800  0.82914600  0.98689800  1
  O  O29  1  0.80293900  0.82913600  0.48688700  1
  O  O30  1  0.19701300  0.82914600  0.68395800  1
  O  O31  1  0.19702300  0.82913400  0.18397800  1
  O  O32  1  0.69704900  0.32916400  0.98688600  1
  O  O33  1  0.69707400  0.32913200  0.48689800  1
  O  O34  1  0.30298400  0.32915800  0.18396000  1
  O  O35  1  0.30299800  0.32914700  0.68396000  1
