# generated using pymatgen
data_ThB4Mo
_symmetry_space_group_name_H-M   'P 1'
_cell_length_a   6.10494780
_cell_length_b   6.10494780
_cell_length_c   3.78482600
_cell_angle_alpha   90.00000000
_cell_angle_beta   90.00000000
_cell_angle_gamma   104.06830339
_symmetry_Int_Tables_number   1
_chemical_formula_structural   ThB4Mo
_chemical_formula_sum   'Th2 B8 Mo2'
_cell_volume   136.83101047
_cell_formula_units_Z   2
loop_
 _symmetry_equiv_pos_site_id
 _symmetry_equiv_pos_as_xyz
  1  'x, y, z'
loop_
 _atom_site_type_symbol
 _atom_site_label
 _atom_site_symmetry_multiplicity
 _atom_site_fract_x
 _atom_site_fract_y
 _atom_site_fract_z
 _atom_site_occupancy
  Th  Th0  1  0.30192300  0.69807700  0.00000000  1
  Th  Th1  1  0.69807700  0.30192300  0.00000000  1
  B  B2  1  0.09012900  0.90987100  0.50000000  1
  B  B3  1  0.90987100  0.09012900  0.50000000  1
  B  B4  1  0.62917900  0.62917900  0.50000000  1
  B  B5  1  0.37082100  0.37082100  0.50000000  1
  B  B6  1  0.06492300  0.37686000  0.50000000  1
  B  B7  1  0.93507700  0.62314000  0.50000000  1
  B  B8  1  0.37686000  0.06492300  0.50000000  1
  B  B9  1  0.62314000  0.93507700  0.50000000  1
  Mo  Mo10  1  0.82748300  0.82748300  0.00000000  1
  Mo  Mo11  1  0.17251700  0.17251700  0.00000000  1
