# generated using pymatgen
data_CoSeO3
_symmetry_space_group_name_H-M   'P 1'
_cell_length_a   9.45397289
_cell_length_b   9.45563253
_cell_length_c   15.21171729
_cell_angle_alpha   72.62075671
_cell_angle_beta   72.61310859
_cell_angle_gamma   64.47336131
_symmetry_Int_Tables_number   1
_chemical_formula_structural   CoSeO3
_chemical_formula_sum   'Co16 Se16 O48'
_cell_volume   1147.99568101
_cell_formula_units_Z   16
loop_
 _symmetry_equiv_pos_site_id
 _symmetry_equiv_pos_as_xyz
  1  'x, y, z'
loop_
 _atom_site_type_symbol
 _atom_site_label
 _atom_site_symmetry_multiplicity
 _atom_site_fract_x
 _atom_site_fract_y
 _atom_site_fract_z
 _atom_site_occupancy
  Co  Co0  1  0.11208900  0.36617100  0.59493000  1
  Co  Co1  1  0.63379200  0.88792400  0.90509000  1
  Co  Co2  1  0.87727200  0.59040500  0.08126000  1
  Co  Co3  1  0.40952400  0.12273700  0.41883000  1
  Co  Co4  1  0.12181400  0.41001900  0.91915600  1
  Co  Co5  1  0.59011400  0.87817600  0.58074800  1
  Co  Co6  1  0.12749000  0.32559400  0.25848200  1
  Co  Co7  1  0.67444100  0.87247900  0.24146700  1
  Co  Co8  1  0.94936200  0.18510000  0.46839700  1
  Co  Co9  1  0.81489700  0.05076000  0.03167300  1
  Co  Co10  1  0.05063900  0.81409900  0.53178900  1
  Co  Co11  1  0.18577700  0.94939100  0.96824100  1
  Co  Co12  1  0.88817700  0.63338400  0.40506200  1
  Co  Co13  1  0.36656600  0.11179700  0.09496600  1
  Co  Co14  1  0.87341600  0.67369200  0.73989700  1
  Co  Co15  1  0.32622800  0.12661300  0.76012400  1
  Se  Se16  1  0.23612900  0.51328600  0.39818700  1
  Se  Se17  1  0.48667500  0.76389600  0.10181900  1
  Se  Se18  1  0.76379900  0.48787000  0.60186600  1
  Se  Se19  1  0.51230900  0.23606400  0.89811200  1
  Se  Se20  1  0.96693600  0.20218200  0.13448500  1
  Se  Se21  1  0.79791100  0.03296100  0.36548100  1
  Se  Se22  1  0.03310400  0.79759200  0.86569200  1
  Se  Se23  1  0.20239100  0.96686900  0.63441900  1
  Se  Se24  1  0.05761600  0.71151900  0.15041700  1
  Se  Se25  1  0.28845200  0.94235700  0.34956000  1
  Se  Se26  1  0.94221600  0.28964700  0.84938200  1
  Se  Se27  1  0.71044500  0.05771800  0.65062800  1
  Se  Se28  1  0.71450500  0.47981800  0.31577100  1
  Se  Se29  1  0.52026100  0.28551800  0.18424600  1
  Se  Se30  1  0.28639100  0.51865000  0.68423400  1
  Se  Se31  1  0.48127300  0.71364800  0.81574100  1
  O  O32  1  0.07711000  0.61356100  0.48044300  1
  O  O33  1  0.38636000  0.92294500  0.01959700  1
  O  O34  1  0.92205000  0.38711800  0.51973000  1
  O  O35  1  0.61333600  0.07756800  0.98005200  1
  O  O36  1  0.28238800  0.32791500  0.47394000  1
  O  O37  1  0.67207900  0.71754900  0.02605500  1
  O  O38  1  0.71851800  0.67329600  0.52592500  1
  O  O39  1  0.32685000  0.28141700  0.97408700  1
  O  O40  1  0.11460300  0.50374000  0.33541000  1
  O  O41  1  0.49624900  0.88543000  0.16458400  1
  O  O42  1  0.88601700  0.49667200  0.66468900  1
  O  O43  1  0.50332100  0.11401500  0.83525700  1
  O  O44  1  0.97256100  0.36605500  0.04591200  1
  O  O45  1  0.63384900  0.02756900  0.45408600  1
  O  O46  1  0.02740800  0.63408500  0.95443300  1
  O  O47  1  0.36588300  0.97261800  0.54564300  1
  O  O48  1  0.01391500  0.04840000  0.07718000  1
  O  O49  1  0.95146500  0.98588700  0.42293400  1
  O  O50  1  0.98668100  0.95168100  0.92271100  1
  O  O51  1  0.04850600  0.01306900  0.57736100  1
  O  O52  1  0.14034700  0.15080100  0.17437800  1
  O  O53  1  0.84912200  0.85961400  0.32561400  1
  O  O54  1  0.85976600  0.84866700  0.82583600  1
  O  O55  1  0.15127500  0.14028400  0.67423200  1
  O  O56  1  0.19879800  0.72635600  0.05161600  1
  O  O57  1  0.27360700  0.80118200  0.44833400  1
  O  O58  1  0.80142600  0.27280200  0.94820200  1
  O  O59  1  0.72769500  0.19845100  0.55181500  1
  O  O60  1  0.05057700  0.52517600  0.15841800  1
  O  O61  1  0.47471500  0.94958400  0.34160600  1
  O  O62  1  0.94579000  0.47658000  0.84337600  1
  O  O63  1  0.52349600  0.05438500  0.65645900  1
  O  O64  1  0.86204400  0.81368900  0.11823900  1
  O  O65  1  0.18594900  0.13795800  0.38172300  1
  O  O66  1  0.13783600  0.18721400  0.88113000  1
  O  O67  1  0.81290200  0.86206000  0.61897300  1
  O  O68  1  0.71885300  0.51063900  0.19904200  1
  O  O69  1  0.48940700  0.28109000  0.30098000  1
  O  O70  1  0.28109800  0.48889000  0.80102600  1
  O  O71  1  0.51115800  0.71883000  0.69895000  1
  O  O72  1  0.89877000  0.32951300  0.33425100  1
  O  O73  1  0.67059100  0.10123200  0.16563000  1
  O  O74  1  0.10247200  0.66896800  0.66470900  1
  O  O75  1  0.33100300  0.89759300  0.83529300  1
  O  O76  1  0.75008900  0.64448100  0.32072400  1
  O  O77  1  0.35563500  0.24985200  0.17927600  1
  O  O78  1  0.24936900  0.35492300  0.67992900  1
  O  O79  1  0.64504800  0.75066100  0.82005500  1
