# generated using pymatgen
data_NaCe(PSe3)2
_symmetry_space_group_name_H-M   'P 1'
_cell_length_a   7.79007900
_cell_length_b   11.81840400
_cell_length_c   12.28925654
_cell_angle_alpha   68.44008487
_cell_angle_beta   90.00000000
_cell_angle_gamma   90.00000000
_symmetry_Int_Tables_number   1
_chemical_formula_structural   NaCe(PSe3)2
_chemical_formula_sum   'Na4 Ce4 P8 Se24'
_cell_volume   1052.26478811
_cell_formula_units_Z   4
loop_
 _symmetry_equiv_pos_site_id
 _symmetry_equiv_pos_as_xyz
  1  'x, y, z'
loop_
 _atom_site_type_symbol
 _atom_site_label
 _atom_site_symmetry_multiplicity
 _atom_site_fract_x
 _atom_site_fract_y
 _atom_site_fract_z
 _atom_site_occupancy
  Na  Na0  1  0.60750700  0.37668300  0.85892400  1
  Na  Na1  1  0.89249300  0.87668300  0.85892400  1
  Na  Na2  1  0.10750700  0.12331700  0.14107600  1
  Na  Na3  1  0.39249300  0.62331700  0.14107600  1
  Ce  Ce4  1  0.10698500  0.58878500  0.65650700  1
  Ce  Ce5  1  0.89301500  0.41121500  0.34349300  1
  Ce  Ce6  1  0.60698500  0.91121500  0.34349300  1
  Ce  Ce7  1  0.39301500  0.08878500  0.65650700  1
  P  P8  1  0.61287200  0.25095700  0.19504400  1
  P  P9  1  0.59875400  0.74783300  0.68013500  1
  P  P10  1  0.88712800  0.75095700  0.19504400  1
  P  P11  1  0.09875400  0.75216700  0.31986500  1
  P  P12  1  0.38712800  0.74904300  0.80495600  1
  P  P13  1  0.40124600  0.25216700  0.31986500  1
  P  P14  1  0.90124600  0.24783300  0.68013500  1
  P  P15  1  0.11287200  0.24904300  0.80495600  1
  Se  Se16  1  0.70422000  0.44089800  0.11592300  1
  Se  Se17  1  0.81950100  0.14516000  0.31105700  1
  Se  Se18  1  0.29578000  0.55910200  0.88407700  1
  Se  Se19  1  0.68049900  0.64516000  0.31105700  1
  Se  Se20  1  0.00442800  0.34518100  0.91102000  1
  Se  Se21  1  0.52841100  0.31680800  0.44934500  1
  Se  Se22  1  0.18049900  0.85484000  0.68894300  1
  Se  Se23  1  0.99557200  0.65481900  0.08898000  1
  Se  Se24  1  0.20618200  0.37350500  0.20656600  1
  Se  Se25  1  0.19346500  0.56337500  0.40794100  1
  Se  Se26  1  0.97158900  0.81680800  0.44934500  1
  Se  Se27  1  0.79578000  0.94089800  0.11592300  1
  Se  Se28  1  0.31950100  0.35484000  0.68894300  1
  Se  Se29  1  0.49557200  0.84518100  0.91102000  1
  Se  Se30  1  0.20422000  0.05910200  0.88407700  1
  Se  Se31  1  0.29381800  0.87350500  0.20656600  1
  Se  Se32  1  0.80653500  0.43662500  0.59205900  1
  Se  Se33  1  0.69346500  0.93662500  0.59205900  1
  Se  Se34  1  0.70618200  0.12649500  0.79343400  1
  Se  Se35  1  0.50442800  0.15481900  0.08898000  1
  Se  Se36  1  0.02841100  0.18319200  0.55065500  1
  Se  Se37  1  0.79381800  0.62649500  0.79343400  1
  Se  Se38  1  0.47158900  0.68319200  0.55065500  1
  Se  Se39  1  0.30653500  0.06337500  0.40794100  1
