# generated using pymatgen
data_KSnAsS5
_symmetry_space_group_name_H-M   'P 1'
_cell_length_a   7.59662400
_cell_length_b   8.33849000
_cell_length_c   14.15302700
_cell_angle_alpha   90.00000000
_cell_angle_beta   90.00000000
_cell_angle_gamma   90.00000000
_symmetry_Int_Tables_number   1
_chemical_formula_structural   KSnAsS5
_chemical_formula_sum   'K4 Sn4 As4 S20'
_cell_volume   896.51462502
_cell_formula_units_Z   4
loop_
 _symmetry_equiv_pos_site_id
 _symmetry_equiv_pos_as_xyz
  1  'x, y, z'
loop_
 _atom_site_type_symbol
 _atom_site_label
 _atom_site_symmetry_multiplicity
 _atom_site_fract_x
 _atom_site_fract_y
 _atom_site_fract_z
 _atom_site_occupancy
  K  K0  1  0.50000000  0.89419300  0.83954800  1
  K  K1  1  0.50000000  0.60580700  0.33954800  1
  K  K2  1  0.50000000  0.39419300  0.66045200  1
  K  K3  1  0.50000000  0.10580700  0.16045200  1
  Sn  Sn4  1  0.73213100  0.00000000  0.50000000  1
  Sn  Sn5  1  0.73213100  0.50000000  0.00000000  1
  Sn  Sn6  1  0.26786900  0.50000000  0.00000000  1
  Sn  Sn7  1  0.26786900  0.00000000  0.50000000  1
  As  As8  1  0.00000000  0.69673500  0.77792000  1
  As  As9  1  0.00000000  0.80326500  0.27792000  1
  As  As10  1  0.00000000  0.30326500  0.22208000  1
  As  As11  1  0.00000000  0.19673500  0.72208000  1
  S  S12  1  0.00000000  0.71381900  0.02282700  1
  S  S13  1  0.23476000  0.54799900  0.81805500  1
  S  S14  1  0.00000000  0.78618100  0.52282700  1
  S  S15  1  0.50000000  0.20811600  0.46309700  1
  S  S16  1  0.76524000  0.04799900  0.68194500  1
  S  S17  1  0.23476000  0.95200100  0.31805500  1
  S  S18  1  0.76524000  0.54799900  0.81805500  1
  S  S19  1  0.00000000  0.86468800  0.91044700  1
  S  S20  1  0.00000000  0.36468800  0.58955300  1
  S  S21  1  0.00000000  0.28618100  0.97717300  1
  S  S22  1  0.76524000  0.95200100  0.31805500  1
  S  S23  1  0.00000000  0.13531200  0.08955300  1
  S  S24  1  0.76524000  0.45200100  0.18194500  1
  S  S25  1  0.50000000  0.29188400  0.96309700  1
  S  S26  1  0.23476000  0.45200100  0.18194500  1
  S  S27  1  0.00000000  0.21381900  0.47717300  1
  S  S28  1  0.50000000  0.70811600  0.03690300  1
  S  S29  1  0.23476000  0.04799900  0.68194500  1
  S  S30  1  0.50000000  0.79188400  0.53690300  1
  S  S31  1  0.00000000  0.63531200  0.41044700  1
