# generated using pymatgen
data_CsNa5(WN3)2
_symmetry_space_group_name_H-M   'P 1'
_cell_length_a   10.33819900
_cell_length_b   9.48052600
_cell_length_c   19.69309614
_cell_angle_alpha   89.91029045
_cell_angle_beta   90.00000000
_cell_angle_gamma   90.00000000
_symmetry_Int_Tables_number   1
_chemical_formula_structural   CsNa5(WN3)2
_chemical_formula_sum   'Cs8 Na40 W16 N48'
_cell_volume   1930.14879481
_cell_formula_units_Z   8
loop_
 _symmetry_equiv_pos_site_id
 _symmetry_equiv_pos_as_xyz
  1  'x, y, z'
loop_
 _atom_site_type_symbol
 _atom_site_label
 _atom_site_symmetry_multiplicity
 _atom_site_fract_x
 _atom_site_fract_y
 _atom_site_fract_z
 _atom_site_occupancy
  Cs  Cs0  1  0.23946100  0.87293300  0.04090200  1
  Cs  Cs1  1  0.26555800  0.38352800  0.08138600  1
  Cs  Cs2  1  0.73444200  0.61647200  0.91861400  1
  Cs  Cs3  1  0.73946100  0.12706700  0.45909800  1
  Cs  Cs4  1  0.76053900  0.12706700  0.95909800  1
  Cs  Cs5  1  0.23444200  0.38352800  0.58138600  1
  Cs  Cs6  1  0.26053900  0.87293300  0.54090200  1
  Cs  Cs7  1  0.76555800  0.61647200  0.41861400  1
  Na  Na8  1  0.99712700  0.62494900  0.56410300  1
  Na  Na9  1  0.50631200  0.62005400  0.56207800  1
  Na  Na10  1  0.00664100  0.87527100  0.68184800  1
  Na  Na11  1  0.49343100  0.88966300  0.68134200  1
  Na  Na12  1  0.50953000  0.62771400  0.79526000  1
  Na  Na13  1  0.52021600  0.87367600  0.94752500  1
  Na  Na14  1  0.51273000  0.36725300  0.67256200  1
  Na  Na15  1  0.47978400  0.12632400  0.05247500  1
  Na  Na16  1  0.98727000  0.36725300  0.17256200  1
  Na  Na17  1  0.00287300  0.37505100  0.43589700  1
  Na  Na18  1  0.01273000  0.63274700  0.82743800  1
  Na  Na19  1  0.50664100  0.12472900  0.81815200  1
  Na  Na20  1  0.83353200  0.12123800  0.65975200  1
  Na  Na21  1  0.48727000  0.63274700  0.32743800  1
  Na  Na22  1  0.50656900  0.11033700  0.31865800  1
  Na  Na23  1  0.83565000  0.62049000  0.71426400  1
  Na  Na24  1  0.00656900  0.88966300  0.18134200  1
  Na  Na25  1  0.49368800  0.37994600  0.43792200  1
  Na  Na26  1  0.66435000  0.62049000  0.21426400  1
  Na  Na27  1  0.66646800  0.12123800  0.15975200  1
  Na  Na28  1  0.97978400  0.87367600  0.44752500  1
  Na  Na29  1  0.49335900  0.87527100  0.18184800  1
  Na  Na30  1  0.99047000  0.62771400  0.29526000  1
  Na  Na31  1  0.50822400  0.86986000  0.43977800  1
  Na  Na32  1  0.33353200  0.87876200  0.84024800  1
  Na  Na33  1  0.99368800  0.62005400  0.06207800  1
  Na  Na34  1  0.50287300  0.62494900  0.06410300  1
  Na  Na35  1  0.49177600  0.13014000  0.56022200  1
  Na  Na36  1  0.00953000  0.37228600  0.70474000  1
  Na  Na37  1  0.00631200  0.37994600  0.93792200  1
  Na  Na38  1  0.99343100  0.11033700  0.81865800  1
  Na  Na39  1  0.49047000  0.37228600  0.20474000  1
  Na  Na40  1  0.16646800  0.87876200  0.34024800  1
  Na  Na41  1  0.49712700  0.37505100  0.93589700  1
  Na  Na42  1  0.16435000  0.37951000  0.28573600  1
  Na  Na43  1  0.99335900  0.12472900  0.31815200  1
  Na  Na44  1  0.99177600  0.86986000  0.93977800  1
  Na  Na45  1  0.00822400  0.13014000  0.06022200  1
  Na  Na46  1  0.33565000  0.37951000  0.78573600  1
  Na  Na47  1  0.02021600  0.12632400  0.55247500  1
  W  W48  1  0.26163600  0.07934400  0.21385600  1
  W  W49  1  0.75582400  0.82676300  0.09543400  1
  W  W50  1  0.25582400  0.17323700  0.40456600  1
  W  W51  1  0.75584100  0.42228700  0.58878100  1
  W  W52  1  0.74150000  0.32564100  0.78054600  1
  W  W53  1  0.74417600  0.82676300  0.59543400  1
  W  W54  1  0.24417600  0.17323700  0.90456600  1
  W  W55  1  0.76163600  0.92065600  0.28614400  1
  W  W56  1  0.73836400  0.92065600  0.78614400  1
  W  W57  1  0.24415900  0.57771300  0.41121900  1
  W  W58  1  0.75850000  0.32564100  0.28054600  1
  W  W59  1  0.25850000  0.67435900  0.21945400  1
  W  W60  1  0.24150000  0.67435900  0.71945400  1
  W  W61  1  0.23836400  0.07934400  0.71385600  1
  W  W62  1  0.25584100  0.57771300  0.91121900  1
  W  W63  1  0.74415900  0.42228700  0.08878100  1
  N  N64  1  0.39604300  0.63854000  0.44990500  1
  N  N65  1  0.74982300  0.86573000  0.69187400  1
  N  N66  1  0.10395700  0.63854000  0.94990500  1
  N  N67  1  0.37329900  0.16192700  0.66830700  1
  N  N68  1  0.62290600  0.41389600  0.32354500  1
  N  N69  1  0.92051600  0.86816000  0.32191500  1
  N  N70  1  0.38403000  0.08138400  0.94180400  1
  N  N71  1  0.26185500  0.37460600  0.91559800  1
  N  N72  1  0.74410600  0.12349900  0.29015800  1
  N  N73  1  0.12670100  0.16192700  0.16830700  1
  N  N74  1  0.57948400  0.86816000  0.82191500  1
  N  N75  1  0.24410600  0.87650100  0.20984200  1
  N  N76  1  0.39628000  0.65375800  0.95506300  1
  N  N77  1  0.23814500  0.37460600  0.41559800  1
  N  N78  1  0.89604300  0.36146000  0.05009500  1
  N  N79  1  0.87329900  0.83807300  0.83169300  1
  N  N80  1  0.75589400  0.12349900  0.79015800  1
  N  N81  1  0.08195400  0.61586100  0.68626100  1
  N  N82  1  0.58195400  0.38413900  0.81373900  1
  N  N83  1  0.75017700  0.86573000  0.19187400  1
  N  N84  1  0.25017700  0.13427000  0.30812600  1
  N  N85  1  0.76185500  0.62539400  0.58440200  1
  N  N86  1  0.88403000  0.91861600  0.55819600  1
  N  N87  1  0.74066900  0.36881200  0.18474100  1
  N  N88  1  0.07948400  0.13184000  0.67808500  1
  N  N89  1  0.87709400  0.41389600  0.82354500  1
  N  N90  1  0.25933100  0.63118800  0.81525900  1
  N  N91  1  0.11597000  0.08138400  0.44180400  1
  N  N92  1  0.90993900  0.88882400  0.05941300  1
  N  N93  1  0.12290600  0.58610400  0.17645500  1
  N  N94  1  0.73814500  0.62539400  0.08440200  1
  N  N95  1  0.60372000  0.34624200  0.04493700  1
  N  N96  1  0.24982300  0.13427000  0.80812600  1
  N  N97  1  0.24066900  0.63118800  0.31525900  1
  N  N98  1  0.75933100  0.36881200  0.68474100  1
  N  N99  1  0.40993900  0.11117600  0.44058700  1
  N  N100  1  0.61597000  0.91861600  0.05819600  1
  N  N101  1  0.89628000  0.34624200  0.54493700  1
  N  N102  1  0.25589400  0.87650100  0.70984200  1
  N  N103  1  0.41804600  0.61586100  0.18626100  1
  N  N104  1  0.09006100  0.11117600  0.94058700  1
  N  N105  1  0.10372000  0.65375800  0.45506300  1
  N  N106  1  0.62670100  0.83807300  0.33169300  1
  N  N107  1  0.60395700  0.36146000  0.55009500  1
  N  N108  1  0.42051600  0.13184000  0.17808500  1
  N  N109  1  0.59006100  0.88882400  0.55941300  1
  N  N110  1  0.37709400  0.58610400  0.67645500  1
  N  N111  1  0.91804600  0.38413900  0.31373900  1
