# generated using pymatgen
data_RbC8
_symmetry_space_group_name_H-M   'P 1'
_cell_length_a   12.27187092
_cell_length_b   11.75634222
_cell_length_c   4.97534121
_cell_angle_alpha   83.93170535
_cell_angle_beta   72.29275236
_cell_angle_gamma   23.77554229
_symmetry_Int_Tables_number   1
_chemical_formula_structural   RbC8
_chemical_formula_sum   'Rb2 C16'
_cell_volume   246.25783008
_cell_formula_units_Z   2
loop_
 _symmetry_equiv_pos_site_id
 _symmetry_equiv_pos_as_xyz
  1  'x, y, z'
loop_
 _atom_site_type_symbol
 _atom_site_label
 _atom_site_symmetry_multiplicity
 _atom_site_fract_x
 _atom_site_fract_y
 _atom_site_fract_z
 _atom_site_occupancy
  Rb  Rb0  1  0.50000000  0.50000000  0.50000000  1
  Rb  Rb1  1  0.75000000  0.75000000  0.75000000  1
  C  C2  1  0.79166200  0.45830500  0.54147100  1
  C  C3  1  0.54147100  0.20856200  0.79166200  1
  C  C4  1  0.45830500  0.79166200  0.20856200  1
  C  C5  1  0.79169500  0.45833800  0.04143800  1
  C  C6  1  0.95715600  0.29070200  0.70958100  1
  C  C7  1  0.04256100  0.70958100  0.29070200  1
  C  C8  1  0.70852900  0.04143800  0.45833800  1
  C  C9  1  0.29284400  0.95929800  0.54041900  1
  C  C10  1  0.95929800  0.29284400  0.20743900  1
  C  C11  1  0.20743900  0.54041900  0.95929800  1
  C  C12  1  0.04143800  0.70852900  0.79169500  1
  C  C13  1  0.45833800  0.79169500  0.70852900  1
  C  C14  1  0.20856200  0.54147100  0.45830500  1
  C  C15  1  0.29070200  0.95715600  0.04256100  1
  C  C16  1  0.54041900  0.20743900  0.29284400  1
  C  C17  1  0.70958100  0.04256100  0.95715600  1
