# generated using pymatgen
data_Rb2Te(H6O5)2
_symmetry_space_group_name_H-M   'P 1'
_cell_length_a   7.15633400
_cell_length_b   8.43416904
_cell_length_c   9.45516715
_cell_angle_alpha   101.95165604
_cell_angle_beta   98.09198979
_cell_angle_gamma   94.22763281
_symmetry_Int_Tables_number   1
_chemical_formula_structural   Rb2Te(H6O5)2
_chemical_formula_sum   'Rb4 Te2 H24 O20'
_cell_volume   549.63599488
_cell_formula_units_Z   2
loop_
 _symmetry_equiv_pos_site_id
 _symmetry_equiv_pos_as_xyz
  1  'x, y, z'
loop_
 _atom_site_type_symbol
 _atom_site_label
 _atom_site_symmetry_multiplicity
 _atom_site_fract_x
 _atom_site_fract_y
 _atom_site_fract_z
 _atom_site_occupancy
  Rb  Rb0  1  0.93928800  0.13164500  0.70782700  1
  Rb  Rb1  1  0.56107400  0.53816800  0.20394700  1
  Rb  Rb2  1  0.06071200  0.86835500  0.29217300  1
  Rb  Rb3  1  0.43892600  0.46183200  0.79605300  1
  Te  Te4  1  0.13207200  0.42853800  0.38775500  1
  Te  Te5  1  0.86792800  0.57146200  0.61224500  1
  H  H6  1  0.39055200  0.14246800  0.30574200  1
  H  H7  1  0.40277300  0.04927700  0.62773000  1
  H  H8  1  0.50389800  0.05455600  0.18486200  1
  H  H9  1  0.28875400  0.13768200  0.96215800  1
  H  H10  1  0.19240400  0.86338800  0.82204900  1
  H  H11  1  0.71207900  0.15034000  0.02145200  1
  H  H12  1  0.58660100  0.35823100  0.50118000  1
  H  H13  1  0.91165300  0.38192700  0.06223900  1
  H  H14  1  0.78304900  0.70411400  0.94590200  1
  H  H15  1  0.08834700  0.61807300  0.93776100  1
  H  H16  1  0.83069600  0.42691800  0.91270000  1
  H  H17  1  0.86318300  0.24001800  0.40929300  1
  H  H18  1  0.71124600  0.86231800  0.03784200  1
  H  H19  1  0.41339900  0.64176900  0.49882000  1
  H  H20  1  0.67895200  0.83111300  0.47312000  1
  H  H21  1  0.60944800  0.85753200  0.69425800  1
  H  H22  1  0.59722700  0.95072300  0.37227000  1
  H  H23  1  0.16930400  0.57308200  0.08730000  1
  H  H24  1  0.80759600  0.13661200  0.17795100  1
  H  H25  1  0.21695100  0.29588600  0.05409800  1
  H  H26  1  0.32104800  0.16888700  0.52688000  1
  H  H27  1  0.28792100  0.84966000  0.97854800  1
  H  H28  1  0.49610200  0.94544400  0.81513800  1
  H  H29  1  0.13681700  0.75998200  0.59070700  1
  O  O30  1  0.88062600  0.57136800  0.81277100  1
  O  O31  1  0.71421200  0.90943300  0.41384000  1
  O  O32  1  0.79955900  0.35734000  0.98159400  1
  O  O33  1  0.35148400  0.32052100  0.41760100  1
  O  O34  1  0.71882100  0.74438300  0.03106800  1
  O  O35  1  0.28117900  0.25561700  0.96893200  1
  O  O36  1  0.09478000  0.44501000  0.59938700  1
  O  O37  1  0.70892200  0.08088100  0.09314900  1
  O  O38  1  0.95643000  0.21931400  0.34080200  1
  O  O39  1  0.11937400  0.42863200  0.18722900  1
  O  O40  1  0.04357000  0.78068600  0.65919800  1
  O  O41  1  0.20044100  0.64266000  0.01840600  1
  O  O42  1  0.42037900  0.03292900  0.25528000  1
  O  O43  1  0.28164700  0.64955600  0.44941700  1
  O  O44  1  0.28578800  0.09056700  0.58616000  1
  O  O45  1  0.64851600  0.67947900  0.58239900  1
  O  O46  1  0.90522000  0.55499000  0.40061300  1
  O  O47  1  0.29107800  0.91911900  0.90685100  1
  O  O48  1  0.57962100  0.96707100  0.74472000  1
  O  O49  1  0.71835300  0.35044400  0.55058300  1
