# generated using pymatgen
data_Rb3MnO3
_symmetry_space_group_name_H-M   'P 1'
_cell_length_a   7.04606859
_cell_length_b   7.18210683
_cell_length_c   12.04601179
_cell_angle_alpha   90.06295020
_cell_angle_beta   90.05511105
_cell_angle_gamma   98.83952648
_symmetry_Int_Tables_number   1
_chemical_formula_structural   Rb3MnO3
_chemical_formula_sum   'Rb12 Mn4 O12'
_cell_volume   602.35469555
_cell_formula_units_Z   4
loop_
 _symmetry_equiv_pos_site_id
 _symmetry_equiv_pos_as_xyz
  1  'x, y, z'
loop_
 _atom_site_type_symbol
 _atom_site_label
 _atom_site_symmetry_multiplicity
 _atom_site_fract_x
 _atom_site_fract_y
 _atom_site_fract_z
 _atom_site_occupancy
  Rb  Rb0  1  0.00705900  0.07772700  0.27211500  1
  Rb  Rb1  1  0.99307700  0.92235100  0.72796200  1
  Rb  Rb2  1  0.00710300  0.57773000  0.22783400  1
  Rb  Rb3  1  0.99302100  0.42237400  0.77209300  1
  Rb  Rb4  1  0.53121600  0.50558200  0.71047000  1
  Rb  Rb5  1  0.53125500  0.00557700  0.78954600  1
  Rb  Rb6  1  0.46889000  0.49452300  0.28956400  1
  Rb  Rb7  1  0.46885200  0.99453200  0.21051500  1
  Rb  Rb8  1  0.34312300  0.64144000  0.98978200  1
  Rb  Rb9  1  0.34305300  0.14138000  0.51029000  1
  Rb  Rb10  1  0.65696700  0.85857700  0.48974700  1
  Rb  Rb11  1  0.65698300  0.35863500  0.01030200  1
  Mn  Mn12  1  0.84333700  0.84533400  0.00367000  1
  Mn  Mn13  1  0.15660200  0.65476700  0.50343400  1
  Mn  Mn14  1  0.15666600  0.15471900  0.99645100  1
  Mn  Mn15  1  0.84323300  0.34512900  0.49635200  1
  O  O16  1  0.27010400  0.80104600  0.38312700  1
  O  O17  1  0.72960300  0.69876000  0.88314100  1
  O  O18  1  0.72986100  0.19890000  0.61681500  1
  O  O19  1  0.27043400  0.30129300  0.11689300  1
  O  O20  1  0.89592300  0.09530100  0.93039900  1
  O  O21  1  0.10390500  0.40451200  0.43021200  1
  O  O22  1  0.89592300  0.59532700  0.56962400  1
  O  O23  1  0.10402400  0.90473300  0.06968500  1
  O  O24  1  0.30031800  0.77069100  0.62494800  1
  O  O25  1  0.69945900  0.22905400  0.37494800  1
  O  O26  1  0.69966800  0.72932500  0.12506100  1
  O  O27  1  0.30034300  0.27068000  0.87502000  1
