# generated using pymatgen
data_Bi6PtCl10
_symmetry_space_group_name_H-M   'P 1'
_cell_length_a   9.95781100
_cell_length_b   17.03233200
_cell_length_c   26.93796500
_cell_angle_alpha   90.00000000
_cell_angle_beta   90.00000000
_cell_angle_gamma   90.00000000
_symmetry_Int_Tables_number   1
_chemical_formula_structural   Bi6PtCl10
_chemical_formula_sum   'Bi48 Pt8 Cl80'
_cell_volume   4568.80662929
_cell_formula_units_Z   8
loop_
 _symmetry_equiv_pos_site_id
 _symmetry_equiv_pos_as_xyz
  1  'x, y, z'
loop_
 _atom_site_type_symbol
 _atom_site_label
 _atom_site_symmetry_multiplicity
 _atom_site_fract_x
 _atom_site_fract_y
 _atom_site_fract_z
 _atom_site_occupancy
  Bi  Bi0  1  0.14754800  0.92775000  0.57334400  1
  Bi  Bi1  1  0.34309100  0.63241800  0.99146600  1
  Bi  Bi2  1  0.15690900  0.13241800  0.50853400  1
  Bi  Bi3  1  0.29491700  0.42093800  0.25000000  1
  Bi  Bi4  1  0.35245200  0.42775000  0.92665600  1
  Bi  Bi5  1  0.63286000  0.35683000  0.32028900  1
  Bi  Bi6  1  0.31623500  0.44494000  0.43302800  1
  Bi  Bi7  1  0.65690900  0.36758200  0.49146600  1
  Bi  Bi8  1  0.81623500  0.05506000  0.56697200  1
  Bi  Bi9  1  0.13286000  0.14317000  0.67971100  1
  Bi  Bi10  1  0.36714000  0.64317000  0.67971100  1
  Bi  Bi11  1  0.85245200  0.07225000  0.42665600  1
  Bi  Bi12  1  0.80629500  0.27578100  0.67949400  1
  Bi  Bi13  1  0.86714000  0.85683000  0.32028900  1
  Bi  Bi14  1  0.31623500  0.44494000  0.06697200  1
  Bi  Bi15  1  0.80629500  0.27578100  0.82050600  1
  Bi  Bi16  1  0.36714000  0.64317000  0.82028900  1
  Bi  Bi17  1  0.70508300  0.57906200  0.75000000  1
  Bi  Bi18  1  0.30629500  0.22421900  0.17949400  1
  Bi  Bi19  1  0.13286000  0.14317000  0.82028900  1
  Bi  Bi20  1  0.81623500  0.05506000  0.93302800  1
  Bi  Bi21  1  0.85245200  0.07225000  0.07334400  1
  Bi  Bi22  1  0.84309100  0.86758200  0.00853400  1
  Bi  Bi23  1  0.18376500  0.94494000  0.43302800  1
  Bi  Bi24  1  0.19370500  0.72421900  0.17949400  1
  Bi  Bi25  1  0.35245200  0.42775000  0.57334400  1
  Bi  Bi26  1  0.15690900  0.13241800  0.99146600  1
  Bi  Bi27  1  0.34309100  0.63241800  0.50853400  1
  Bi  Bi28  1  0.14754800  0.92775000  0.92665600  1
  Bi  Bi29  1  0.30629500  0.22421900  0.32050600  1
  Bi  Bi30  1  0.64754800  0.57225000  0.42665600  1
  Bi  Bi31  1  0.37643000  0.83887700  0.75000000  1
  Bi  Bi32  1  0.79491700  0.07906200  0.75000000  1
  Bi  Bi33  1  0.64754800  0.57225000  0.07334400  1
  Bi  Bi34  1  0.20508300  0.92093800  0.25000000  1
  Bi  Bi35  1  0.87643000  0.66112300  0.25000000  1
  Bi  Bi36  1  0.69370500  0.77578100  0.82050600  1
  Bi  Bi37  1  0.84309100  0.86758200  0.49146600  1
  Bi  Bi38  1  0.86714000  0.85683000  0.17971100  1
  Bi  Bi39  1  0.12357000  0.33887700  0.75000000  1
  Bi  Bi40  1  0.68376500  0.55506000  0.93302800  1
  Bi  Bi41  1  0.63286000  0.35683000  0.17971100  1
  Bi  Bi42  1  0.19370500  0.72421900  0.32050600  1
  Bi  Bi43  1  0.68376500  0.55506000  0.56697200  1
  Bi  Bi44  1  0.62357000  0.16112300  0.25000000  1
  Bi  Bi45  1  0.69370500  0.77578100  0.67949400  1
  Bi  Bi46  1  0.65690900  0.36758200  0.00853400  1
  Bi  Bi47  1  0.18376500  0.94494000  0.06697200  1
  Pt  Pt48  1  0.53579700  0.70545900  0.75000000  1
  Pt  Pt49  1  0.03579700  0.79454100  0.25000000  1
  Pt  Pt50  1  0.46420300  0.29454100  0.25000000  1
  Pt  Pt51  1  0.50000000  0.50000000  0.00000000  1
  Pt  Pt52  1  0.00000000  0.00000000  0.00000000  1
  Pt  Pt53  1  0.50000000  0.50000000  0.50000000  1
  Pt  Pt54  1  0.96420300  0.20545900  0.75000000  1
  Pt  Pt55  1  0.00000000  0.00000000  0.50000000  1
  Cl  Cl56  1  0.46182200  0.09252300  0.32094200  1
  Cl  Cl57  1  0.86072100  0.63761800  0.67969500  1
  Cl  Cl58  1  0.78868200  0.22764600  0.17573400  1
  Cl  Cl59  1  0.31574900  0.05803100  0.57988100  1
  Cl  Cl60  1  0.21131800  0.77235400  0.67573400  1
  Cl  Cl61  1  0.71131800  0.72764600  0.32426600  1
  Cl  Cl62  1  0.14316000  0.15915400  0.25000000  1
  Cl  Cl63  1  0.96395300  0.00226300  0.84513400  1
  Cl  Cl64  1  0.35684000  0.65915400  0.25000000  1
  Cl  Cl65  1  0.48608800  0.70470900  0.06653000  1
  Cl  Cl66  1  0.28868200  0.27235400  0.82426600  1
  Cl  Cl67  1  0.53134000  0.69806700  0.90585200  1
  Cl  Cl68  1  0.18425100  0.55803100  0.92011900  1
  Cl  Cl69  1  0.68425100  0.94196900  0.07988100  1
  Cl  Cl70  1  0.66805000  0.91847000  0.56004500  1
  Cl  Cl71  1  0.18425100  0.55803100  0.57988100  1
  Cl  Cl72  1  0.13927900  0.36238200  0.32030500  1
  Cl  Cl73  1  0.98608800  0.79529100  0.93347000  1
  Cl  Cl74  1  0.96182200  0.40747700  0.67905800  1
  Cl  Cl75  1  0.46395300  0.49773700  0.34513400  1
  Cl  Cl76  1  0.27932500  0.06275500  0.75000000  1
  Cl  Cl77  1  0.51391200  0.29529100  0.93347000  1
  Cl  Cl78  1  0.81817900  0.63687200  0.49339900  1
  Cl  Cl79  1  0.48608800  0.70470900  0.43347000  1
  Cl  Cl80  1  0.66805000  0.91847000  0.93995500  1
  Cl  Cl81  1  0.03817800  0.59252300  0.32094200  1
  Cl  Cl82  1  0.53134000  0.69806700  0.59414800  1
  Cl  Cl83  1  0.28868200  0.27235400  0.67573400  1
  Cl  Cl84  1  0.33195000  0.08153000  0.06004500  1
  Cl  Cl85  1  0.03134000  0.80193300  0.09414800  1
  Cl  Cl86  1  0.78868200  0.22764600  0.32426600  1
  Cl  Cl87  1  0.18182100  0.36312800  0.99339900  1
  Cl  Cl88  1  0.36072100  0.86238200  0.17969500  1
  Cl  Cl89  1  0.71131800  0.72764600  0.17573400  1
  Cl  Cl90  1  0.96395300  0.00226300  0.65486600  1
  Cl  Cl91  1  0.96182200  0.40747700  0.82094200  1
  Cl  Cl92  1  0.72067500  0.93724500  0.25000000  1
  Cl  Cl93  1  0.51391200  0.29529100  0.56653000  1
  Cl  Cl94  1  0.77932500  0.43724500  0.25000000  1
  Cl  Cl95  1  0.16805000  0.58153000  0.43995500  1
  Cl  Cl96  1  0.01391200  0.20470900  0.43347000  1
  Cl  Cl97  1  0.86072100  0.63761800  0.82030500  1
  Cl  Cl98  1  0.03134000  0.80193300  0.40585200  1
  Cl  Cl99  1  0.36072100  0.86238200  0.32030500  1
  Cl  Cl100  1  0.03604700  0.99773700  0.15486600  1
  Cl  Cl101  1  0.31817900  0.86312800  0.99339900  1
  Cl  Cl102  1  0.64316000  0.34084600  0.75000000  1
  Cl  Cl103  1  0.31574900  0.05803100  0.92011900  1
  Cl  Cl104  1  0.96866000  0.19806700  0.59414800  1
  Cl  Cl105  1  0.83195000  0.41847000  0.93995500  1
  Cl  Cl106  1  0.53604700  0.50226300  0.84513400  1
  Cl  Cl107  1  0.81574900  0.44196900  0.07988100  1
  Cl  Cl108  1  0.46866000  0.30193300  0.09414800  1
  Cl  Cl109  1  0.98608800  0.79529100  0.56653000  1
  Cl  Cl110  1  0.22067500  0.56275500  0.75000000  1
  Cl  Cl111  1  0.63927900  0.13761800  0.67969500  1
  Cl  Cl112  1  0.53817800  0.90747700  0.82094200  1
  Cl  Cl113  1  0.46395300  0.49773700  0.15486600  1
  Cl  Cl114  1  0.03604700  0.99773700  0.34513400  1
  Cl  Cl115  1  0.68182100  0.13687200  0.49339900  1
  Cl  Cl116  1  0.85684000  0.84084600  0.75000000  1
  Cl  Cl117  1  0.46866000  0.30193300  0.40585200  1
  Cl  Cl118  1  0.03817800  0.59252300  0.17905800  1
  Cl  Cl119  1  0.81574900  0.44196900  0.42011900  1
  Cl  Cl120  1  0.81817900  0.63687200  0.00660100  1
  Cl  Cl121  1  0.53817800  0.90747700  0.67905800  1
  Cl  Cl122  1  0.63927900  0.13761800  0.82030500  1
  Cl  Cl123  1  0.16805000  0.58153000  0.06004500  1
  Cl  Cl124  1  0.46182200  0.09252300  0.17905800  1
  Cl  Cl125  1  0.13927900  0.36238200  0.17969500  1
  Cl  Cl126  1  0.53604700  0.50226300  0.65486600  1
  Cl  Cl127  1  0.68182100  0.13687200  0.00660100  1
  Cl  Cl128  1  0.21131800  0.77235400  0.82426600  1
  Cl  Cl129  1  0.83195000  0.41847000  0.56004500  1
  Cl  Cl130  1  0.96866000  0.19806700  0.90585200  1
  Cl  Cl131  1  0.18182100  0.36312800  0.50660100  1
  Cl  Cl132  1  0.68425100  0.94196900  0.42011900  1
  Cl  Cl133  1  0.33195000  0.08153000  0.43995500  1
  Cl  Cl134  1  0.01391200  0.20470900  0.06653000  1
  Cl  Cl135  1  0.31817900  0.86312800  0.50660100  1
