# generated using pymatgen
data_K2Na3SiP3
_symmetry_space_group_name_H-M   'P 1'
_cell_length_a   4.80082200
_cell_length_b   13.22247500
_cell_length_c   14.66371500
_cell_angle_alpha   90.00000000
_cell_angle_beta   90.00000000
_cell_angle_gamma   90.00000000
_symmetry_Int_Tables_number   1
_chemical_formula_structural   K2Na3SiP3
_chemical_formula_sum   'K8 Na12 Si4 P12'
_cell_volume   930.83428205
_cell_formula_units_Z   4
loop_
 _symmetry_equiv_pos_site_id
 _symmetry_equiv_pos_as_xyz
  1  'x, y, z'
loop_
 _atom_site_type_symbol
 _atom_site_label
 _atom_site_symmetry_multiplicity
 _atom_site_fract_x
 _atom_site_fract_y
 _atom_site_fract_z
 _atom_site_occupancy
  K  K0  1  0.25000000  0.94057000  0.29826100  1
  K  K1  1  0.75000000  0.05943000  0.70173900  1
  K  K2  1  0.75000000  0.44057000  0.20173900  1
  K  K3  1  0.25000000  0.55943000  0.79826100  1
  K  K4  1  0.25000000  0.13620200  0.51198900  1
  K  K5  1  0.75000000  0.86379800  0.48801100  1
  K  K6  1  0.75000000  0.63620200  0.98801100  1
  K  K7  1  0.25000000  0.36379800  0.01198900  1
  Na  Na8  1  0.25000000  0.42885500  0.55909700  1
  Na  Na9  1  0.75000000  0.57114500  0.44090300  1
  Na  Na10  1  0.75000000  0.92885500  0.94090300  1
  Na  Na11  1  0.25000000  0.07114500  0.05909700  1
  Na  Na12  1  0.25000000  0.81711800  0.08402200  1
  Na  Na13  1  0.75000000  0.18288200  0.91597800  1
  Na  Na14  1  0.75000000  0.31711800  0.41597800  1
  Na  Na15  1  0.25000000  0.68288200  0.58402200  1
  Na  Na16  1  0.25000000  0.23381400  0.25752600  1
  Na  Na17  1  0.75000000  0.76618600  0.74247400  1
  Na  Na18  1  0.75000000  0.73381400  0.24247400  1
  Na  Na19  1  0.25000000  0.26618600  0.75752600  1
  Si  Si20  1  0.25000000  0.58436000  0.29678000  1
  Si  Si21  1  0.75000000  0.41564000  0.70322000  1
  Si  Si22  1  0.75000000  0.08436000  0.20322000  1
  Si  Si23  1  0.25000000  0.91564000  0.79678000  1
  P  P24  1  0.25000000  0.60406600  0.14806300  1
  P  P25  1  0.75000000  0.39593400  0.85193700  1
  P  P26  1  0.75000000  0.10406600  0.35193700  1
  P  P27  1  0.25000000  0.89593400  0.64806300  1
  P  P28  1  0.25000000  0.43276600  0.35941900  1
  P  P29  1  0.75000000  0.56723400  0.64058100  1
  P  P30  1  0.75000000  0.93276600  0.14058100  1
  P  P31  1  0.25000000  0.06723400  0.85941900  1
  P  P32  1  0.25000000  0.71617000  0.38650800  1
  P  P33  1  0.75000000  0.28383000  0.61349200  1
  P  P34  1  0.75000000  0.21617000  0.11349200  1
  P  P35  1  0.25000000  0.78383000  0.88650800  1
