# generated using pymatgen
data_CsK2BiCl6
_symmetry_space_group_name_H-M   'P 1'
_cell_length_a   13.61967871
_cell_length_b   13.61967871
_cell_length_c   13.25854263
_cell_angle_alpha   81.35997668
_cell_angle_beta   81.35997668
_cell_angle_gamma   33.74796865
_symmetry_Int_Tables_number   1
_chemical_formula_structural   CsK2BiCl6
_chemical_formula_sum   'Cs4 K8 Bi4 Cl24'
_cell_volume   1349.35729359
_cell_formula_units_Z   4
loop_
 _symmetry_equiv_pos_site_id
 _symmetry_equiv_pos_as_xyz
  1  'x, y, z'
loop_
 _atom_site_type_symbol
 _atom_site_label
 _atom_site_symmetry_multiplicity
 _atom_site_fract_x
 _atom_site_fract_y
 _atom_site_fract_z
 _atom_site_occupancy
  Cs  Cs0  1  0.78824200  0.31461300  0.56974200  1
  Cs  Cs1  1  0.21175800  0.68538700  0.43025800  1
  Cs  Cs2  1  0.31461300  0.78824200  0.06974200  1
  Cs  Cs3  1  0.68538700  0.21175800  0.93025800  1
  K  K4  1  0.46985100  0.84345400  0.36881100  1
  K  K5  1  0.97669200  0.34721400  0.20054300  1
  K  K6  1  0.65278600  0.02330800  0.29945700  1
  K  K7  1  0.53014900  0.15654600  0.63118900  1
  K  K8  1  0.15654600  0.53014900  0.13118900  1
  K  K9  1  0.02330800  0.65278600  0.79945700  1
  K  K10  1  0.84345400  0.46985100  0.86881100  1
  K  K11  1  0.34721400  0.97669200  0.70054300  1
  Bi  Bi12  1  0.00000000  0.50000000  0.50000000  1
  Bi  Bi13  1  0.22188500  0.77811500  0.75000000  1
  Bi  Bi14  1  0.77811500  0.22188500  0.25000000  1
  Bi  Bi15  1  0.50000000  0.00000000  0.00000000  1
  Cl  Cl16  1  0.13873800  0.36085400  0.69209400  1
  Cl  Cl17  1  0.39195800  0.47758800  0.68494600  1
  Cl  Cl18  1  0.14061800  0.20453500  0.47347000  1
  Cl  Cl19  1  0.69781300  0.65062000  0.57400000  1
  Cl  Cl20  1  0.65062000  0.69781300  0.07400000  1
  Cl  Cl21  1  0.47758800  0.39195800  0.18494600  1
  Cl  Cl22  1  0.79546500  0.85938200  0.02653000  1
  Cl  Cl23  1  0.90706600  0.96425500  0.70051000  1
  Cl  Cl24  1  0.86126200  0.63914600  0.30790600  1
  Cl  Cl25  1  0.70779100  0.17605100  0.43825500  1
  Cl  Cl26  1  0.20453500  0.14061800  0.97347000  1
  Cl  Cl27  1  0.36085400  0.13873800  0.19209400  1
  Cl  Cl28  1  0.29220900  0.82394900  0.56174500  1
  Cl  Cl29  1  0.85938200  0.79546500  0.52653000  1
  Cl  Cl30  1  0.09293400  0.03574500  0.29949000  1
  Cl  Cl31  1  0.30218700  0.34938000  0.42600000  1
  Cl  Cl32  1  0.63914600  0.86126200  0.80790600  1
  Cl  Cl33  1  0.52241200  0.60804200  0.81505400  1
  Cl  Cl34  1  0.03574500  0.09293400  0.79949000  1
  Cl  Cl35  1  0.96425500  0.90706600  0.20051000  1
  Cl  Cl36  1  0.60804200  0.52241200  0.31505400  1
  Cl  Cl37  1  0.34938000  0.30218700  0.92600000  1
  Cl  Cl38  1  0.82394900  0.29220900  0.06174500  1
  Cl  Cl39  1  0.17605100  0.70779100  0.93825500  1
