# generated using pymatgen
data_NdCoSi2
_symmetry_space_group_name_H-M   'P 1'
_cell_length_a   8.42938085
_cell_length_b   8.42938085
_cell_length_c   4.07003500
_cell_angle_alpha   90.00000000
_cell_angle_beta   90.00000000
_cell_angle_gamma   151.39688203
_symmetry_Int_Tables_number   1
_chemical_formula_structural   NdCoSi2
_chemical_formula_sum   'Nd2 Co2 Si4'
_cell_volume   138.44869999
_cell_formula_units_Z   2
loop_
 _symmetry_equiv_pos_site_id
 _symmetry_equiv_pos_as_xyz
  1  'x, y, z'
loop_
 _atom_site_type_symbol
 _atom_site_label
 _atom_site_symmetry_multiplicity
 _atom_site_fract_x
 _atom_site_fract_y
 _atom_site_fract_z
 _atom_site_occupancy
  Nd  Nd0  1  0.10683200  0.89316800  0.25000000  1
  Nd  Nd1  1  0.89316800  0.10683200  0.75000000  1
  Co  Co2  1  0.68196100  0.31803900  0.75000000  1
  Co  Co3  1  0.31803900  0.68196100  0.25000000  1
  Si  Si4  1  0.75029800  0.24970200  0.25000000  1
  Si  Si5  1  0.24970200  0.75029800  0.75000000  1
  Si  Si6  1  0.54359100  0.45640900  0.75000000  1
  Si  Si7  1  0.45640900  0.54359100  0.25000000  1
