# generated using pymatgen
data_CsNb4Cl11
_symmetry_space_group_name_H-M   'P 1'
_cell_length_a   7.05454600
_cell_length_b   7.16342900
_cell_length_c   16.29615200
_cell_angle_alpha   90.00000000
_cell_angle_beta   90.00000000
_cell_angle_gamma   90.00000000
_symmetry_Int_Tables_number   1
_chemical_formula_structural   CsNb4Cl11
_chemical_formula_sum   'Cs2 Nb8 Cl22'
_cell_volume   823.52179451
_cell_formula_units_Z   2
loop_
 _symmetry_equiv_pos_site_id
 _symmetry_equiv_pos_as_xyz
  1  'x, y, z'
loop_
 _atom_site_type_symbol
 _atom_site_label
 _atom_site_symmetry_multiplicity
 _atom_site_fract_x
 _atom_site_fract_y
 _atom_site_fract_z
 _atom_site_occupancy
  Cs  Cs0  1  0.50000000  0.51833600  0.75000000  1
  Cs  Cs1  1  0.50000000  0.48166400  0.25000000  1
  Nb  Nb2  1  0.00000000  0.88213200  0.35906700  1
  Nb  Nb3  1  0.78624300  0.00000000  0.00000000  1
  Nb  Nb4  1  0.21375700  0.00000000  0.00000000  1
  Nb  Nb5  1  0.00000000  0.88213200  0.14093300  1
  Nb  Nb6  1  0.00000000  0.11786800  0.64093300  1
  Nb  Nb7  1  0.21375700  0.00000000  0.50000000  1
  Nb  Nb8  1  0.78624300  0.00000000  0.50000000  1
  Nb  Nb9  1  0.00000000  0.11786800  0.85906700  1
  Cl  Cl10  1  0.50000000  0.12972200  0.08272900  1
  Cl  Cl11  1  0.24919100  0.69715200  0.07705300  1
  Cl  Cl12  1  0.76976600  0.01243500  0.25000000  1
  Cl  Cl13  1  0.00000000  0.79866000  0.91415500  1
  Cl  Cl14  1  0.00000000  0.20134000  0.08584500  1
  Cl  Cl15  1  0.50000000  0.87027800  0.91727100  1
  Cl  Cl16  1  0.76976600  0.98756500  0.75000000  1
  Cl  Cl17  1  0.00000000  0.79866000  0.58584500  1
  Cl  Cl18  1  0.75080900  0.69715200  0.07705300  1
  Cl  Cl19  1  0.00000000  0.61026600  0.25000000  1
  Cl  Cl20  1  0.00000000  0.20134000  0.41415500  1
  Cl  Cl21  1  0.00000000  0.38973400  0.75000000  1
  Cl  Cl22  1  0.23023400  0.98756500  0.75000000  1
  Cl  Cl23  1  0.75080900  0.69715200  0.42294700  1
  Cl  Cl24  1  0.75080900  0.30284800  0.57705300  1
  Cl  Cl25  1  0.24919100  0.30284800  0.92294700  1
  Cl  Cl26  1  0.75080900  0.30284800  0.92294700  1
  Cl  Cl27  1  0.24919100  0.69715200  0.42294700  1
  Cl  Cl28  1  0.50000000  0.12972200  0.41727100  1
  Cl  Cl29  1  0.24919100  0.30284800  0.57705300  1
  Cl  Cl30  1  0.23023400  0.01243500  0.25000000  1
  Cl  Cl31  1  0.50000000  0.87027800  0.58272900  1
