# generated using pymatgen
data_RbNbSiO5
_symmetry_space_group_name_H-M   'P 1'
_cell_length_a   7.41874200
_cell_length_b   10.46549000
_cell_length_c   20.48842800
_cell_angle_alpha   90.00000000
_cell_angle_beta   90.00000000
_cell_angle_gamma   90.00000000
_symmetry_Int_Tables_number   1
_chemical_formula_structural   RbNbSiO5
_chemical_formula_sum   'Rb12 Nb12 Si12 O60'
_cell_volume   1590.73733039
_cell_formula_units_Z   12
loop_
 _symmetry_equiv_pos_site_id
 _symmetry_equiv_pos_as_xyz
  1  'x, y, z'
loop_
 _atom_site_type_symbol
 _atom_site_label
 _atom_site_symmetry_multiplicity
 _atom_site_fract_x
 _atom_site_fract_y
 _atom_site_fract_z
 _atom_site_occupancy
  Rb  Rb0  1  0.72104200  0.61764700  0.01789600  1
  Rb  Rb1  1  0.74109100  0.61612700  0.34802800  1
  Rb  Rb2  1  0.74250300  0.68651900  0.66743800  1
  Rb  Rb3  1  0.24250300  0.81348100  0.33256200  1
  Rb  Rb4  1  0.25749700  0.18651900  0.83256200  1
  Rb  Rb5  1  0.77895800  0.38235300  0.51789600  1
  Rb  Rb6  1  0.24109100  0.88387300  0.65197200  1
  Rb  Rb7  1  0.75890900  0.38387300  0.84802800  1
  Rb  Rb8  1  0.27895800  0.11764700  0.48210400  1
  Rb  Rb9  1  0.75749700  0.31348100  0.16743800  1
  Rb  Rb10  1  0.25890900  0.11612700  0.15197200  1
  Rb  Rb11  1  0.22104200  0.88235300  0.98210400  1
  Nb  Nb12  1  0.51429900  0.26692400  0.99951200  1
  Nb  Nb13  1  0.26531200  0.48019200  0.42434900  1
  Nb  Nb14  1  0.98570100  0.73307600  0.49951200  1
  Nb  Nb15  1  0.01429900  0.23307600  0.00048800  1
  Nb  Nb16  1  0.73468800  0.98019200  0.07565100  1
  Nb  Nb17  1  0.24129300  0.48423400  0.10401300  1
  Nb  Nb18  1  0.23468800  0.51980800  0.92434900  1
  Nb  Nb19  1  0.48570100  0.76692400  0.50048800  1
  Nb  Nb20  1  0.25870700  0.51576600  0.60401300  1
  Nb  Nb21  1  0.75870600  0.98423400  0.39598700  1
  Nb  Nb22  1  0.74129400  0.01576600  0.89598700  1
  Nb  Nb23  1  0.76531200  0.01980800  0.57565100  1
  Si  Si24  1  0.56618900  0.26877500  0.35026100  1
  Si  Si25  1  0.02286800  0.75721400  0.14944800  1
  Si  Si26  1  0.52286800  0.74278600  0.85055200  1
  Si  Si27  1  0.76543500  0.12256800  0.72950500  1
  Si  Si28  1  0.06618900  0.23122500  0.64973900  1
  Si  Si29  1  0.23456500  0.62256800  0.77049500  1
  Si  Si30  1  0.93381100  0.73122500  0.85026100  1
  Si  Si31  1  0.26543500  0.37743200  0.27049500  1
  Si  Si32  1  0.97713200  0.25721400  0.35055200  1
  Si  Si33  1  0.73456500  0.87743200  0.22950500  1
  Si  Si34  1  0.43381100  0.76877500  0.14973900  1
  Si  Si35  1  0.47713200  0.24278600  0.64944800  1
  O  O36  1  0.92427500  0.87717900  0.56687300  1
  O  O37  1  0.94680400  0.12216400  0.92695900  1
  O  O38  1  0.74379500  0.99623900  0.17859900  1
  O  O39  1  0.07572500  0.37717900  0.93312700  1
  O  O40  1  0.57156100  0.14379900  0.92318100  1
  O  O41  1  0.73420400  0.93414600  0.98491600  1
  O  O42  1  0.97703100  0.14498100  0.59206500  1
  O  O43  1  0.59353100  0.22285500  0.71790400  1
  O  O44  1  0.75620500  0.00376100  0.67859900  1
  O  O45  1  0.42843900  0.64379900  0.57681900  1
  O  O46  1  0.54410700  0.89439400  0.86545600  1
  O  O47  1  0.92467700  0.83163200  0.09003000  1
  O  O48  1  0.76520600  0.31506400  0.00104500  1
  O  O49  1  0.56771900  0.11907700  0.36844500  1
  O  O50  1  0.09353100  0.27714500  0.28209600  1
  O  O51  1  0.04405300  0.70479300  0.78094800  1
  O  O52  1  0.26579600  0.43414600  0.51508400  1
  O  O53  1  0.74049200  0.90912300  0.30642200  1
  O  O54  1  0.07156100  0.35620100  0.07681900  1
  O  O55  1  0.90646900  0.77714500  0.21790400  1
  O  O56  1  0.40646900  0.72285500  0.78209600  1
  O  O57  1  0.45589300  0.39439400  0.63454400  1
  O  O58  1  0.26520600  0.18493600  0.99895500  1
  O  O59  1  0.23420400  0.56585400  0.01508400  1
  O  O60  1  0.27491100  0.17905700  0.66437200  1
  O  O61  1  0.25950800  0.40912300  0.19357800  1
  O  O62  1  0.22508900  0.82094300  0.16437200  1
  O  O63  1  0.55845700  0.89871800  0.56426500  1
  O  O64  1  0.75950800  0.09087700  0.80642200  1
  O  O65  1  0.47703100  0.35501900  0.40793500  1
  O  O66  1  0.72508900  0.67905700  0.83562800  1
  O  O67  1  0.76579600  0.06585400  0.48491600  1
  O  O68  1  0.07532300  0.33163200  0.40997000  1
  O  O69  1  0.54405300  0.79520700  0.21905200  1
  O  O70  1  0.52296900  0.85501900  0.09206500  1
  O  O71  1  0.04410700  0.60560600  0.13454400  1
  O  O72  1  0.92843900  0.85620100  0.42318100  1
  O  O73  1  0.57532300  0.16836800  0.59003000  1
  O  O74  1  0.95589300  0.10560600  0.36545600  1
  O  O75  1  0.43228100  0.61907700  0.13155500  1
  O  O76  1  0.95594700  0.20479300  0.71905200  1
  O  O77  1  0.57572500  0.12282100  0.06687300  1
  O  O78  1  0.06771900  0.38092300  0.63155500  1
  O  O79  1  0.25620500  0.49623900  0.32140100  1
  O  O80  1  0.42467700  0.66836800  0.90997000  1
  O  O81  1  0.23479400  0.81506400  0.49895500  1
  O  O82  1  0.94154300  0.10128200  0.06426500  1
  O  O83  1  0.77491100  0.32094300  0.33562800  1
  O  O84  1  0.73479400  0.68493600  0.50104500  1
  O  O85  1  0.05845700  0.60128200  0.43573500  1
  O  O86  1  0.45594700  0.29520700  0.28094800  1
  O  O87  1  0.93228100  0.88092300  0.86844500  1
  O  O88  1  0.42427500  0.62282100  0.43312700  1
  O  O89  1  0.02296900  0.64498100  0.90793500  1
  O  O90  1  0.55319600  0.87783600  0.42695900  1
  O  O91  1  0.24379500  0.50376100  0.82140100  1
  O  O92  1  0.24049200  0.59087700  0.69357800  1
  O  O93  1  0.44680400  0.37783600  0.07304100  1
  O  O94  1  0.05319600  0.62216400  0.57304100  1
  O  O95  1  0.44154300  0.39871800  0.93573500  1
