# generated using pymatgen
data_SrZnF4
_symmetry_space_group_name_H-M   'P 1'
_cell_length_a   7.10849684
_cell_length_b   7.10849684
_cell_length_c   7.10849684
_cell_angle_alpha   134.16504007
_cell_angle_beta   134.16504007
_cell_angle_gamma   66.83034403
_symmetry_Int_Tables_number   1
_chemical_formula_structural   SrZnF4
_chemical_formula_sum   'Sr2 Zn2 F8'
_cell_volume   181.85606293
_cell_formula_units_Z   2
loop_
 _symmetry_equiv_pos_site_id
 _symmetry_equiv_pos_as_xyz
  1  'x, y, z'
loop_
 _atom_site_type_symbol
 _atom_site_label
 _atom_site_symmetry_multiplicity
 _atom_site_fract_x
 _atom_site_fract_y
 _atom_site_fract_z
 _atom_site_occupancy
  Sr  Sr0  1  0.75000000  0.25000000  0.50000000  1
  Sr  Sr1  1  0.00000000  0.00000000  0.00000000  1
  Zn  Zn2  1  0.25000000  0.75000000  0.50000000  1
  Zn  Zn3  1  0.50000000  0.50000000  0.00000000  1
  F  F4  1  0.42233900  0.84133600  0.09636600  1
  F  F5  1  0.07597200  0.67233900  0.08100300  1
  F  F6  1  0.59133600  0.99496900  0.91899700  1
  F  F7  1  0.74496900  0.32597200  0.90363400  1
  F  F8  1  0.00503100  0.92402800  0.59636600  1
  F  F9  1  0.15866400  0.25503100  0.58100300  1
  F  F10  1  0.67402800  0.57766100  0.41899700  1
  F  F11  1  0.32766100  0.40866400  0.40363400  1
