# generated using pymatgen
data_Sr2CoTeO6
_symmetry_space_group_name_H-M   'P 1'
_cell_length_a   5.69685358
_cell_length_b   5.72486586
_cell_length_c   8.00408990
_cell_angle_alpha   89.69787992
_cell_angle_beta   90.05108011
_cell_angle_gamma   89.61082396
_symmetry_Int_Tables_number   1
_chemical_formula_structural   Sr2CoTeO6
_chemical_formula_sum   'Sr4 Co2 Te2 O12'
_cell_volume   261.03340450
_cell_formula_units_Z   2
loop_
 _symmetry_equiv_pos_site_id
 _symmetry_equiv_pos_as_xyz
  1  'x, y, z'
loop_
 _atom_site_type_symbol
 _atom_site_label
 _atom_site_symmetry_multiplicity
 _atom_site_fract_x
 _atom_site_fract_y
 _atom_site_fract_z
 _atom_site_occupancy
  Sr  Sr0  1  0.48229800  0.49611900  0.74974800  1
  Sr  Sr1  1  0.01845600  0.99466900  0.25047300  1
  Sr  Sr2  1  0.51770200  0.50388100  0.25025200  1
  Sr  Sr3  1  0.98154400  0.00533100  0.74952700  1
  Co  Co4  1  0.50000000  0.00000000  0.50000000  1
  Co  Co5  1  0.00000000  0.50000000  0.00000000  1
  Te  Te6  1  0.50000000  0.00000000  0.00000000  1
  Te  Te7  1  0.00000000  0.50000000  0.50000000  1
  O  O8  1  0.22183600  0.24160500  0.53257200  1
  O  O9  1  0.71974600  0.25762200  0.96675900  1
  O  O10  1  0.77816400  0.75839500  0.46742800  1
  O  O11  1  0.28025400  0.74237800  0.03324100  1
  O  O12  1  0.74037000  0.28233200  0.53278600  1
  O  O13  1  0.76236800  0.78193900  0.03304200  1
  O  O14  1  0.23763200  0.21806100  0.96695800  1
  O  O15  1  0.25963000  0.71766800  0.46721400  1
  O  O16  1  0.99210700  0.43852500  0.25998600  1
  O  O17  1  0.50623100  0.93785100  0.75955100  1
  O  O18  1  0.00789300  0.56147500  0.74001400  1
  O  O19  1  0.49376900  0.06214900  0.24044900  1
