# generated using pymatgen
data_CsV2I3O13
_symmetry_space_group_name_H-M   'P 1'
_cell_length_a   8.21641000
_cell_length_b   9.72598166
_cell_length_c   9.72598166
_cell_angle_alpha   66.73615743
_cell_angle_beta   65.01412019
_cell_angle_gamma   65.01412019
_symmetry_Int_Tables_number   1
_chemical_formula_structural   CsV2I3O13
_chemical_formula_sum   'Cs2 V4 I6 O26'
_cell_volume   615.97773346
_cell_formula_units_Z   2
loop_
 _symmetry_equiv_pos_site_id
 _symmetry_equiv_pos_as_xyz
  1  'x, y, z'
loop_
 _atom_site_type_symbol
 _atom_site_label
 _atom_site_symmetry_multiplicity
 _atom_site_fract_x
 _atom_site_fract_y
 _atom_site_fract_z
 _atom_site_occupancy
  Cs  Cs0  1  0.62161100  0.85908500  0.64091500  1
  Cs  Cs1  1  0.12161100  0.14091500  0.35908500  1
  V  V2  1  0.75105000  0.11003300  0.14707500  1
  V  V3  1  0.25105000  0.64707500  0.61003300  1
  V  V4  1  0.00815700  0.88996800  0.85292500  1
  V  V5  1  0.50815700  0.35292500  0.38996700  1
  I  I6  1  0.11438400  0.23621000  0.75021200  1
  I  I7  1  0.60080600  0.74978800  0.26379000  1
  I  I8  1  0.61438400  0.25021200  0.73621000  1
  I  I9  1  0.89786700  0.52385900  0.97614100  1
  I  I10  1  0.39786700  0.47614100  0.02385900  1
  I  I11  1  0.10080600  0.76379000  0.24978800  1
  O  O12  1  0.44281100  0.14643700  0.81236000  1
  O  O13  1  0.20730600  0.73842500  0.76157500  1
  O  O14  1  0.90160800  0.68764000  0.35356300  1
  O  O15  1  0.46971500  0.72362600  0.48252000  1
  O  O16  1  0.69077300  0.58169200  0.91830800  1
  O  O17  1  0.34239100  0.50000000  0.50000000  1
  O  O18  1  0.59821200  0.01976400  0.28029800  1
  O  O19  1  0.37001000  0.47726900  0.22657300  1
  O  O20  1  0.96971500  0.98251900  0.22362700  1
  O  O21  1  0.89827400  0.98023600  0.71970100  1
  O  O22  1  0.94281100  0.31236000  0.64643700  1
  O  O23  1  0.66354900  0.54711200  0.25319900  1
  O  O24  1  0.96386000  0.24680200  0.95288700  1
  O  O25  1  0.40160800  0.85356200  0.18764000  1
  O  O26  1  0.19077300  0.41830800  0.08169200  1
  O  O27  1  0.07385200  0.52273100  0.77342700  1
  O  O28  1  0.16354900  0.75319800  0.04711300  1
  O  O29  1  0.70730600  0.26157500  0.23842500  1
  O  O30  1  0.17586100  0.01748000  0.77637300  1
  O  O31  1  0.57385200  0.27342700  0.02273100  1
  O  O32  1  0.09821200  0.78029800  0.51976400  1
  O  O33  1  0.39827400  0.21970100  0.48023600  1
  O  O34  1  0.67586100  0.27637300  0.51748000  1
  O  O35  1  0.46386000  0.45288800  0.74680100  1
  O  O36  1  0.87001000  0.72657300  0.97726900  1
  O  O37  1  0.84239100  0.00000000  0.00000000  1
