# generated using pymatgen
data_Dy3Se4O12F
_symmetry_space_group_name_H-M   'P 1'
_cell_length_a   10.46302573
_cell_length_b   10.46302573
_cell_length_c   6.88621000
_cell_angle_alpha   90.00000000
_cell_angle_beta   90.00000000
_cell_angle_gamma   119.99999827
_symmetry_Int_Tables_number   1
_chemical_formula_structural   Dy3Se4O12F
_chemical_formula_sum   'Dy6 Se8 O24 F2'
_cell_volume   652.86815914
_cell_formula_units_Z   2
loop_
 _symmetry_equiv_pos_site_id
 _symmetry_equiv_pos_as_xyz
  1  'x, y, z'
loop_
 _atom_site_type_symbol
 _atom_site_label
 _atom_site_symmetry_multiplicity
 _atom_site_fract_x
 _atom_site_fract_y
 _atom_site_fract_z
 _atom_site_occupancy
  Dy  Dy0  1  0.46217900  0.92435800  0.31736500  1
  Dy  Dy1  1  0.07564200  0.53782100  0.31736500  1
  Dy  Dy2  1  0.53782100  0.46217900  0.81736500  1
  Dy  Dy3  1  0.46217900  0.53782100  0.31736500  1
  Dy  Dy4  1  0.53782100  0.07564200  0.81736500  1
  Dy  Dy5  1  0.92435800  0.46217900  0.81736500  1
  Se  Se6  1  0.69004200  0.84502100  0.08430900  1
  Se  Se7  1  0.15497900  0.84502100  0.08430900  1
  Se  Se8  1  0.84502100  0.69004200  0.58430900  1
  Se  Se9  1  0.84502100  0.15497900  0.58430900  1
  Se  Se10  1  0.33333300  0.66666700  0.75134600  1
  Se  Se11  1  0.30995800  0.15497900  0.58430900  1
  Se  Se12  1  0.66666700  0.33333300  0.25134600  1
  Se  Se13  1  0.15497900  0.30995800  0.08430900  1
  O  O14  1  0.41686400  0.08057200  0.51436300  1
  O  O15  1  0.18224900  0.36449900  0.32395000  1
  O  O16  1  0.81775100  0.18224900  0.82395000  1
  O  O17  1  0.66370700  0.08057200  0.51436300  1
  O  O18  1  0.58313600  0.91942800  0.01436300  1
  O  O19  1  0.66370700  0.58313600  0.51436300  1
  O  O20  1  0.81775100  0.63550100  0.82395000  1
  O  O21  1  0.08057200  0.41686400  0.01436300  1
  O  O22  1  0.41919800  0.58080200  0.63865000  1
  O  O23  1  0.41686400  0.33629300  0.51436300  1
  O  O24  1  0.58080200  0.16160400  0.13865000  1
  O  O25  1  0.41919800  0.83839600  0.63865000  1
  O  O26  1  0.33629300  0.41686400  0.01436300  1
  O  O27  1  0.58080200  0.41919800  0.13865000  1
  O  O28  1  0.83839600  0.41919800  0.13865000  1
  O  O29  1  0.58313600  0.66370700  0.01436300  1
  O  O30  1  0.63550100  0.81775100  0.32395000  1
  O  O31  1  0.91942800  0.58313600  0.51436300  1
  O  O32  1  0.18224900  0.81775100  0.32395000  1
  O  O33  1  0.33629300  0.91942800  0.01436300  1
  O  O34  1  0.91942800  0.33629300  0.51436300  1
  O  O35  1  0.36449900  0.18224900  0.82395000  1
  O  O36  1  0.08057200  0.66370700  0.01436300  1
  O  O37  1  0.16160400  0.58080200  0.63865000  1
  F  F38  1  0.66666700  0.33333300  0.77194200  1
  F  F39  1  0.33333300  0.66666700  0.27194200  1
