# generated using pymatgen
data_UV2PbO9
_symmetry_space_group_name_H-M   'P 1'
_cell_length_a   9.90611900
_cell_length_b   7.02201000
_cell_length_c   13.65989536
_cell_angle_alpha   61.74453890
_cell_angle_beta   90.00000000
_cell_angle_gamma   90.00000000
_symmetry_Int_Tables_number   1
_chemical_formula_structural   UV2PbO9
_chemical_formula_sum   'U4 V8 Pb4 O36'
_cell_volume   836.97436415
_cell_formula_units_Z   4
loop_
 _symmetry_equiv_pos_site_id
 _symmetry_equiv_pos_as_xyz
  1  'x, y, z'
loop_
 _atom_site_type_symbol
 _atom_site_label
 _atom_site_symmetry_multiplicity
 _atom_site_fract_x
 _atom_site_fract_y
 _atom_site_fract_z
 _atom_site_occupancy
  U  U0  1  0.00010800  0.27520600  0.27102100  1
  U  U1  1  0.99989200  0.72479400  0.72897900  1
  U  U2  1  0.49989200  0.27520600  0.77102100  1
  U  U3  1  0.50010800  0.72479400  0.22897900  1
  V  V4  1  0.72742700  0.68272200  0.53816400  1
  V  V5  1  0.77257300  0.68272200  0.03816400  1
  V  V6  1  0.04180000  0.23466800  0.66993000  1
  V  V7  1  0.54180000  0.76533200  0.83007000  1
  V  V8  1  0.22742700  0.31727800  0.96183600  1
  V  V9  1  0.45820000  0.23466800  0.16993000  1
  V  V10  1  0.95820000  0.76533200  0.33007000  1
  V  V11  1  0.27257300  0.31727800  0.46183600  1
  Pb  Pb12  1  0.69297900  0.15255800  0.53588200  1
  Pb  Pb13  1  0.80702100  0.15255800  0.03588200  1
  Pb  Pb14  1  0.30702100  0.84744200  0.46411800  1
  Pb  Pb15  1  0.19297900  0.84744200  0.96411800  1
  O  O16  1  0.64939200  0.63963700  0.95105400  1
  O  O17  1  0.85060800  0.63963700  0.45105400  1
  O  O18  1  0.34334000  0.56595500  0.37124400  1
  O  O19  1  0.37665800  0.82178200  0.11535200  1
  O  O20  1  0.38741300  0.00037200  0.27215800  1
  O  O21  1  0.61258700  0.99962800  0.72784200  1
  O  O22  1  0.18802600  0.21029500  0.38661200  1
  O  O23  1  0.62040000  0.61460400  0.34323400  1
  O  O24  1  0.00201600  0.58683800  0.28081200  1
  O  O25  1  0.14939200  0.36036300  0.54894600  1
  O  O26  1  0.81197400  0.78970500  0.61338800  1
  O  O27  1  0.09137500  0.88214700  0.36175800  1
  O  O28  1  0.65666000  0.43404500  0.62875600  1
  O  O29  1  0.37960000  0.38539600  0.65676600  1
  O  O30  1  0.40862500  0.88214700  0.86175800  1
  O  O31  1  0.11258700  0.00037200  0.77215800  1
  O  O32  1  0.89455900  0.86750300  0.97356600  1
  O  O33  1  0.68802600  0.78970500  0.11338800  1
  O  O34  1  0.62334200  0.17821800  0.88464800  1
  O  O35  1  0.87960000  0.61460400  0.84323400  1
  O  O36  1  0.35060800  0.36036300  0.04894600  1
  O  O37  1  0.12334200  0.82178200  0.61535200  1
  O  O38  1  0.39455900  0.13249700  0.52643400  1
  O  O39  1  0.84334000  0.43404500  0.12875600  1
  O  O40  1  0.90862500  0.11785300  0.63824200  1
  O  O41  1  0.59137500  0.11785300  0.13824200  1
  O  O42  1  0.60544100  0.86750300  0.47356600  1
  O  O43  1  0.88741300  0.99962800  0.22784200  1
  O  O44  1  0.99798400  0.41316200  0.71918800  1
  O  O45  1  0.31197400  0.21029500  0.88661200  1
  O  O46  1  0.87665800  0.17821800  0.38464800  1
  O  O47  1  0.12040000  0.38539600  0.15676600  1
  O  O48  1  0.50201600  0.41316200  0.21918800  1
  O  O49  1  0.15666000  0.56595500  0.87124400  1
  O  O50  1  0.49798400  0.58683800  0.78081200  1
  O  O51  1  0.10544100  0.13249700  0.02643400  1
