# generated using pymatgen
data_Rb4Ti2P6Se25
_symmetry_space_group_name_H-M   'P 1'
_cell_length_a   26.57081701
_cell_length_b   19.51167386
_cell_length_c   18.70935447
_cell_angle_alpha   88.05835314
_cell_angle_beta   47.21482105
_cell_angle_gamma   44.72682581
_symmetry_Int_Tables_number   1
_chemical_formula_structural   Rb4Ti2P6Se25
_chemical_formula_sum   'Rb8 Ti4 P12 Se50'
_cell_volume   2480.61101865
_cell_formula_units_Z   2
loop_
 _symmetry_equiv_pos_site_id
 _symmetry_equiv_pos_as_xyz
  1  'x, y, z'
loop_
 _atom_site_type_symbol
 _atom_site_label
 _atom_site_symmetry_multiplicity
 _atom_site_fract_x
 _atom_site_fract_y
 _atom_site_fract_z
 _atom_site_occupancy
  Rb  Rb0  1  0.21308900  0.93414800  0.93322800  1
  Rb  Rb1  1  0.74234000  0.96855100  0.37138400  1
  Rb  Rb2  1  0.31585200  0.03691100  0.33046500  1
  Rb  Rb3  1  0.31677200  0.33046500  0.03691100  1
  Rb  Rb4  1  0.87861600  0.33227600  0.50766000  1
  Rb  Rb5  1  0.91953500  0.93322800  0.93414800  1
  Rb  Rb6  1  0.91772400  0.37138400  0.96855100  1
  Rb  Rb7  1  0.28144900  0.50766000  0.33227600  1
  Ti  Ti8  1  0.34544300  0.21775700  0.40680000  1
  Ti  Ti9  1  0.03224300  0.90455700  0.22000000  1
  Ti  Ti10  1  0.84320000  0.22000000  0.90455700  1
  Ti  Ti11  1  0.03000000  0.40680000  0.21775700  1
  P  P12  1  0.22875900  0.34090700  0.34222200  1
  P  P13  1  0.08811300  0.34222200  0.34090700  1
  P  P14  1  0.73693200  0.47530200  0.92834300  1
  P  P15  1  0.90909300  0.02124100  0.16188700  1
  P  P16  1  0.77469800  0.51306800  0.39057600  1
  P  P17  1  0.32165700  0.39057600  0.51306800  1
  P  P18  1  0.85942400  0.92834300  0.47530200  1
  P  P19  1  0.85641700  0.06774000  0.79211600  1
  P  P20  1  0.90777800  0.16188700  0.02124100  1
  P  P21  1  0.45788400  0.96627400  0.39358300  1
  P  P22  1  0.28372600  0.79211600  0.06774000  1
  P  P23  1  0.18226000  0.39358300  0.96627400  1
  Se  Se24  1  0.58285300  0.55842600  0.15782600  1
  Se  Se25  1  0.35793300  0.14206700  0.14206700  1
  Se  Se26  1  0.75685900  0.02151900  0.68917900  1
  Se  Se27  1  0.75150100  0.42706100  0.43987100  1
  Se  Se28  1  0.10078700  0.89028800  0.62226500  1
  Se  Se29  1  0.24365100  0.13855000  0.11122700  1
  Se  Se30  1  0.92114900  0.44089200  0.57434600  1
  Se  Se31  1  0.18828900  0.28411500  0.65003800  1
  Se  Se32  1  0.11145000  0.00634900  0.74342900  1
  Se  Se33  1  0.82293900  0.49849900  0.86843400  1
  Se  Se34  1  0.13877300  0.74342900  0.00634900  1
  Se  Se35  1  0.44796000  0.59684800  0.01611500  1
  Se  Se36  1  0.23388500  0.31092400  0.80204000  1
  Se  Se37  1  0.07406100  0.27237000  0.08333000  1
  Se  Se38  1  0.10793300  0.89206700  0.89206700  1
  Se  Se39  1  0.59996200  0.37244200  0.06171100  1
  Se  Se40  1  0.22848100  0.49314100  0.71755700  1
  Se  Se41  1  0.06361200  0.57434600  0.44089200  1
  Se  Se42  1  0.69157400  0.66714700  0.54910500  1
  Se  Se43  1  0.53244300  0.68917900  0.02151900  1
  Se  Se44  1  0.67342900  0.33025800  0.17551900  1
  Se  Se45  1  0.81012900  0.86843400  0.49849900  1
  Se  Se46  1  0.45531600  0.93203900  0.58288300  1
  Se  Se47  1  0.65315200  0.80204000  0.31092400  1
  Se  Se48  1  0.70089500  0.15782600  0.55842600  1
  Se  Se49  1  0.25539900  0.43153100  0.90733600  1
  Se  Se50  1  0.34266400  0.84426600  0.99460100  1
  Se  Se51  1  0.50657100  0.11122700  0.13855000  1
  Se  Se52  1  0.31796100  0.79468400  0.22023900  1
  Se  Se53  1  0.02976100  0.58288300  0.93203900  1
  Se  Se54  1  0.67565400  0.18638800  0.32885100  1
  Se  Se55  1  0.87755800  0.65003800  0.28411500  1
  Se  Se56  1  0.09217400  0.54910500  0.66714700  1
  Se  Se57  1  0.07448100  0.42920600  0.57657100  1
  Se  Se58  1  0.66711700  0.22023900  0.79468400  1
  Se  Se59  1  0.81846900  0.99460100  0.84426600  1
  Se  Se60  1  0.93907600  0.01611500  0.59684800  1
  Se  Se61  1  0.97763000  0.17593900  0.67976100  1
  Se  Se62  1  0.35971200  0.14921300  0.86334000  1
  Se  Se63  1  0.91974200  0.57657100  0.42920600  1
  Se  Se64  1  0.82079400  0.17551900  0.33025800  1
  Se  Se65  1  0.56082100  0.71755700  0.49314100  1
  Se  Se66  1  0.62773500  0.86334000  0.14921300  1
  Se  Se67  1  0.38666000  0.62226500  0.89028800  1
  Se  Se68  1  0.57023900  0.08333000  0.27237000  1
  Se  Se69  1  0.96588500  0.06171100  0.37244200  1
  Se  Se70  1  0.38156600  0.43987100  0.42706100  1
  Se  Se71  1  0.40573400  0.90733600  0.43153100  1
  Se  Se72  1  0.16667000  0.67976100  0.17593900  1
  Se  Se73  1  0.80910800  0.32885100  0.18638800  1
