# generated using pymatgen
data_NaLi2BO3
_symmetry_space_group_name_H-M   'P 1'
_cell_length_a   12.18007600
_cell_length_b   4.97813500
_cell_length_c   9.69395096
_cell_angle_alpha   74.25139653
_cell_angle_beta   90.00000000
_cell_angle_gamma   90.00000000
_symmetry_Int_Tables_number   1
_chemical_formula_structural   NaLi2BO3
_chemical_formula_sum   'Na8 Li16 B8 O24'
_cell_volume   565.71932119
_cell_formula_units_Z   8
loop_
 _symmetry_equiv_pos_site_id
 _symmetry_equiv_pos_as_xyz
  1  'x, y, z'
loop_
 _atom_site_type_symbol
 _atom_site_label
 _atom_site_symmetry_multiplicity
 _atom_site_fract_x
 _atom_site_fract_y
 _atom_site_fract_z
 _atom_site_occupancy
  Na  Na0  1  0.88516700  0.65472300  0.60335200  1
  Na  Na1  1  0.19798700  0.97360100  0.82407800  1
  Na  Na2  1  0.69798700  0.02639900  0.67592200  1
  Na  Na3  1  0.61483300  0.65472300  0.10335200  1
  Na  Na4  1  0.80201300  0.02639900  0.17592200  1
  Na  Na5  1  0.38516700  0.34527700  0.89664800  1
  Na  Na6  1  0.11483300  0.34527700  0.39664800  1
  Na  Na7  1  0.30201300  0.97360100  0.32407800  1
  Li  Li8  1  0.00381100  0.24058800  0.02069900  1
  Li  Li9  1  0.34703900  0.77178000  0.64439900  1
  Li  Li10  1  0.64878200  0.18757300  0.94054400  1
  Li  Li11  1  0.14878200  0.81242700  0.55945600  1
  Li  Li12  1  0.10233500  0.47721100  0.79780100  1
  Li  Li13  1  0.60233500  0.52278900  0.70219900  1
  Li  Li14  1  0.49618900  0.24058800  0.52069900  1
  Li  Li15  1  0.99618900  0.75941200  0.97930100  1
  Li  Li16  1  0.84703900  0.22822000  0.85560100  1
  Li  Li17  1  0.89766500  0.52278900  0.20219900  1
  Li  Li18  1  0.15296100  0.77178000  0.14439900  1
  Li  Li19  1  0.85121800  0.18757300  0.44054400  1
  Li  Li20  1  0.39766500  0.47721100  0.29780100  1
  Li  Li21  1  0.65296100  0.22822000  0.35560100  1
  Li  Li22  1  0.50381100  0.75941200  0.47930100  1
  Li  Li23  1  0.35121800  0.81242700  0.05945600  1
  B  B24  1  0.78852100  0.64053500  0.92366700  1
  B  B25  1  0.28852100  0.35946500  0.57633300  1
  B  B26  1  0.71147900  0.64053500  0.42366700  1
  B  B27  1  0.52183500  0.04744100  0.21929500  1
  B  B28  1  0.97816500  0.04744100  0.71929500  1
  B  B29  1  0.02183500  0.95255900  0.28070500  1
  B  B30  1  0.21147900  0.35946500  0.07633300  1
  B  B31  1  0.47816500  0.95255900  0.78070500  1
  O  O32  1  0.49251200  0.13795400  0.34001200  1
  O  O33  1  0.38814200  0.82846400  0.86126200  1
  O  O34  1  0.76610400  0.53487300  0.32220100  1
  O  O35  1  0.24082100  0.10642300  0.05286300  1
  O  O36  1  0.12672500  0.52112400  0.99695700  1
  O  O37  1  0.99251200  0.86204600  0.15998800  1
  O  O38  1  0.53551000  0.17260700  0.80755800  1
  O  O39  1  0.50748800  0.86204600  0.65998800  1
  O  O40  1  0.73389600  0.53487300  0.82220100  1
  O  O41  1  0.96449000  0.17260700  0.30755800  1
  O  O42  1  0.26610400  0.46512700  0.17779900  1
  O  O43  1  0.87327500  0.47887600  0.00304300  1
  O  O44  1  0.37327500  0.52112400  0.49695700  1
  O  O45  1  0.74082100  0.89357700  0.44713700  1
  O  O46  1  0.23389600  0.46512700  0.67779900  1
  O  O47  1  0.11185800  0.82846400  0.36126200  1
  O  O48  1  0.00748800  0.13795400  0.84001200  1
  O  O49  1  0.25917900  0.10642300  0.55286300  1
  O  O50  1  0.62672500  0.47887600  0.50304300  1
  O  O51  1  0.88814200  0.17153600  0.63873800  1
  O  O52  1  0.03551000  0.82739300  0.69244200  1
  O  O53  1  0.61185800  0.17153600  0.13873800  1
  O  O54  1  0.75917900  0.89357700  0.94713700  1
  O  O55  1  0.46449000  0.82739300  0.19244200  1
