# generated using pymatgen
data_Rb5B19O31
_symmetry_space_group_name_H-M   'P 1'
_cell_length_a   10.89759742
_cell_length_b   10.89759742
_cell_length_c   13.47025930
_cell_angle_alpha   85.23583524
_cell_angle_beta   85.23583524
_cell_angle_gamma   64.96833653
_symmetry_Int_Tables_number   1
_chemical_formula_structural   Rb5B19O31
_chemical_formula_sum   'Rb10 B38 O62'
_cell_volume   1442.40039560
_cell_formula_units_Z   2
loop_
 _symmetry_equiv_pos_site_id
 _symmetry_equiv_pos_as_xyz
  1  'x, y, z'
loop_
 _atom_site_type_symbol
 _atom_site_label
 _atom_site_symmetry_multiplicity
 _atom_site_fract_x
 _atom_site_fract_y
 _atom_site_fract_z
 _atom_site_occupancy
  Rb  Rb0  1  0.59253500  0.05973800  0.67007800  1
  Rb  Rb1  1  0.40746500  0.94026200  0.32992200  1
  Rb  Rb2  1  0.27331400  0.39760700  0.68389100  1
  Rb  Rb3  1  0.05973800  0.59253500  0.17007800  1
  Rb  Rb4  1  0.00000000  0.00000000  0.00000000  1
  Rb  Rb5  1  0.39760700  0.27331400  0.18389100  1
  Rb  Rb6  1  0.00000000  0.00000000  0.50000000  1
  Rb  Rb7  1  0.72668600  0.60239300  0.31610900  1
  Rb  Rb8  1  0.60239300  0.72668600  0.81610900  1
  Rb  Rb9  1  0.94026200  0.40746500  0.82992200  1
  B  B10  1  0.72676200  0.75712100  0.53263500  1
  B  B11  1  0.04092300  0.29581600  0.53130300  1
  B  B12  1  0.43908600  0.52802000  0.87938900  1
  B  B13  1  0.38793500  0.61206500  0.25000000  1
  B  B14  1  0.28809500  0.67767200  0.00158300  1
  B  B15  1  0.61206500  0.38793500  0.75000000  1
  B  B16  1  0.90154400  0.96537900  0.24279300  1
  B  B17  1  0.48049900  0.78444000  0.57431100  1
  B  B18  1  0.03462100  0.09845600  0.25720700  1
  B  B19  1  0.89774000  0.75523200  0.64825600  1
  B  B20  1  0.02910400  0.66936400  0.80224400  1
  B  B21  1  0.56091400  0.47198000  0.12061100  1
  B  B22  1  0.10226000  0.24476800  0.35174400  1
  B  B23  1  0.70418400  0.95907700  0.96869700  1
  B  B24  1  0.75712100  0.72676200  0.03263500  1
  B  B25  1  0.97089600  0.33063600  0.19775600  1
  B  B26  1  0.09845600  0.03462100  0.75720700  1
  B  B27  1  0.75523200  0.89774000  0.14825600  1
  B  B28  1  0.27323800  0.24287900  0.46736500  1
  B  B29  1  0.67731200  0.17811800  0.87038000  1
  B  B30  1  0.96537900  0.90154400  0.74279300  1
  B  B31  1  0.67767200  0.28809500  0.50158300  1
  B  B32  1  0.32232800  0.71190500  0.49841700  1
  B  B33  1  0.82188200  0.32268800  0.62962000  1
  B  B34  1  0.95907700  0.70418400  0.46869700  1
  B  B35  1  0.21556000  0.51950100  0.92568900  1
  B  B36  1  0.47198000  0.56091400  0.62061100  1
  B  B37  1  0.71190500  0.32232800  0.99841700  1
  B  B38  1  0.66936400  0.02910400  0.30224400  1
  B  B39  1  0.51950100  0.21556000  0.42568900  1
  B  B40  1  0.24476800  0.10226000  0.85174400  1
  B  B41  1  0.33063600  0.97089600  0.69775600  1
  B  B42  1  0.52802000  0.43908600  0.37938900  1
  B  B43  1  0.24287900  0.27323800  0.96736500  1
  B  B44  1  0.78444000  0.48049900  0.07431100  1
  B  B45  1  0.29581600  0.04092300  0.03130300  1
  B  B46  1  0.17811800  0.67731200  0.37038000  1
  B  B47  1  0.32268800  0.82188200  0.12962000  1
  O  O48  1  0.32209200  0.95142400  0.11487100  1
  O  O49  1  0.99575500  0.71231400  0.56077200  1
  O  O50  1  0.51639300  0.65704700  0.63613900  1
  O  O51  1  0.51721300  0.43539500  0.66870200  1
  O  O52  1  0.88761500  0.89159300  0.67281700  1
  O  O53  1  0.65629200  0.95007500  0.23258900  1
  O  O54  1  0.17306200  0.27581500  0.54732700  1
  O  O55  1  0.79471700  0.03510100  0.30956100  1
  O  O56  1  0.71231400  0.99575500  0.06077200  1
  O  O57  1  0.48278700  0.56460500  0.33129800  1
  O  O58  1  0.04992500  0.34370800  0.26741100  1
  O  O59  1  0.19280300  0.63032100  0.99158200  1
  O  O60  1  0.96489900  0.20528300  0.19043900  1
  O  O61  1  0.36967900  0.80719700  0.50841800  1
  O  O62  1  0.95142400  0.32209200  0.61487100  1
  O  O63  1  0.74346000  0.21768800  0.93581300  1
  O  O64  1  0.25654000  0.78231200  0.06418700  1
  O  O65  1  0.78231200  0.25654000  0.56418700  1
  O  O66  1  0.11238500  0.10840700  0.32718300  1
  O  O67  1  0.89865400  0.44233000  0.13998300  1
  O  O68  1  0.27581500  0.17306200  0.04732700  1
  O  O69  1  0.03510100  0.79471700  0.80956100  1
  O  O70  1  0.55767000  0.10134600  0.36001700  1
  O  O71  1  0.80719700  0.36967900  0.00841800  1
  O  O72  1  0.22991300  0.23833300  0.87420200  1
  O  O73  1  0.21768800  0.74346000  0.43581300  1
  O  O74  1  0.00424500  0.28768600  0.43922800  1
  O  O75  1  0.23833300  0.22991300  0.37420200  1
  O  O76  1  0.67790800  0.04857600  0.88512900  1
  O  O77  1  0.02232700  0.97767300  0.25000000  1
  O  O78  1  0.77581600  0.60103500  0.00873900  1
  O  O79  1  0.62092700  0.25160100  0.78698400  1
  O  O80  1  0.20528300  0.96489900  0.69043900  1
  O  O81  1  0.76166700  0.77008700  0.62579800  1
  O  O82  1  0.56460500  0.48278700  0.83129800  1
  O  O83  1  0.25160100  0.62092700  0.28698400  1
  O  O84  1  0.72418500  0.82693800  0.95267300  1
  O  O85  1  0.74839900  0.37907300  0.71301600  1
  O  O86  1  0.36821400  0.58940200  0.55430800  1
  O  O87  1  0.43539500  0.51721300  0.16870200  1
  O  O88  1  0.34295300  0.48360700  0.86386100  1
  O  O89  1  0.22418400  0.39896500  0.99126100  1
  O  O90  1  0.77008700  0.76166700  0.12579800  1
  O  O91  1  0.60103500  0.77581600  0.50873900  1
  O  O92  1  0.04857600  0.67790800  0.38512900  1
  O  O93  1  0.10134600  0.55767000  0.86001700  1
  O  O94  1  0.65704700  0.51639300  0.13613900  1
  O  O95  1  0.95007500  0.65629200  0.73258900  1
  O  O96  1  0.44233000  0.89865400  0.63998300  1
  O  O97  1  0.97767300  0.02232700  0.75000000  1
  O  O98  1  0.10840700  0.11238500  0.82718300  1
  O  O99  1  0.28768600  0.00424500  0.93922800  1
  O  O100  1  0.89159300  0.88761500  0.17281700  1
  O  O101  1  0.63178600  0.41059800  0.44569200  1
  O  O102  1  0.34370800  0.04992500  0.76741100  1
  O  O103  1  0.48360700  0.34295300  0.36386100  1
  O  O104  1  0.37907300  0.74839900  0.21301600  1
  O  O105  1  0.39896500  0.22418400  0.49126100  1
  O  O106  1  0.63032100  0.19280300  0.49158200  1
  O  O107  1  0.82693800  0.72418500  0.45267300  1
  O  O108  1  0.58940200  0.36821400  0.05430800  1
  O  O109  1  0.41059800  0.63178600  0.94569200  1
