# generated using pymatgen
data_Rb2NaH5(CO4)2
_symmetry_space_group_name_H-M   'P 1'
_cell_length_a   8.23053700
_cell_length_b   9.50468500
_cell_length_c   12.19345400
_cell_angle_alpha   90.00000000
_cell_angle_beta   90.00000000
_cell_angle_gamma   90.00000000
_symmetry_Int_Tables_number   1
_chemical_formula_structural   Rb2NaH5(CO4)2
_chemical_formula_sum   'Rb8 Na4 H20 C8 O32'
_cell_volume   953.87758628
_cell_formula_units_Z   4
loop_
 _symmetry_equiv_pos_site_id
 _symmetry_equiv_pos_as_xyz
  1  'x, y, z'
loop_
 _atom_site_type_symbol
 _atom_site_label
 _atom_site_symmetry_multiplicity
 _atom_site_fract_x
 _atom_site_fract_y
 _atom_site_fract_z
 _atom_site_occupancy
  Rb  Rb0  1  0.48920600  0.77849000  0.10801900  1
  Rb  Rb1  1  0.98920600  0.22151000  0.89198100  1
  Rb  Rb2  1  0.01079400  0.27849000  0.39198100  1
  Rb  Rb3  1  0.51079400  0.72151000  0.60801900  1
  Rb  Rb4  1  0.51079400  0.22151000  0.89198100  1
  Rb  Rb5  1  0.01079400  0.77849000  0.10801900  1
  Rb  Rb6  1  0.98920600  0.72151000  0.60801900  1
  Rb  Rb7  1  0.48920600  0.27849000  0.39198100  1
  Na  Na8  1  0.75000000  0.93926600  0.31618400  1
  Na  Na9  1  0.25000000  0.06073400  0.68381600  1
  Na  Na10  1  0.75000000  0.43926600  0.18381600  1
  Na  Na11  1  0.25000000  0.56073400  0.81618400  1
  H  H12  1  0.75000000  0.49605100  0.47128400  1
  H  H13  1  0.25000000  0.50394900  0.52871600  1
  H  H14  1  0.75000000  0.99605100  0.02871600  1
  H  H15  1  0.25000000  0.00394900  0.97128400  1
  H  H16  1  0.88991000  0.61710500  0.86636800  1
  H  H17  1  0.38991000  0.38289500  0.13363200  1
  H  H18  1  0.61009000  0.11710500  0.63363200  1
  H  H19  1  0.11009000  0.88289500  0.36636800  1
  H  H20  1  0.11009000  0.38289500  0.13363200  1
  H  H21  1  0.61009000  0.61710500  0.86636800  1
  H  H22  1  0.38991000  0.88289500  0.36636800  1
  H  H23  1  0.88991000  0.11710500  0.63363200  1
  H  H24  1  0.88296500  0.48323300  0.79087900  1
  H  H25  1  0.38296500  0.51676700  0.20912100  1
  H  H26  1  0.61703500  0.98323300  0.70912100  1
  H  H27  1  0.11703500  0.01676700  0.29087900  1
  H  H28  1  0.11703500  0.51676700  0.20912100  1
  H  H29  1  0.61703500  0.48323300  0.79087900  1
  H  H30  1  0.38296500  0.01676700  0.29087900  1
  H  H31  1  0.88296500  0.98323300  0.70912100  1
  C  C32  1  0.75000000  0.65013100  0.35613300  1
  C  C33  1  0.25000000  0.34986900  0.64386700  1
  C  C34  1  0.75000000  0.15013100  0.14386700  1
  C  C35  1  0.25000000  0.84986900  0.85613300  1
  C  C36  1  0.75000000  0.35969600  0.63164800  1
  C  C37  1  0.25000000  0.64030400  0.36835200  1
  C  C38  1  0.75000000  0.85969600  0.86835200  1
  C  C39  1  0.25000000  0.14030400  0.13164800  1
  O  O40  1  0.75000000  0.74029900  0.43323400  1
  O  O41  1  0.25000000  0.25970100  0.56676600  1
  O  O42  1  0.75000000  0.24029900  0.06676600  1
  O  O43  1  0.25000000  0.75970100  0.93323400  1
  O  O44  1  0.75000000  0.67929700  0.25381400  1
  O  O45  1  0.25000000  0.32070300  0.74618600  1
  O  O46  1  0.75000000  0.17929700  0.24618600  1
  O  O47  1  0.25000000  0.82070300  0.75381400  1
  O  O48  1  0.75000000  0.51043400  0.38220500  1
  O  O49  1  0.25000000  0.48956600  0.61779500  1
  O  O50  1  0.75000000  0.01043400  0.11779500  1
  O  O51  1  0.25000000  0.98956600  0.88220500  1
  O  O52  1  0.75000000  0.48341000  0.58435500  1
  O  O53  1  0.25000000  0.51659000  0.41564500  1
  O  O54  1  0.75000000  0.98341000  0.91564500  1
  O  O55  1  0.25000000  0.01659000  0.08435500  1
  O  O56  1  0.75000000  0.24555400  0.57298100  1
  O  O57  1  0.25000000  0.75444600  0.42701900  1
  O  O58  1  0.75000000  0.74555400  0.92701900  1
  O  O59  1  0.25000000  0.25444600  0.07298100  1
  O  O60  1  0.75000000  0.35467800  0.73831600  1
  O  O61  1  0.25000000  0.64532200  0.26168400  1
  O  O62  1  0.75000000  0.85467800  0.76168400  1
  O  O63  1  0.25000000  0.14532200  0.23831600  1
  O  O64  1  0.96053100  0.54562600  0.83075400  1
  O  O65  1  0.46053100  0.45437400  0.16924600  1
  O  O66  1  0.53946900  0.04562600  0.66924600  1
  O  O67  1  0.03946900  0.95437400  0.33075400  1
  O  O68  1  0.03946900  0.45437400  0.16924600  1
  O  O69  1  0.53946900  0.54562600  0.83075400  1
  O  O70  1  0.46053100  0.95437400  0.33075400  1
  O  O71  1  0.96053100  0.04562600  0.66924600  1
