# generated using pymatgen
data_Na4Ca(PO3)6
_symmetry_space_group_name_H-M   'P 1'
_cell_length_a   7.78123887
_cell_length_b   7.78123887
_cell_length_c   14.46879915
_cell_angle_alpha   86.30387801
_cell_angle_beta   86.30387801
_cell_angle_gamma   62.84192352
_symmetry_Int_Tables_number   1
_chemical_formula_structural   Na4Ca(PO3)6
_chemical_formula_sum   'Na8 Ca2 P12 O36'
_cell_volume   777.24071252
_cell_formula_units_Z   2
loop_
 _symmetry_equiv_pos_site_id
 _symmetry_equiv_pos_as_xyz
  1  'x, y, z'
loop_
 _atom_site_type_symbol
 _atom_site_label
 _atom_site_symmetry_multiplicity
 _atom_site_fract_x
 _atom_site_fract_y
 _atom_site_fract_z
 _atom_site_occupancy
  Na  Na0  1  0.21494300  0.46070500  0.45458400  1
  Na  Na1  1  0.53929500  0.78505700  0.04541600  1
  Na  Na2  1  0.78505700  0.53929500  0.54541600  1
  Na  Na3  1  0.46070500  0.21494300  0.95458400  1
  Na  Na4  1  0.70883100  0.95911000  0.41657300  1
  Na  Na5  1  0.04089000  0.29116900  0.08342700  1
  Na  Na6  1  0.29116900  0.04089000  0.58342700  1
  Na  Na7  1  0.95911000  0.70883100  0.91657300  1
  Ca  Ca8  1  0.37756200  0.62243800  0.75000000  1
  Ca  Ca9  1  0.62243800  0.37756200  0.25000000  1
  P  P10  1  0.95832700  0.85554500  0.61511800  1
  P  P11  1  0.14445500  0.04167300  0.88488200  1
  P  P12  1  0.04167300  0.14445500  0.38488200  1
  P  P13  1  0.85554500  0.95832700  0.11511800  1
  P  P14  1  0.63407400  0.91093700  0.74752000  1
  P  P15  1  0.08906300  0.36592600  0.75248000  1
  P  P16  1  0.36592600  0.08906300  0.25248000  1
  P  P17  1  0.91093700  0.63407400  0.24752000  1
  P  P18  1  0.60508100  0.22097300  0.61123100  1
  P  P19  1  0.77902700  0.39491900  0.88876900  1
  P  P20  1  0.39491900  0.77902700  0.38876900  1
  P  P21  1  0.22097300  0.60508100  0.11123100  1
  O  O22  1  0.16099800  0.81330400  0.63465700  1
  O  O23  1  0.18669600  0.83900200  0.86534300  1
  O  O24  1  0.83900200  0.18669600  0.36534300  1
  O  O25  1  0.81330400  0.16099800  0.13465700  1
  O  O26  1  0.92132500  0.75860700  0.53798900  1
  O  O27  1  0.24139300  0.07867500  0.96201100  1
  O  O28  1  0.07867500  0.24139300  0.46201100  1
  O  O29  1  0.75860700  0.92132500  0.03798900  1
  O  O30  1  0.83792800  0.08960000  0.59984900  1
  O  O31  1  0.91040000  0.16207200  0.90015100  1
  O  O32  1  0.16207200  0.91040000  0.40015100  1
  O  O33  1  0.08960000  0.83792800  0.09984900  1
  O  O34  1  0.86035500  0.82026900  0.71239800  1
  O  O35  1  0.17973100  0.13964500  0.78760200  1
  O  O36  1  0.13964500  0.17973100  0.28760200  1
  O  O37  1  0.82026900  0.86035500  0.21239800  1
  O  O38  1  0.53444200  0.81836100  0.69805400  1
  O  O39  1  0.18163900  0.46555800  0.80194600  1
  O  O40  1  0.46555800  0.18163900  0.30194600  1
  O  O41  1  0.81836100  0.53444200  0.19805400  1
  O  O42  1  0.63002100  0.90703300  0.85074600  1
  O  O43  1  0.09296700  0.36997900  0.64925400  1
  O  O44  1  0.36997900  0.09296700  0.14925400  1
  O  O45  1  0.90703300  0.63002100  0.35074600  1
  O  O46  1  0.55598400  0.13470000  0.70933200  1
  O  O47  1  0.86530000  0.44401600  0.79066800  1
  O  O48  1  0.44401600  0.86530000  0.29066800  1
  O  O49  1  0.13470000  0.55598400  0.20933200  1
  O  O50  1  0.57233500  0.42217900  0.62839900  1
  O  O51  1  0.57782100  0.42766500  0.87160100  1
  O  O52  1  0.42766500  0.57782100  0.37160100  1
  O  O53  1  0.42217900  0.57233500  0.12839900  1
  O  O54  1  0.50489600  0.18750900  0.53436000  1
  O  O55  1  0.81249100  0.49510400  0.96564000  1
  O  O56  1  0.49510400  0.81249100  0.46564000  1
  O  O57  1  0.18750900  0.50489600  0.03436000  1
