# generated using pymatgen
data_TlPF6
_symmetry_space_group_name_H-M   'P 1'
_cell_length_a   8.04620400
_cell_length_b   8.04620400
_cell_length_c   8.04620400
_cell_angle_alpha   90.00000000
_cell_angle_beta   90.00000000
_cell_angle_gamma   90.00000000
_symmetry_Int_Tables_number   1
_chemical_formula_structural   TlPF6
_chemical_formula_sum   'Tl4 P4 F24'
_cell_volume   520.92250207
_cell_formula_units_Z   4
loop_
 _symmetry_equiv_pos_site_id
 _symmetry_equiv_pos_as_xyz
  1  'x, y, z'
loop_
 _atom_site_type_symbol
 _atom_site_label
 _atom_site_symmetry_multiplicity
 _atom_site_fract_x
 _atom_site_fract_y
 _atom_site_fract_z
 _atom_site_occupancy
  Tl  Tl0  1  0.50000000  0.50000000  0.50000000  1
  Tl  Tl1  1  0.00000000  0.50000000  0.00000000  1
  Tl  Tl2  1  0.00000000  0.00000000  0.50000000  1
  Tl  Tl3  1  0.50000000  0.00000000  0.00000000  1
  P  P4  1  0.00000000  0.00000000  0.00000000  1
  P  P5  1  0.50000000  0.00000000  0.50000000  1
  P  P6  1  0.50000000  0.50000000  0.00000000  1
  P  P7  1  0.00000000  0.50000000  0.50000000  1
  F  F8  1  0.13576800  0.13621000  0.93203500  1
  F  F9  1  0.93203500  0.13576800  0.13621000  1
  F  F10  1  0.13621000  0.93203500  0.13576800  1
  F  F11  1  0.36379000  0.06796500  0.63576800  1
  F  F12  1  0.43203500  0.36423200  0.86379000  1
  F  F13  1  0.86379000  0.43203500  0.36423200  1
  F  F14  1  0.56796500  0.86423200  0.63621000  1
  F  F15  1  0.06796500  0.63576800  0.36379000  1
  F  F16  1  0.63621000  0.56796500  0.86423200  1
  F  F17  1  0.63576800  0.36379000  0.06796500  1
  F  F18  1  0.86423200  0.63621000  0.56796500  1
  F  F19  1  0.36423200  0.86379000  0.43203500  1
  F  F20  1  0.86423200  0.86379000  0.06796500  1
  F  F21  1  0.06796500  0.86423200  0.86379000  1
  F  F22  1  0.86379000  0.06796500  0.86423200  1
  F  F23  1  0.63621000  0.93203500  0.36423200  1
  F  F24  1  0.56796500  0.63576800  0.13621000  1
  F  F25  1  0.13621000  0.56796500  0.63576800  1
  F  F26  1  0.43203500  0.13576800  0.36379000  1
  F  F27  1  0.93203500  0.36423200  0.63621000  1
  F  F28  1  0.36379000  0.43203500  0.13576800  1
  F  F29  1  0.36423200  0.63621000  0.93203500  1
  F  F30  1  0.13576800  0.36379000  0.43203500  1
  F  F31  1  0.63576800  0.13621000  0.56796500  1
