# generated using pymatgen
data_CaLa2B10O19
_symmetry_space_group_name_H-M   'P 1'
_cell_length_a   6.48009191
_cell_length_b   6.48009191
_cell_length_c   9.18774776
_cell_angle_alpha   88.56450808
_cell_angle_beta   88.56450808
_cell_angle_gamma   61.51215719
_symmetry_Int_Tables_number   1
_chemical_formula_structural   CaLa2B10O19
_chemical_formula_sum   'Ca1 La2 B10 O19'
_cell_volume   338.94974238
_cell_formula_units_Z   1
loop_
 _symmetry_equiv_pos_site_id
 _symmetry_equiv_pos_as_xyz
  1  'x, y, z'
loop_
 _atom_site_type_symbol
 _atom_site_label
 _atom_site_symmetry_multiplicity
 _atom_site_fract_x
 _atom_site_fract_y
 _atom_site_fract_z
 _atom_site_occupancy
  Ca  Ca0  1  0.18840400  0.81159600  0.50000000  1
  La  La1  1  0.16480200  0.15988500  0.85571300  1
  La  La2  1  0.84011500  0.83519800  0.14428700  1
  B  B3  1  0.55545000  0.67407600  0.72999900  1
  B  B4  1  0.63735300  0.28408300  0.83902500  1
  B  B5  1  0.16064400  0.18551900  0.20757800  1
  B  B6  1  0.24115200  0.62531900  0.87395200  1
  B  B7  1  0.74665900  0.78823700  0.52902200  1
  B  B8  1  0.37468100  0.75884800  0.12604800  1
  B  B9  1  0.71591700  0.36264700  0.16097500  1
  B  B10  1  0.21176300  0.25334100  0.47097800  1
  B  B11  1  0.32592400  0.44455000  0.27000100  1
  B  B12  1  0.81448100  0.83935600  0.79242200  1
  O  O13  1  0.40998100  0.36671500  0.88663000  1
  O  O14  1  0.59485900  0.70226000  0.57310900  1
  O  O15  1  0.30796300  0.72467700  0.74620700  1
  O  O16  1  0.85579900  0.85335400  0.63557500  1
  O  O17  1  0.29774000  0.40514100  0.42689100  1
  O  O18  1  0.94793300  0.19597200  0.13357200  1
  O  O19  1  0.23498300  0.76501700  0.00000000  1
  O  O20  1  0.16044000  0.40825800  0.18085600  1
  O  O21  1  0.14664600  0.14420100  0.36442500  1
  O  O22  1  0.80402800  0.05206700  0.86642800  1
  O  O23  1  0.27532300  0.69203700  0.25379300  1
  O  O24  1  0.80488600  0.80687000  0.38888600  1
  O  O25  1  0.59174200  0.83956000  0.81914400  1
  O  O26  1  0.19313000  0.19511400  0.61111400  1
  O  O27  1  0.71882200  0.42530100  0.77789100  1
  O  O28  1  0.36508900  0.98959300  0.13622300  1
  O  O29  1  0.63328500  0.59001900  0.11337000  1
  O  O30  1  0.01040700  0.63491100  0.86377700  1
  O  O31  1  0.57469900  0.28117800  0.22210900  1
