# generated using pymatgen
data_Ca3Si(ClO2)2
_symmetry_space_group_name_H-M   'P 1'
_cell_length_a   6.82247300
_cell_length_b   9.92637000
_cell_length_c   10.93581729
_cell_angle_alpha   74.26319590
_cell_angle_beta   90.00000000
_cell_angle_gamma   90.00000000
_symmetry_Int_Tables_number   1
_chemical_formula_structural   Ca3Si(ClO2)2
_chemical_formula_sum   'Ca12 Si4 Cl8 O16'
_cell_volume   712.84033772
_cell_formula_units_Z   4
loop_
 _symmetry_equiv_pos_site_id
 _symmetry_equiv_pos_as_xyz
  1  'x, y, z'
loop_
 _atom_site_type_symbol
 _atom_site_label
 _atom_site_symmetry_multiplicity
 _atom_site_fract_x
 _atom_site_fract_y
 _atom_site_fract_z
 _atom_site_occupancy
  Ca  Ca0  1  0.25874700  0.19727000  0.95417000  1
  Ca  Ca1  1  0.75874700  0.80273000  0.54583000  1
  Ca  Ca2  1  0.74125300  0.80273000  0.04583000  1
  Ca  Ca3  1  0.24125300  0.19727000  0.45417000  1
  Ca  Ca4  1  0.53880400  0.07873300  0.72821200  1
  Ca  Ca5  1  0.03880400  0.92126700  0.77178800  1
  Ca  Ca6  1  0.46119600  0.92126700  0.27178800  1
  Ca  Ca7  1  0.96119600  0.07873300  0.22821200  1
  Ca  Ca8  1  0.78339800  0.42490400  0.88898200  1
  Ca  Ca9  1  0.28339800  0.57509600  0.61101800  1
  Ca  Ca10  1  0.21660200  0.57509600  0.11101800  1
  Ca  Ca11  1  0.71660200  0.42490400  0.38898200  1
  Si  Si12  1  0.75026700  0.11870000  0.97020800  1
  Si  Si13  1  0.25026700  0.88130000  0.52979200  1
  Si  Si14  1  0.24973300  0.88130000  0.02979200  1
  Si  Si15  1  0.74973300  0.11870000  0.47020800  1
  Cl  Cl16  1  0.20115200  0.50799300  0.87532000  1
  Cl  Cl17  1  0.70115200  0.49200700  0.62468000  1
  Cl  Cl18  1  0.79884800  0.49200700  0.12468000  1
  Cl  Cl19  1  0.29884800  0.50799300  0.37532000  1
  Cl  Cl20  1  0.18217200  0.28615000  0.68113400  1
  Cl  Cl21  1  0.68217200  0.71385000  0.81886600  1
  Cl  Cl22  1  0.81782800  0.71385000  0.31886600  1
  Cl  Cl23  1  0.31782800  0.28615000  0.18113400  1
  O  O24  1  0.58318800  0.23310900  0.89640300  1
  O  O25  1  0.08318800  0.76689100  0.60359700  1
  O  O26  1  0.41681200  0.76689100  0.10359700  1
  O  O27  1  0.91681200  0.23310900  0.39640300  1
  O  O28  1  0.93140500  0.21943100  0.99441600  1
  O  O29  1  0.43140500  0.78056900  0.50558400  1
  O  O30  1  0.06859500  0.78056900  0.00558400  1
  O  O31  1  0.56859500  0.21943100  0.49441600  1
  O  O32  1  0.79808600  0.01518100  0.87919600  1
  O  O33  1  0.29808600  0.98481900  0.62080400  1
  O  O34  1  0.20191400  0.98481900  0.12080400  1
  O  O35  1  0.70191400  0.01518100  0.37919600  1
  O  O36  1  0.80728700  0.01357500  0.60996500  1
  O  O37  1  0.30728700  0.98642500  0.89003500  1
  O  O38  1  0.19271300  0.98642500  0.39003500  1
  O  O39  1  0.69271300  0.01357500  0.10996500  1
