# generated using pymatgen
data_Ca(PO3)2
_symmetry_space_group_name_H-M   'P 1'
_cell_length_a   7.83570300
_cell_length_b   7.12080100
_cell_length_c   17.22035222
_cell_angle_alpha   89.61378417
_cell_angle_beta   90.00000000
_cell_angle_gamma   90.00000000
_symmetry_Int_Tables_number   1
_chemical_formula_structural   Ca(PO3)2
_chemical_formula_sum   'Ca8 P16 O48'
_cell_volume   960.81323981
_cell_formula_units_Z   8
loop_
 _symmetry_equiv_pos_site_id
 _symmetry_equiv_pos_as_xyz
  1  'x, y, z'
loop_
 _atom_site_type_symbol
 _atom_site_label
 _atom_site_symmetry_multiplicity
 _atom_site_fract_x
 _atom_site_fract_y
 _atom_site_fract_z
 _atom_site_occupancy
  Ca  Ca0  1  0.86763900  0.01580000  0.17031500  1
  Ca  Ca1  1  0.36763900  0.98420000  0.32968500  1
  Ca  Ca2  1  0.13236100  0.98420000  0.82968500  1
  Ca  Ca3  1  0.63236100  0.01580000  0.67031500  1
  Ca  Ca4  1  0.38451200  0.47434500  0.39697200  1
  Ca  Ca5  1  0.88451200  0.52565500  0.10302800  1
  Ca  Ca6  1  0.61548800  0.52565500  0.60302800  1
  Ca  Ca7  1  0.11548800  0.47434500  0.89697200  1
  P  P8  1  0.70035100  0.13866600  0.46228300  1
  P  P9  1  0.20035100  0.86133400  0.03771700  1
  P  P10  1  0.29964900  0.86133400  0.53771700  1
  P  P11  1  0.79964900  0.13866600  0.96228300  1
  P  P12  1  0.99842600  0.62742700  0.30596300  1
  P  P13  1  0.49842600  0.37257300  0.19403700  1
  P  P14  1  0.00157400  0.37257300  0.69403700  1
  P  P15  1  0.50157400  0.62742700  0.80596300  1
  P  P16  1  0.98867900  0.21860000  0.35309500  1
  P  P17  1  0.48867900  0.78140000  0.14690500  1
  P  P18  1  0.01132100  0.78140000  0.64690500  1
  P  P19  1  0.51132100  0.21860000  0.85309500  1
  P  P20  1  0.78830300  0.73323100  0.91166500  1
  P  P21  1  0.28830300  0.26676900  0.58833500  1
  P  P22  1  0.21169700  0.26676900  0.08833500  1
  P  P23  1  0.71169700  0.73323100  0.41166500  1
  O  O24  1  0.16213800  0.42354700  0.03334000  1
  O  O25  1  0.66213800  0.57645300  0.46666000  1
  O  O26  1  0.83786200  0.57645300  0.96666000  1
  O  O27  1  0.33786200  0.42354700  0.53334000  1
  O  O28  1  0.58866800  0.75926000  0.34507100  1
  O  O29  1  0.08866800  0.24074000  0.15492900  1
  O  O30  1  0.41133200  0.24074000  0.65492900  1
  O  O31  1  0.91133200  0.75926000  0.84507100  1
  O  O32  1  0.55576300  0.17966900  0.40685700  1
  O  O33  1  0.05576300  0.82033100  0.09314300  1
  O  O34  1  0.44423700  0.82033100  0.59314300  1
  O  O35  1  0.94423700  0.17966900  0.90685700  1
  O  O36  1  0.57118000  0.06336100  0.80178700  1
  O  O37  1  0.07118000  0.93663900  0.69821300  1
  O  O38  1  0.42882000  0.93663900  0.19821300  1
  O  O39  1  0.92882000  0.06336100  0.30178700  1
  O  O40  1  0.55879800  0.41045600  0.80967100  1
  O  O41  1  0.05879800  0.58954400  0.69032900  1
  O  O42  1  0.23969300  0.08258300  0.03755500  1
  O  O43  1  0.94120200  0.41045600  0.30967100  1
  O  O44  1  0.32674500  0.22089400  0.87802400  1
  O  O45  1  0.82674500  0.77910600  0.62197600  1
  O  O46  1  0.67325500  0.77910600  0.12197600  1
  O  O47  1  0.17325500  0.22089400  0.37802400  1
  O  O48  1  0.62266200  0.22833200  0.93194200  1
  O  O49  1  0.12266200  0.77166800  0.56805800  1
  O  O50  1  0.37733800  0.77166800  0.06805800  1
  O  O51  1  0.87733800  0.22833200  0.43194200  1
  O  O52  1  0.73969300  0.91741700  0.46244500  1
  O  O53  1  0.90373300  0.70590800  0.38247600  1
  O  O54  1  0.26030700  0.08258300  0.53755500  1
  O  O55  1  0.76030700  0.91741700  0.96244500  1
  O  O56  1  0.68127800  0.19348300  0.54567800  1
  O  O57  1  0.18127800  0.80651700  0.95432200  1
  O  O58  1  0.31872200  0.80651700  0.45432200  1
  O  O59  1  0.81872200  0.19348300  0.04567800  1
  O  O60  1  0.31414400  0.65314000  0.82117100  1
  O  O61  1  0.81414400  0.34686000  0.67882900  1
  O  O62  1  0.68585600  0.34686000  0.17882900  1
  O  O63  1  0.18585600  0.65314000  0.32117100  1
  O  O64  1  0.57587500  0.69929800  0.73139700  1
  O  O65  1  0.07587500  0.30070200  0.76860300  1
  O  O66  1  0.42412500  0.30070200  0.26860300  1
  O  O67  1  0.92412500  0.69929800  0.23139700  1
  O  O68  1  0.59626700  0.70590800  0.88247600  1
  O  O69  1  0.09626700  0.29409200  0.61752400  1
  O  O70  1  0.40373300  0.29409200  0.11752400  1
  O  O71  1  0.44120200  0.58954400  0.19032900  1
