# generated using pymatgen
data_Ba3Si6N4O9
_symmetry_space_group_name_H-M   'P 1'
_cell_length_a   7.32366977
_cell_length_b   7.32366977
_cell_length_c   6.88519900
_cell_angle_alpha   90.00000000
_cell_angle_beta   90.00000000
_cell_angle_gamma   119.99999790
_symmetry_Int_Tables_number   1
_chemical_formula_structural   Ba3Si6N4O9
_chemical_formula_sum   'Ba3 Si6 N4 O9'
_cell_volume   319.81928230
_cell_formula_units_Z   1
loop_
 _symmetry_equiv_pos_site_id
 _symmetry_equiv_pos_as_xyz
  1  'x, y, z'
loop_
 _atom_site_type_symbol
 _atom_site_label
 _atom_site_symmetry_multiplicity
 _atom_site_fract_x
 _atom_site_fract_y
 _atom_site_fract_z
 _atom_site_occupancy
  Ba  Ba0  1  0.33333300  0.66666700  0.68638900  1
  Ba  Ba1  1  0.00000000  0.00000000  0.56023100  1
  Ba  Ba2  1  0.66666700  0.33333300  0.74777500  1
  Si  Si3  1  0.45092400  0.07448900  0.25571900  1
  Si  Si4  1  0.03970300  0.78672000  0.04469900  1
  Si  Si5  1  0.21328000  0.25298400  0.04469900  1
  Si  Si6  1  0.74701600  0.96029700  0.04469900  1
  Si  Si7  1  0.62356400  0.54907600  0.25571900  1
  Si  Si8  1  0.92551100  0.37643600  0.25571900  1
  N  N9  1  0.00000000  0.00000000  0.09397700  1
  N  N10  1  0.86926600  0.57455700  0.19165200  1
  N  N11  1  0.42544300  0.29471000  0.19165200  1
  N  N12  1  0.70529000  0.13073400  0.19165200  1
  O  O13  1  0.29163400  0.88199300  0.10487800  1
  O  O14  1  0.59035800  0.70836600  0.10487800  1
  O  O15  1  0.00968700  0.72032000  0.81804100  1
  O  O16  1  0.27968000  0.28936800  0.81804100  1
  O  O17  1  0.62385000  0.60759500  0.48151000  1
  O  O18  1  0.71063200  0.99031300  0.81804100  1
  O  O19  1  0.39240500  0.01625600  0.48151000  1
  O  O20  1  0.98374400  0.37615000  0.48151000  1
  O  O21  1  0.11800700  0.40964200  0.10487800  1
