# generated using pymatgen
data_K5Ag2(AsSe3)3
_symmetry_space_group_name_H-M   'P 1'
_cell_length_a   12.81368900
_cell_length_b   12.84957700
_cell_length_c   14.34080000
_cell_angle_alpha   90.00000000
_cell_angle_beta   90.00000000
_cell_angle_gamma   90.00000000
_symmetry_Int_Tables_number   1
_chemical_formula_structural   K5Ag2(AsSe3)3
_chemical_formula_sum   'K20 Ag8 As12 Se36'
_cell_volume   2361.21965320
_cell_formula_units_Z   4
loop_
 _symmetry_equiv_pos_site_id
 _symmetry_equiv_pos_as_xyz
  1  'x, y, z'
loop_
 _atom_site_type_symbol
 _atom_site_label
 _atom_site_symmetry_multiplicity
 _atom_site_fract_x
 _atom_site_fract_y
 _atom_site_fract_z
 _atom_site_occupancy
  K  K0  1  0.07902700  0.98070500  0.17285100  1
  K  K1  1  0.92097300  0.51929500  0.67285100  1
  K  K2  1  0.25000000  0.17308100  0.49150300  1
  K  K3  1  0.75000000  0.82691900  0.50849700  1
  K  K4  1  0.07620600  0.32303900  0.99602200  1
  K  K5  1  0.92379400  0.67696100  0.00397800  1
  K  K6  1  0.75000000  0.32691900  0.99150300  1
  K  K7  1  0.07620600  0.82303900  0.50397800  1
  K  K8  1  0.92097300  0.01929500  0.82714900  1
  K  K9  1  0.57620600  0.67696100  0.00397800  1
  K  K10  1  0.25000000  0.67308100  0.00849700  1
  K  K11  1  0.57902700  0.01929500  0.82714900  1
  K  K12  1  0.42379400  0.32303900  0.99602200  1
  K  K13  1  0.57902700  0.51929500  0.67285100  1
  K  K14  1  0.92379400  0.17696100  0.49602200  1
  K  K15  1  0.42097300  0.48070500  0.32714900  1
  K  K16  1  0.07902700  0.48070500  0.32714900  1
  K  K17  1  0.42097300  0.98070500  0.17285100  1
  K  K18  1  0.57620600  0.17696100  0.49602200  1
  K  K19  1  0.42379400  0.82303900  0.50397800  1
  Ag  Ag20  1  0.41107000  0.23724600  0.71269800  1
  Ag  Ag21  1  0.91107000  0.76275400  0.28730200  1
  Ag  Ag22  1  0.91107000  0.26275400  0.21269800  1
  Ag  Ag23  1  0.58893000  0.76275400  0.28730200  1
  Ag  Ag24  1  0.41107000  0.73724600  0.78730200  1
  Ag  Ag25  1  0.58893000  0.26275400  0.21269800  1
  Ag  Ag26  1  0.08893000  0.23724600  0.71269800  1
  Ag  Ag27  1  0.08893000  0.73724600  0.78730200  1
  As  As28  1  0.25000000  0.97955200  0.90723000  1
  As  As29  1  0.75000000  0.53216400  0.21801200  1
  As  As30  1  0.25000000  0.46783600  0.78198800  1
  As  As31  1  0.75000000  0.74909500  0.79647300  1
  As  As32  1  0.25000000  0.96783600  0.71801200  1
  As  As33  1  0.75000000  0.03216400  0.28198800  1
  As  As34  1  0.75000000  0.52044800  0.40723000  1
  As  As35  1  0.25000000  0.47955200  0.59277000  1
  As  As36  1  0.75000000  0.24909500  0.70352700  1
  As  As37  1  0.75000000  0.02044800  0.09277000  1
  As  As38  1  0.25000000  0.25090500  0.20352700  1
  As  As39  1  0.25000000  0.75090500  0.29647300  1
  Se  Se40  1  0.25000000  0.78560300  0.67703200  1
  Se  Se41  1  0.40392100  0.03880800  0.64843100  1
  Se  Se42  1  0.09607900  0.53880800  0.85156900  1
  Se  Se43  1  0.89882400  0.12438700  0.06795200  1
  Se  Se44  1  0.40392100  0.53880800  0.85156900  1
  Se  Se45  1  0.75000000  0.07531200  0.65398200  1
  Se  Se46  1  0.90110100  0.78502500  0.70439100  1
  Se  Se47  1  0.59607900  0.96119200  0.35156900  1
  Se  Se48  1  0.59889900  0.78502500  0.70439100  1
  Se  Se49  1  0.75000000  0.85666100  0.93134700  1
  Se  Se50  1  0.25000000  0.64333900  0.43134700  1
  Se  Se51  1  0.25000000  0.42468800  0.15398200  1
  Se  Se52  1  0.40110100  0.71497500  0.20439100  1
  Se  Se53  1  0.75000000  0.35666100  0.56865300  1
  Se  Se54  1  0.25000000  0.28560300  0.82296800  1
  Se  Se55  1  0.60117600  0.12438700  0.06795200  1
  Se  Se56  1  0.25000000  0.14333900  0.06865300  1
  Se  Se57  1  0.75000000  0.57531200  0.84601800  1
  Se  Se58  1  0.39882400  0.37561300  0.56795200  1
  Se  Se59  1  0.25000000  0.92468800  0.34601800  1
  Se  Se60  1  0.10117600  0.87561300  0.93204800  1
  Se  Se61  1  0.90110100  0.28502500  0.79560900  1
  Se  Se62  1  0.09607900  0.03880800  0.64843100  1
  Se  Se63  1  0.10117600  0.37561300  0.56795200  1
  Se  Se64  1  0.60117600  0.62438700  0.43204800  1
  Se  Se65  1  0.59607900  0.46119200  0.14843100  1
  Se  Se66  1  0.09889900  0.71497500  0.20439100  1
  Se  Se67  1  0.89882400  0.62438700  0.43204800  1
  Se  Se68  1  0.39882400  0.87561300  0.93204800  1
  Se  Se69  1  0.90392100  0.46119200  0.14843100  1
  Se  Se70  1  0.09889900  0.21497500  0.29560900  1
  Se  Se71  1  0.40110100  0.21497500  0.29560900  1
  Se  Se72  1  0.75000000  0.71439700  0.17703200  1
  Se  Se73  1  0.90392100  0.96119200  0.35156900  1
  Se  Se74  1  0.75000000  0.21439700  0.32296800  1
  Se  Se75  1  0.59889900  0.28502500  0.79560900  1
