# generated using pymatgen
data_KTe3O6F
_symmetry_space_group_name_H-M   'P 1'
_cell_length_a   7.31635250
_cell_length_b   7.31635250
_cell_length_c   7.31635343
_cell_angle_alpha   82.31706386
_cell_angle_beta   82.31706386
_cell_angle_gamma   82.31706808
_symmetry_Int_Tables_number   1
_chemical_formula_structural   KTe3O6F
_chemical_formula_sum   'K2 Te6 O12 F2'
_cell_volume   381.95351416
_cell_formula_units_Z   2
loop_
 _symmetry_equiv_pos_site_id
 _symmetry_equiv_pos_as_xyz
  1  'x, y, z'
loop_
 _atom_site_type_symbol
 _atom_site_label
 _atom_site_symmetry_multiplicity
 _atom_site_fract_x
 _atom_site_fract_y
 _atom_site_fract_z
 _atom_site_occupancy
  K  K0  1  0.15280100  0.15280100  0.15280100  1
  K  K1  1  0.84719900  0.84719900  0.84719900  1
  Te  Te2  1  0.64716400  0.87849400  0.36549000  1
  Te  Te3  1  0.12150600  0.63451000  0.35283600  1
  Te  Te4  1  0.63451000  0.35283600  0.12150600  1
  Te  Te5  1  0.87849400  0.36549000  0.64716400  1
  Te  Te6  1  0.36549000  0.64716400  0.87849400  1
  Te  Te7  1  0.35283600  0.12150600  0.63451000  1
  O  O8  1  0.95558600  0.45210500  0.34913100  1
  O  O9  1  0.34913100  0.95558600  0.45210500  1
  O  O10  1  0.54789500  0.65086900  0.04441400  1
  O  O11  1  0.45210500  0.34913100  0.95558600  1
  O  O12  1  0.65699900  0.06236400  0.14753400  1
  O  O13  1  0.14753400  0.65699900  0.06236400  1
  O  O14  1  0.06236400  0.14753400  0.65699900  1
  O  O15  1  0.04441400  0.54789500  0.65086900  1
  O  O16  1  0.34300100  0.93763600  0.85246600  1
  O  O17  1  0.93763600  0.85246600  0.34300100  1
  O  O18  1  0.85246600  0.34300100  0.93763600  1
  O  O19  1  0.65086900  0.04441400  0.54789500  1
  F  F20  1  0.65033500  0.65033500  0.65033500  1
  F  F21  1  0.34966500  0.34966500  0.34966500  1
