# generated using pymatgen
data_Eu3(BO3)2
_symmetry_space_group_name_H-M   'P 1'
_cell_length_a   6.74042130
_cell_length_b   6.74042130
_cell_length_c   6.74042198
_cell_angle_alpha   84.42569174
_cell_angle_beta   84.42569174
_cell_angle_gamma   84.42568769
_symmetry_Int_Tables_number   1
_chemical_formula_structural   Eu3(BO3)2
_chemical_formula_sum   'Eu6 B4 O12'
_cell_volume   302.15866766
_cell_formula_units_Z   2
loop_
 _symmetry_equiv_pos_site_id
 _symmetry_equiv_pos_as_xyz
  1  'x, y, z'
loop_
 _atom_site_type_symbol
 _atom_site_label
 _atom_site_symmetry_multiplicity
 _atom_site_fract_x
 _atom_site_fract_y
 _atom_site_fract_z
 _atom_site_occupancy
  Eu  Eu0  1  0.40080400  0.09919600  0.75000000  1
  Eu  Eu1  1  0.09919600  0.75000000  0.40080400  1
  Eu  Eu2  1  0.75000000  0.40080400  0.09919600  1
  Eu  Eu3  1  0.59919600  0.90080400  0.25000000  1
  Eu  Eu4  1  0.90080400  0.25000000  0.59919600  1
  Eu  Eu5  1  0.25000000  0.59919600  0.90080400  1
  B  B6  1  0.88416400  0.88416400  0.88416400  1
  B  B7  1  0.61583600  0.61583600  0.61583600  1
  B  B8  1  0.11583600  0.11583600  0.11583600  1
  B  B9  1  0.38416400  0.38416400  0.38416400  1
  O  O10  1  0.72858200  0.03667800  0.89203000  1
  O  O11  1  0.03667800  0.89203000  0.72858200  1
  O  O12  1  0.89203000  0.72858200  0.03667800  1
  O  O13  1  0.46332200  0.77141800  0.60797000  1
  O  O14  1  0.77141800  0.60797000  0.46332200  1
  O  O15  1  0.60797000  0.46332200  0.77141800  1
  O  O16  1  0.27141800  0.96332200  0.10797000  1
  O  O17  1  0.96332200  0.10797000  0.27141800  1
  O  O18  1  0.10797000  0.27141800  0.96332200  1
  O  O19  1  0.53667800  0.22858200  0.39203000  1
  O  O20  1  0.22858200  0.39203000  0.53667800  1
  O  O21  1  0.39203000  0.53667800  0.22858200  1
