# generated using pymatgen
data_KV4P7O24
_symmetry_space_group_name_H-M   'P 1'
_cell_length_a   10.26458800
_cell_length_b   10.37746153
_cell_length_c   10.84352675
_cell_angle_alpha   108.80334649
_cell_angle_beta   111.68263982
_cell_angle_gamma   104.42620712
_symmetry_Int_Tables_number   1
_chemical_formula_structural   KV4P7O24
_chemical_formula_sum   'K2 V8 P14 O48'
_cell_volume   922.74535662
_cell_formula_units_Z   2
loop_
 _symmetry_equiv_pos_site_id
 _symmetry_equiv_pos_as_xyz
  1  'x, y, z'
loop_
 _atom_site_type_symbol
 _atom_site_label
 _atom_site_symmetry_multiplicity
 _atom_site_fract_x
 _atom_site_fract_y
 _atom_site_fract_z
 _atom_site_occupancy
  K  K0  1  0.54071400  0.24910300  0.67468200  1
  K  K1  1  0.45928600  0.75089700  0.32531800  1
  V  V2  1  0.98636800  0.83025200  0.41179600  1
  V  V3  1  0.49940200  0.89519200  0.74511700  1
  V  V4  1  0.99996800  0.38552600  0.07508800  1
  V  V5  1  0.48927200  0.33845100  0.11395900  1
  V  V6  1  0.50059800  0.10480800  0.25488300  1
  V  V7  1  0.51072800  0.66154900  0.88604100  1
  V  V8  1  0.00003200  0.61447400  0.92491200  1
  V  V9  1  0.01363200  0.16974800  0.58820400  1
  P  P10  1  0.80737600  0.37698900  0.56530200  1
  P  P11  1  0.74999700  0.54129100  0.05246700  1
  P  P12  1  0.26050200  0.03550800  0.75944400  1
  P  P13  1  0.80270600  0.05902000  0.73900500  1
  P  P14  1  0.77259700  0.78084100  0.77316300  1
  P  P15  1  0.25000300  0.45870900  0.94753300  1
  P  P16  1  0.24931400  0.39094500  0.52190400  1
  P  P17  1  0.26731600  0.82339300  0.88381000  1
  P  P18  1  0.73268400  0.17660700  0.11619000  1
  P  P19  1  0.19262400  0.62301100  0.43469800  1
  P  P20  1  0.19729400  0.94098000  0.26099500  1
  P  P21  1  0.73949800  0.96449200  0.24055600  1
  P  P22  1  0.75068600  0.60905500  0.47809600  1
  P  P23  1  0.22740300  0.21915900  0.22683700  1
  O  O24  1  0.83875900  0.44050200  0.72692000  1
  O  O25  1  0.87121000  0.49718100  0.00955100  1
  O  O26  1  0.88039900  0.97284200  0.36956700  1
  O  O27  1  0.30733300  0.33655600  0.40144700  1
  O  O28  1  0.36339300  0.59131300  0.95125200  1
  O  O29  1  0.39416100  0.49094400  0.66921800  1
  O  O30  1  0.63660700  0.40868700  0.04874800  1
  O  O31  1  0.91043600  0.30273100  0.53907200  1
  O  O32  1  0.08956400  0.69726900  0.46092800  1
  O  O33  1  0.86529300  0.31420800  0.15665900  1
  O  O34  1  0.85456100  0.74990400  0.49233800  1
  O  O35  1  0.83753700  0.67821800  0.20321100  1
  O  O36  1  0.37908900  0.78277200  0.82651600  1
  O  O37  1  0.13917200  0.05800400  0.20611000  1
  O  O38  1  0.62710000  0.99248000  0.29693900  1
  O  O39  1  0.69266700  0.66344400  0.59855300  1
  O  O40  1  0.88541200  0.74248300  0.86965600  1
  O  O41  1  0.37290000  0.00752000  0.70306100  1
  O  O42  1  0.16246300  0.32178200  0.79678900  1
  O  O43  1  0.11458800  0.25751700  0.13034400  1
  O  O44  1  0.65287300  0.56527000  0.92044900  1
  O  O45  1  0.64373800  0.05989600  0.95369800  1
  O  O46  1  0.12639100  0.79208400  0.12450400  1
  O  O47  1  0.11960100  0.02715800  0.63043300  1
  O  O48  1  0.36637100  0.72200600  0.53846800  1
  O  O49  1  0.35626200  0.94010400  0.04630200  1
  O  O50  1  0.15253200  0.47983900  0.47004700  1
  O  O51  1  0.84746800  0.52016100  0.52995300  1
  O  O52  1  0.62091100  0.21722800  0.17348400  1
  O  O53  1  0.63362900  0.27799400  0.46153200  1
  O  O54  1  0.18607400  0.89540300  0.78278900  1
  O  O55  1  0.81392600  0.10459700  0.21721100  1
  O  O56  1  0.60583900  0.50905600  0.33078200  1
  O  O57  1  0.14543900  0.25009600  0.50766200  1
  O  O58  1  0.34712700  0.43473000  0.07955100  1
  O  O59  1  0.14534900  0.93399700  0.37323900  1
  O  O60  1  0.16124100  0.55949800  0.27308000  1
  O  O61  1  0.87360900  0.20791600  0.87549600  1
  O  O62  1  0.36533500  0.22074400  0.20078500  1
  O  O63  1  0.13470700  0.68579200  0.84334100  1
  O  O64  1  0.62585200  0.98550000  0.66191100  1
  O  O65  1  0.33831000  0.17484800  0.90513800  1
  O  O66  1  0.37414800  0.01450000  0.33808900  1
  O  O67  1  0.12879000  0.50281900  0.99044900  1
  O  O68  1  0.86082800  0.94199600  0.79389000  1
  O  O69  1  0.85465100  0.06600300  0.62676100  1
  O  O70  1  0.63466500  0.77925600  0.79921500  1
  O  O71  1  0.66169000  0.82515200  0.09486200  1
