# generated using pymatgen
data_ReSe2
_symmetry_space_group_name_H-M   'P 1'
_cell_length_a   6.66991000
_cell_length_b   6.79280701
_cell_length_c   7.19998214
_cell_angle_alpha   91.82630115
_cell_angle_beta   104.14796526
_cell_angle_gamma   118.81264141
_symmetry_Int_Tables_number   1
_chemical_formula_structural   ReSe2
_chemical_formula_sum   'Re4 Se8'
_cell_volume   272.82339924
_cell_formula_units_Z   4
loop_
 _symmetry_equiv_pos_site_id
 _symmetry_equiv_pos_as_xyz
  1  'x, y, z'
loop_
 _atom_site_type_symbol
 _atom_site_label
 _atom_site_symmetry_multiplicity
 _atom_site_fract_x
 _atom_site_fract_y
 _atom_site_fract_z
 _atom_site_occupancy
  Re  Re0  1  0.06423200  0.31616600  0.49084600  1
  Re  Re1  1  0.93576800  0.68383400  0.50915400  1
  Re  Re2  1  0.48674500  0.29089300  0.49678500  1
  Re  Re3  1  0.51325500  0.70910700  0.50321500  1
  Se  Se4  1  0.25534900  0.38640200  0.22383200  1
  Se  Se5  1  0.74465100  0.61359800  0.77616800  1
  Se  Se6  1  0.72589200  0.34274300  0.25542000  1
  Se  Se7  1  0.27410800  0.65725700  0.74458000  1
  Se  Se8  1  0.22038900  0.10654100  0.70845200  1
  Se  Se9  1  0.77961100  0.89345900  0.29154800  1
  Se  Se10  1  0.75078800  0.13443900  0.68247400  1
  Se  Se11  1  0.24921200  0.86556100  0.31752600  1
