# generated using pymatgen
data_CeAlCo
_symmetry_space_group_name_H-M   'P 1'
_cell_length_a   5.96698229
_cell_length_b   5.96698229
_cell_length_c   4.73843131
_cell_angle_alpha   75.47743823
_cell_angle_beta   75.47743823
_cell_angle_gamma   43.60897057
_symmetry_Int_Tables_number   1
_chemical_formula_structural   CeAlCo
_chemical_formula_sum   'Ce2 Al2 Co2'
_cell_volume   112.04119099
_cell_formula_units_Z   2
loop_
 _symmetry_equiv_pos_site_id
 _symmetry_equiv_pos_as_xyz
  1  'x, y, z'
loop_
 _atom_site_type_symbol
 _atom_site_label
 _atom_site_symmetry_multiplicity
 _atom_site_fract_x
 _atom_site_fract_y
 _atom_site_fract_z
 _atom_site_occupancy
  Ce  Ce0  1  0.86917000  0.86917000  0.32917100  1
  Ce  Ce1  1  0.13083000  0.13083000  0.67082900  1
  Al  Al2  1  0.58630700  0.58630700  0.18682500  1
  Al  Al3  1  0.41369300  0.41369300  0.81317500  1
  Co  Co4  1  0.19030300  0.19030300  0.15132200  1
  Co  Co5  1  0.80969700  0.80969700  0.84867800  1
