# generated using pymatgen
data_Cs(BBr)6
_symmetry_space_group_name_H-M   'P 1'
_cell_length_a   17.21554323
_cell_length_b   17.21554323
_cell_length_c   17.21554288
_cell_angle_alpha   34.28717888
_cell_angle_beta   34.28717888
_cell_angle_gamma   34.28718094
_symmetry_Int_Tables_number   1
_chemical_formula_structural   Cs(BBr)6
_chemical_formula_sum   'Cs4 B24 Br24'
_cell_volume   1444.02450086
_cell_formula_units_Z   4
loop_
 _symmetry_equiv_pos_site_id
 _symmetry_equiv_pos_as_xyz
  1  'x, y, z'
loop_
 _atom_site_type_symbol
 _atom_site_label
 _atom_site_symmetry_multiplicity
 _atom_site_fract_x
 _atom_site_fract_y
 _atom_site_fract_z
 _atom_site_occupancy
  Cs  Cs0  1  0.37338600  0.37338600  0.37338600  1
  Cs  Cs1  1  0.79152100  0.79152100  0.79152100  1
  Cs  Cs2  1  0.20847900  0.20847900  0.20847900  1
  Cs  Cs3  1  0.62661400  0.62661400  0.62661400  1
  B  B4  1  0.91740000  0.11865000  0.04781000  1
  B  B5  1  0.81532200  0.13894200  0.02577400  1
  B  B6  1  0.67682600  0.44614100  0.35715000  1
  B  B7  1  0.13894200  0.02577400  0.81532200  1
  B  B8  1  0.64285000  0.32317400  0.55385900  1
  B  B9  1  0.08260000  0.88135000  0.95219000  1
  B  B10  1  0.32317400  0.55385900  0.64285000  1
  B  B11  1  0.50156500  0.55627200  0.35863100  1
  B  B12  1  0.02577400  0.81532200  0.13894200  1
  B  B13  1  0.35715000  0.67682600  0.44614100  1
  B  B14  1  0.55385900  0.64285000  0.32317400  1
  B  B15  1  0.97422600  0.18467800  0.86105800  1
  B  B16  1  0.18467800  0.86105800  0.97422600  1
  B  B17  1  0.95219000  0.08260000  0.88135000  1
  B  B18  1  0.04781000  0.91740000  0.11865000  1
  B  B19  1  0.86105800  0.97422600  0.18467800  1
  B  B20  1  0.88135000  0.95219000  0.08260000  1
  B  B21  1  0.44372800  0.64136900  0.49843500  1
  B  B22  1  0.55627200  0.35863100  0.50156500  1
  B  B23  1  0.44614100  0.35715000  0.67682600  1
  B  B24  1  0.49843500  0.44372800  0.64136900  1
  B  B25  1  0.35863100  0.50156500  0.55627200  1
  B  B26  1  0.11865000  0.04781000  0.91740000  1
  B  B27  1  0.64136900  0.49843500  0.44372800  1
  Br  Br28  1  0.80449400  0.49753400  0.37791800  1
  Br  Br29  1  0.37791800  0.80449400  0.49753400  1
  Br  Br30  1  0.05488300  0.60125000  0.29858700  1
  Br  Br31  1  0.17751300  0.74394000  0.89840500  1
  Br  Br32  1  0.80895700  0.12192500  0.61479600  1
  Br  Br33  1  0.74394000  0.89840500  0.17751300  1
  Br  Br34  1  0.49753400  0.37791800  0.80449400  1
  Br  Br35  1  0.87807500  0.38520400  0.19104300  1
  Br  Br36  1  0.70141300  0.94511700  0.39875000  1
  Br  Br37  1  0.25606000  0.10159500  0.82248700  1
  Br  Br38  1  0.39875000  0.70141300  0.94511700  1
  Br  Br39  1  0.50246600  0.62208200  0.19550600  1
  Br  Br40  1  0.19104300  0.87807500  0.38520400  1
  Br  Br41  1  0.10159500  0.82248700  0.25606000  1
  Br  Br42  1  0.12192500  0.61479600  0.80895700  1
  Br  Br43  1  0.61479600  0.80895700  0.12192500  1
  Br  Br44  1  0.89840500  0.17751300  0.74394000  1
  Br  Br45  1  0.82248700  0.25606000  0.10159500  1
  Br  Br46  1  0.19550600  0.50246600  0.62208200  1
  Br  Br47  1  0.29858700  0.05488300  0.60125000  1
  Br  Br48  1  0.62208200  0.19550600  0.50246600  1
  Br  Br49  1  0.94511700  0.39875000  0.70141300  1
  Br  Br50  1  0.38520400  0.19104300  0.87807500  1
  Br  Br51  1  0.60125000  0.29858700  0.05488300  1
