# generated using pymatgen
data_YbMgGe
_symmetry_space_group_name_H-M   'P 1'
_cell_length_a   4.43347500
_cell_length_b   7.47782300
_cell_length_c   8.33072500
_cell_angle_alpha   90.00000000
_cell_angle_beta   90.00000000
_cell_angle_gamma   90.00000000
_symmetry_Int_Tables_number   1
_chemical_formula_structural   YbMgGe
_chemical_formula_sum   'Yb4 Mg4 Ge4'
_cell_volume   276.18637097
_cell_formula_units_Z   4
loop_
 _symmetry_equiv_pos_site_id
 _symmetry_equiv_pos_as_xyz
  1  'x, y, z'
loop_
 _atom_site_type_symbol
 _atom_site_label
 _atom_site_symmetry_multiplicity
 _atom_site_fract_x
 _atom_site_fract_y
 _atom_site_fract_z
 _atom_site_occupancy
  Yb  Yb0  1  0.75000000  0.97948500  0.68008200  1
  Yb  Yb1  1  0.25000000  0.02051500  0.31991800  1
  Yb  Yb2  1  0.75000000  0.47948500  0.81991800  1
  Yb  Yb3  1  0.25000000  0.52051500  0.18008200  1
  Mg  Mg4  1  0.75000000  0.85623100  0.06286100  1
  Mg  Mg5  1  0.25000000  0.14376900  0.93713900  1
  Mg  Mg6  1  0.75000000  0.35623100  0.43713900  1
  Mg  Mg7  1  0.25000000  0.64376900  0.56286100  1
  Ge  Ge8  1  0.75000000  0.73311600  0.38411800  1
  Ge  Ge9  1  0.25000000  0.26688400  0.61588200  1
  Ge  Ge10  1  0.75000000  0.23311600  0.11588200  1
  Ge  Ge11  1  0.25000000  0.76688400  0.88411800  1
