# generated using pymatgen
data_YSiPd
_symmetry_space_group_name_H-M   'P 1'
_cell_length_a   4.34064700
_cell_length_b   7.48360100
_cell_length_c   14.03210300
_cell_angle_alpha   90.00000000
_cell_angle_beta   90.00000000
_cell_angle_gamma   90.00000000
_symmetry_Int_Tables_number   1
_chemical_formula_structural   YSiPd
_chemical_formula_sum   'Y8 Si8 Pd8'
_cell_volume   455.81420648
_cell_formula_units_Z   8
loop_
 _symmetry_equiv_pos_site_id
 _symmetry_equiv_pos_as_xyz
  1  'x, y, z'
loop_
 _atom_site_type_symbol
 _atom_site_label
 _atom_site_symmetry_multiplicity
 _atom_site_fract_x
 _atom_site_fract_y
 _atom_site_fract_z
 _atom_site_occupancy
  Y  Y0  1  0.50000000  0.78994700  0.74849800  1
  Y  Y1  1  0.00000000  0.21005300  0.75150200  1
  Y  Y2  1  0.50000000  0.78994700  0.25150200  1
  Y  Y3  1  0.00000000  0.21005300  0.24849800  1
  Y  Y4  1  0.50000000  0.70756300  0.00000000  1
  Y  Y5  1  0.00000000  0.29243700  0.50000000  1
  Y  Y6  1  0.50000000  0.70038500  0.50000000  1
  Y  Y7  1  0.00000000  0.29961500  0.00000000  1
  Si  Si8  1  0.50000000  0.40837400  0.64618300  1
  Si  Si9  1  0.00000000  0.59162600  0.85381700  1
  Si  Si10  1  0.50000000  0.40837400  0.35381700  1
  Si  Si11  1  0.00000000  0.59162600  0.14618300  1
  Si  Si12  1  0.50000000  0.09049500  0.09283900  1
  Si  Si13  1  0.00000000  0.90950500  0.40716100  1
  Si  Si14  1  0.50000000  0.09049500  0.90716100  1
  Si  Si15  1  0.00000000  0.90950500  0.59283900  1
  Pd  Pd16  1  0.50000000  0.07690400  0.60787400  1
  Pd  Pd17  1  0.00000000  0.92309600  0.89212600  1
  Pd  Pd18  1  0.50000000  0.07690400  0.39212600  1
  Pd  Pd19  1  0.00000000  0.92309600  0.10787400  1
  Pd  Pd20  1  0.50000000  0.41823200  0.15569100  1
  Pd  Pd21  1  0.00000000  0.58176800  0.34430900  1
  Pd  Pd22  1  0.50000000  0.41823200  0.84430900  1
  Pd  Pd23  1  0.00000000  0.58176800  0.65569100  1
