# generated using pymatgen
data_Y2(MoO4)3
_symmetry_space_group_name_H-M   'P 1'
_cell_length_a   10.13750000
_cell_length_b   10.26133000
_cell_length_c   14.19811600
_cell_angle_alpha   90.00000000
_cell_angle_beta   90.00000000
_cell_angle_gamma   90.00000000
_symmetry_Int_Tables_number   1
_chemical_formula_structural   Y2(MoO4)3
_chemical_formula_sum   'Y8 Mo12 O48'
_cell_volume   1476.94812517
_cell_formula_units_Z   4
loop_
 _symmetry_equiv_pos_site_id
 _symmetry_equiv_pos_as_xyz
  1  'x, y, z'
loop_
 _atom_site_type_symbol
 _atom_site_label
 _atom_site_symmetry_multiplicity
 _atom_site_fract_x
 _atom_site_fract_y
 _atom_site_fract_z
 _atom_site_occupancy
  Y  Y0  1  0.74932500  0.03092500  0.88246600  1
  Y  Y1  1  0.25067500  0.53092500  0.88246600  1
  Y  Y2  1  0.24932500  0.46907500  0.38246600  1
  Y  Y3  1  0.25067500  0.96907500  0.11753400  1
  Y  Y4  1  0.75067500  0.53092500  0.61753400  1
  Y  Y5  1  0.74932500  0.46907500  0.11753400  1
  Y  Y6  1  0.24932500  0.03092500  0.61753400  1
  Y  Y7  1  0.75067500  0.96907500  0.38246600  1
  Mo  Mo8  1  0.89071000  0.11551500  0.14319800  1
  Mo  Mo9  1  0.60929000  0.88448500  0.64319800  1
  Mo  Mo10  1  0.47197800  0.25000000  0.00000000  1
  Mo  Mo11  1  0.10929000  0.61551500  0.14319800  1
  Mo  Mo12  1  0.60929000  0.61551500  0.35680200  1
  Mo  Mo13  1  0.39071000  0.38448500  0.64319800  1
  Mo  Mo14  1  0.02802200  0.75000000  0.50000000  1
  Mo  Mo15  1  0.97197800  0.25000000  0.50000000  1
  Mo  Mo16  1  0.52802200  0.75000000  0.00000000  1
  Mo  Mo17  1  0.39071000  0.11551500  0.35680200  1
  Mo  Mo18  1  0.10929000  0.88448500  0.85680200  1
  Mo  Mo19  1  0.89071000  0.38448500  0.85680200  1
  O  O20  1  0.81915500  0.43218700  0.96671100  1
  O  O21  1  0.31915500  0.43218700  0.53328900  1
  O  O22  1  0.85766600  0.21478800  0.83742500  1
  O  O23  1  0.36965800  0.35999600  0.93472400  1
  O  O24  1  0.68084500  0.56781300  0.46671100  1
  O  O25  1  0.57436600  0.16041100  0.91991300  1
  O  O26  1  0.56550300  0.08896000  0.36116000  1
  O  O27  1  0.14233400  0.78521200  0.16257500  1
  O  O28  1  0.67987400  0.51993300  0.26368200  1
  O  O29  1  0.86965800  0.35999600  0.56527600  1
  O  O30  1  0.18084500  0.56781300  0.03328900  1
  O  O31  1  0.86965800  0.14000400  0.43472400  1
  O  O32  1  0.32012600  0.01993300  0.26368200  1
  O  O33  1  0.32012600  0.48006700  0.73631800  1
  O  O34  1  0.92563400  0.83958900  0.41991300  1
  O  O35  1  0.64233400  0.71478800  0.66257500  1
  O  O36  1  0.13034200  0.85999600  0.56527600  1
  O  O37  1  0.35766600  0.28521200  0.33742500  1
  O  O38  1  0.13034200  0.64000400  0.43472400  1
  O  O39  1  0.43449700  0.58896000  0.36116000  1
  O  O40  1  0.36965800  0.14000400  0.06527600  1
  O  O41  1  0.93449700  0.91104000  0.86116000  1
  O  O42  1  0.92563400  0.66041100  0.58008700  1
  O  O43  1  0.42563400  0.66041100  0.91991300  1
  O  O44  1  0.43449700  0.91104000  0.63884000  1
  O  O45  1  0.31915500  0.06781300  0.46671100  1
  O  O46  1  0.85766600  0.28521200  0.16257500  1
  O  O47  1  0.35766600  0.21478800  0.66257500  1
  O  O48  1  0.82012600  0.01993300  0.23631800  1
  O  O49  1  0.18084500  0.93218700  0.96671100  1
  O  O50  1  0.82012600  0.48006700  0.76368200  1
  O  O51  1  0.06550300  0.08896000  0.13884000  1
  O  O52  1  0.14233400  0.71478800  0.83742500  1
  O  O53  1  0.64233400  0.78521200  0.33742500  1
  O  O54  1  0.63034200  0.64000400  0.06527600  1
  O  O55  1  0.81915500  0.06781300  0.03328900  1
  O  O56  1  0.42563400  0.83958900  0.08008700  1
  O  O57  1  0.56550300  0.41104000  0.63884000  1
  O  O58  1  0.68084500  0.93218700  0.53328900  1
  O  O59  1  0.17987400  0.51993300  0.23631800  1
  O  O60  1  0.93449700  0.58896000  0.13884000  1
  O  O61  1  0.67987400  0.98006700  0.73631800  1
  O  O62  1  0.63034200  0.85999600  0.93472400  1
  O  O63  1  0.07436600  0.33958900  0.41991300  1
  O  O64  1  0.17987400  0.98006700  0.76368200  1
  O  O65  1  0.06550300  0.41104000  0.86116000  1
  O  O66  1  0.07436600  0.16041100  0.58008700  1
  O  O67  1  0.57436600  0.33958900  0.08008700  1
