# generated using pymatgen
data_GdMgAu
_symmetry_space_group_name_H-M   'P 1'
_cell_length_a   7.66165487
_cell_length_b   7.66165487
_cell_length_c   4.16693600
_cell_angle_alpha   90.00000000
_cell_angle_beta   90.00000000
_cell_angle_gamma   120.00000749
_symmetry_Int_Tables_number   1
_chemical_formula_structural   GdMgAu
_chemical_formula_sum   'Gd3 Mg3 Au3'
_cell_volume   211.83250314
_cell_formula_units_Z   3
loop_
 _symmetry_equiv_pos_site_id
 _symmetry_equiv_pos_as_xyz
  1  'x, y, z'
loop_
 _atom_site_type_symbol
 _atom_site_label
 _atom_site_symmetry_multiplicity
 _atom_site_fract_x
 _atom_site_fract_y
 _atom_site_fract_z
 _atom_site_occupancy
  Gd  Gd0  1  0.41229000  0.00000000  0.00000000  1
  Gd  Gd1  1  0.00000000  0.41229000  0.00000000  1
  Gd  Gd2  1  0.58771000  0.58771000  0.00000000  1
  Mg  Mg3  1  0.00000000  0.75422900  0.50000000  1
  Mg  Mg4  1  0.75422900  0.00000000  0.50000000  1
  Mg  Mg5  1  0.24577100  0.24577100  0.50000000  1
  Au  Au6  1  0.00000000  0.00000000  0.00000000  1
  Au  Au7  1  0.66666700  0.33333300  0.50000000  1
  Au  Au8  1  0.33333300  0.66666700  0.50000000  1
