# generated using pymatgen
data_Pt(OF3)2
_symmetry_space_group_name_H-M   'P 1'
_cell_length_a   8.79640709
_cell_length_b   8.79640709
_cell_length_c   8.79640709
_cell_angle_alpha   109.47122063
_cell_angle_beta   109.47122063
_cell_angle_gamma   109.47122063
_symmetry_Int_Tables_number   1
_chemical_formula_structural   Pt(OF3)2
_chemical_formula_sum   'Pt4 O8 F24'
_cell_volume   523.95509600
_cell_formula_units_Z   4
loop_
 _symmetry_equiv_pos_site_id
 _symmetry_equiv_pos_as_xyz
  1  'x, y, z'
loop_
 _atom_site_type_symbol
 _atom_site_label
 _atom_site_symmetry_multiplicity
 _atom_site_fract_x
 _atom_site_fract_y
 _atom_site_fract_z
 _atom_site_occupancy
  Pt  Pt0  1  0.00000000  0.00000000  0.00000000  1
  Pt  Pt1  1  0.50000000  0.50000000  0.00000000  1
  Pt  Pt2  1  0.00000000  0.50000000  0.50000000  1
  Pt  Pt3  1  0.50000000  0.00000000  0.50000000  1
  O  O4  1  0.56686100  0.56686100  0.56686100  1
  O  O5  1  0.93313900  0.50000000  0.00000000  1
  O  O6  1  0.00000000  0.93313900  0.50000000  1
  O  O7  1  0.50000000  0.00000000  0.93313900  1
  O  O8  1  0.43313900  0.43313900  0.43313900  1
  O  O9  1  0.06686100  0.50000000  0.00000000  1
  O  O10  1  0.00000000  0.06686100  0.50000000  1
  O  O11  1  0.50000000  0.00000000  0.06686100  1
  F  F12  1  0.08533400  0.04714900  0.25105000  1
  F  F13  1  0.45285100  0.53818500  0.20390100  1
  F  F14  1  0.96181500  0.41466600  0.66571600  1
  F  F15  1  0.83428400  0.24895000  0.29609900  1
  F  F16  1  0.53818500  0.20390100  0.45285100  1
  F  F17  1  0.66571600  0.96181500  0.41466600  1
  F  F18  1  0.24895000  0.29609900  0.83428400  1
  F  F19  1  0.25105000  0.08533400  0.04714900  1
  F  F20  1  0.04714900  0.25105000  0.08533400  1
  F  F21  1  0.20390100  0.45285100  0.53818500  1
  F  F22  1  0.41466600  0.66571600  0.96181500  1
  F  F23  1  0.29609900  0.83428400  0.24895000  1
  F  F24  1  0.91466600  0.95285100  0.74895000  1
  F  F25  1  0.54714900  0.46181500  0.79609900  1
  F  F26  1  0.03818500  0.58533400  0.33428400  1
  F  F27  1  0.16571600  0.75105000  0.70390100  1
  F  F28  1  0.46181500  0.79609900  0.54714900  1
  F  F29  1  0.33428400  0.03818500  0.58533400  1
  F  F30  1  0.75105000  0.70390100  0.16571600  1
  F  F31  1  0.74895000  0.91466600  0.95285100  1
  F  F32  1  0.95285100  0.74895000  0.91466600  1
  F  F33  1  0.79609900  0.54714900  0.46181500  1
  F  F34  1  0.58533400  0.33428400  0.03818500  1
  F  F35  1  0.70390100  0.16571600  0.75105000  1
