# generated using pymatgen
data_SbS7IF6
_symmetry_space_group_name_H-M   'P 1'
_cell_length_a   9.42226000
_cell_length_b   12.22649000
_cell_length_c   12.77359800
_cell_angle_alpha   90.00000000
_cell_angle_beta   90.00000000
_cell_angle_gamma   90.00000000
_symmetry_Int_Tables_number   1
_chemical_formula_structural   SbS7IF6
_chemical_formula_sum   'Sb4 S28 I4 F24'
_cell_volume   1471.53340491
_cell_formula_units_Z   4
loop_
 _symmetry_equiv_pos_site_id
 _symmetry_equiv_pos_as_xyz
  1  'x, y, z'
loop_
 _atom_site_type_symbol
 _atom_site_label
 _atom_site_symmetry_multiplicity
 _atom_site_fract_x
 _atom_site_fract_y
 _atom_site_fract_z
 _atom_site_occupancy
  Sb  Sb0  1  0.82107500  0.34592900  0.11408400  1
  Sb  Sb1  1  0.32107500  0.15407100  0.88591600  1
  Sb  Sb2  1  0.17892500  0.84592900  0.38591600  1
  Sb  Sb3  1  0.67892500  0.65407100  0.61408400  1
  S  S4  1  0.28262200  0.49382700  0.45930400  1
  S  S5  1  0.69248000  0.86160900  0.93478400  1
  S  S6  1  0.21737800  0.50617300  0.95930400  1
  S  S7  1  0.45635900  0.44102700  0.32088100  1
  S  S8  1  0.04364100  0.55897300  0.82088100  1
  S  S9  1  0.84609000  0.12077500  0.78899200  1
  S  S10  1  0.74329300  0.27599500  0.50372200  1
  S  S11  1  0.34609000  0.37922500  0.21100800  1
  S  S12  1  0.75670700  0.72400500  0.00372200  1
  S  S13  1  0.80752000  0.13839100  0.43478400  1
  S  S14  1  0.95635900  0.05897300  0.67911900  1
  S  S15  1  0.40654400  0.18240000  0.38305600  1
  S  S16  1  0.54364100  0.94102700  0.17911900  1
  S  S17  1  0.15391000  0.62077500  0.71100800  1
  S  S18  1  0.90654400  0.31760000  0.61694400  1
  S  S19  1  0.78262200  0.00617300  0.54069600  1
  S  S20  1  0.65391000  0.87922500  0.28899200  1
  S  S21  1  0.71737800  0.99382700  0.04069600  1
  S  S22  1  0.18367100  0.79839100  0.74620600  1
  S  S23  1  0.59345600  0.68240000  0.11694400  1
  S  S24  1  0.09345600  0.81760000  0.88305600  1
  S  S25  1  0.30752000  0.36160900  0.56521600  1
  S  S26  1  0.25670700  0.77599500  0.99627800  1
  S  S27  1  0.19248000  0.63839100  0.06521600  1
  S  S28  1  0.31632900  0.20160900  0.24620600  1
  S  S29  1  0.24329300  0.22400500  0.49627800  1
  S  S30  1  0.68367100  0.70160900  0.25379400  1
  S  S31  1  0.81632900  0.29839100  0.75379400  1
  I  I32  1  0.07117900  0.46767000  0.36416400  1
  I  I33  1  0.92882100  0.96767000  0.13583600  1
  I  I34  1  0.57117900  0.03233000  0.63583600  1
  I  I35  1  0.42882100  0.53233000  0.86416400  1
  F  F36  1  0.07794600  0.95861300  0.46137000  1
  F  F37  1  0.92205400  0.45861300  0.03863000  1
  F  F38  1  0.32426700  0.24754700  0.00658600  1
  F  F39  1  0.82204900  0.44000100  0.23739900  1
  F  F40  1  0.57794600  0.54138700  0.53863000  1
  F  F41  1  0.64563300  0.40972700  0.07011100  1
  F  F42  1  0.00179000  0.78670300  0.33843200  1
  F  F43  1  0.27973400  0.73642400  0.30757600  1
  F  F44  1  0.49821000  0.21329700  0.83843200  1
  F  F45  1  0.50179000  0.71329700  0.66156800  1
  F  F46  1  0.67795100  0.55999900  0.73739900  1
  F  F47  1  0.82426700  0.25245300  0.99341400  1
  F  F48  1  0.85436700  0.59027300  0.57011100  1
  F  F49  1  0.32204900  0.05999900  0.76260100  1
  F  F50  1  0.42205400  0.04138700  0.96137000  1
  F  F51  1  0.14563300  0.09027300  0.92988900  1
  F  F52  1  0.17573300  0.75245300  0.50658600  1
  F  F53  1  0.77973400  0.76357600  0.69242400  1
  F  F54  1  0.17795100  0.94000100  0.26260100  1
  F  F55  1  0.72026600  0.23642400  0.19242400  1
  F  F56  1  0.22026600  0.26357600  0.80757600  1
  F  F57  1  0.35436700  0.90972700  0.42988900  1
  F  F58  1  0.99821000  0.28670300  0.16156800  1
  F  F59  1  0.67573300  0.74754700  0.49341400  1
