# generated using pymatgen
data_Ba6Na2Mn2Ru2O17
_symmetry_space_group_name_H-M   'P 1'
_cell_length_a   5.92056775
_cell_length_b   5.92056775
_cell_length_c   30.11224700
_cell_angle_alpha   90.00000000
_cell_angle_beta   90.00000000
_cell_angle_gamma   119.99999717
_symmetry_Int_Tables_number   1
_chemical_formula_structural   Ba6Na2Mn2Ru2O17
_chemical_formula_sum   'Ba12 Na4 Mn4 Ru4 O34'
_cell_volume   914.11433188
_cell_formula_units_Z   2
loop_
 _symmetry_equiv_pos_site_id
 _symmetry_equiv_pos_as_xyz
  1  'x, y, z'
loop_
 _atom_site_type_symbol
 _atom_site_label
 _atom_site_symmetry_multiplicity
 _atom_site_fract_x
 _atom_site_fract_y
 _atom_site_fract_z
 _atom_site_occupancy
  Ba  Ba0  1  0.33333300  0.66666700  0.17970700  1
  Ba  Ba1  1  0.66666700  0.33333300  0.67970700  1
  Ba  Ba2  1  0.66666700  0.33333300  0.82029300  1
  Ba  Ba3  1  0.33333300  0.66666700  0.32029300  1
  Ba  Ba4  1  0.33333300  0.66666700  0.59192000  1
  Ba  Ba5  1  0.66666700  0.33333300  0.09192000  1
  Ba  Ba6  1  0.66666700  0.33333300  0.40808000  1
  Ba  Ba7  1  0.33333300  0.66666700  0.90808000  1
  Ba  Ba8  1  0.00000000  0.00000000  0.00000000  1
  Ba  Ba9  1  0.00000000  0.00000000  0.50000000  1
  Ba  Ba10  1  0.00000000  0.00000000  0.25000000  1
  Ba  Ba11  1  0.00000000  0.00000000  0.75000000  1
  Na  Na12  1  0.00000000  0.00000000  0.12431500  1
  Na  Na13  1  0.00000000  0.00000000  0.62431500  1
  Na  Na14  1  0.00000000  0.00000000  0.87568500  1
  Na  Na15  1  0.00000000  0.00000000  0.37568500  1
  Mn  Mn16  1  0.33333300  0.66666700  0.05231200  1
  Mn  Mn17  1  0.66666700  0.33333300  0.55231200  1
  Mn  Mn18  1  0.66666700  0.33333300  0.94768800  1
  Mn  Mn19  1  0.33333300  0.66666700  0.44768800  1
  Ru  Ru20  1  0.33333300  0.66666700  0.70373000  1
  Ru  Ru21  1  0.66666700  0.33333300  0.20373000  1
  Ru  Ru22  1  0.66666700  0.33333300  0.29627000  1
  Ru  Ru23  1  0.33333300  0.66666700  0.79627000  1
  O  O24  1  0.17648200  0.35296400  0.42685600  1
  O  O25  1  0.82351800  0.17648200  0.92685600  1
  O  O26  1  0.35296400  0.17648200  0.92685600  1
  O  O27  1  0.64703600  0.82351800  0.42685600  1
  O  O28  1  0.17648200  0.82351800  0.42685600  1
  O  O29  1  0.82351800  0.64703600  0.57314400  1
  O  O30  1  0.82351800  0.17648200  0.57314400  1
  O  O31  1  0.82351800  0.64703600  0.92685600  1
  O  O32  1  0.35296400  0.17648200  0.57314400  1
  O  O33  1  0.64703600  0.82351800  0.07314400  1
  O  O34  1  0.17648200  0.35296400  0.07314400  1
  O  O35  1  0.17648200  0.82351800  0.07314400  1
  O  O36  1  0.17679300  0.35358600  0.83011500  1
  O  O37  1  0.82320700  0.17679300  0.33011500  1
  O  O38  1  0.35358600  0.17679300  0.33011500  1
  O  O39  1  0.64641400  0.82320700  0.83011500  1
  O  O40  1  0.17679300  0.82320700  0.83011500  1
  O  O41  1  0.82320700  0.64641400  0.16988500  1
  O  O42  1  0.82320700  0.17679300  0.16988500  1
  O  O43  1  0.82320700  0.64641400  0.33011500  1
  O  O44  1  0.35358600  0.17679300  0.16988500  1
  O  O45  1  0.64641400  0.82320700  0.66988500  1
  O  O46  1  0.17679300  0.35358600  0.66988500  1
  O  O47  1  0.17679300  0.82320700  0.66988500  1
  O  O48  1  0.51372900  0.02745900  0.25000000  1
  O  O49  1  0.48627100  0.51372900  0.75000000  1
  O  O50  1  0.02745900  0.51372900  0.75000000  1
  O  O51  1  0.97254100  0.48627100  0.25000000  1
  O  O52  1  0.51372900  0.48627100  0.25000000  1
  O  O53  1  0.48627100  0.97254100  0.75000000  1
  O  O54  1  0.33333300  0.66666700  0.50394600  1
  O  O55  1  0.66666700  0.33333300  0.00394600  1
  O  O56  1  0.66666700  0.33333300  0.49605400  1
  O  O57  1  0.33333300  0.66666700  0.99605400  1
