# generated using pymatgen
data_InGaBr4
_symmetry_space_group_name_H-M   'P 1'
_cell_length_a   7.62052500
_cell_length_b   9.28953200
_cell_length_c   13.33604446
_cell_angle_alpha   74.90498260
_cell_angle_beta   90.00000000
_cell_angle_gamma   90.00000000
_symmetry_Int_Tables_number   1
_chemical_formula_structural   InGaBr4
_chemical_formula_sum   'In4 Ga4 Br16'
_cell_volume   911.49841463
_cell_formula_units_Z   4
loop_
 _symmetry_equiv_pos_site_id
 _symmetry_equiv_pos_as_xyz
  1  'x, y, z'
loop_
 _atom_site_type_symbol
 _atom_site_label
 _atom_site_symmetry_multiplicity
 _atom_site_fract_x
 _atom_site_fract_y
 _atom_site_fract_z
 _atom_site_occupancy
  In  In0  1  0.87961600  0.00000000  0.25000000  1
  In  In1  1  0.12038400  0.00000000  0.75000000  1
  In  In2  1  0.40854400  0.50000000  0.25000000  1
  In  In3  1  0.59145600  0.50000000  0.75000000  1
  Ga  Ga4  1  0.71485600  0.21566600  0.54669600  1
  Ga  Ga5  1  0.71485600  0.78433400  0.95330400  1
  Ga  Ga6  1  0.28514400  0.78433400  0.45330400  1
  Ga  Ga7  1  0.28514400  0.21566600  0.04669600  1
  Br  Br8  1  0.07635600  0.66431500  0.37035900  1
  Br  Br9  1  0.07635600  0.33568500  0.12964100  1
  Br  Br10  1  0.92364400  0.33568500  0.62964100  1
  Br  Br11  1  0.92364400  0.66431500  0.87035900  1
  Br  Br12  1  0.43144900  0.71466200  0.91093000  1
  Br  Br13  1  0.43144900  0.28533800  0.58907000  1
  Br  Br14  1  0.56855100  0.28533800  0.08907000  1
  Br  Br15  1  0.56855100  0.71466200  0.41093000  1
  Br  Br16  1  0.75163700  0.29738400  0.36324600  1
  Br  Br17  1  0.75163700  0.70261600  0.13675400  1
  Br  Br18  1  0.24836300  0.70261600  0.63675400  1
  Br  Br19  1  0.24836300  0.29738400  0.86324600  1
  Br  Br20  1  0.23301800  0.04279700  0.39760200  1
  Br  Br21  1  0.23301800  0.95720300  0.10239800  1
  Br  Br22  1  0.76698200  0.95720300  0.60239800  1
  Br  Br23  1  0.76698200  0.04279700  0.89760200  1
