# generated using pymatgen
data_Rb3VS4
_symmetry_space_group_name_H-M   'P 1'
_cell_length_a   9.55534300
_cell_length_b   9.57516800
_cell_length_c   11.14378800
_cell_angle_alpha   90.00000000
_cell_angle_beta   90.00000000
_cell_angle_gamma   90.00000000
_symmetry_Int_Tables_number   1
_chemical_formula_structural   Rb3VS4
_chemical_formula_sum   'Rb12 V4 S16'
_cell_volume   1019.58990111
_cell_formula_units_Z   4
loop_
 _symmetry_equiv_pos_site_id
 _symmetry_equiv_pos_as_xyz
  1  'x, y, z'
loop_
 _atom_site_type_symbol
 _atom_site_label
 _atom_site_symmetry_multiplicity
 _atom_site_fract_x
 _atom_site_fract_y
 _atom_site_fract_z
 _atom_site_occupancy
  Rb  Rb0  1  0.04677200  0.79171600  0.45673100  1
  Rb  Rb1  1  0.45322800  0.29171600  0.54326900  1
  Rb  Rb2  1  0.54677200  0.70828400  0.04326900  1
  Rb  Rb3  1  0.95322800  0.20828400  0.95673100  1
  Rb  Rb4  1  0.95322800  0.20828400  0.54326900  1
  Rb  Rb5  1  0.54677200  0.70828400  0.45673100  1
  Rb  Rb6  1  0.45322800  0.29171600  0.95673100  1
  Rb  Rb7  1  0.04677200  0.79171600  0.04326900  1
  Rb  Rb8  1  0.14624000  0.58786000  0.75000000  1
  Rb  Rb9  1  0.35376000  0.08786000  0.25000000  1
  Rb  Rb10  1  0.64624000  0.91214000  0.75000000  1
  Rb  Rb11  1  0.85376000  0.41214000  0.25000000  1
  V  V12  1  0.78008900  0.98311700  0.25000000  1
  V  V13  1  0.71991100  0.48311700  0.75000000  1
  V  V14  1  0.28008900  0.51688300  0.25000000  1
  V  V15  1  0.21991100  0.01688300  0.75000000  1
  S  S16  1  0.79428000  0.75742700  0.25000000  1
  S  S17  1  0.70572000  0.25742700  0.75000000  1
  S  S18  1  0.29428000  0.74257300  0.25000000  1
  S  S19  1  0.20572000  0.24257300  0.75000000  1
  S  S20  1  0.01002800  0.92916100  0.75000000  1
  S  S21  1  0.48997200  0.42916100  0.25000000  1
  S  S22  1  0.51002800  0.57083900  0.75000000  1
  S  S23  1  0.98997200  0.07083900  0.25000000  1
  S  S24  1  0.32855500  0.95106300  0.58946200  1
  S  S25  1  0.17144500  0.45106300  0.41053800  1
  S  S26  1  0.82855500  0.54893700  0.91053800  1
  S  S27  1  0.67144500  0.04893700  0.08946200  1
  S  S28  1  0.67144500  0.04893700  0.41053800  1
  S  S29  1  0.82855500  0.54893700  0.58946200  1
  S  S30  1  0.17144500  0.45106300  0.08946200  1
  S  S31  1  0.32855500  0.95106300  0.91053800  1
