# generated using pymatgen
data_Cs2Hg3I8
_symmetry_space_group_name_H-M   'P 1'
_cell_length_a   12.02652453
_cell_length_b   12.02652453
_cell_length_c   8.10485478
_cell_angle_alpha   84.27774197
_cell_angle_beta   84.27774197
_cell_angle_gamma   143.22788325
_symmetry_Int_Tables_number   1
_chemical_formula_structural   Cs2Hg3I8
_chemical_formula_sum   'Cs2 Hg3 I8'
_cell_volume   665.77313617
_cell_formula_units_Z   1
loop_
 _symmetry_equiv_pos_site_id
 _symmetry_equiv_pos_as_xyz
  1  'x, y, z'
loop_
 _atom_site_type_symbol
 _atom_site_label
 _atom_site_symmetry_multiplicity
 _atom_site_fract_x
 _atom_site_fract_y
 _atom_site_fract_z
 _atom_site_occupancy
  Cs  Cs0  1  0.63845900  0.89705200  0.54724600  1
  Cs  Cs1  1  0.89705200  0.63845900  0.54724600  1
  Hg  Hg2  1  0.99990900  0.99990900  0.99910400  1
  Hg  Hg3  1  0.92597400  0.31353800  0.92001500  1
  Hg  Hg4  1  0.31353800  0.92597400  0.92001500  1
  I  I5  1  0.66142700  0.66142700  0.26020800  1
  I  I6  1  0.08713000  0.08713000  0.64290200  1
  I  I7  1  0.51960400  0.90918800  0.05323700  1
  I  I8  1  0.90918800  0.51960400  0.05323700  1
  I  I9  1  0.07105900  0.45958600  0.56051100  1
  I  I10  1  0.45958600  0.07105900  0.56051100  1
  I  I11  1  0.31367800  0.11778100  0.10005900  1
  I  I12  1  0.11778100  0.31367800  0.10005900  1
