# generated using pymatgen
data_Ag2SO4
_symmetry_space_group_name_H-M   'P 1'
_cell_length_a   8.46656755
_cell_length_b   6.86440369
_cell_length_c   6.38816674
_cell_angle_alpha   79.32484533
_cell_angle_beta   52.81935230
_cell_angle_gamma   47.85580237
_symmetry_Int_Tables_number   1
_chemical_formula_structural   Ag2SO4
_chemical_formula_sum   'Ag4 S2 O8'
_cell_volume   203.50841288
_cell_formula_units_Z   2
loop_
 _symmetry_equiv_pos_site_id
 _symmetry_equiv_pos_as_xyz
  1  'x, y, z'
loop_
 _atom_site_type_symbol
 _atom_site_label
 _atom_site_symmetry_multiplicity
 _atom_site_fract_x
 _atom_site_fract_y
 _atom_site_fract_z
 _atom_site_occupancy
  Ag  Ag0  1  0.94977100  0.55022900  0.94977100  1
  Ag  Ag1  1  0.55022900  0.94977100  0.55022900  1
  Ag  Ag2  1  0.30022900  0.69977100  0.30022900  1
  Ag  Ag3  1  0.69977100  0.30022900  0.69977100  1
  S  S4  1  0.25000000  0.25000000  0.25000000  1
  S  S5  1  0.00000000  0.00000000  0.00000000  1
  O  O6  1  0.95409800  0.40748900  0.39177800  1
  O  O7  1  0.24663600  0.39177800  0.40748900  1
  O  O8  1  0.39177800  0.24663600  0.95409800  1
  O  O9  1  0.40748900  0.95409800  0.24663600  1
  O  O10  1  0.29590200  0.84251100  0.85822200  1
  O  O11  1  0.00336400  0.85822200  0.84251100  1
  O  O12  1  0.84251100  0.29590200  0.00336400  1
  O  O13  1  0.85822200  0.00336400  0.29590200  1
