# generated using pymatgen
data_P10Au7I
_symmetry_space_group_name_H-M   'P 1'
_cell_length_a   6.27901568
_cell_length_b   6.27901568
_cell_length_c   11.26716500
_cell_angle_alpha   90.00000000
_cell_angle_beta   90.00000000
_cell_angle_gamma   119.99999665
_symmetry_Int_Tables_number   1
_chemical_formula_structural   P10Au7I
_chemical_formula_sum   'P10 Au7 I1'
_cell_volume   384.70553618
_cell_formula_units_Z   1
loop_
 _symmetry_equiv_pos_site_id
 _symmetry_equiv_pos_as_xyz
  1  'x, y, z'
loop_
 _atom_site_type_symbol
 _atom_site_label
 _atom_site_symmetry_multiplicity
 _atom_site_fract_x
 _atom_site_fract_y
 _atom_site_fract_z
 _atom_site_occupancy
  P  P0  1  0.00000000  0.37624400  0.19903500  1
  P  P1  1  0.66666700  0.33333300  0.70823800  1
  P  P2  1  0.00000000  0.62375600  0.80096500  1
  P  P3  1  0.37624400  0.00000000  0.19903500  1
  P  P4  1  0.66666700  0.33333300  0.29176200  1
  P  P5  1  0.62375600  0.62375600  0.19903500  1
  P  P6  1  0.62375600  0.00000000  0.80096500  1
  P  P7  1  0.33333300  0.66666700  0.70823800  1
  P  P8  1  0.33333300  0.66666700  0.29176200  1
  P  P9  1  0.37624400  0.37624400  0.80096500  1
  Au  Au10  1  0.00000000  0.00000000  0.77547400  1
  Au  Au11  1  0.50000000  0.00000000  0.00000000  1
  Au  Au12  1  0.66666700  0.33333300  0.50000000  1
  Au  Au13  1  0.00000000  0.00000000  0.22452600  1
  Au  Au14  1  0.00000000  0.50000000  0.00000000  1
  Au  Au15  1  0.33333300  0.66666700  0.50000000  1
  Au  Au16  1  0.50000000  0.50000000  0.00000000  1
  I  I17  1  0.00000000  0.00000000  0.50000000  1
