# generated using pymatgen
data_Dy5In3
_symmetry_space_group_name_H-M   'P 1'
_cell_length_a   9.19579658
_cell_length_b   9.19579658
_cell_length_c   9.19579658
_cell_angle_alpha   96.09567675
_cell_angle_beta   96.09567675
_cell_angle_gamma   141.96382767
_symmetry_Int_Tables_number   1
_chemical_formula_structural   Dy5In3
_chemical_formula_sum   'Dy10 In6'
_cell_volume   452.98476053
_cell_formula_units_Z   2
loop_
 _symmetry_equiv_pos_site_id
 _symmetry_equiv_pos_as_xyz
  1  'x, y, z'
loop_
 _atom_site_type_symbol
 _atom_site_label
 _atom_site_symmetry_multiplicity
 _atom_site_fract_x
 _atom_site_fract_y
 _atom_site_fract_z
 _atom_site_occupancy
  Dy  Dy0  1  0.71946500  0.41674800  0.13621300  1
  Dy  Dy1  1  0.28053500  0.58325200  0.86378700  1
  Dy  Dy2  1  0.58325200  0.71946500  0.30271600  1
  Dy  Dy3  1  0.21946500  0.08325200  0.30271600  1
  Dy  Dy4  1  0.91674800  0.21946500  0.13621300  1
  Dy  Dy5  1  0.75000000  0.25000000  0.50000000  1
  Dy  Dy6  1  0.25000000  0.75000000  0.50000000  1
  Dy  Dy7  1  0.78053500  0.91674800  0.69728400  1
  Dy  Dy8  1  0.41674800  0.28053500  0.69728400  1
  Dy  Dy9  1  0.08325200  0.78053500  0.86378700  1
  In  In10  1  0.83864000  0.66136000  0.50000000  1
  In  In11  1  0.33864000  0.83864000  0.17728000  1
  In  In12  1  0.75000000  0.75000000  0.00000000  1
  In  In13  1  0.66136000  0.16136000  0.82272000  1
  In  In14  1  0.16136000  0.33864000  0.50000000  1
  In  In15  1  0.25000000  0.25000000  0.00000000  1
