# generated using pymatgen
data_Y3BrO4
_symmetry_space_group_name_H-M   'P 1'
_cell_length_a   6.25514056
_cell_length_b   6.25514056
_cell_length_c   11.71879300
_cell_angle_alpha   90.00000000
_cell_angle_beta   90.00000000
_cell_angle_gamma   141.69542925
_symmetry_Int_Tables_number   1
_chemical_formula_structural   Y3BrO4
_chemical_formula_sum   'Y6 Br2 O8'
_cell_volume   284.20896560
_cell_formula_units_Z   2
loop_
 _symmetry_equiv_pos_site_id
 _symmetry_equiv_pos_as_xyz
  1  'x, y, z'
loop_
 _atom_site_type_symbol
 _atom_site_label
 _atom_site_symmetry_multiplicity
 _atom_site_fract_x
 _atom_site_fract_y
 _atom_site_fract_z
 _atom_site_occupancy
  Y  Y0  1  0.31427200  0.68572800  0.10309700  1
  Y  Y1  1  0.68572800  0.31427200  0.89690300  1
  Y  Y2  1  0.68572800  0.31427200  0.60309700  1
  Y  Y3  1  0.31427200  0.68572800  0.39690300  1
  Y  Y4  1  0.61865300  0.38134700  0.25000000  1
  Y  Y5  1  0.38134700  0.61865300  0.75000000  1
  Br  Br6  1  0.00000000  0.00000000  0.00000000  1
  Br  Br7  1  0.00000000  0.00000000  0.50000000  1
  O  O8  1  0.19101100  0.80898900  0.25000000  1
  O  O9  1  0.26980300  0.73019700  0.58952600  1
  O  O10  1  0.26980300  0.73019700  0.91047400  1
  O  O11  1  0.80898900  0.19101100  0.75000000  1
  O  O12  1  0.73019700  0.26980300  0.41047400  1
  O  O13  1  0.43391600  0.56608400  0.25000000  1
  O  O14  1  0.56608400  0.43391600  0.75000000  1
  O  O15  1  0.73019700  0.26980300  0.08952600  1
