# generated using pymatgen
data_In2H10S3O17
_symmetry_space_group_name_H-M   'P 1'
_cell_length_a   5.82138400
_cell_length_b   10.95405921
_cell_length_c   11.57486427
_cell_angle_alpha   88.86045104
_cell_angle_beta   88.91789157
_cell_angle_gamma   79.03695067
_symmetry_Int_Tables_number   1
_chemical_formula_structural   In2H10S3O17
_chemical_formula_sum   'In4 H20 S6 O34'
_cell_volume   724.40400827
_cell_formula_units_Z   2
loop_
 _symmetry_equiv_pos_site_id
 _symmetry_equiv_pos_as_xyz
  1  'x, y, z'
loop_
 _atom_site_type_symbol
 _atom_site_label
 _atom_site_symmetry_multiplicity
 _atom_site_fract_x
 _atom_site_fract_y
 _atom_site_fract_z
 _atom_site_occupancy
  In  In0  1  0.40800200  0.38641600  0.25365900  1
  In  In1  1  0.59199800  0.61358400  0.74634100  1
  In  In2  1  0.00000000  0.00000000  0.50000000  1
  In  In3  1  0.00000000  0.00000000  0.00000000  1
  H  H4  1  0.62091200  0.55117000  0.39296700  1
  H  H5  1  0.86235400  0.38563300  0.68951000  1
  H  H6  1  0.13764600  0.61436700  0.31049000  1
  H  H7  1  0.63430800  0.17837900  0.90913900  1
  H  H8  1  0.75108800  0.39339900  0.06892300  1
  H  H9  1  0.37461200  0.46568700  0.89909300  1
  H  H10  1  0.57559600  0.18174100  0.56088200  1
  H  H11  1  0.40179000  0.94938000  0.36941200  1
  H  H12  1  0.12414100  0.61243800  0.16753700  1
  H  H13  1  0.71326400  0.41088200  0.43701300  1
  H  H14  1  0.35073300  0.94728900  0.15977400  1
  H  H15  1  0.62538800  0.53431300  0.10090700  1
  H  H16  1  0.24891200  0.60660100  0.93107700  1
  H  H17  1  0.42440400  0.81825900  0.43911800  1
  H  H18  1  0.59821000  0.05062000  0.63058800  1
  H  H19  1  0.36569200  0.82162100  0.09086100  1
  H  H20  1  0.87585900  0.38756200  0.83246300  1
  H  H21  1  0.37908800  0.44883000  0.60703300  1
  H  H22  1  0.28673600  0.58911800  0.56298700  1
  H  H23  1  0.64926700  0.05271100  0.84022600  1
  S  S24  1  0.30124400  0.91252000  0.74765600  1
  S  S25  1  0.80301800  0.72634500  0.99414900  1
  S  S26  1  0.19698200  0.27365500  0.00585100  1
  S  S27  1  0.14058400  0.29110500  0.49431500  1
  S  S28  1  0.69875600  0.08748000  0.25234400  1
  S  S29  1  0.85941600  0.70889500  0.50568500  1
  O  O30  1  0.39321300  0.53729400  0.61813300  1
  O  O31  1  0.20929500  0.57551800  0.23774400  1
  O  O32  1  0.36831500  0.55558400  0.88005900  1
  O  O33  1  0.14661000  0.36103200  0.38200100  1
  O  O34  1  0.21513800  0.29809700  0.13195400  1
  O  O35  1  0.16700600  0.15605100  0.46808700  1
  O  O36  1  0.08964600  0.66135900  0.45033600  1
  O  O37  1  0.83299400  0.84394900  0.53191300  1
  O  O38  1  0.49989600  0.02203900  0.25250800  1
  O  O39  1  0.03771100  0.66170700  0.03272900  1
  O  O40  1  0.78234500  0.10719400  0.13177500  1
  O  O41  1  0.96228900  0.33829300  0.96727100  1
  O  O42  1  0.77646900  0.86431000  0.00863700  1
  O  O43  1  0.89596100  0.01509600  0.31936800  1
  O  O44  1  0.21765500  0.89280600  0.86822500  1
  O  O45  1  0.50010400  0.97796100  0.74749200  1
  O  O46  1  0.63046000  0.21304300  0.30565400  1
  O  O47  1  0.66199300  0.69344700  0.43129200  1
  O  O48  1  0.67264300  0.09724800  0.57042400  1
  O  O49  1  0.61229700  0.68699700  0.06302600  1
  O  O50  1  0.74560500  0.10494000  0.87998500  1
  O  O51  1  0.91035400  0.33864100  0.54966400  1
  O  O52  1  0.85339000  0.63896800  0.61799900  1
  O  O53  1  0.25439500  0.89506000  0.12001500  1
  O  O54  1  0.36954000  0.78695700  0.69434600  1
  O  O55  1  0.63168500  0.44441600  0.11994100  1
  O  O56  1  0.32735700  0.90275200  0.42957600  1
  O  O57  1  0.79070500  0.42448200  0.76225600  1
  O  O58  1  0.10403900  0.98490400  0.68063200  1
  O  O59  1  0.38770300  0.31300300  0.93697400  1
  O  O60  1  0.33800700  0.30655300  0.56870800  1
  O  O61  1  0.60678700  0.46270600  0.38186700  1
  O  O62  1  0.22353100  0.13569000  0.99136300  1
  O  O63  1  0.78486200  0.70190300  0.86804600  1
