# generated using pymatgen
data_CeGa6Pd
_symmetry_space_group_name_H-M   'P 1'
_cell_length_a   4.45501100
_cell_length_b   4.45501100
_cell_length_c   7.89451800
_cell_angle_alpha   90.00000000
_cell_angle_beta   90.00000000
_cell_angle_gamma   90.00000000
_symmetry_Int_Tables_number   1
_chemical_formula_structural   CeGa6Pd
_chemical_formula_sum   'Ce1 Ga6 Pd1'
_cell_volume   156.68346985
_cell_formula_units_Z   1
loop_
 _symmetry_equiv_pos_site_id
 _symmetry_equiv_pos_as_xyz
  1  'x, y, z'
loop_
 _atom_site_type_symbol
 _atom_site_label
 _atom_site_symmetry_multiplicity
 _atom_site_fract_x
 _atom_site_fract_y
 _atom_site_fract_z
 _atom_site_occupancy
  Ce  Ce0  1  0.00000000  0.00000000  0.00000000  1
  Ga  Ga1  1  0.50000000  0.50000000  0.15200400  1
  Ga  Ga2  1  0.00000000  0.50000000  0.67353500  1
  Ga  Ga3  1  0.50000000  0.50000000  0.84799600  1
  Ga  Ga4  1  0.50000000  0.00000000  0.67353500  1
  Ga  Ga5  1  0.00000000  0.50000000  0.32646500  1
  Ga  Ga6  1  0.50000000  0.00000000  0.32646500  1
  Pd  Pd7  1  0.00000000  0.00000000  0.50000000  1
