# generated using pymatgen
data_BP(IBr)3
_symmetry_space_group_name_H-M   'P 1'
_cell_length_a   7.96490300
_cell_length_b   11.99979300
_cell_length_c   13.63943600
_cell_angle_alpha   90.00000000
_cell_angle_beta   90.00000000
_cell_angle_gamma   90.00000000
_symmetry_Int_Tables_number   1
_chemical_formula_structural   BP(IBr)3
_chemical_formula_sum   'B4 P4 I12 Br12'
_cell_volume   1303.61892876
_cell_formula_units_Z   4
loop_
 _symmetry_equiv_pos_site_id
 _symmetry_equiv_pos_as_xyz
  1  'x, y, z'
loop_
 _atom_site_type_symbol
 _atom_site_label
 _atom_site_symmetry_multiplicity
 _atom_site_fract_x
 _atom_site_fract_y
 _atom_site_fract_z
 _atom_site_occupancy
  B  B0  1  0.24986400  0.75000000  0.10561400  1
  B  B1  1  0.74986400  0.25000000  0.39438600  1
  B  B2  1  0.75013600  0.25000000  0.89438600  1
  B  B3  1  0.25013600  0.75000000  0.60561400  1
  P  P4  1  0.50085300  0.75000000  0.14035300  1
  P  P5  1  0.00085300  0.25000000  0.35964700  1
  P  P6  1  0.49914700  0.25000000  0.85964700  1
  P  P7  1  0.99914700  0.75000000  0.64035300  1
  I  I8  1  0.17790200  0.25000000  0.50511600  1
  I  I9  1  0.32209800  0.25000000  0.00511600  1
  I  I10  1  0.08008800  0.41297600  0.26368300  1
  I  I11  1  0.41991200  0.08702400  0.76368300  1
  I  I12  1  0.58008800  0.91297600  0.23631700  1
  I  I13  1  0.41991200  0.41297600  0.76368300  1
  I  I14  1  0.82209800  0.75000000  0.49488400  1
  I  I15  1  0.91991200  0.91297600  0.73631700  1
  I  I16  1  0.58008800  0.58702400  0.23631700  1
  I  I17  1  0.67790200  0.75000000  0.99488400  1
  I  I18  1  0.08008800  0.08702400  0.26368300  1
  I  I19  1  0.91991200  0.58702400  0.73631700  1
  Br  Br20  1  0.28278700  0.61023500  0.52910000  1
  Br  Br21  1  0.71721300  0.11023500  0.47090000  1
  Br  Br22  1  0.63445400  0.25000000  0.26443700  1
  Br  Br23  1  0.78278700  0.11023500  0.97090000  1
  Br  Br24  1  0.36554600  0.75000000  0.73556300  1
  Br  Br25  1  0.21721300  0.88976500  0.02910000  1
  Br  Br26  1  0.78278700  0.38976500  0.97090000  1
  Br  Br27  1  0.28278700  0.88976500  0.52910000  1
  Br  Br28  1  0.86554600  0.25000000  0.76443700  1
  Br  Br29  1  0.13445400  0.75000000  0.23556300  1
  Br  Br30  1  0.71721300  0.38976500  0.47090000  1
  Br  Br31  1  0.21721300  0.61023500  0.02910000  1
