# generated using pymatgen
data_K2Ti(SiO3)3
_symmetry_space_group_name_H-M   'P 1'
_cell_length_a   7.71575136
_cell_length_b   7.71575136
_cell_length_c   7.71575142
_cell_angle_alpha   82.44123789
_cell_angle_beta   82.44123789
_cell_angle_gamma   82.44123854
_symmetry_Int_Tables_number   1
_chemical_formula_structural   K2Ti(SiO3)3
_chemical_formula_sum   'K4 Ti2 Si6 O18'
_cell_volume   448.33171946
_cell_formula_units_Z   2
loop_
 _symmetry_equiv_pos_site_id
 _symmetry_equiv_pos_as_xyz
  1  'x, y, z'
loop_
 _atom_site_type_symbol
 _atom_site_label
 _atom_site_symmetry_multiplicity
 _atom_site_fract_x
 _atom_site_fract_y
 _atom_site_fract_z
 _atom_site_occupancy
  K  K0  1  0.22821200  0.76961700  0.99490500  1
  K  K1  1  0.76961700  0.99490500  0.22821200  1
  K  K2  1  0.99490500  0.22821200  0.76961700  1
  K  K3  1  0.49650000  0.49650000  0.49650000  1
  Ti  Ti4  1  0.22240400  0.22240400  0.22240400  1
  Ti  Ti5  1  0.74077800  0.74077800  0.74077800  1
  Si  Si6  1  0.89055800  0.50998000  0.09800000  1
  Si  Si7  1  0.09800000  0.89055800  0.50998000  1
  Si  Si8  1  0.50998000  0.09800000  0.89055800  1
  Si  Si9  1  0.01521000  0.54904900  0.43633100  1
  Si  Si10  1  0.43633100  0.01521000  0.54904900  1
  Si  Si11  1  0.54904900  0.43633100  0.01521000  1
  O  O12  1  0.32387700  0.09997000  0.01751500  1
  O  O13  1  0.46702700  0.15725000  0.68395500  1
  O  O14  1  0.68395500  0.46702700  0.15725000  1
  O  O15  1  0.24375600  0.94241700  0.62882000  1
  O  O16  1  0.94241700  0.62882000  0.24375600  1
  O  O17  1  0.58757400  0.84785700  0.55645400  1
  O  O18  1  0.63160100  0.91061900  0.90425900  1
  O  O19  1  0.91061900  0.90425900  0.63160100  1
  O  O20  1  0.55645400  0.58757400  0.84785700  1
  O  O21  1  0.62882000  0.24375600  0.94241700  1
  O  O22  1  0.90425900  0.63160100  0.91061900  1
  O  O23  1  0.84785700  0.55645400  0.58757400  1
  O  O24  1  0.15725000  0.68395500  0.46702700  1
  O  O25  1  0.42639800  0.12105200  0.35436700  1
  O  O26  1  0.35436700  0.42639800  0.12105200  1
  O  O27  1  0.09997000  0.01751500  0.32387700  1
  O  O28  1  0.12105200  0.35436700  0.42639800  1
  O  O29  1  0.01751500  0.32387700  0.09997000  1
