# generated using pymatgen
data_K2BiF5
_symmetry_space_group_name_H-M   'P 1'
_cell_length_a   6.70982100
_cell_length_b   7.56711300
_cell_length_c   11.61122900
_cell_angle_alpha   90.00000000
_cell_angle_beta   90.00000000
_cell_angle_gamma   90.00000000
_symmetry_Int_Tables_number   1
_chemical_formula_structural   K2BiF5
_chemical_formula_sum   'K8 Bi4 F20'
_cell_volume   589.54823607
_cell_formula_units_Z   4
loop_
 _symmetry_equiv_pos_site_id
 _symmetry_equiv_pos_as_xyz
  1  'x, y, z'
loop_
 _atom_site_type_symbol
 _atom_site_label
 _atom_site_symmetry_multiplicity
 _atom_site_fract_x
 _atom_site_fract_y
 _atom_site_fract_z
 _atom_site_occupancy
  K  K0  1  0.99284100  0.00113500  0.33072800  1
  K  K1  1  0.99284100  0.49886500  0.33072800  1
  K  K2  1  0.49284100  0.50113500  0.16927200  1
  K  K3  1  0.50715900  0.49886500  0.83072800  1
  K  K4  1  0.00715900  0.50113500  0.66927200  1
  K  K5  1  0.50715900  0.00113500  0.83072800  1
  K  K6  1  0.49284100  0.99886500  0.16927200  1
  K  K7  1  0.00715900  0.99886500  0.66927200  1
  Bi  Bi8  1  0.06243600  0.25000000  0.95497000  1
  Bi  Bi9  1  0.43756400  0.25000000  0.45497000  1
  Bi  Bi10  1  0.56243600  0.75000000  0.54503000  1
  Bi  Bi11  1  0.93756400  0.75000000  0.04503000  1
  F  F12  1  0.77508800  0.75000000  0.21536400  1
  F  F13  1  0.88787000  0.45463300  0.09293700  1
  F  F14  1  0.69183400  0.25000000  0.32946500  1
  F  F15  1  0.61213000  0.45463300  0.59293700  1
  F  F16  1  0.38787000  0.54536700  0.40706300  1
  F  F17  1  0.72491200  0.75000000  0.71536400  1
  F  F18  1  0.89093800  0.75000000  0.48856500  1
  F  F19  1  0.60906200  0.75000000  0.98856500  1
  F  F20  1  0.27508800  0.25000000  0.28463600  1
  F  F21  1  0.88787000  0.04536700  0.09293700  1
  F  F22  1  0.30816600  0.75000000  0.67053500  1
  F  F23  1  0.80816600  0.25000000  0.82946500  1
  F  F24  1  0.22491200  0.25000000  0.78463600  1
  F  F25  1  0.38787000  0.95463300  0.40706300  1
  F  F26  1  0.39093800  0.25000000  0.01143500  1
  F  F27  1  0.10906200  0.25000000  0.51143500  1
  F  F28  1  0.61213000  0.04536700  0.59293700  1
  F  F29  1  0.11213000  0.95463300  0.90706300  1
  F  F30  1  0.19183400  0.75000000  0.17053500  1
  F  F31  1  0.11213000  0.54536700  0.90706300  1
