# generated using pymatgen
data_RbNb(BO3)2
_symmetry_space_group_name_H-M   'P 1'
_cell_length_a   20.22424000
_cell_length_b   7.52184000
_cell_length_c   12.21590974
_cell_angle_alpha   52.02724932
_cell_angle_beta   90.00000000
_cell_angle_gamma   90.00000000
_symmetry_Int_Tables_number   1
_chemical_formula_structural   RbNb(BO3)2
_chemical_formula_sum   'Rb10 Nb10 B20 O60'
_cell_volume   1464.92554871
_cell_formula_units_Z   10
loop_
 _symmetry_equiv_pos_site_id
 _symmetry_equiv_pos_as_xyz
  1  'x, y, z'
loop_
 _atom_site_type_symbol
 _atom_site_label
 _atom_site_symmetry_multiplicity
 _atom_site_fract_x
 _atom_site_fract_y
 _atom_site_fract_z
 _atom_site_occupancy
  Rb  Rb0  1  0.59309400  0.38256800  0.10568600  1
  Rb  Rb1  1  0.40690600  0.38256800  0.60568600  1
  Rb  Rb2  1  0.60667600  0.40288800  0.60024500  1
  Rb  Rb3  1  0.00691200  0.39639700  0.60060500  1
  Rb  Rb4  1  0.79329300  0.38900900  0.10509600  1
  Rb  Rb5  1  0.99308800  0.39639700  0.10060500  1
  Rb  Rb6  1  0.39332400  0.40288800  0.10024500  1
  Rb  Rb7  1  0.80686400  0.38914700  0.59697900  1
  Rb  Rb8  1  0.19313600  0.38914700  0.09697900  1
  Rb  Rb9  1  0.20670700  0.38900900  0.60509600  1
  Nb  Nb10  1  0.33390200  0.01052700  0.50040500  1
  Nb  Nb11  1  0.73230800  0.99829500  0.49894000  1
  Nb  Nb12  1  0.46666200  0.98388500  0.00009400  1
  Nb  Nb13  1  0.66609800  0.01052700  0.00040500  1
  Nb  Nb14  1  0.93199900  0.00251000  0.49698600  1
  Nb  Nb15  1  0.86706200  0.97952800  0.99770800  1
  Nb  Nb16  1  0.06800100  0.00251000  0.99698600  1
  Nb  Nb17  1  0.13293800  0.97952800  0.49770800  1
  Nb  Nb18  1  0.26769200  0.99829500  0.99894000  1
  Nb  Nb19  1  0.53333800  0.98388500  0.50009400  1
  B  B20  1  0.29780200  0.55773000  0.29384200  1
  B  B21  1  0.89735400  0.83902800  0.79375000  1
  B  B22  1  0.50594800  0.86059800  0.78984900  1
  B  B23  1  0.70219800  0.55773000  0.79384200  1
  B  B24  1  0.09249600  0.55154600  0.79363700  1
  B  B25  1  0.29038800  0.86067900  0.79307600  1
  B  B26  1  0.50993700  0.53403700  0.28765100  1
  B  B27  1  0.70961200  0.86067900  0.29307600  1
  B  B28  1  0.68990300  0.89976300  0.78023900  1
  B  B29  1  0.89402200  0.52867900  0.77479600  1
  B  B30  1  0.49405200  0.86059800  0.28984900  1
  B  B31  1  0.09961500  0.89984500  0.77568100  1
  B  B32  1  0.69567000  0.54094800  0.28285800  1
  B  B33  1  0.90750400  0.55154600  0.29363700  1
  B  B34  1  0.49006300  0.53403700  0.78765100  1
  B  B35  1  0.31009700  0.89976300  0.28023900  1
  B  B36  1  0.90038500  0.89984500  0.27568100  1
  B  B37  1  0.30433000  0.54094800  0.78285800  1
  B  B38  1  0.10597800  0.52867900  0.27479600  1
  B  B39  1  0.10264600  0.83902800  0.29375000  1
  O  O40  1  0.93331200  0.33854600  0.37414700  1
  O  O41  1  0.29134300  0.31861400  0.84946500  1
  O  O42  1  0.32818500  0.67136100  0.65059900  1
  O  O43  1  0.91133300  0.99019500  0.34247300  1
  O  O44  1  0.11858600  0.64660900  0.66583900  1
  O  O45  1  0.10996600  0.61058000  0.35151600  1
  O  O46  1  0.68418800  0.33755200  0.87029500  1
  O  O47  1  0.11803100  0.03572000  0.63952400  1
  O  O48  1  0.50798100  0.63157200  0.35604200  1
  O  O49  1  0.91019400  0.66637800  0.35117100  1
  O  O50  1  0.08933400  0.66383200  0.13748700  1
  O  O51  1  0.33050800  0.97594900  0.35150700  1
  O  O52  1  0.89003400  0.61058000  0.85151600  1
  O  O53  1  0.12110300  0.30672600  0.34277500  1
  O  O54  1  0.51000100  0.64772600  0.65347300  1
  O  O55  1  0.67181500  0.67136100  0.15059900  1
  O  O56  1  0.30994600  0.66440200  0.35432500  1
  O  O57  1  0.53461500  0.31935800  0.36266400  1
  O  O58  1  0.08866700  0.99019500  0.84247300  1
  O  O59  1  0.92587900  0.99333300  0.66752100  1
  O  O60  1  0.68661500  0.02116400  0.16235600  1
  O  O61  1  0.08980600  0.66637800  0.85117100  1
  O  O62  1  0.82060600  0.04419500  0.49729400  1
  O  O63  1  0.97921500  0.97155600  0.99586300  1
  O  O64  1  0.73611900  0.91591000  0.37181100  1
  O  O65  1  0.70893700  0.62867900  0.35463600  1
  O  O66  1  0.88141400  0.64660900  0.16583900  1
  O  O67  1  0.31581200  0.33755200  0.37029500  1
  O  O68  1  0.87375000  0.89624100  0.87265400  1
  O  O69  1  0.26388100  0.91591000  0.87181100  1
  O  O70  1  0.29232400  0.04570000  0.14380600  1
  O  O71  1  0.73010500  0.66653700  0.66603800  1
  O  O72  1  0.42321000  0.03401900  0.50331200  1
  O  O73  1  0.50917400  0.94136900  0.36028900  1
  O  O74  1  0.69005400  0.66440200  0.85432500  1
  O  O75  1  0.62189900  0.94398500  0.49787100  1
  O  O76  1  0.88196900  0.03572000  0.13952400  1
  O  O77  1  0.48999900  0.64772600  0.15347300  1
  O  O78  1  0.91066600  0.66383200  0.63748700  1
  O  O79  1  0.46727400  0.99865600  0.16029400  1
  O  O80  1  0.06668800  0.33854600  0.87414700  1
  O  O81  1  0.22255000  0.97832700  0.50213100  1
  O  O82  1  0.53272600  0.99865600  0.66029400  1
  O  O83  1  0.29106300  0.62867900  0.85463600  1
  O  O84  1  0.02078500  0.97155600  0.49586300  1
  O  O85  1  0.70865700  0.31861400  0.34946500  1
  O  O86  1  0.49201900  0.63157200  0.85604200  1
  O  O87  1  0.77745000  0.97832700  0.00213100  1
  O  O88  1  0.07412100  0.99333300  0.16752100  1
  O  O89  1  0.87889700  0.30672600  0.84277500  1
  O  O90  1  0.46538500  0.31935800  0.86266400  1
  O  O91  1  0.31338500  0.02116400  0.66235600  1
  O  O92  1  0.57679000  0.03401900  0.00331200  1
  O  O93  1  0.49082600  0.94136900  0.86028900  1
  O  O94  1  0.12625000  0.89624100  0.37265400  1
  O  O95  1  0.66949200  0.97594900  0.85150700  1
  O  O96  1  0.26989500  0.66653700  0.16603800  1
  O  O97  1  0.70767600  0.04570000  0.64380600  1
  O  O98  1  0.37810100  0.94398500  0.99787100  1
  O  O99  1  0.17939400  0.04419500  0.99729400  1
