# generated using pymatgen
data_CsSiBiS4
_symmetry_space_group_name_H-M   'P 1'
_cell_length_a   7.12732900
_cell_length_b   9.49751900
_cell_length_c   13.10579329
_cell_angle_alpha   71.91188472
_cell_angle_beta   90.00000000
_cell_angle_gamma   90.00000000
_symmetry_Int_Tables_number   1
_chemical_formula_structural   CsSiBiS4
_chemical_formula_sum   'Cs4 Si4 Bi4 S16'
_cell_volume   843.31346391
_cell_formula_units_Z   4
loop_
 _symmetry_equiv_pos_site_id
 _symmetry_equiv_pos_as_xyz
  1  'x, y, z'
loop_
 _atom_site_type_symbol
 _atom_site_label
 _atom_site_symmetry_multiplicity
 _atom_site_fract_x
 _atom_site_fract_y
 _atom_site_fract_z
 _atom_site_occupancy
  Cs  Cs0  1  0.26067900  0.42674900  0.39521500  1
  Cs  Cs1  1  0.76067900  0.57325100  0.10478500  1
  Cs  Cs2  1  0.73932100  0.57325100  0.60478500  1
  Cs  Cs3  1  0.23932100  0.42674900  0.89521500  1
  Si  Si4  1  0.76470500  0.17599100  0.34662100  1
  Si  Si5  1  0.26470500  0.82400900  0.15337900  1
  Si  Si6  1  0.23529500  0.82400900  0.65337900  1
  Si  Si7  1  0.73529500  0.17599100  0.84662100  1
  Bi  Bi8  1  0.15270900  0.94572000  0.37066200  1
  Bi  Bi9  1  0.65270900  0.05428000  0.12933800  1
  Bi  Bi10  1  0.84729100  0.05428000  0.62933800  1
  Bi  Bi11  1  0.34729100  0.94572000  0.87066200  1
  S  S12  1  0.99103700  0.20912600  0.75739600  1
  S  S13  1  0.79402600  0.94354500  0.44163700  1
  S  S14  1  0.51000600  0.21380900  0.73578100  1
  S  S15  1  0.70597400  0.94354500  0.94163700  1
  S  S16  1  0.76869300  0.30619400  0.45229500  1
  S  S17  1  0.00896300  0.79087400  0.24260400  1
  S  S18  1  0.26869300  0.69380600  0.04770500  1
  S  S19  1  0.20597400  0.05645500  0.55836300  1
  S  S20  1  0.73130700  0.30619400  0.95229500  1
  S  S21  1  0.48999400  0.78619100  0.26421900  1
  S  S22  1  0.01000600  0.78619100  0.76421900  1
  S  S23  1  0.23130700  0.69380600  0.54770500  1
  S  S24  1  0.50896300  0.20912600  0.25739600  1
  S  S25  1  0.98999400  0.21380900  0.23578100  1
  S  S26  1  0.49103700  0.79087400  0.74260400  1
  S  S27  1  0.29402600  0.05645500  0.05836300  1
