# generated using pymatgen
data_Rb3Y2(BO3)3
_symmetry_space_group_name_H-M   'P 1'
_cell_length_a   8.81202900
_cell_length_b   9.68968200
_cell_length_c   12.37772600
_cell_angle_alpha   90.00000000
_cell_angle_beta   90.00000000
_cell_angle_gamma   90.00000000
_symmetry_Int_Tables_number   1
_chemical_formula_structural   Rb3Y2(BO3)3
_chemical_formula_sum   'Rb12 Y8 B12 O36'
_cell_volume   1056.88152654
_cell_formula_units_Z   4
loop_
 _symmetry_equiv_pos_site_id
 _symmetry_equiv_pos_as_xyz
  1  'x, y, z'
loop_
 _atom_site_type_symbol
 _atom_site_label
 _atom_site_symmetry_multiplicity
 _atom_site_fract_x
 _atom_site_fract_y
 _atom_site_fract_z
 _atom_site_occupancy
  Rb  Rb0  1  0.35286800  0.35840600  0.74264900  1
  Rb  Rb1  1  0.20393900  0.03284900  0.57764000  1
  Rb  Rb2  1  0.79606100  0.96715100  0.07764000  1
  Rb  Rb3  1  0.09311700  0.69465200  0.59269000  1
  Rb  Rb4  1  0.14713200  0.85840600  0.24264900  1
  Rb  Rb5  1  0.85286800  0.14159400  0.74264900  1
  Rb  Rb6  1  0.29606100  0.53284900  0.07764000  1
  Rb  Rb7  1  0.90688300  0.30534800  0.09269000  1
  Rb  Rb8  1  0.70393900  0.46715100  0.57764000  1
  Rb  Rb9  1  0.64713200  0.64159400  0.24264900  1
  Rb  Rb10  1  0.59311700  0.80534800  0.59269000  1
  Rb  Rb11  1  0.40688300  0.19465200  0.09269000  1
  Y  Y12  1  0.01017500  0.50864500  0.33008300  1
  Y  Y13  1  0.64318500  0.61362800  0.89830600  1
  Y  Y14  1  0.98982500  0.49135500  0.83008300  1
  Y  Y15  1  0.48982500  0.00864500  0.83008300  1
  Y  Y16  1  0.35681500  0.38637200  0.39830600  1
  Y  Y17  1  0.85681500  0.11362800  0.39830600  1
  Y  Y18  1  0.14318500  0.88637200  0.89830600  1
  Y  Y19  1  0.51017500  0.99135500  0.33008300  1
  B  B20  1  0.13676500  0.17533600  0.90661200  1
  B  B21  1  0.36323500  0.67533600  0.40661200  1
  B  B22  1  0.16932400  0.19607300  0.28876900  1
  B  B23  1  0.86323500  0.82466400  0.40661200  1
  B  B24  1  0.33067600  0.69607300  0.78876900  1
  B  B25  1  0.66932400  0.30392700  0.28876900  1
  B  B26  1  0.03533100  0.34812100  0.56402600  1
  B  B27  1  0.46466900  0.84812100  0.06402600  1
  B  B28  1  0.96466900  0.65187900  0.06402600  1
  B  B29  1  0.83067600  0.80392700  0.78876900  1
  B  B30  1  0.53533100  0.15187900  0.56402600  1
  B  B31  1  0.63676500  0.32466400  0.90661200  1
  O  O32  1  0.47621000  0.90484100  0.16679300  1
  O  O33  1  0.53954100  0.37886000  0.27457100  1
  O  O34  1  0.38085300  0.91844600  0.98567900  1
  O  O35  1  0.88085300  0.58155400  0.98567900  1
  O  O36  1  0.30386400  0.14083100  0.33252100  1
  O  O37  1  0.25147700  0.61075400  0.34199900  1
  O  O38  1  0.96150600  0.22701200  0.53769500  1
  O  O39  1  0.61713600  0.18223300  0.90777800  1
  O  O40  1  0.61914700  0.08155400  0.48567900  1
  O  O41  1  0.80386400  0.35916900  0.33252100  1
  O  O42  1  0.97621000  0.59515900  0.16679300  1
  O  O43  1  0.95414100  0.91209500  0.46683100  1
  O  O44  1  0.67423400  0.16275600  0.26158900  1
  O  O45  1  0.88286400  0.68223300  0.40777800  1
  O  O46  1  0.46150600  0.27298800  0.53769500  1
  O  O47  1  0.45414100  0.58790500  0.46683100  1
  O  O48  1  0.32576600  0.83724400  0.76158900  1
  O  O49  1  0.54585900  0.41209500  0.96683100  1
  O  O50  1  0.17423400  0.33724400  0.26158900  1
  O  O51  1  0.24852300  0.11075400  0.84199900  1
  O  O52  1  0.04585900  0.08790500  0.96683100  1
  O  O53  1  0.52379000  0.09515900  0.66679300  1
  O  O54  1  0.03954100  0.12114000  0.27457100  1
  O  O55  1  0.11914700  0.41844600  0.48567900  1
  O  O56  1  0.38286400  0.81776700  0.40777800  1
  O  O57  1  0.69613600  0.85916900  0.83252100  1
  O  O58  1  0.82576600  0.66275600  0.76158900  1
  O  O59  1  0.19613600  0.64083100  0.83252100  1
  O  O60  1  0.75147700  0.88924600  0.34199900  1
  O  O61  1  0.96045900  0.87886000  0.77457100  1
  O  O62  1  0.03849400  0.77298800  0.03769500  1
  O  O63  1  0.02379000  0.40484100  0.66679300  1
  O  O64  1  0.11713600  0.31776700  0.90777800  1
  O  O65  1  0.74852300  0.38924600  0.84199900  1
  O  O66  1  0.46045900  0.62114000  0.77457100  1
  O  O67  1  0.53849400  0.72701200  0.03769500  1
