# generated using pymatgen
data_CrMoF6
_symmetry_space_group_name_H-M   'P 1'
_cell_length_a   5.58217820
_cell_length_b   5.58217820
_cell_length_c   5.58217832
_cell_angle_alpha   56.05789464
_cell_angle_beta   56.05789464
_cell_angle_gamma   56.05790087
_symmetry_Int_Tables_number   1
_chemical_formula_structural   CrMoF6
_chemical_formula_sum   'Cr1 Mo1 F6'
_cell_volume   111.76740992
_cell_formula_units_Z   1
loop_
 _symmetry_equiv_pos_site_id
 _symmetry_equiv_pos_as_xyz
  1  'x, y, z'
loop_
 _atom_site_type_symbol
 _atom_site_label
 _atom_site_symmetry_multiplicity
 _atom_site_fract_x
 _atom_site_fract_y
 _atom_site_fract_z
 _atom_site_occupancy
  Cr  Cr0  1  0.00000000  0.00000000  0.00000000  1
  Mo  Mo1  1  0.50000000  0.50000000  0.50000000  1
  F  F2  1  0.88790300  0.63358800  0.23769200  1
  F  F3  1  0.11209700  0.36641200  0.76230800  1
  F  F4  1  0.76230800  0.11209700  0.36641200  1
  F  F5  1  0.23769200  0.88790300  0.63358800  1
  F  F6  1  0.63358800  0.23769200  0.88790300  1
  F  F7  1  0.36641200  0.76230800  0.11209700  1
