# generated using pymatgen
data_AsSe(ClF2)3
_symmetry_space_group_name_H-M   'P 1'
_cell_length_a   9.61156700
_cell_length_b   7.89346200
_cell_length_c   12.20221887
_cell_angle_alpha   81.62454348
_cell_angle_beta   90.00000000
_cell_angle_gamma   90.00000000
_symmetry_Int_Tables_number   1
_chemical_formula_structural   AsSe(ClF2)3
_chemical_formula_sum   'As4 Se4 Cl12 F24'
_cell_volume   915.89107078
_cell_formula_units_Z   4
loop_
 _symmetry_equiv_pos_site_id
 _symmetry_equiv_pos_as_xyz
  1  'x, y, z'
loop_
 _atom_site_type_symbol
 _atom_site_label
 _atom_site_symmetry_multiplicity
 _atom_site_fract_x
 _atom_site_fract_y
 _atom_site_fract_z
 _atom_site_occupancy
  As  As0  1  0.26330700  0.81185100  0.07185800  1
  As  As1  1  0.73669300  0.18814900  0.92814200  1
  As  As2  1  0.23669300  0.81185100  0.57185800  1
  As  As3  1  0.76330700  0.18814900  0.42814200  1
  Se  Se4  1  0.17875600  0.18680800  0.30482800  1
  Se  Se5  1  0.82124400  0.81319200  0.69517200  1
  Se  Se6  1  0.32124400  0.18680800  0.80482800  1
  Se  Se7  1  0.67875600  0.81319200  0.19517200  1
  Cl  Cl8  1  0.56177400  0.71610500  0.34018300  1
  Cl  Cl9  1  0.11308200  0.21527400  0.74225900  1
  Cl  Cl10  1  0.61308200  0.78472600  0.75774100  1
  Cl  Cl11  1  0.88691800  0.78472600  0.25774100  1
  Cl  Cl12  1  0.43822600  0.28389500  0.65981700  1
  Cl  Cl13  1  0.17258700  0.40222300  0.39353800  1
  Cl  Cl14  1  0.06177400  0.28389500  0.15981700  1
  Cl  Cl15  1  0.38691800  0.21527400  0.24225900  1
  Cl  Cl16  1  0.93822600  0.71610500  0.84018300  1
  Cl  Cl17  1  0.82741300  0.59777700  0.60646200  1
  Cl  Cl18  1  0.67258700  0.59777700  0.10646200  1
  Cl  Cl19  1  0.32741300  0.40222300  0.89353800  1
  F  F20  1  0.28458200  0.01682600  0.49790900  1
  F  F21  1  0.78458200  0.98317400  0.00209100  1
  F  F22  1  0.07066400  0.89997300  0.60081200  1
  F  F23  1  0.33151200  0.75581800  0.94722200  1
  F  F24  1  0.90098200  0.27189500  0.95583500  1
  F  F25  1  0.21541800  0.01682600  0.99790900  1
  F  F26  1  0.18568900  0.61280800  0.64550700  1
  F  F27  1  0.66848800  0.24418200  0.05277800  1
  F  F28  1  0.68568900  0.38719200  0.85449300  1
  F  F29  1  0.09901800  0.72810500  0.04416500  1
  F  F30  1  0.57066400  0.10002700  0.89918800  1
  F  F31  1  0.59901800  0.27189500  0.45583500  1
  F  F32  1  0.16848800  0.75581800  0.44722200  1
  F  F33  1  0.92933600  0.10002700  0.39918800  1
  F  F34  1  0.81431100  0.38719200  0.35449300  1
  F  F35  1  0.71541800  0.98317400  0.50209100  1
  F  F36  1  0.30281700  0.87800400  0.69548300  1
  F  F37  1  0.69718300  0.12199600  0.30451700  1
  F  F38  1  0.40098200  0.72810500  0.54416500  1
  F  F39  1  0.83151200  0.24418200  0.55277800  1
  F  F40  1  0.42933600  0.89997300  0.10081200  1
  F  F41  1  0.19718300  0.87800400  0.19548300  1
  F  F42  1  0.31431100  0.61280800  0.14550700  1
  F  F43  1  0.80281700  0.12199600  0.80451700  1
