# generated using pymatgen
data_CsDy(MoO4)2
_symmetry_space_group_name_H-M   'P 1'
_cell_length_a   5.09539800
_cell_length_b   8.17890100
_cell_length_c   9.77360305
_cell_angle_alpha   87.99794593
_cell_angle_beta   90.00000000
_cell_angle_gamma   90.00000000
_symmetry_Int_Tables_number   1
_chemical_formula_structural   CsDy(MoO4)2
_chemical_formula_sum   'Cs2 Dy2 Mo4 O16'
_cell_volume   407.06388669
_cell_formula_units_Z   2
loop_
 _symmetry_equiv_pos_site_id
 _symmetry_equiv_pos_as_xyz
  1  'x, y, z'
loop_
 _atom_site_type_symbol
 _atom_site_label
 _atom_site_symmetry_multiplicity
 _atom_site_fract_x
 _atom_site_fract_y
 _atom_site_fract_z
 _atom_site_occupancy
  Cs  Cs0  1  0.03726100  0.25000000  0.50000000  1
  Cs  Cs1  1  0.96273900  0.75000000  0.50000000  1
  Dy  Dy2  1  0.99904000  0.25000000  0.00000000  1
  Dy  Dy3  1  0.00096000  0.75000000  0.00000000  1
  Mo  Mo4  1  0.47714900  0.00831800  0.80745000  1
  Mo  Mo5  1  0.47714900  0.49168200  0.19255000  1
  Mo  Mo6  1  0.52285100  0.50831800  0.80745000  1
  Mo  Mo7  1  0.52285100  0.99168200  0.19255000  1
  O  O8  1  0.74074500  0.68215500  0.81793500  1
  O  O9  1  0.24746800  0.50290800  0.93353200  1
  O  O10  1  0.24746800  0.99709200  0.06646800  1
  O  O11  1  0.60975700  0.48335100  0.35812300  1
  O  O12  1  0.26063600  0.83312000  0.81762500  1
  O  O13  1  0.39024300  0.98335100  0.35812300  1
  O  O14  1  0.73936400  0.33312000  0.81762500  1
  O  O15  1  0.25925500  0.31784500  0.18206500  1
  O  O16  1  0.75253200  0.00290800  0.93353200  1
  O  O17  1  0.26063600  0.66688000  0.18237500  1
  O  O18  1  0.60975700  0.01664900  0.64187700  1
  O  O19  1  0.73936400  0.16688000  0.18237500  1
  O  O20  1  0.74074500  0.81784500  0.18206500  1
  O  O21  1  0.39024300  0.51664900  0.64187700  1
  O  O22  1  0.25925500  0.18215500  0.81793500  1
  O  O23  1  0.75253200  0.49709200  0.06646800  1
