# generated using pymatgen
data_SnHg7(As2I3)2
_symmetry_space_group_name_H-M   'P 1'
_cell_length_a   13.50471000
_cell_length_b   13.50471000
_cell_length_c   13.50471000
_cell_angle_alpha   90.00000000
_cell_angle_beta   90.00000000
_cell_angle_gamma   90.00000000
_symmetry_Int_Tables_number   1
_chemical_formula_structural   SnHg7(As2I3)2
_chemical_formula_sum   'Sn4 Hg28 As16 I24'
_cell_volume   2462.95109106
_cell_formula_units_Z   4
loop_
 _symmetry_equiv_pos_site_id
 _symmetry_equiv_pos_as_xyz
  1  'x, y, z'
loop_
 _atom_site_type_symbol
 _atom_site_label
 _atom_site_symmetry_multiplicity
 _atom_site_fract_x
 _atom_site_fract_y
 _atom_site_fract_z
 _atom_site_occupancy
  Sn  Sn0  1  0.76497700  0.76497700  0.76497700  1
  Sn  Sn1  1  0.23502300  0.26497700  0.73502300  1
  Sn  Sn2  1  0.26497700  0.73502300  0.23502300  1
  Sn  Sn3  1  0.73502300  0.23502300  0.26497700  1
  Hg  Hg4  1  0.31830700  0.09797600  0.07647400  1
  Hg  Hg5  1  0.06880600  0.49978100  0.75105500  1
  Hg  Hg6  1  0.43119400  0.50021900  0.25105500  1
  Hg  Hg7  1  0.93119400  0.99978100  0.74894500  1
  Hg  Hg8  1  0.53509800  0.46490200  0.96490200  1
  Hg  Hg9  1  0.68169300  0.59797600  0.42352600  1
  Hg  Hg10  1  0.57647400  0.18169300  0.90202400  1
  Hg  Hg11  1  0.03509800  0.03509800  0.03509800  1
  Hg  Hg12  1  0.18169300  0.90202400  0.57647400  1
  Hg  Hg13  1  0.24894500  0.56880600  0.00021900  1
  Hg  Hg14  1  0.90202400  0.57647400  0.18169300  1
  Hg  Hg15  1  0.25105500  0.43119400  0.50021900  1
  Hg  Hg16  1  0.74894500  0.93119400  0.99978100  1
  Hg  Hg17  1  0.49978100  0.75105500  0.06880600  1
  Hg  Hg18  1  0.59797600  0.42352600  0.68169300  1
  Hg  Hg19  1  0.09797600  0.07647400  0.31830700  1
  Hg  Hg20  1  0.81830700  0.40202400  0.92352600  1
  Hg  Hg21  1  0.92352600  0.81830700  0.40202400  1
  Hg  Hg22  1  0.50021900  0.25105500  0.43119400  1
  Hg  Hg23  1  0.40202400  0.92352600  0.81830700  1
  Hg  Hg24  1  0.46490200  0.96490200  0.53509800  1
  Hg  Hg25  1  0.42352600  0.68169300  0.59797600  1
  Hg  Hg26  1  0.07647400  0.31830700  0.09797600  1
  Hg  Hg27  1  0.99978100  0.74894500  0.93119400  1
  Hg  Hg28  1  0.56880600  0.00021900  0.24894500  1
  Hg  Hg29  1  0.96490200  0.53509800  0.46490200  1
  Hg  Hg30  1  0.75105500  0.06880600  0.49978100  1
  Hg  Hg31  1  0.00021900  0.24894500  0.56880600  1
  As  As32  1  0.96381900  0.46381900  0.03618100  1
  As  As33  1  0.53618100  0.53618100  0.53618100  1
  As  As34  1  0.07376700  0.42623300  0.57376700  1
  As  As35  1  0.06916200  0.56916200  0.93083800  1
  As  As36  1  0.85635700  0.64364300  0.35635700  1
  As  As37  1  0.64364300  0.35635700  0.85635700  1
  As  As38  1  0.03618100  0.96381900  0.46381900  1
  As  As39  1  0.43083800  0.43083800  0.43083800  1
  As  As40  1  0.14364300  0.14364300  0.14364300  1
  As  As41  1  0.57376700  0.07376700  0.42623300  1
  As  As42  1  0.56916200  0.93083800  0.06916200  1
  As  As43  1  0.93083800  0.06916200  0.56916200  1
  As  As44  1  0.42623300  0.57376700  0.07376700  1
  As  As45  1  0.35635700  0.85635700  0.64364300  1
  As  As46  1  0.92623300  0.92623300  0.92623300  1
  As  As47  1  0.46381900  0.03618100  0.96381900  1
  I  I48  1  0.52630700  0.73627500  0.31425200  1
  I  I49  1  0.78684900  0.18753200  0.05542800  1
  I  I50  1  0.71315100  0.81246800  0.55542800  1
  I  I51  1  0.81425200  0.97369300  0.26372500  1
  I  I52  1  0.68753200  0.44457200  0.21315100  1
  I  I53  1  0.18574800  0.47369300  0.23627500  1
  I  I54  1  0.55542800  0.71315100  0.81246800  1
  I  I55  1  0.44457200  0.21315100  0.68753200  1
  I  I56  1  0.76372500  0.68574800  0.02630700  1
  I  I57  1  0.23627500  0.18574800  0.47369300  1
  I  I58  1  0.47369300  0.23627500  0.18574800  1
  I  I59  1  0.28684900  0.31246800  0.94457200  1
  I  I60  1  0.31246800  0.94457200  0.28684900  1
  I  I61  1  0.68574800  0.02630700  0.76372500  1
  I  I62  1  0.05542800  0.78684900  0.18753200  1
  I  I63  1  0.94457200  0.28684900  0.31246800  1
  I  I64  1  0.02630700  0.76372500  0.68574800  1
  I  I65  1  0.73627500  0.31425200  0.52630700  1
  I  I66  1  0.18753200  0.05542800  0.78684900  1
  I  I67  1  0.26372500  0.81425200  0.97369300  1
  I  I68  1  0.21315100  0.68753200  0.44457200  1
  I  I69  1  0.81246800  0.55542800  0.71315100  1
  I  I70  1  0.31425200  0.52630700  0.73627500  1
  I  I71  1  0.97369300  0.26372500  0.81425200  1
