# generated using pymatgen
data_Pr4S3N2
_symmetry_space_group_name_H-M   'P 1'
_cell_length_a   10.33326583
_cell_length_b   10.33326583
_cell_length_c   12.84751275
_cell_angle_alpha   52.15402681
_cell_angle_beta   52.15402681
_cell_angle_gamma   57.83791175
_symmetry_Int_Tables_number   1
_chemical_formula_structural   Pr4S3N2
_chemical_formula_sum   'Pr16 S12 N8'
_cell_volume   828.25667018
_cell_formula_units_Z   4
loop_
 _symmetry_equiv_pos_site_id
 _symmetry_equiv_pos_as_xyz
  1  'x, y, z'
loop_
 _atom_site_type_symbol
 _atom_site_label
 _atom_site_symmetry_multiplicity
 _atom_site_fract_x
 _atom_site_fract_y
 _atom_site_fract_z
 _atom_site_occupancy
  Pr  Pr0  1  0.71745700  0.63614900  0.43704200  1
  Pr  Pr1  1  0.18833900  0.08276400  0.97499700  1
  Pr  Pr2  1  0.08276400  0.18833900  0.47499700  1
  Pr  Pr3  1  0.28254400  0.36385100  0.56295800  1
  Pr  Pr4  1  0.63614900  0.71745700  0.93704200  1
  Pr  Pr5  1  0.61328600  0.20287400  0.68455100  1
  Pr  Pr6  1  0.81232400  0.42199100  0.25468800  1
  Pr  Pr7  1  0.38671400  0.79712600  0.31544900  1
  Pr  Pr8  1  0.20287400  0.61328600  0.18455100  1
  Pr  Pr9  1  0.36385100  0.28254300  0.06295800  1
  Pr  Pr10  1  0.91723600  0.81166100  0.52500300  1
  Pr  Pr11  1  0.42199100  0.81232400  0.75468800  1
  Pr  Pr12  1  0.81166100  0.91723600  0.02500300  1
  Pr  Pr13  1  0.18767600  0.57800900  0.74531200  1
  Pr  Pr14  1  0.57800900  0.18767600  0.24531200  1
  Pr  Pr15  1  0.79712600  0.38671400  0.81544900  1
  S  S16  1  0.09721800  0.10350900  0.77530000  1
  S  S17  1  0.52079100  0.47920900  0.75000000  1
  S  S18  1  0.39006900  0.88742400  0.49154600  1
  S  S19  1  0.11257600  0.60993100  0.00845400  1
  S  S20  1  0.47920900  0.52079100  0.25000000  1
  S  S21  1  0.10350900  0.09721800  0.27530000  1
  S  S22  1  0.90278200  0.89649100  0.22470000  1
  S  S23  1  0.60993100  0.11257600  0.50845400  1
  S  S24  1  0.00000000  0.50000000  0.50000000  1
  S  S25  1  0.89649100  0.90278200  0.72470000  1
  S  S26  1  0.88742400  0.39006900  0.99154600  1
  S  S27  1  0.50000000  0.00000000  0.00000000  1
  N  N28  1  0.30215800  0.31524900  0.25565600  1
  N  N29  1  0.31524900  0.30215800  0.75565600  1
  N  N30  1  0.64560000  0.18553800  0.03713600  1
  N  N31  1  0.68475100  0.69784200  0.24434400  1
  N  N32  1  0.69784200  0.68475100  0.74434400  1
  N  N33  1  0.35440000  0.81446200  0.96286400  1
  N  N34  1  0.81446200  0.35440000  0.46286400  1
  N  N35  1  0.18553800  0.64560000  0.53713600  1
