# generated using pymatgen
data_Nd2Te4O11
_symmetry_space_group_name_H-M   'P 1'
_cell_length_a   6.91388958
_cell_length_b   6.91388958
_cell_length_c   16.66257248
_cell_angle_alpha   76.53614638
_cell_angle_beta   76.53614638
_cell_angle_gamma   45.10564915
_symmetry_Int_Tables_number   1
_chemical_formula_structural   Nd2Te4O11
_chemical_formula_sum   'Nd4 Te8 O22'
_cell_volume   546.02328011
_cell_formula_units_Z   2
loop_
 _symmetry_equiv_pos_site_id
 _symmetry_equiv_pos_as_xyz
  1  'x, y, z'
loop_
 _atom_site_type_symbol
 _atom_site_label
 _atom_site_symmetry_multiplicity
 _atom_site_fract_x
 _atom_site_fract_y
 _atom_site_fract_z
 _atom_site_occupancy
  Nd  Nd0  1  0.13332400  0.63050600  0.53790500  1
  Nd  Nd1  1  0.36949400  0.86667600  0.96209500  1
  Nd  Nd2  1  0.86667600  0.36949400  0.46209500  1
  Nd  Nd3  1  0.63050600  0.13332400  0.03790500  1
  Te  Te4  1  0.60377400  0.15959700  0.69891600  1
  Te  Te5  1  0.84040300  0.39622600  0.80108400  1
  Te  Te6  1  0.39622600  0.84040300  0.30108400  1
  Te  Te7  1  0.15959700  0.60377400  0.19891600  1
  Te  Te8  1  0.14845000  0.58579600  0.87478100  1
  Te  Te9  1  0.41420400  0.85155000  0.62521900  1
  Te  Te10  1  0.85155000  0.41420400  0.12521900  1
  Te  Te11  1  0.58579600  0.14845000  0.37478100  1
  O  O12  1  0.85004400  0.14995600  0.75000000  1
  O  O13  1  0.14995600  0.85004400  0.25000000  1
  O  O14  1  0.19615300  0.09828500  0.83050600  1
  O  O15  1  0.90171500  0.80384700  0.66949400  1
  O  O16  1  0.80384700  0.90171500  0.16949400  1
  O  O17  1  0.09828500  0.19615300  0.33050600  1
  O  O18  1  0.61027800  0.43786300  0.90023600  1
  O  O19  1  0.56213700  0.38972200  0.59976400  1
  O  O20  1  0.38972200  0.56213700  0.09976400  1
  O  O21  1  0.43786300  0.61027800  0.40023600  1
  O  O22  1  0.04478200  0.81176500  0.95342100  1
  O  O23  1  0.18823500  0.95521800  0.54657900  1
  O  O24  1  0.67987800  0.81314300  0.37324300  1
  O  O25  1  0.18685700  0.32012200  0.12675700  1
  O  O26  1  0.32012200  0.18685700  0.62675700  1
  O  O27  1  0.81314300  0.67987800  0.87324300  1
  O  O28  1  0.25231000  0.33121200  0.44554100  1
  O  O29  1  0.66878800  0.74769000  0.05445900  1
  O  O30  1  0.74769000  0.66878800  0.55445900  1
  O  O31  1  0.33121200  0.25231000  0.94554100  1
  O  O32  1  0.81176500  0.04478200  0.45342100  1
  O  O33  1  0.95521800  0.18823500  0.04657900  1
