# generated using pymatgen
data_LiMnGaF6
_symmetry_space_group_name_H-M   'P 1'
_cell_length_a   8.81769759
_cell_length_b   8.81769759
_cell_length_c   4.79596400
_cell_angle_alpha   90.00000000
_cell_angle_beta   90.00000000
_cell_angle_gamma   119.99999694
_symmetry_Int_Tables_number   1
_chemical_formula_structural   LiMnGaF6
_chemical_formula_sum   'Li3 Mn3 Ga3 F18'
_cell_volume   322.93637081
_cell_formula_units_Z   3
loop_
 _symmetry_equiv_pos_site_id
 _symmetry_equiv_pos_as_xyz
  1  'x, y, z'
loop_
 _atom_site_type_symbol
 _atom_site_label
 _atom_site_symmetry_multiplicity
 _atom_site_fract_x
 _atom_site_fract_y
 _atom_site_fract_z
 _atom_site_occupancy
  Li  Li0  1  0.29841700  0.00000000  0.50000000  1
  Li  Li1  1  0.00000000  0.29841700  0.50000000  1
  Li  Li2  1  0.70158300  0.70158300  0.50000000  1
  Mn  Mn3  1  0.63942500  0.00000000  0.00000000  1
  Mn  Mn4  1  0.00000000  0.63942500  0.00000000  1
  Mn  Mn5  1  0.36057500  0.36057500  0.00000000  1
  Ga  Ga6  1  0.00000000  0.00000000  0.00000000  1
  Ga  Ga7  1  0.33333300  0.66666700  0.50306300  1
  Ga  Ga8  1  0.66666700  0.33333300  0.49693700  1
  F  F9  1  0.09901500  0.88885600  0.77788800  1
  F  F10  1  0.11114400  0.21015900  0.77788800  1
  F  F11  1  0.78984100  0.90098500  0.77788800  1
  F  F12  1  0.21015900  0.11114400  0.22211200  1
  F  F13  1  0.90098500  0.78984100  0.22211200  1
  F  F14  1  0.88885600  0.09901500  0.22211200  1
  F  F15  1  0.45346800  0.57901400  0.72885600  1
  F  F16  1  0.42098600  0.87445400  0.72885600  1
  F  F17  1  0.12554600  0.54653200  0.72885600  1
  F  F18  1  0.87445400  0.42098600  0.27114400  1
  F  F19  1  0.54653200  0.12554600  0.27114400  1
  F  F20  1  0.57901400  0.45346800  0.27114400  1
  F  F21  1  0.22359900  0.76708000  0.28190400  1
  F  F22  1  0.23292000  0.45651900  0.28190400  1
  F  F23  1  0.54348100  0.77640100  0.28190400  1
  F  F24  1  0.45651900  0.23292000  0.71809600  1
  F  F25  1  0.77640100  0.54348100  0.71809600  1
  F  F26  1  0.76708000  0.22359900  0.71809600  1
