# generated using pymatgen
data_BaAg2GeSe4
_symmetry_space_group_name_H-M   'P 1'
_cell_length_a   6.65586609
_cell_length_b   6.65586609
_cell_length_c   6.65586609
_cell_angle_alpha   115.23607596
_cell_angle_beta   112.76396907
_cell_angle_gamma   100.76115372
_symmetry_Int_Tables_number   1
_chemical_formula_structural   BaAg2GeSe4
_chemical_formula_sum   'Ba1 Ag2 Ge1 Se4'
_cell_volume   223.01132455
_cell_formula_units_Z   1
loop_
 _symmetry_equiv_pos_site_id
 _symmetry_equiv_pos_as_xyz
  1  'x, y, z'
loop_
 _atom_site_type_symbol
 _atom_site_label
 _atom_site_symmetry_multiplicity
 _atom_site_fract_x
 _atom_site_fract_y
 _atom_site_fract_z
 _atom_site_occupancy
  Ba  Ba0  1  0.00000000  0.00000000  0.00000000  1
  Ag  Ag1  1  0.70729900  0.20729900  0.50000000  1
  Ag  Ag2  1  0.29270100  0.79270100  0.50000000  1
  Ge  Ge3  1  0.50000000  0.50000000  0.00000000  1
  Se  Se4  1  0.14773700  0.53112300  0.00268800  1
  Se  Se5  1  0.52843500  0.14504900  0.99731200  1
  Se  Se6  1  0.47156500  0.46887700  0.61661400  1
  Se  Se7  1  0.85226300  0.85495100  0.38338600  1
