# generated using pymatgen
data_Dy4CdCo
_symmetry_space_group_name_H-M   'P 1'
_cell_length_a   9.49163857
_cell_length_b   9.49163857
_cell_length_c   9.49163857
_cell_angle_alpha   60.00000000
_cell_angle_beta   60.00000000
_cell_angle_gamma   60.00000000
_symmetry_Int_Tables_number   1
_chemical_formula_structural   Dy4CdCo
_chemical_formula_sum   'Dy16 Cd4 Co4'
_cell_volume   604.65629698
_cell_formula_units_Z   4
loop_
 _symmetry_equiv_pos_site_id
 _symmetry_equiv_pos_as_xyz
  1  'x, y, z'
loop_
 _atom_site_type_symbol
 _atom_site_label
 _atom_site_symmetry_multiplicity
 _atom_site_fract_x
 _atom_site_fract_y
 _atom_site_fract_z
 _atom_site_occupancy
  Dy  Dy0  1  0.15364800  0.53905500  0.15364800  1
  Dy  Dy1  1  0.68836200  0.31163800  0.68836200  1
  Dy  Dy2  1  0.68836200  0.31163800  0.31163800  1
  Dy  Dy3  1  0.93816500  0.56183500  0.56183500  1
  Dy  Dy4  1  0.53905500  0.15364800  0.15364800  1
  Dy  Dy5  1  0.15364800  0.15364800  0.53905500  1
  Dy  Dy6  1  0.93816500  0.93816500  0.56183500  1
  Dy  Dy7  1  0.31163800  0.68836200  0.31163800  1
  Dy  Dy8  1  0.56183500  0.93816500  0.93816500  1
  Dy  Dy9  1  0.56183500  0.93816500  0.56183500  1
  Dy  Dy10  1  0.68836200  0.68836200  0.31163800  1
  Dy  Dy11  1  0.56183500  0.56183500  0.93816500  1
  Dy  Dy12  1  0.93816500  0.56183500  0.93816500  1
  Dy  Dy13  1  0.31163800  0.68836200  0.68836200  1
  Dy  Dy14  1  0.15364800  0.15364800  0.15364800  1
  Dy  Dy15  1  0.31163800  0.31163800  0.68836200  1
  Cd  Cd16  1  0.91947800  0.24156600  0.91947800  1
  Cd  Cd17  1  0.91947800  0.91947800  0.91947800  1
  Cd  Cd18  1  0.91947800  0.91947800  0.24156600  1
  Cd  Cd19  1  0.24156600  0.91947800  0.91947800  1
  Co  Co20  1  0.35898300  0.35898300  0.92305200  1
  Co  Co21  1  0.35898300  0.92305200  0.35898300  1
  Co  Co22  1  0.92305200  0.35898300  0.35898300  1
  Co  Co23  1  0.35898300  0.35898300  0.35898300  1
