# generated using pymatgen
data_NaSbS2
_symmetry_space_group_name_H-M   'P 1'
_cell_length_a   5.88284400
_cell_length_b   5.88284400
_cell_length_c   6.90859223
_cell_angle_alpha   67.04094925
_cell_angle_beta   67.04094925
_cell_angle_gamma   91.06123665
_symmetry_Int_Tables_number   1
_chemical_formula_structural   NaSbS2
_chemical_formula_sum   'Na2 Sb2 S4'
_cell_volume   198.56213350
_cell_formula_units_Z   2
loop_
 _symmetry_equiv_pos_site_id
 _symmetry_equiv_pos_as_xyz
  1  'x, y, z'
loop_
 _atom_site_type_symbol
 _atom_site_label
 _atom_site_symmetry_multiplicity
 _atom_site_fract_x
 _atom_site_fract_y
 _atom_site_fract_z
 _atom_site_occupancy
  Na  Na0  1  0.63378200  0.36621800  0.75000000  1
  Na  Na1  1  0.36621800  0.63378200  0.25000000  1
  Sb  Sb2  1  0.90042000  0.09958000  0.25000000  1
  Sb  Sb3  1  0.09958000  0.90042000  0.75000000  1
  S  S4  1  0.13046700  0.31452400  0.76381100  1
  S  S5  1  0.68547600  0.86953300  0.73618900  1
  S  S6  1  0.86953300  0.68547600  0.23618900  1
  S  S7  1  0.31452400  0.13046700  0.26381100  1
