# generated using pymatgen
data_Rb5ErHf(MoO4)6
_symmetry_space_group_name_H-M   'P 1'
_cell_length_a   14.67324397
_cell_length_b   14.67324397
_cell_length_c   14.67324434
_cell_angle_alpha   43.87873346
_cell_angle_beta   43.87873346
_cell_angle_gamma   43.87873693
_symmetry_Int_Tables_number   1
_chemical_formula_structural   Rb5ErHf(MoO4)6
_chemical_formula_sum   'Rb10 Er2 Hf2 Mo12 O48'
_cell_volume   1378.22302426
_cell_formula_units_Z   2
loop_
 _symmetry_equiv_pos_site_id
 _symmetry_equiv_pos_as_xyz
  1  'x, y, z'
loop_
 _atom_site_type_symbol
 _atom_site_label
 _atom_site_symmetry_multiplicity
 _atom_site_fract_x
 _atom_site_fract_y
 _atom_site_fract_z
 _atom_site_occupancy
  Rb  Rb0  1  0.36031400  0.75000000  0.13968600  1
  Rb  Rb1  1  0.75000000  0.13968600  0.36031400  1
  Rb  Rb2  1  0.13968600  0.36031400  0.75000000  1
  Rb  Rb3  1  0.14669600  0.14669600  0.14669600  1
  Rb  Rb4  1  0.25000000  0.86031400  0.63968600  1
  Rb  Rb5  1  0.86031400  0.63968600  0.25000000  1
  Rb  Rb6  1  0.63968600  0.25000000  0.86031400  1
  Rb  Rb7  1  0.64669600  0.64669600  0.64669600  1
  Rb  Rb8  1  0.85330400  0.85330400  0.85330400  1
  Rb  Rb9  1  0.35330400  0.35330400  0.35330400  1
  Er  Er10  1  0.00000000  0.00000000  0.00000000  1
  Er  Er11  1  0.50000000  0.50000000  0.50000000  1
  Hf  Hf12  1  0.75000000  0.75000000  0.75000000  1
  Hf  Hf13  1  0.25000000  0.25000000  0.25000000  1
  Mo  Mo14  1  0.52747300  0.11257900  0.75955800  1
  Mo  Mo15  1  0.61257900  0.02747300  0.25955800  1
  Mo  Mo16  1  0.24044200  0.47252700  0.88742100  1
  Mo  Mo17  1  0.25955800  0.61257900  0.02747300  1
  Mo  Mo18  1  0.11257900  0.75955800  0.52747300  1
  Mo  Mo19  1  0.74044200  0.38742100  0.97252700  1
  Mo  Mo20  1  0.75955800  0.52747300  0.11257900  1
  Mo  Mo21  1  0.02747300  0.25955800  0.61257900  1
  Mo  Mo22  1  0.38742100  0.97252700  0.74044200  1
  Mo  Mo23  1  0.97252700  0.74044200  0.38742100  1
  Mo  Mo24  1  0.88742100  0.24044200  0.47252700  1
  Mo  Mo25  1  0.47252700  0.88742100  0.24044200  1
  O  O26  1  0.11070800  0.84351000  0.57314700  1
  O  O27  1  0.63795700  0.90467200  0.11741100  1
  O  O28  1  0.11741100  0.63795700  0.90467200  1
  O  O29  1  0.57314700  0.11070800  0.84351000  1
  O  O30  1  0.70448300  0.67785800  0.95882400  1
  O  O31  1  0.49331600  0.71379700  0.39641800  1
  O  O32  1  0.15649000  0.42685300  0.88929200  1
  O  O33  1  0.78620300  0.00668400  0.10358200  1
  O  O34  1  0.36204300  0.09532800  0.88258900  1
  O  O35  1  0.86204300  0.38258900  0.59532800  1
  O  O36  1  0.88258900  0.36204300  0.09532800  1
  O  O37  1  0.28620300  0.60358200  0.50668400  1
  O  O38  1  0.13795700  0.61741100  0.40467200  1
  O  O39  1  0.42685300  0.88929200  0.15649000  1
  O  O40  1  0.89641800  0.21379700  0.99331600  1
  O  O41  1  0.32214200  0.04117600  0.29551700  1
  O  O42  1  0.65649000  0.38929200  0.92685300  1
  O  O43  1  0.90467200  0.11741100  0.63795700  1
  O  O44  1  0.38258900  0.59532800  0.86204300  1
  O  O45  1  0.61070800  0.07314700  0.34351000  1
  O  O46  1  0.88929200  0.15649000  0.42685300  1
  O  O47  1  0.84351000  0.57314700  0.11070800  1
  O  O48  1  0.10358200  0.78620300  0.00668400  1
  O  O49  1  0.95882400  0.70448300  0.67785800  1
  O  O50  1  0.29551700  0.32214200  0.04117600  1
  O  O51  1  0.45882400  0.17785800  0.20448300  1
  O  O52  1  0.61741100  0.40467200  0.13795700  1
  O  O53  1  0.59532800  0.86204300  0.38258900  1
  O  O54  1  0.17785800  0.20448300  0.45882400  1
  O  O55  1  0.82214200  0.79551700  0.54117600  1
  O  O56  1  0.79551700  0.54117600  0.82214200  1
  O  O57  1  0.21379700  0.99331600  0.89641800  1
  O  O58  1  0.40467200  0.13795700  0.61741100  1
  O  O59  1  0.09532800  0.88258900  0.36204300  1
  O  O60  1  0.50668400  0.28620300  0.60358200  1
  O  O61  1  0.34351000  0.61070800  0.07314700  1
  O  O62  1  0.39641800  0.49331600  0.71379700  1
  O  O63  1  0.38929200  0.92685300  0.65649000  1
  O  O64  1  0.92685300  0.65649000  0.38929200  1
  O  O65  1  0.99331600  0.89641800  0.21379700  1
  O  O66  1  0.67785800  0.95882400  0.70448300  1
  O  O67  1  0.60358200  0.50668400  0.28620300  1
  O  O68  1  0.04117600  0.29551700  0.32214200  1
  O  O69  1  0.07314700  0.34351000  0.61070800  1
  O  O70  1  0.20448300  0.45882400  0.17785800  1
  O  O71  1  0.00668400  0.10358200  0.78620300  1
  O  O72  1  0.71379700  0.39641800  0.49331600  1
  O  O73  1  0.54117600  0.82214200  0.79551700  1
