# generated using pymatgen
data_Sc3CoC4
_symmetry_space_group_name_H-M   'P 1'
_cell_length_a   6.59942875
_cell_length_b   6.59942875
_cell_length_c   6.59942875
_cell_angle_alpha   149.86409209
_cell_angle_beta   141.57078248
_cell_angle_gamma   49.59295345
_symmetry_Int_Tables_number   1
_chemical_formula_structural   Sc3CoC4
_chemical_formula_sum   'Sc3 Co1 C4'
_cell_volume   89.29403414
_cell_formula_units_Z   1
loop_
 _symmetry_equiv_pos_site_id
 _symmetry_equiv_pos_as_xyz
  1  'x, y, z'
loop_
 _atom_site_type_symbol
 _atom_site_label
 _atom_site_symmetry_multiplicity
 _atom_site_fract_x
 _atom_site_fract_y
 _atom_site_fract_z
 _atom_site_occupancy
  Sc  Sc0  1  0.50000000  0.00000000  0.50000000  1
  Sc  Sc1  1  0.18778600  0.18778600  0.00000000  1
  Sc  Sc2  1  0.81221400  0.81221400  0.00000000  1
  Co  Co3  1  0.00000000  0.50000000  0.50000000  1
  C  C4  1  0.20924900  0.37627400  0.83297500  1
  C  C5  1  0.79075100  0.62372600  0.16702500  1
  C  C6  1  0.45670100  0.62372600  0.83297500  1
  C  C7  1  0.54329900  0.37627400  0.16702500  1
