# generated using pymatgen
data_Mg10B16Ir19
_symmetry_space_group_name_H-M   'P 1'
_cell_length_a   9.21741841
_cell_length_b   9.21741841
_cell_length_c   9.21741841
_cell_angle_alpha   109.47122063
_cell_angle_beta   109.47122063
_cell_angle_gamma   109.47122063
_symmetry_Int_Tables_number   1
_chemical_formula_structural   Mg10B16Ir19
_chemical_formula_sum   'Mg10 B16 Ir19'
_cell_volume   602.84548874
_cell_formula_units_Z   1
loop_
 _symmetry_equiv_pos_site_id
 _symmetry_equiv_pos_as_xyz
  1  'x, y, z'
loop_
 _atom_site_type_symbol
 _atom_site_label
 _atom_site_symmetry_multiplicity
 _atom_site_fract_x
 _atom_site_fract_y
 _atom_site_fract_z
 _atom_site_occupancy
  Mg  Mg0  1  0.34737300  0.34737300  0.00000000  1
  Mg  Mg1  1  0.00000000  0.00000000  0.33374900  1
  Mg  Mg2  1  0.00000000  0.34737300  0.34737300  1
  Mg  Mg3  1  0.65262700  0.65262700  0.00000000  1
  Mg  Mg4  1  0.66625100  0.66625100  0.66625100  1
  Mg  Mg5  1  0.00000000  0.33374900  0.00000000  1
  Mg  Mg6  1  0.00000000  0.65262700  0.65262700  1
  Mg  Mg7  1  0.33374900  0.00000000  0.00000000  1
  Mg  Mg8  1  0.65262700  0.00000000  0.65262700  1
  Mg  Mg9  1  0.34737300  0.00000000  0.34737300  1
  B  B10  1  0.00000000  0.75159000  0.42428100  1
  B  B11  1  0.32730800  0.57571900  0.57571900  1
  B  B12  1  0.00000000  0.42428100  0.75159000  1
  B  B13  1  0.00000000  0.77680700  0.00000000  1
  B  B14  1  0.22319300  0.22319300  0.22319300  1
  B  B15  1  0.24841000  0.67269200  0.24841000  1
  B  B16  1  0.42428100  0.00000000  0.75159000  1
  B  B17  1  0.42428100  0.75159000  0.00000000  1
  B  B18  1  0.77680700  0.00000000  0.00000000  1
  B  B19  1  0.24841000  0.24841000  0.67269200  1
  B  B20  1  0.57571900  0.32730800  0.57571900  1
  B  B21  1  0.00000000  0.00000000  0.77680700  1
  B  B22  1  0.75159000  0.00000000  0.42428100  1
  B  B23  1  0.57571900  0.57571900  0.32730800  1
  B  B24  1  0.67269200  0.24841000  0.24841000  1
  B  B25  1  0.75159000  0.42428100  0.00000000  1
  Ir  Ir26  1  0.67766400  0.00000000  0.18206900  1
  Ir  Ir27  1  0.00000000  0.18206900  0.67766400  1
  Ir  Ir28  1  0.50000000  0.25000000  0.75000000  1
  Ir  Ir29  1  0.50440500  0.32233600  0.32233600  1
  Ir  Ir30  1  0.67766400  0.18206900  0.00000000  1
  Ir  Ir31  1  0.81793100  0.81793100  0.49559500  1
  Ir  Ir32  1  0.00000000  0.67766400  0.18206900  1
  Ir  Ir33  1  0.49559500  0.81793100  0.81793100  1
  Ir  Ir34  1  0.18206900  0.67766400  0.00000000  1
  Ir  Ir35  1  0.32233600  0.50440500  0.32233600  1
  Ir  Ir36  1  0.50000000  0.75000000  0.25000000  1
  Ir  Ir37  1  0.18206900  0.00000000  0.67766400  1
  Ir  Ir38  1  0.75000000  0.50000000  0.25000000  1
  Ir  Ir39  1  0.32233600  0.32233600  0.50440500  1
  Ir  Ir40  1  0.25000000  0.75000000  0.50000000  1
  Ir  Ir41  1  0.81793100  0.49559500  0.81793100  1
  Ir  Ir42  1  0.75000000  0.25000000  0.50000000  1
  Ir  Ir43  1  0.00000000  0.00000000  0.00000000  1
  Ir  Ir44  1  0.25000000  0.50000000  0.75000000  1
