# generated using pymatgen
data_LiZnGe
_symmetry_space_group_name_H-M   'P 1'
_cell_length_a   4.28642976
_cell_length_b   4.28642976
_cell_length_c   9.41959900
_cell_angle_alpha   90.00000000
_cell_angle_beta   90.00000000
_cell_angle_gamma   119.99999637
_symmetry_Int_Tables_number   1
_chemical_formula_structural   LiZnGe
_chemical_formula_sum   'Li3 Zn3 Ge3'
_cell_volume   149.88372797
_cell_formula_units_Z   3
loop_
 _symmetry_equiv_pos_site_id
 _symmetry_equiv_pos_as_xyz
  1  'x, y, z'
loop_
 _atom_site_type_symbol
 _atom_site_label
 _atom_site_symmetry_multiplicity
 _atom_site_fract_x
 _atom_site_fract_y
 _atom_site_fract_z
 _atom_site_occupancy
  Li  Li0  1  0.00000000  0.00000000  0.16337600  1
  Li  Li1  1  0.00000000  0.00000000  0.50000000  1
  Li  Li2  1  0.00000000  0.00000000  0.83662400  1
  Zn  Zn3  1  0.66666700  0.33333300  0.70627500  1
  Zn  Zn4  1  0.66666700  0.33333300  0.29372500  1
  Zn  Zn5  1  0.33333300  0.66666700  0.00000000  1
  Ge  Ge6  1  0.33333300  0.66666700  0.36349300  1
  Ge  Ge7  1  0.33333300  0.66666700  0.63650700  1
  Ge  Ge8  1  0.66666700  0.33333300  0.00000000  1
