# generated using pymatgen
data_K4Ti3S14
_symmetry_space_group_name_H-M   'P 1'
_cell_length_a   11.39738882
_cell_length_b   11.39738882
_cell_length_c   13.26820512
_cell_angle_alpha   68.47747101
_cell_angle_beta   68.47747101
_cell_angle_gamma   41.66407394
_symmetry_Int_Tables_number   1
_chemical_formula_structural   K4Ti3S14
_chemical_formula_sum   'K8 Ti6 S28'
_cell_volume   1053.79049671
_cell_formula_units_Z   2
loop_
 _symmetry_equiv_pos_site_id
 _symmetry_equiv_pos_as_xyz
  1  'x, y, z'
loop_
 _atom_site_type_symbol
 _atom_site_label
 _atom_site_symmetry_multiplicity
 _atom_site_fract_x
 _atom_site_fract_y
 _atom_site_fract_z
 _atom_site_occupancy
  K  K0  1  0.02400800  0.37905500  0.88717700  1
  K  K1  1  0.62094500  0.97599200  0.61282300  1
  K  K2  1  0.97599200  0.62094500  0.11282300  1
  K  K3  1  0.37905500  0.02400800  0.38717700  1
  K  K4  1  0.18957500  0.66945800  0.64732500  1
  K  K5  1  0.33054200  0.81042500  0.85267500  1
  K  K6  1  0.81042500  0.33054200  0.35267500  1
  K  K7  1  0.66945800  0.18957500  0.14732500  1
  Ti  Ti8  1  0.92213600  0.41259500  0.58390100  1
  Ti  Ti9  1  0.58740500  0.07786400  0.91609900  1
  Ti  Ti10  1  0.07786400  0.58740500  0.41609900  1
  Ti  Ti11  1  0.41259500  0.92213600  0.08390100  1
  Ti  Ti12  1  0.76336000  0.23664000  0.75000000  1
  Ti  Ti13  1  0.23664000  0.76336000  0.25000000  1
  S  S14  1  0.98849900  0.56860800  0.60235600  1
  S  S15  1  0.43139200  0.01150100  0.89764400  1
  S  S16  1  0.01150100  0.43139200  0.39764400  1
  S  S17  1  0.56860800  0.98849900  0.10235600  1
  S  S18  1  0.65894300  0.48011400  0.58110800  1
  S  S19  1  0.51988600  0.34105700  0.91889200  1
  S  S20  1  0.34105700  0.51988600  0.41889200  1
  S  S21  1  0.48011400  0.65894300  0.08110800  1
  S  S22  1  0.75610000  0.43435100  0.79097400  1
  S  S23  1  0.56564900  0.24390000  0.70902600  1
  S  S24  1  0.24390000  0.56564900  0.20902600  1
  S  S25  1  0.43435100  0.75610000  0.29097400  1
  S  S26  1  0.07083400  0.10075300  0.63124600  1
  S  S27  1  0.89924700  0.92916600  0.86875400  1
  S  S28  1  0.92916600  0.89924700  0.36875400  1
  S  S29  1  0.10075300  0.07083400  0.13124600  1
  S  S30  1  0.88267700  0.19331500  0.89630300  1
  S  S31  1  0.80668500  0.11732300  0.60369700  1
  S  S32  1  0.11732300  0.80668500  0.10369700  1
  S  S33  1  0.19331500  0.88267700  0.39630300  1
  S  S34  1  0.84549600  0.81018000  0.83491000  1
  S  S35  1  0.18982000  0.15450400  0.66509000  1
  S  S36  1  0.15450400  0.18982000  0.16509000  1
  S  S37  1  0.81018000  0.84549600  0.33491000  1
  S  S38  1  0.30711900  0.40008500  0.89841000  1
  S  S39  1  0.59991500  0.69288100  0.60159000  1
  S  S40  1  0.69288100  0.59991500  0.10159000  1
  S  S41  1  0.40008500  0.30711900  0.39841000  1
