# generated using pymatgen
data_Np2O5
_symmetry_space_group_name_H-M   'P 1'
_cell_length_a   5.71174163
_cell_length_b   5.71174163
_cell_length_c   8.03440539
_cell_angle_alpha   69.48938520
_cell_angle_beta   69.48938520
_cell_angle_gamma   71.49937853
_symmetry_Int_Tables_number   1
_chemical_formula_structural   Np2O5
_chemical_formula_sum   'Np4 O10'
_cell_volume   224.20957368
_cell_formula_units_Z   2
loop_
 _symmetry_equiv_pos_site_id
 _symmetry_equiv_pos_as_xyz
  1  'x, y, z'
loop_
 _atom_site_type_symbol
 _atom_site_label
 _atom_site_symmetry_multiplicity
 _atom_site_fract_x
 _atom_site_fract_y
 _atom_site_fract_z
 _atom_site_occupancy
  Np  Np0  1  0.96328400  0.03671600  0.25000000  1
  Np  Np1  1  0.50000000  0.50000000  0.00000000  1
  Np  Np2  1  0.50000000  0.50000000  0.50000000  1
  Np  Np3  1  0.03671600  0.96328400  0.75000000  1
  O  O4  1  0.39562900  0.60437100  0.75000000  1
  O  O5  1  0.26048400  0.19847000  0.63795200  1
  O  O6  1  0.73951600  0.80153000  0.36204800  1
  O  O7  1  0.19847000  0.26048400  0.13795200  1
  O  O8  1  0.60437100  0.39562900  0.25000000  1
  O  O9  1  0.80153000  0.73951600  0.86204800  1
  O  O10  1  0.21016800  0.80779900  0.03753700  1
  O  O11  1  0.80779900  0.21016800  0.53753700  1
  O  O12  1  0.78983200  0.19220100  0.96246300  1
  O  O13  1  0.19220100  0.78983200  0.46246300  1
