# generated using pymatgen
data_Ba(BO2)2
_symmetry_space_group_name_H-M   'P 1'
_cell_length_a   14.03686056
_cell_length_b   14.03686056
_cell_length_c   14.03686013
_cell_angle_alpha   30.25353521
_cell_angle_beta   30.25353521
_cell_angle_gamma   30.25353164
_symmetry_Int_Tables_number   1
_chemical_formula_structural   Ba(BO2)2
_chemical_formula_sum   'Ba6 B12 O24'
_cell_volume   622.10539849
_cell_formula_units_Z   6
loop_
 _symmetry_equiv_pos_site_id
 _symmetry_equiv_pos_as_xyz
  1  'x, y, z'
loop_
 _atom_site_type_symbol
 _atom_site_label
 _atom_site_symmetry_multiplicity
 _atom_site_fract_x
 _atom_site_fract_y
 _atom_site_fract_z
 _atom_site_occupancy
  Ba  Ba0  1  0.84903600  0.84903600  0.84903600  1
  Ba  Ba1  1  0.65096400  0.65096400  0.65096400  1
  Ba  Ba2  1  0.15096400  0.15096400  0.15096400  1
  Ba  Ba3  1  0.34903600  0.34903600  0.34903600  1
  Ba  Ba4  1  0.75000000  0.75000000  0.75000000  1
  Ba  Ba5  1  0.25000000  0.25000000  0.25000000  1
  B  B6  1  0.74869600  0.50509100  0.36182000  1
  B  B7  1  0.50509100  0.36182000  0.74869600  1
  B  B8  1  0.36182000  0.74869600  0.50509100  1
  B  B9  1  0.99490900  0.75130400  0.13818000  1
  B  B10  1  0.75130400  0.13818000  0.99490900  1
  B  B11  1  0.13818000  0.99490900  0.75130400  1
  B  B12  1  0.25130400  0.49490900  0.63818000  1
  B  B13  1  0.49490900  0.63818000  0.25130400  1
  B  B14  1  0.63818000  0.25130400  0.49490900  1
  B  B15  1  0.00509100  0.24869600  0.86182000  1
  B  B16  1  0.24869600  0.86182000  0.00509100  1
  B  B17  1  0.86182000  0.00509100  0.24869600  1
  O  O18  1  0.57190300  0.71146500  0.33553700  1
  O  O19  1  0.71146500  0.33553700  0.57190300  1
  O  O20  1  0.33553700  0.57190300  0.71146500  1
  O  O21  1  0.78853500  0.92809700  0.16446300  1
  O  O22  1  0.92809700  0.16446300  0.78853500  1
  O  O23  1  0.16446300  0.78853500  0.92809700  1
  O  O24  1  0.42809700  0.28853500  0.66446300  1
  O  O25  1  0.28853500  0.66446300  0.42809700  1
  O  O26  1  0.66446300  0.42809700  0.28853500  1
  O  O27  1  0.21146500  0.07190300  0.83553700  1
  O  O28  1  0.07190300  0.83553700  0.21146500  1
  O  O29  1  0.83553700  0.21146500  0.07190300  1
  O  O30  1  0.19329800  0.94011000  0.47536600  1
  O  O31  1  0.94011000  0.47536600  0.19329800  1
  O  O32  1  0.47536600  0.19329800  0.94011000  1
  O  O33  1  0.55989000  0.30670200  0.02463400  1
  O  O34  1  0.30670200  0.02463400  0.55989000  1
  O  O35  1  0.02463400  0.55989000  0.30670200  1
  O  O36  1  0.80670200  0.05989000  0.52463400  1
  O  O37  1  0.05989000  0.52463400  0.80670200  1
  O  O38  1  0.52463400  0.80670200  0.05989000  1
  O  O39  1  0.44011000  0.69329800  0.97536600  1
  O  O40  1  0.69329800  0.97536600  0.44011000  1
  O  O41  1  0.97536600  0.44011000  0.69329800  1
