# generated using pymatgen
data_PuGa4
_symmetry_space_group_name_H-M   'P 1'
_cell_length_a   7.91939557
_cell_length_b   7.91939557
_cell_length_c   7.91939557
_cell_angle_alpha   148.38730757
_cell_angle_beta   134.53870680
_cell_angle_gamma   56.42680724
_symmetry_Int_Tables_number   1
_chemical_formula_structural   PuGa4
_chemical_formula_sum   'Pu2 Ga8'
_cell_volume   184.25940360
_cell_formula_units_Z   2
loop_
 _symmetry_equiv_pos_site_id
 _symmetry_equiv_pos_as_xyz
  1  'x, y, z'
loop_
 _atom_site_type_symbol
 _atom_site_label
 _atom_site_symmetry_multiplicity
 _atom_site_fract_x
 _atom_site_fract_y
 _atom_site_fract_z
 _atom_site_occupancy
  Pu  Pu0  1  0.64056600  0.39056600  0.25000000  1
  Pu  Pu1  1  0.35943400  0.60943400  0.75000000  1
  Ga  Ga2  1  0.50000000  0.00000000  0.50000000  1
  Ga  Ga3  1  0.00000000  0.00000000  0.00000000  1
  Ga  Ga4  1  0.85415600  0.60415600  0.25000000  1
  Ga  Ga5  1  0.14584400  0.39584400  0.75000000  1
  Ga  Ga6  1  0.71240200  0.19850500  0.51389700  1
  Ga  Ga7  1  0.28759700  0.80149500  0.48610300  1
  Ga  Ga8  1  0.81539200  0.80149500  0.01389700  1
  Ga  Ga9  1  0.18460800  0.19850500  0.98610300  1
