# generated using pymatgen
data_SrBiIO2
_symmetry_space_group_name_H-M   'P 1'
_cell_length_a   7.54489615
_cell_length_b   7.54489615
_cell_length_c   5.82327000
_cell_angle_alpha   90.00000000
_cell_angle_beta   90.00000000
_cell_angle_gamma   133.55403897
_symmetry_Int_Tables_number   1
_chemical_formula_structural   SrBiIO2
_chemical_formula_sum   'Sr2 Bi2 I2 O4'
_cell_volume   240.24070628
_cell_formula_units_Z   2
loop_
 _symmetry_equiv_pos_site_id
 _symmetry_equiv_pos_as_xyz
  1  'x, y, z'
loop_
 _atom_site_type_symbol
 _atom_site_label
 _atom_site_symmetry_multiplicity
 _atom_site_fract_x
 _atom_site_fract_y
 _atom_site_fract_z
 _atom_site_occupancy
  Sr  Sr0  1  0.90707800  0.09292200  0.75000000  1
  Sr  Sr1  1  0.09292200  0.90707800  0.25000000  1
  Bi  Bi2  1  0.57290700  0.42709300  0.75000000  1
  Bi  Bi3  1  0.42709300  0.57290700  0.25000000  1
  I  I4  1  0.24490200  0.75509800  0.75000000  1
  I  I5  1  0.75509800  0.24490200  0.25000000  1
  O  O6  1  0.26727300  0.26727300  0.00000000  1
  O  O7  1  0.26727300  0.26727300  0.50000000  1
  O  O8  1  0.73272700  0.73272700  0.50000000  1
  O  O9  1  0.73272700  0.73272700  0.00000000  1
