# generated using pymatgen
data_Rb4Re6S13
_symmetry_space_group_name_H-M   'P 1'
_cell_length_a   9.81291386
_cell_length_b   9.81291386
_cell_length_c   14.15527670
_cell_angle_alpha   85.11835813
_cell_angle_beta   85.11835813
_cell_angle_gamma   118.99264384
_symmetry_Int_Tables_number   1
_chemical_formula_structural   Rb4Re6S13
_chemical_formula_sum   'Rb8 Re12 S26'
_cell_volume   1175.36807617
_cell_formula_units_Z   2
loop_
 _symmetry_equiv_pos_site_id
 _symmetry_equiv_pos_as_xyz
  1  'x, y, z'
loop_
 _atom_site_type_symbol
 _atom_site_label
 _atom_site_symmetry_multiplicity
 _atom_site_fract_x
 _atom_site_fract_y
 _atom_site_fract_z
 _atom_site_occupancy
  Rb  Rb0  1  0.62851400  0.90682900  0.38203800  1
  Rb  Rb1  1  0.09317100  0.37148600  0.11796200  1
  Rb  Rb2  1  0.37148600  0.09317100  0.61796200  1
  Rb  Rb3  1  0.90682900  0.62851400  0.88203800  1
  Rb  Rb4  1  0.30336600  0.24315400  0.33660600  1
  Rb  Rb5  1  0.75684600  0.69663400  0.16339400  1
  Rb  Rb6  1  0.69663400  0.75684600  0.66339400  1
  Rb  Rb7  1  0.24315400  0.30336600  0.83660600  1
  Re  Re8  1  0.68410000  0.98700500  0.97860300  1
  Re  Re9  1  0.01299500  0.31590000  0.52139700  1
  Re  Re10  1  0.31590000  0.01299500  0.02139700  1
  Re  Re11  1  0.98700500  0.68410000  0.47860300  1
  Re  Re12  1  0.15549400  0.57215600  0.39175700  1
  Re  Re13  1  0.42784400  0.84450600  0.10824300  1
  Re  Re14  1  0.84450600  0.42784400  0.60824300  1
  Re  Re15  1  0.57215600  0.15549400  0.89175700  1
  Re  Re16  1  0.59607300  0.15466200  0.07707900  1
  Re  Re17  1  0.84533800  0.40392700  0.42292100  1
  Re  Re18  1  0.40392700  0.84533800  0.92292100  1
  Re  Re19  1  0.15466200  0.59607300  0.57707900  1
  S  S20  1  0.29803800  0.48850200  0.49313300  1
  S  S21  1  0.51149800  0.70196200  0.00686700  1
  S  S22  1  0.70196200  0.51149800  0.50686700  1
  S  S23  1  0.48850200  0.29803800  0.99313300  1
  S  S24  1  0.69370700  0.99297900  0.14796400  1
  S  S25  1  0.00702100  0.30629300  0.35203600  1
  S  S26  1  0.30629300  0.00702100  0.85203600  1
  S  S27  1  0.99297900  0.69370700  0.64796400  1
  S  S28  1  0.27227700  0.82472000  0.45213500  1
  S  S29  1  0.17528000  0.72772300  0.04786500  1
  S  S30  1  0.72772300  0.17528000  0.54786500  1
  S  S31  1  0.82472000  0.27227700  0.95213500  1
  S  S32  1  0.35316500  0.01172600  0.18814400  1
  S  S33  1  0.98827400  0.64683500  0.31185600  1
  S  S34  1  0.64683500  0.98827400  0.81185600  1
  S  S35  1  0.01172600  0.35316500  0.68814400  1
  S  S36  1  0.64392700  0.26313700  0.32279400  1
  S  S37  1  0.73686300  0.35607300  0.17720600  1
  S  S38  1  0.35607300  0.73686300  0.67720600  1
  S  S39  1  0.26313700  0.64392700  0.82279400  1
  S  S40  1  0.07488200  0.03919600  0.05419400  1
  S  S41  1  0.96080400  0.92511800  0.44580600  1
  S  S42  1  0.92511800  0.96080400  0.94580600  1
  S  S43  1  0.03919600  0.07488200  0.55419400  1
  S  S44  1  0.35853600  0.64146400  0.25000000  1
  S  S45  1  0.64146400  0.35853600  0.75000000  1
