# generated using pymatgen
data_Nd3S3N
_symmetry_space_group_name_H-M   'P 1'
_cell_length_a   4.03582700
_cell_length_b   12.25745600
_cell_length_c   13.17380700
_cell_angle_alpha   90.00000000
_cell_angle_beta   90.00000000
_cell_angle_gamma   90.00000000
_symmetry_Int_Tables_number   1
_chemical_formula_structural   Nd3S3N
_chemical_formula_sum   'Nd12 S12 N4'
_cell_volume   651.69468798
_cell_formula_units_Z   4
loop_
 _symmetry_equiv_pos_site_id
 _symmetry_equiv_pos_as_xyz
  1  'x, y, z'
loop_
 _atom_site_type_symbol
 _atom_site_label
 _atom_site_symmetry_multiplicity
 _atom_site_fract_x
 _atom_site_fract_y
 _atom_site_fract_z
 _atom_site_occupancy
  Nd  Nd0  1  0.75000000  0.77799000  0.86633500  1
  Nd  Nd1  1  0.75000000  0.95967200  0.14863000  1
  Nd  Nd2  1  0.25000000  0.04032800  0.85137000  1
  Nd  Nd3  1  0.25000000  0.22201000  0.13366500  1
  Nd  Nd4  1  0.25000000  0.58283100  0.12823700  1
  Nd  Nd5  1  0.25000000  0.54032800  0.64863000  1
  Nd  Nd6  1  0.75000000  0.27799000  0.63366500  1
  Nd  Nd7  1  0.25000000  0.72201000  0.36633500  1
  Nd  Nd8  1  0.75000000  0.41716900  0.87176300  1
  Nd  Nd9  1  0.25000000  0.08283100  0.37176300  1
  Nd  Nd10  1  0.75000000  0.45967200  0.35137000  1
  Nd  Nd11  1  0.75000000  0.91716900  0.62823700  1
  S  S12  1  0.75000000  0.73101700  0.19801600  1
  S  S13  1  0.25000000  0.76898300  0.69801600  1
  S  S14  1  0.75000000  0.23101700  0.30198400  1
  S  S15  1  0.75000000  0.41877200  0.10682800  1
  S  S16  1  0.75000000  0.63922800  0.49600000  1
  S  S17  1  0.75000000  0.13922800  0.00400000  1
  S  S18  1  0.25000000  0.36077200  0.50400000  1
  S  S19  1  0.25000000  0.08122800  0.60682800  1
  S  S20  1  0.75000000  0.91877200  0.39317200  1
  S  S21  1  0.25000000  0.86077200  0.99600000  1
  S  S22  1  0.25000000  0.26898300  0.80198400  1
  S  S23  1  0.25000000  0.58122800  0.89317200  1
  N  N24  1  0.25000000  0.54638200  0.29828200  1
  N  N25  1  0.25000000  0.04638200  0.20171800  1
  N  N26  1  0.75000000  0.95361800  0.79828200  1
  N  N27  1  0.75000000  0.45361800  0.70171800  1
