# generated using pymatgen
data_Ag3SbS3
_symmetry_space_group_name_H-M   'P 1'
_cell_length_a   16.01359400
_cell_length_b   6.40063800
_cell_length_c   7.00878472
_cell_angle_alpha   63.50604157
_cell_angle_beta   90.00000000
_cell_angle_gamma   90.00000000
_symmetry_Int_Tables_number   1
_chemical_formula_structural   Ag3SbS3
_chemical_formula_sum   'Ag12 Sb4 S12'
_cell_volume   642.93758097
_cell_formula_units_Z   4
loop_
 _symmetry_equiv_pos_site_id
 _symmetry_equiv_pos_as_xyz
  1  'x, y, z'
loop_
 _atom_site_type_symbol
 _atom_site_label
 _atom_site_symmetry_multiplicity
 _atom_site_fract_x
 _atom_site_fract_y
 _atom_site_fract_z
 _atom_site_occupancy
  Ag  Ag0  1  0.81107400  0.71058900  0.05698400  1
  Ag  Ag1  1  0.74299200  0.31096500  0.47294600  1
  Ag  Ag2  1  0.31107400  0.78941100  0.94301600  1
  Ag  Ag3  1  0.90205700  0.46786600  0.58968500  1
  Ag  Ag4  1  0.24299200  0.18903500  0.52705400  1
  Ag  Ag5  1  0.59794300  0.96786600  0.58968500  1
  Ag  Ag6  1  0.18892600  0.28941100  0.94301600  1
  Ag  Ag7  1  0.25700800  0.68903500  0.52705400  1
  Ag  Ag8  1  0.09794300  0.53213400  0.41031500  1
  Ag  Ag9  1  0.40205700  0.03213400  0.41031500  1
  Ag  Ag10  1  0.68892600  0.21058900  0.05698400  1
  Ag  Ag11  1  0.75700800  0.81096500  0.47294600  1
  Sb  Sb12  1  0.55188300  0.67271500  0.19316100  1
  Sb  Sb13  1  0.05188300  0.82728500  0.80683900  1
  Sb  Sb14  1  0.44811700  0.32728500  0.80683900  1
  Sb  Sb15  1  0.94811700  0.17271500  0.19316100  1
  S  S16  1  0.05741900  0.23129700  0.78073600  1
  S  S17  1  0.44258100  0.73129700  0.78073600  1
  S  S18  1  0.55741900  0.26870300  0.21926400  1
  S  S19  1  0.16710600  0.62552300  0.05711100  1
  S  S20  1  0.63664400  0.55573100  0.52911100  1
  S  S21  1  0.13664400  0.94426900  0.47088900  1
  S  S22  1  0.94258100  0.76870300  0.21926400  1
  S  S23  1  0.36335600  0.44426900  0.47088900  1
  S  S24  1  0.86335600  0.05573100  0.52911100  1
  S  S25  1  0.66710600  0.87447700  0.94288900  1
  S  S26  1  0.33289400  0.12552300  0.05711100  1
  S  S27  1  0.83289400  0.37447700  0.94288900  1
