# generated using pymatgen
data_KNb4O5F
_symmetry_space_group_name_H-M   'P 1'
_cell_length_a   4.20901200
_cell_length_b   4.20901200
_cell_length_c   8.53966000
_cell_angle_alpha   90.00000000
_cell_angle_beta   90.00000000
_cell_angle_gamma   90.00000000
_symmetry_Int_Tables_number   1
_chemical_formula_structural   KNb4O5F
_chemical_formula_sum   'K1 Nb4 O5 F1'
_cell_volume   151.28675505
_cell_formula_units_Z   1
loop_
 _symmetry_equiv_pos_site_id
 _symmetry_equiv_pos_as_xyz
  1  'x, y, z'
loop_
 _atom_site_type_symbol
 _atom_site_label
 _atom_site_symmetry_multiplicity
 _atom_site_fract_x
 _atom_site_fract_y
 _atom_site_fract_z
 _atom_site_occupancy
  K  K0  1  0.00000000  0.00000000  0.50000000  1
  Nb  Nb1  1  0.50000000  0.50000000  0.23630300  1
  Nb  Nb2  1  0.50000000  0.50000000  0.76369700  1
  Nb  Nb3  1  0.50000000  0.00000000  0.00000000  1
  Nb  Nb4  1  0.00000000  0.50000000  0.00000000  1
  O  O5  1  0.00000000  0.50000000  0.24860500  1
  O  O6  1  0.00000000  0.50000000  0.75139500  1
  O  O7  1  0.50000000  0.00000000  0.24860500  1
  O  O8  1  0.00000000  0.00000000  0.00000000  1
  O  O9  1  0.50000000  0.00000000  0.75139500  1
  F  F10  1  0.50000000  0.50000000  0.50000000  1
