# generated using pymatgen
data_Rb4Nb2Si8O23
_symmetry_space_group_name_H-M   'P 1'
_cell_length_a   6.99706400
_cell_length_b   7.92646792
_cell_length_c   11.18276540
_cell_angle_alpha   103.65246525
_cell_angle_beta   89.16789643
_cell_angle_gamma   108.42451632
_symmetry_Int_Tables_number   1
_chemical_formula_structural   Rb4Nb2Si8O23
_chemical_formula_sum   'Rb4 Nb2 Si8 O23'
_cell_volume   570.58555419
_cell_formula_units_Z   1
loop_
 _symmetry_equiv_pos_site_id
 _symmetry_equiv_pos_as_xyz
  1  'x, y, z'
loop_
 _atom_site_type_symbol
 _atom_site_label
 _atom_site_symmetry_multiplicity
 _atom_site_fract_x
 _atom_site_fract_y
 _atom_site_fract_z
 _atom_site_occupancy
  Rb  Rb0  1  0.31805200  0.28071300  0.64448900  1
  Rb  Rb1  1  0.68194800  0.71928700  0.35551100  1
  Rb  Rb2  1  0.28974600  0.22020400  0.99012900  1
  Rb  Rb3  1  0.71025400  0.77979600  0.00987100  1
  Nb  Nb4  1  0.78599200  0.25871200  0.81683400  1
  Nb  Nb5  1  0.21400800  0.74128800  0.18316600  1
  Si  Si6  1  0.49804800  0.19407400  0.30082100  1
  Si  Si7  1  0.50195200  0.80592600  0.69917900  1
  Si  Si8  1  0.94849200  0.86736900  0.71440200  1
  Si  Si9  1  0.05150800  0.13263100  0.28559800  1
  Si  Si10  1  0.84335000  0.29836800  0.50086000  1
  Si  Si11  1  0.15665000  0.70163200  0.49914000  1
  Si  Si12  1  0.16700500  0.67249200  0.86922800  1
  Si  Si13  1  0.83299500  0.32750800  0.13077200  1
  O  O14  1  0.45563500  0.97788200  0.24536500  1
  O  O15  1  0.54436500  0.02211800  0.75463500  1
  O  O16  1  0.62383800  0.31225100  0.20556000  1
  O  O17  1  0.37616200  0.68774900  0.79444000  1
  O  O18  1  0.62309600  0.27543200  0.43693000  1
  O  O19  1  0.37690400  0.72456800  0.56307000  1
  O  O20  1  0.29212900  0.25045100  0.32532300  1
  O  O21  1  0.70787100  0.74954900  0.67467700  1
  O  O22  1  0.98097100  0.07581900  0.78284000  1
  O  O23  1  0.01902900  0.92418100  0.21716000  1
  O  O24  1  0.02768200  0.75972300  0.80149800  1
  O  O25  1  0.97231800  0.24027700  0.19850200  1
  O  O26  1  0.06764400  0.85550300  0.58518500  1
  O  O27  1  0.93235600  0.14449700  0.41481500  1
  O  O28  1  0.00000000  0.50000000  0.50000000  1
  O  O29  1  0.81712500  0.26813100  0.63685800  1
  O  O30  1  0.18287500  0.73186900  0.36314200  1
  O  O31  1  0.05647500  0.45569600  0.85827800  1
  O  O32  1  0.94352500  0.54430400  0.14172200  1
  O  O33  1  0.22042400  0.79135000  0.01074300  1
  O  O34  1  0.77957600  0.20865000  0.98925700  1
  O  O35  1  0.62548400  0.39906000  0.85226400  1
  O  O36  1  0.37451600  0.60094000  0.14773600  1
