# generated using pymatgen
data_Pr(Al4Co)2
_symmetry_space_group_name_H-M   'P 1'
_cell_length_a   4.00879100
_cell_length_b   12.49832100
_cell_length_c   14.39526200
_cell_angle_alpha   90.00000000
_cell_angle_beta   90.00000000
_cell_angle_gamma   90.00000000
_symmetry_Int_Tables_number   1
_chemical_formula_structural   Pr(Al4Co)2
_chemical_formula_sum   'Pr4 Al32 Co8'
_cell_volume   721.24806830
_cell_formula_units_Z   4
loop_
 _symmetry_equiv_pos_site_id
 _symmetry_equiv_pos_as_xyz
  1  'x, y, z'
loop_
 _atom_site_type_symbol
 _atom_site_label
 _atom_site_symmetry_multiplicity
 _atom_site_fract_x
 _atom_site_fract_y
 _atom_site_fract_z
 _atom_site_occupancy
  Pr  Pr0  1  0.00000000  0.65945800  0.68151000  1
  Pr  Pr1  1  0.00000000  0.15945800  0.81849000  1
  Pr  Pr2  1  0.00000000  0.34054200  0.31849000  1
  Pr  Pr3  1  0.00000000  0.84054200  0.18151000  1
  Al  Al4  1  0.50000000  0.16888200  0.99187700  1
  Al  Al5  1  0.00000000  0.59640200  0.24730600  1
  Al  Al6  1  0.50000000  0.76363600  0.82825700  1
  Al  Al7  1  0.50000000  0.83111800  0.00812300  1
  Al  Al8  1  0.50000000  0.54688600  0.82082400  1
  Al  Al9  1  0.00000000  0.00000000  0.00000000  1
  Al  Al10  1  0.50000000  0.97365300  0.86825900  1
  Al  Al11  1  0.50000000  0.45311400  0.17917600  1
  Al  Al12  1  0.50000000  0.84095200  0.62034400  1
  Al  Al13  1  0.50000000  0.73636400  0.32825700  1
  Al  Al14  1  0.50000000  0.95311400  0.32082400  1
  Al  Al15  1  0.50000000  0.02634700  0.13174100  1
  Al  Al16  1  0.50000000  0.23636400  0.17174300  1
  Al  Al17  1  0.50000000  0.66888200  0.50812300  1
  Al  Al18  1  0.00000000  0.40359800  0.75269400  1
  Al  Al19  1  0.00000000  0.09640200  0.25269400  1
  Al  Al20  1  0.50000000  0.52634700  0.36825900  1
  Al  Al21  1  0.50000000  0.15904800  0.37965600  1
  Al  Al22  1  0.50000000  0.65904800  0.12034400  1
  Al  Al23  1  0.50000000  0.26363600  0.67174300  1
  Al  Al24  1  0.50000000  0.04688600  0.67917600  1
  Al  Al25  1  0.50000000  0.33111800  0.49187700  1
  Al  Al26  1  0.00000000  0.15975800  0.54428400  1
  Al  Al27  1  0.00000000  0.50000000  0.50000000  1
  Al  Al28  1  0.00000000  0.90359800  0.74730600  1
  Al  Al29  1  0.00000000  0.84024200  0.45571600  1
  Al  Al30  1  0.50000000  0.34095200  0.87965600  1
  Al  Al31  1  0.50000000  0.00000000  0.50000000  1
  Al  Al32  1  0.50000000  0.47365300  0.63174100  1
  Al  Al33  1  0.00000000  0.65975800  0.95571600  1
  Al  Al34  1  0.50000000  0.50000000  0.00000000  1
  Al  Al35  1  0.00000000  0.34024200  0.04428400  1
  Co  Co36  1  0.00000000  0.96547000  0.59415200  1
  Co  Co37  1  0.00000000  0.46547000  0.90584800  1
  Co  Co38  1  0.00000000  0.03453000  0.40584800  1
  Co  Co39  1  0.00000000  0.15204200  0.09611800  1
  Co  Co40  1  0.00000000  0.53453000  0.09415200  1
  Co  Co41  1  0.00000000  0.84795800  0.90388200  1
  Co  Co42  1  0.00000000  0.34795800  0.59611800  1
  Co  Co43  1  0.00000000  0.65204200  0.40388200  1
