# generated using pymatgen
data_Na3SbP2O9
_symmetry_space_group_name_H-M   'P 1'
_cell_length_a   7.08076000
_cell_length_b   9.41568800
_cell_length_c   12.57350800
_cell_angle_alpha   90.00000000
_cell_angle_beta   90.00000000
_cell_angle_gamma   90.00000000
_symmetry_Int_Tables_number   1
_chemical_formula_structural   Na3SbP2O9
_chemical_formula_sum   'Na12 Sb4 P8 O36'
_cell_volume   838.27863208
_cell_formula_units_Z   4
loop_
 _symmetry_equiv_pos_site_id
 _symmetry_equiv_pos_as_xyz
  1  'x, y, z'
loop_
 _atom_site_type_symbol
 _atom_site_label
 _atom_site_symmetry_multiplicity
 _atom_site_fract_x
 _atom_site_fract_y
 _atom_site_fract_z
 _atom_site_occupancy
  Na  Na0  1  0.37594600  0.39369800  0.65915200  1
  Na  Na1  1  0.25538300  0.91377700  0.01634200  1
  Na  Na2  1  0.82504800  0.25668300  0.74022400  1
  Na  Na3  1  0.17495200  0.75668300  0.75977600  1
  Na  Na4  1  0.12405400  0.60630200  0.15915200  1
  Na  Na5  1  0.87594600  0.10630200  0.34084800  1
  Na  Na6  1  0.62405400  0.89369800  0.84084800  1
  Na  Na7  1  0.67495200  0.74331700  0.24022400  1
  Na  Na8  1  0.75538300  0.58622300  0.98365800  1
  Na  Na9  1  0.24461700  0.08622300  0.51634200  1
  Na  Na10  1  0.32504800  0.24331700  0.25977600  1
  Na  Na11  1  0.74461700  0.41377700  0.48365800  1
  Sb  Sb12  1  0.52093200  0.25345700  0.99530700  1
  Sb  Sb13  1  0.97906800  0.74654300  0.49530700  1
  Sb  Sb14  1  0.47906800  0.75345700  0.50469300  1
  Sb  Sb15  1  0.02093200  0.24654300  0.00469300  1
  P  P16  1  0.27059400  0.12461300  0.79947200  1
  P  P17  1  0.77059400  0.37538700  0.20052800  1
  P  P18  1  0.23750700  0.46960600  0.42168700  1
  P  P19  1  0.22940600  0.87538700  0.29947200  1
  P  P20  1  0.72940600  0.62461300  0.70052800  1
  P  P21  1  0.73750700  0.03039400  0.57831300  1
  P  P22  1  0.76249300  0.96960600  0.07831300  1
  P  P23  1  0.26249300  0.53039400  0.92168700  1
  O  O24  1  0.45160500  0.20952700  0.84391100  1
  O  O25  1  0.04978600  0.54189200  0.46953900  1
  O  O26  1  0.74512100  0.98955600  0.19704500  1
  O  O27  1  0.59243600  0.04636500  0.01407000  1
  O  O28  1  0.09243600  0.45363500  0.98593000  1
  O  O29  1  0.21112000  0.03068700  0.33094600  1
  O  O30  1  0.75860400  0.81729700  0.04017900  1
  O  O31  1  0.90756400  0.95363500  0.51407000  1
  O  O32  1  0.72493700  0.69494500  0.44296300  1
  O  O33  1  0.08817500  0.19499800  0.85432600  1
  O  O34  1  0.25860400  0.68270300  0.95982100  1
  O  O35  1  0.28888000  0.96931300  0.83094600  1
  O  O36  1  0.04839500  0.79047300  0.34391100  1
  O  O37  1  0.24139600  0.31729700  0.45982100  1
  O  O38  1  0.45021400  0.45810800  0.96953900  1
  O  O39  1  0.77506300  0.30505500  0.94296300  1
  O  O40  1  0.25527900  0.16250300  0.68349700  1
  O  O41  1  0.58817500  0.30500200  0.14567400  1
  O  O42  1  0.27506300  0.19494500  0.05703700  1
  O  O43  1  0.40756400  0.54636500  0.48593000  1
  O  O44  1  0.24512100  0.51044400  0.80295500  1
  O  O45  1  0.22493700  0.80505500  0.55703700  1
  O  O46  1  0.41182500  0.80500200  0.35432600  1
  O  O47  1  0.71112000  0.46931300  0.66905400  1
  O  O48  1  0.91182500  0.69499800  0.64567400  1
  O  O49  1  0.95021400  0.04189200  0.03046100  1
  O  O50  1  0.24472100  0.83749700  0.18349700  1
  O  O51  1  0.75487900  0.01044400  0.69704500  1
  O  O52  1  0.54839500  0.70952700  0.65608900  1
  O  O53  1  0.78888000  0.53068700  0.16905400  1
  O  O54  1  0.25487900  0.48955600  0.30295500  1
  O  O55  1  0.95160500  0.29047300  0.15608900  1
  O  O56  1  0.75527900  0.33749700  0.31650300  1
  O  O57  1  0.54978600  0.95810800  0.53046100  1
  O  O58  1  0.74139600  0.18270300  0.54017900  1
  O  O59  1  0.74472100  0.66250300  0.81650300  1
