# generated using pymatgen
data_K3FeO3
_symmetry_space_group_name_H-M   'P 1'
_cell_length_a   6.74441282
_cell_length_b   6.74441282
_cell_length_c   6.61109435
_cell_angle_alpha   84.08230604
_cell_angle_beta   84.08230604
_cell_angle_gamma   115.41450897
_symmetry_Int_Tables_number   1
_chemical_formula_structural   K3FeO3
_chemical_formula_sum   'K6 Fe2 O6'
_cell_volume   266.51210809
_cell_formula_units_Z   2
loop_
 _symmetry_equiv_pos_site_id
 _symmetry_equiv_pos_as_xyz
  1  'x, y, z'
loop_
 _atom_site_type_symbol
 _atom_site_label
 _atom_site_symmetry_multiplicity
 _atom_site_fract_x
 _atom_site_fract_y
 _atom_site_fract_z
 _atom_site_occupancy
  K  K0  1  0.62765000  0.62765000  0.64615000  1
  K  K1  1  0.19585600  0.80414400  0.50000000  1
  K  K2  1  0.80414400  0.19585600  0.50000000  1
  K  K3  1  0.25956500  0.74043500  0.00000000  1
  K  K4  1  0.37235000  0.37235000  0.35385000  1
  K  K5  1  0.74043500  0.25956500  0.00000000  1
  Fe  Fe6  1  0.82832300  0.82832300  0.14447900  1
  Fe  Fe7  1  0.17167700  0.17167700  0.85552100  1
  O  O8  1  0.83877300  0.56814300  0.26358100  1
  O  O9  1  0.90069400  0.90069400  0.83867000  1
  O  O10  1  0.09930600  0.09930600  0.16133000  1
  O  O11  1  0.16122700  0.43185700  0.73641900  1
  O  O12  1  0.43185700  0.16122700  0.73641900  1
  O  O13  1  0.56814300  0.83877300  0.26358100  1
