# generated using pymatgen
data_Nd6Si4S17
_symmetry_space_group_name_H-M   'P 1'
_cell_length_a   8.99597300
_cell_length_b   10.01191964
_cell_length_c   14.30362361
_cell_angle_alpha   82.01086011
_cell_angle_beta   86.99543454
_cell_angle_gamma   89.22087990
_symmetry_Int_Tables_number   1
_chemical_formula_structural   Nd6Si4S17
_chemical_formula_sum   'Nd12 Si8 S34'
_cell_volume   1274.00065476
_cell_formula_units_Z   2
loop_
 _symmetry_equiv_pos_site_id
 _symmetry_equiv_pos_as_xyz
  1  'x, y, z'
loop_
 _atom_site_type_symbol
 _atom_site_label
 _atom_site_symmetry_multiplicity
 _atom_site_fract_x
 _atom_site_fract_y
 _atom_site_fract_z
 _atom_site_occupancy
  Nd  Nd0  1  0.63182300  0.93580600  0.32357700  1
  Nd  Nd1  1  0.36817700  0.06419400  0.67642300  1
  Nd  Nd2  1  0.55126800  0.26174900  0.99852200  1
  Nd  Nd3  1  0.91540100  0.91938100  0.83436700  1
  Nd  Nd4  1  0.44873200  0.73825100  0.00147800  1
  Nd  Nd5  1  0.98312600  0.23136900  0.53952600  1
  Nd  Nd6  1  0.89355100  0.61536600  0.18417800  1
  Nd  Nd7  1  0.66736400  0.58970800  0.65763800  1
  Nd  Nd8  1  0.01687400  0.76863100  0.46047400  1
  Nd  Nd9  1  0.10644900  0.38463400  0.81582200  1
  Nd  Nd10  1  0.08459900  0.08061900  0.16563300  1
  Nd  Nd11  1  0.33263600  0.41029200  0.34236200  1
  Si  Si12  1  0.27608600  0.05800600  0.39392700  1
  Si  Si13  1  0.76900400  0.56185300  0.90092100  1
  Si  Si14  1  0.72391400  0.94199400  0.60607300  1
  Si  Si15  1  0.24927300  0.49955700  0.58374200  1
  Si  Si16  1  0.75072700  0.50044300  0.41625800  1
  Si  Si17  1  0.25021300  0.05993800  0.92277500  1
  Si  Si18  1  0.23099600  0.43814700  0.09907900  1
  Si  Si19  1  0.74978700  0.94006200  0.07722500  1
  S  S20  1  0.35533400  0.53027000  0.70681000  1
  S  S21  1  0.10770700  0.20186200  0.34492100  1
  S  S22  1  0.30401700  0.91176200  0.30165500  1
  S  S23  1  0.38233700  0.21307700  0.83857900  1
  S  S24  1  0.04021200  0.14881200  0.95207300  1
  S  S25  1  0.64466600  0.46973000  0.29319000  1
  S  S26  1  0.32168100  0.48185000  0.95651800  1
  S  S27  1  0.89229300  0.79813800  0.65507900  1
  S  S28  1  0.29759500  0.30662700  0.54077200  1
  S  S29  1  0.65930500  0.99918600  0.94301500  1
  S  S30  1  0.30508300  0.63318000  0.46023300  1
  S  S31  1  0.99114300  0.62717100  0.88459000  1
  S  S32  1  0.74273000  0.11555400  0.14882900  1
  S  S33  1  0.98536900  0.50885000  0.37678100  1
  S  S34  1  0.75177100  0.38592000  0.83223200  1
  S  S35  1  0.69598300  0.08823800  0.69834500  1
  S  S36  1  0.81572200  0.01931200  0.46784100  1
  S  S37  1  0.70240500  0.69337300  0.45922800  1
  S  S38  1  0.06733000  0.14257300  0.72177000  1
  S  S39  1  0.18427800  0.98068800  0.53215900  1
  S  S40  1  0.61766300  0.78692300  0.16142100  1
  S  S41  1  0.00885700  0.37282900  0.11541000  1
  S  S42  1  0.34069500  0.00081400  0.05698500  1
  S  S43  1  0.25727000  0.88444600  0.85117100  1
  S  S44  1  0.36771000  0.28153800  0.16650500  1
  S  S45  1  0.24822900  0.61408000  0.16776800  1
  S  S46  1  0.95978800  0.85118800  0.04792700  1
  S  S47  1  0.48423300  0.15383300  0.39655900  1
  S  S48  1  0.69491700  0.36682000  0.53976700  1
  S  S49  1  0.51576700  0.84616700  0.60344100  1
  S  S50  1  0.01463100  0.49115000  0.62321900  1
  S  S51  1  0.63229000  0.71846200  0.83349500  1
  S  S52  1  0.67831900  0.51815000  0.04348200  1
  S  S53  1  0.93267000  0.85742700  0.27823000  1
