# generated using pymatgen
data_Tb3P4Pd7
_symmetry_space_group_name_H-M   'P 1'
_cell_length_a   7.97239664
_cell_length_b   7.97239664
_cell_length_c   9.42445720
_cell_angle_alpha   55.74741955
_cell_angle_beta   55.74741955
_cell_angle_gamma   29.21905845
_symmetry_Int_Tables_number   1
_chemical_formula_structural   Tb3P4Pd7
_chemical_formula_sum   'Tb3 P4 Pd7'
_cell_volume   237.85544507
_cell_formula_units_Z   1
loop_
 _symmetry_equiv_pos_site_id
 _symmetry_equiv_pos_as_xyz
  1  'x, y, z'
loop_
 _atom_site_type_symbol
 _atom_site_label
 _atom_site_symmetry_multiplicity
 _atom_site_fract_x
 _atom_site_fract_y
 _atom_site_fract_z
 _atom_site_occupancy
  Tb  Tb0  1  0.68060200  0.68060200  0.32233300  1
  Tb  Tb1  1  0.31939800  0.31939800  0.67766700  1
  Tb  Tb2  1  0.00000000  0.00000000  0.00000000  1
  P  P3  1  0.34058600  0.34058600  0.25418200  1
  P  P4  1  0.65941400  0.65941400  0.74581800  1
  P  P5  1  0.89403400  0.89403400  0.81996000  1
  P  P6  1  0.10596600  0.10596600  0.18004000  1
  Pd  Pd7  1  0.30528000  0.30528000  0.02954600  1
  Pd  Pd8  1  0.69472000  0.69472000  0.97045400  1
  Pd  Pd9  1  0.50979500  0.50979500  0.71679100  1
  Pd  Pd10  1  0.83237100  0.83237100  0.42069600  1
  Pd  Pd11  1  0.49020500  0.49020500  0.28320900  1
  Pd  Pd12  1  0.16762900  0.16762900  0.57930400  1
  Pd  Pd13  1  0.00000000  0.00000000  0.50000000  1
