# generated using pymatgen
data_BaSbClO2
_symmetry_space_group_name_H-M   'P 1'
_cell_length_a   7.20211073
_cell_length_b   7.20211073
_cell_length_c   5.59924500
_cell_angle_alpha   90.00000000
_cell_angle_beta   90.00000000
_cell_angle_gamma   131.18168673
_symmetry_Int_Tables_number   1
_chemical_formula_structural   BaSbClO2
_chemical_formula_sum   'Ba2 Sb2 Cl2 O4'
_cell_volume   218.58881380
_cell_formula_units_Z   2
loop_
 _symmetry_equiv_pos_site_id
 _symmetry_equiv_pos_as_xyz
  1  'x, y, z'
loop_
 _atom_site_type_symbol
 _atom_site_label
 _atom_site_symmetry_multiplicity
 _atom_site_fract_x
 _atom_site_fract_y
 _atom_site_fract_z
 _atom_site_occupancy
  Ba  Ba0  1  0.37218400  0.62781600  0.25000000  1
  Ba  Ba1  1  0.62781600  0.37218400  0.75000000  1
  Sb  Sb2  1  0.06853900  0.93146100  0.25000000  1
  Sb  Sb3  1  0.93146100  0.06853900  0.75000000  1
  Cl  Cl4  1  0.25302300  0.74697700  0.75000000  1
  Cl  Cl5  1  0.74697700  0.25302300  0.25000000  1
  O  O6  1  0.21694900  0.21694900  0.50000000  1
  O  O7  1  0.78305100  0.78305100  0.00000000  1
  O  O8  1  0.21694900  0.21694900  0.00000000  1
  O  O9  1  0.78305100  0.78305100  0.50000000  1
