# generated using pymatgen
data_Rb6U5V2O23
_symmetry_space_group_name_H-M   'P 1'
_cell_length_a   14.55621200
_cell_length_b   7.24106500
_cell_length_c   25.23777714
_cell_angle_alpha   89.70871803
_cell_angle_beta   90.00000000
_cell_angle_gamma   90.00000000
_symmetry_Int_Tables_number   1
_chemical_formula_structural   Rb6U5V2O23
_chemical_formula_sum   'Rb24 U20 V8 O92'
_cell_volume   2660.08985477
_cell_formula_units_Z   4
loop_
 _symmetry_equiv_pos_site_id
 _symmetry_equiv_pos_as_xyz
  1  'x, y, z'
loop_
 _atom_site_type_symbol
 _atom_site_label
 _atom_site_symmetry_multiplicity
 _atom_site_fract_x
 _atom_site_fract_y
 _atom_site_fract_z
 _atom_site_occupancy
  Rb  Rb0  1  0.62523300  0.49860300  0.74545000  1
  Rb  Rb1  1  0.40344100  0.00881200  0.16691100  1
  Rb  Rb2  1  0.90344100  0.49118800  0.33308900  1
  Rb  Rb3  1  0.55700900  0.01551000  0.65382000  1
  Rb  Rb4  1  0.53196700  0.50547600  0.91902500  1
  Rb  Rb5  1  0.44299100  0.98449000  0.34618000  1
  Rb  Rb6  1  0.03196700  0.99452400  0.58097500  1
  Rb  Rb7  1  0.59655900  0.99118800  0.83308900  1
  Rb  Rb8  1  0.94299100  0.51551000  0.15382000  1
  Rb  Rb9  1  0.05610500  0.99686500  0.92360300  1
  Rb  Rb10  1  0.44389500  0.49686500  0.42360300  1
  Rb  Rb11  1  0.94389500  0.00313500  0.07639700  1
  Rb  Rb12  1  0.00000000  0.50000000  0.50000000  1
  Rb  Rb13  1  0.05700900  0.48449000  0.84618000  1
  Rb  Rb14  1  0.96803300  0.00547600  0.41902500  1
  Rb  Rb15  1  0.50000000  0.00000000  0.50000000  1
  Rb  Rb16  1  0.00000000  0.50000000  0.00000000  1
  Rb  Rb17  1  0.87476700  0.99860300  0.24545000  1
  Rb  Rb18  1  0.09655900  0.50881200  0.66691100  1
  Rb  Rb19  1  0.37476700  0.50139700  0.25455000  1
  Rb  Rb20  1  0.46803300  0.49452400  0.08097500  1
  Rb  Rb21  1  0.50000000  0.00000000  0.00000000  1
  Rb  Rb22  1  0.55610500  0.50313500  0.57639700  1
  Rb  Rb23  1  0.12523300  0.00139700  0.75455000  1
  U  U24  1  0.27030300  0.67472200  0.54334900  1
  U  U25  1  0.22640500  0.16675700  0.46297000  1
  U  U26  1  0.27359500  0.66675700  0.96297000  1
  U  U27  1  0.81290600  0.32305200  0.61934000  1
  U  U28  1  0.77030300  0.82527800  0.95665100  1
  U  U29  1  0.83062900  0.81516300  0.68005200  1
  U  U30  1  0.80153700  0.31885900  0.89613400  1
  U  U31  1  0.22969700  0.17472200  0.04334900  1
  U  U32  1  0.69846300  0.81885900  0.39613400  1
  U  U33  1  0.68709400  0.82305200  0.11934000  1
  U  U34  1  0.18709400  0.67694800  0.38066000  1
  U  U35  1  0.72969700  0.32527800  0.45665100  1
  U  U36  1  0.33062900  0.68483700  0.81994800  1
  U  U37  1  0.72640500  0.33324300  0.03703000  1
  U  U38  1  0.31290600  0.17694800  0.88066000  1
  U  U39  1  0.77359500  0.83324300  0.53703000  1
  U  U40  1  0.19846300  0.68114100  0.10386600  1
  U  U41  1  0.66937100  0.31516300  0.18005200  1
  U  U42  1  0.30153700  0.18114100  0.60386600  1
  U  U43  1  0.16937100  0.18483700  0.31994800  1
  V  V44  1  0.13908200  0.17509500  0.16516300  1
  V  V45  1  0.38763000  0.18634400  0.75645600  1
  V  V46  1  0.36091800  0.67509500  0.66516300  1
  V  V47  1  0.61237000  0.81365600  0.24354400  1
  V  V48  1  0.86091800  0.82490500  0.83483700  1
  V  V49  1  0.11237000  0.68634400  0.25645600  1
  V  V50  1  0.63908200  0.32490500  0.33483700  1
  V  V51  1  0.88763000  0.31365600  0.74354400  1
  O  O52  1  0.45884200  0.68654700  0.82376800  1
  O  O53  1  0.60557800  0.32961800  0.47692500  1
  O  O54  1  0.19237500  0.36275000  0.39554000  1
  O  O55  1  0.54115800  0.31345300  0.17623200  1
  O  O56  1  0.84613100  0.49585200  0.70198500  1
  O  O57  1  0.39442200  0.67038200  0.52307500  1
  O  O58  1  0.65386900  0.99585200  0.20198500  1
  O  O59  1  0.18985700  0.18195800  0.85832900  1
  O  O60  1  0.31307900  0.69439300  0.72749000  1
  O  O61  1  0.81307900  0.80560700  0.77251000  1
  O  O62  1  0.84763300  0.12927100  0.70462800  1
  O  O63  1  0.31608300  0.49464100  0.89295700  1
  O  O64  1  0.73740000  0.64058700  0.46971200  1
  O  O65  1  0.22582800  0.68632500  0.46268400  1
  O  O66  1  0.65236700  0.62927100  0.20462800  1
  O  O67  1  0.81014300  0.81804200  0.14167100  1
  O  O68  1  0.06112200  0.66789700  0.39611400  1
  O  O69  1  0.68985700  0.31804200  0.64167100  1
  O  O70  1  0.81608300  0.00535900  0.60704300  1
  O  O71  1  0.65023800  0.84373100  0.55907300  1
  O  O72  1  0.33157600  0.86446100  0.62394300  1
  O  O73  1  0.02404400  0.15056700  0.16978800  1
  O  O74  1  0.64872700  0.82383100  0.93156400  1
  O  O75  1  0.79597200  0.30936300  0.18707500  1
  O  O76  1  0.68692100  0.30560700  0.27251000  1
  O  O77  1  0.69185500  0.50089900  0.37459000  1
  O  O78  1  0.80762500  0.63725000  0.60446000  1
  O  O79  1  0.99599700  0.68422000  0.25263300  1
  O  O80  1  0.68103300  0.32843800  0.87129200  1
  O  O81  1  0.31896700  0.67156200  0.12870800  1
  O  O82  1  0.18103300  0.17156200  0.62870800  1
  O  O83  1  0.42538900  0.19702800  0.58498000  1
  O  O84  1  0.20402800  0.69063700  0.81292500  1
  O  O85  1  0.15236700  0.87072900  0.29537200  1
  O  O86  1  0.73588300  0.00722400  0.46619900  1
  O  O87  1  0.76411700  0.50722400  0.96619900  1
  O  O88  1  0.00400300  0.31578000  0.74736700  1
  O  O89  1  0.26260000  0.35941300  0.53028800  1
  O  O90  1  0.04115800  0.18654700  0.32376800  1
  O  O91  1  0.07461100  0.69702800  0.08498000  1
  O  O92  1  0.35127300  0.17616900  0.06843600  1
  O  O93  1  0.10557800  0.17038200  0.02307500  1
  O  O94  1  0.30814500  0.49910100  0.62541000  1
  O  O95  1  0.34613100  0.00414800  0.79801500  1
  O  O96  1  0.92538900  0.30297200  0.91502000  1
  O  O97  1  0.97595600  0.84943300  0.83021200  1
  O  O98  1  0.72582800  0.81367500  0.03731600  1
  O  O99  1  0.65888400  0.82007400  0.30675700  1
  O  O100  1  0.34111600  0.17992600  0.69324300  1
  O  O101  1  0.84976200  0.34373100  0.05907300  1
  O  O102  1  0.68391700  0.50535900  0.10704300  1
  O  O103  1  0.27417200  0.18632500  0.96268400  1
  O  O104  1  0.70402800  0.80936300  0.68707500  1
  O  O105  1  0.93887800  0.33210300  0.60388600  1
  O  O106  1  0.84111600  0.32007400  0.80675700  1
  O  O107  1  0.18692100  0.19439300  0.22749000  1
  O  O108  1  0.15386900  0.50414800  0.29801500  1
  O  O109  1  0.39693800  0.66899900  0.98550100  1
  O  O110  1  0.95884200  0.81345300  0.67623200  1
  O  O111  1  0.52404400  0.34943300  0.33021200  1
  O  O112  1  0.89442200  0.82961800  0.97692500  1
  O  O113  1  0.69237500  0.13725000  0.10446000  1
  O  O114  1  0.19185500  0.99910100  0.12541000  1
  O  O115  1  0.56112200  0.83210300  0.10388600  1
  O  O116  1  0.50400300  0.18422000  0.75263300  1
  O  O117  1  0.76260000  0.14058700  0.96971200  1
  O  O118  1  0.43887800  0.16789700  0.89611400  1
  O  O119  1  0.80814500  0.00089900  0.87459000  1
  O  O120  1  0.34976200  0.15626900  0.44092700  1
  O  O121  1  0.49599700  0.81578000  0.24736700  1
  O  O122  1  0.29597200  0.19063700  0.31292500  1
  O  O123  1  0.57461100  0.80297200  0.41502000  1
  O  O124  1  0.77417200  0.31367500  0.53731600  1
  O  O125  1  0.31014300  0.68195800  0.35832900  1
  O  O126  1  0.16842400  0.36446100  0.12394300  1
  O  O127  1  0.34763300  0.37072900  0.79537200  1
  O  O128  1  0.15888400  0.67992600  0.19324300  1
  O  O129  1  0.89693800  0.83100100  0.51449900  1
  O  O130  1  0.18391700  0.99464100  0.39295700  1
  O  O131  1  0.30762500  0.86275000  0.89554000  1
  O  O132  1  0.14872700  0.67616900  0.56843600  1
  O  O133  1  0.23740000  0.85941300  0.03028800  1
  O  O134  1  0.85127300  0.32383100  0.43156400  1
  O  O135  1  0.26411700  0.99277600  0.53380100  1
  O  O136  1  0.83157600  0.63553900  0.87605700  1
  O  O137  1  0.47595600  0.65056700  0.66978800  1
  O  O138  1  0.66842400  0.13553900  0.37605700  1
  O  O139  1  0.15023800  0.65626900  0.94092700  1
  O  O140  1  0.23588300  0.49277600  0.03380100  1
  O  O141  1  0.10306200  0.16899900  0.48550100  1
  O  O142  1  0.81896700  0.82843800  0.37129200  1
  O  O143  1  0.60306200  0.33100100  0.01449900  1
