# generated using pymatgen
data_Li2Ni12P7
_symmetry_space_group_name_H-M   'P 1'
_cell_length_a   8.99837669
_cell_length_b   8.99837669
_cell_length_c   3.53218000
_cell_angle_alpha   90.00000000
_cell_angle_beta   90.00000000
_cell_angle_gamma   120.00000504
_symmetry_Int_Tables_number   1
_chemical_formula_structural   Li2Ni12P7
_chemical_formula_sum   'Li2 Ni12 P7'
_cell_volume   247.68618024
_cell_formula_units_Z   1
loop_
 _symmetry_equiv_pos_site_id
 _symmetry_equiv_pos_as_xyz
  1  'x, y, z'
loop_
 _atom_site_type_symbol
 _atom_site_label
 _atom_site_symmetry_multiplicity
 _atom_site_fract_x
 _atom_site_fract_y
 _atom_site_fract_z
 _atom_site_occupancy
  Li  Li0  1  0.00000000  0.00000000  0.00000000  1
  Li  Li1  1  0.33333300  0.66666700  0.50000000  1
  Ni  Ni2  1  0.10098500  0.39447600  0.00000000  1
  Ni  Ni3  1  0.29349100  0.89901500  0.00000000  1
  Ni  Ni4  1  0.60552400  0.70650900  0.00000000  1
  Ni  Ni5  1  0.82585000  0.61082800  0.00000000  1
  Ni  Ni6  1  0.78497900  0.17415000  0.00000000  1
  Ni  Ni7  1  0.38917200  0.21502100  0.00000000  1
  Ni  Ni8  1  0.05104700  0.76862200  0.50000000  1
  Ni  Ni9  1  0.71757500  0.94895300  0.50000000  1
  Ni  Ni10  1  0.23137800  0.28242500  0.50000000  1
  Ni  Ni11  1  0.88626200  0.42695900  0.50000000  1
  Ni  Ni12  1  0.54069800  0.11373800  0.50000000  1
  Ni  Ni13  1  0.57304100  0.45930200  0.50000000  1
  P  P14  1  0.66666700  0.33333300  0.00000000  1
  P  P15  1  0.08473200  0.62833600  0.00000000  1
  P  P16  1  0.54360400  0.91526800  0.00000000  1
  P  P17  1  0.37166400  0.45639600  0.00000000  1
  P  P18  1  0.78678500  0.74612400  0.50000000  1
  P  P19  1  0.95933900  0.21321500  0.50000000  1
  P  P20  1  0.25387600  0.04066100  0.50000000  1
