# generated using pymatgen
data_SrCrSn(PO4)3
_symmetry_space_group_name_H-M   'P 1'
_cell_length_a   9.15501490
_cell_length_b   9.15501490
_cell_length_c   9.15501480
_cell_angle_alpha   55.95127826
_cell_angle_beta   55.95127826
_cell_angle_gamma   55.95127987
_symmetry_Int_Tables_number   1
_chemical_formula_structural   SrCrSn(PO4)3
_chemical_formula_sum   'Sr2 Cr2 Sn2 P6 O24'
_cell_volume   491.67462653
_cell_formula_units_Z   2
loop_
 _symmetry_equiv_pos_site_id
 _symmetry_equiv_pos_as_xyz
  1  'x, y, z'
loop_
 _atom_site_type_symbol
 _atom_site_label
 _atom_site_symmetry_multiplicity
 _atom_site_fract_x
 _atom_site_fract_y
 _atom_site_fract_z
 _atom_site_occupancy
  Sr  Sr0  1  0.00000000  0.00000000  0.00000000  1
  Sr  Sr1  1  0.50000000  0.50000000  0.50000000  1
  Cr  Cr2  1  0.84993500  0.84993500  0.84993500  1
  Cr  Cr3  1  0.15006500  0.15006500  0.15006500  1
  Sn  Sn4  1  0.35075200  0.35075200  0.35075200  1
  Sn  Sn5  1  0.64924800  0.64924800  0.64924800  1
  P  P6  1  0.53957300  0.96053900  0.24489300  1
  P  P7  1  0.03946100  0.75510700  0.46042700  1
  P  P8  1  0.75510700  0.46042700  0.03946100  1
  P  P9  1  0.96053900  0.24489300  0.53957300  1
  P  P10  1  0.46042700  0.03946100  0.75510700  1
  P  P11  1  0.24489300  0.53957300  0.96053900  1
  O  O12  1  0.71916700  0.47551300  0.88341600  1
  O  O13  1  0.11658400  0.28083300  0.52448700  1
  O  O14  1  0.35871300  0.98297300  0.25041000  1
  O  O15  1  0.70899600  0.95512100  0.05810700  1
  O  O16  1  0.25041000  0.35871300  0.98297300  1
  O  O17  1  0.59069600  0.76732900  0.40697200  1
  O  O18  1  0.28083300  0.52448700  0.11658400  1
  O  O19  1  0.40930400  0.23267100  0.59302800  1
  O  O20  1  0.23267100  0.59302800  0.40930400  1
  O  O21  1  0.59302800  0.40930400  0.23267100  1
  O  O22  1  0.94189300  0.29100400  0.04487900  1
  O  O23  1  0.40697200  0.59069600  0.76732900  1
  O  O24  1  0.04487900  0.94189300  0.29100400  1
  O  O25  1  0.29100400  0.04487900  0.94189300  1
  O  O26  1  0.76732900  0.40697200  0.59069600  1
  O  O27  1  0.47551300  0.88341600  0.71916700  1
  O  O28  1  0.74959000  0.64128700  0.01702700  1
  O  O29  1  0.95512100  0.05810700  0.70899600  1
  O  O30  1  0.01702700  0.74959000  0.64128700  1
  O  O31  1  0.05810700  0.70899600  0.95512100  1
  O  O32  1  0.64128700  0.01702700  0.74959000  1
  O  O33  1  0.98297300  0.25041000  0.35871300  1
  O  O34  1  0.88341600  0.71916700  0.47551300  1
  O  O35  1  0.52448700  0.11658400  0.28083300  1
