# generated using pymatgen
data_K8Tl11
_symmetry_space_group_name_H-M   'P 1'
_cell_length_a   18.34230806
_cell_length_b   18.34230806
_cell_length_c   18.34230852
_cell_angle_alpha   32.57254799
_cell_angle_beta   32.57254799
_cell_angle_gamma   32.57255089
_symmetry_Int_Tables_number   1
_chemical_formula_structural   K8Tl11
_chemical_formula_sum   'K16 Tl22'
_cell_volume   1590.62594121
_cell_formula_units_Z   2
loop_
 _symmetry_equiv_pos_site_id
 _symmetry_equiv_pos_as_xyz
  1  'x, y, z'
loop_
 _atom_site_type_symbol
 _atom_site_label
 _atom_site_symmetry_multiplicity
 _atom_site_fract_x
 _atom_site_fract_y
 _atom_site_fract_z
 _atom_site_occupancy
  K  K0  1  0.32595800  0.08966200  0.64979900  1
  K  K1  1  0.07881800  0.07881800  0.07881800  1
  K  K2  1  0.92118200  0.92118200  0.92118200  1
  K  K3  1  0.91033800  0.35020100  0.67404200  1
  K  K4  1  0.35020100  0.67404200  0.91033800  1
  K  K5  1  0.17404200  0.85020100  0.41033800  1
  K  K6  1  0.58966200  0.82595800  0.14979900  1
  K  K7  1  0.08966200  0.64979900  0.32595800  1
  K  K8  1  0.85020100  0.41033800  0.17404200  1
  K  K9  1  0.14979900  0.58966200  0.82595800  1
  K  K10  1  0.82595800  0.14979900  0.58966200  1
  K  K11  1  0.64979900  0.32595800  0.08966200  1
  K  K12  1  0.41033800  0.17404200  0.85020100  1
  K  K13  1  0.42118200  0.42118200  0.42118200  1
  K  K14  1  0.67404200  0.91033800  0.35020100  1
  K  K15  1  0.57881800  0.57881800  0.57881800  1
  Tl  Tl16  1  0.22803100  0.91634000  0.51089500  1
  Tl  Tl17  1  0.58366000  0.27196900  0.98910500  1
  Tl  Tl18  1  0.46756600  0.03243400  0.25000000  1
  Tl  Tl19  1  0.19796100  0.19796100  0.19796100  1
  Tl  Tl20  1  0.08366000  0.48910500  0.77196900  1
  Tl  Tl21  1  0.77196900  0.08366000  0.48910500  1
  Tl  Tl22  1  0.96756600  0.75000000  0.53243400  1
  Tl  Tl23  1  0.53243400  0.96756600  0.75000000  1
  Tl  Tl24  1  0.27196900  0.98910500  0.58366000  1
  Tl  Tl25  1  0.41634000  0.72803100  0.01089500  1
  Tl  Tl26  1  0.30203900  0.30203900  0.30203900  1
  Tl  Tl27  1  0.03243400  0.25000000  0.46756600  1
  Tl  Tl28  1  0.75000000  0.53243400  0.96756600  1
  Tl  Tl29  1  0.69796100  0.69796100  0.69796100  1
  Tl  Tl30  1  0.48910500  0.77196900  0.08366000  1
  Tl  Tl31  1  0.51089500  0.22803100  0.91634000  1
  Tl  Tl32  1  0.25000000  0.46756600  0.03243400  1
  Tl  Tl33  1  0.91634000  0.51089500  0.22803100  1
  Tl  Tl34  1  0.80203900  0.80203900  0.80203900  1
  Tl  Tl35  1  0.01089500  0.41634000  0.72803100  1
  Tl  Tl36  1  0.72803100  0.01089500  0.41634000  1
  Tl  Tl37  1  0.98910500  0.58366000  0.27196900  1
