# generated using pymatgen
data_Zr(TeCl6)2
_symmetry_space_group_name_H-M   'P 1'
_cell_length_a   26.17692720
_cell_length_b   26.17692720
_cell_length_c   26.17692684
_cell_angle_alpha   25.96475774
_cell_angle_beta   25.96475774
_cell_angle_gamma   25.96475862
_symmetry_Int_Tables_number   1
_chemical_formula_structural   Zr(TeCl6)2
_chemical_formula_sum   'Zr6 Te12 Cl72'
_cell_volume   3028.57189046
_cell_formula_units_Z   6
loop_
 _symmetry_equiv_pos_site_id
 _symmetry_equiv_pos_as_xyz
  1  'x, y, z'
loop_
 _atom_site_type_symbol
 _atom_site_label
 _atom_site_symmetry_multiplicity
 _atom_site_fract_x
 _atom_site_fract_y
 _atom_site_fract_z
 _atom_site_occupancy
  Zr  Zr0  1  0.37377800  0.37377800  0.37377800  1
  Zr  Zr1  1  0.12622200  0.12622200  0.12622200  1
  Zr  Zr2  1  0.62622200  0.62622200  0.62622200  1
  Zr  Zr3  1  0.75000000  0.75000000  0.75000000  1
  Zr  Zr4  1  0.87377800  0.87377800  0.87377800  1
  Zr  Zr5  1  0.25000000  0.25000000  0.25000000  1
  Te  Te6  1  0.52315200  0.23079600  0.86992600  1
  Te  Te7  1  0.13007400  0.47684800  0.76920400  1
  Te  Te8  1  0.36992600  0.73079600  0.02315200  1
  Te  Te9  1  0.97684800  0.63007400  0.26920400  1
  Te  Te10  1  0.47684800  0.76920400  0.13007400  1
  Te  Te11  1  0.63007400  0.26920400  0.97684800  1
  Te  Te12  1  0.02315200  0.36992600  0.73079600  1
  Te  Te13  1  0.76920400  0.13007400  0.47684800  1
  Te  Te14  1  0.73079600  0.02315200  0.36992600  1
  Te  Te15  1  0.23079600  0.86992600  0.52315200  1
  Te  Te16  1  0.26920400  0.97684800  0.63007400  1
  Te  Te17  1  0.86992600  0.52315200  0.23079600  1
  Cl  Cl18  1  0.16409600  0.79427900  0.11129200  1
  Cl  Cl19  1  0.53409300  0.57310200  0.20899700  1
  Cl  Cl20  1  0.56778800  0.86978800  0.86915600  1
  Cl  Cl21  1  0.45361300  0.79991600  0.81629400  1
  Cl  Cl22  1  0.15389200  0.44827000  0.46308900  1
  Cl  Cl23  1  0.79764500  0.78872000  0.09284200  1
  Cl  Cl24  1  0.83590400  0.20572100  0.88870800  1
  Cl  Cl25  1  0.84610800  0.55173000  0.53691100  1
  Cl  Cl26  1  0.05173000  0.34610800  0.03691100  1
  Cl  Cl27  1  0.53691100  0.84610800  0.55173000  1
  Cl  Cl28  1  0.55173000  0.53691100  0.84610800  1
  Cl  Cl29  1  0.06778800  0.36915600  0.36978800  1
  Cl  Cl30  1  0.93221200  0.63084400  0.63021200  1
  Cl  Cl31  1  0.66409600  0.61129200  0.29427900  1
  Cl  Cl32  1  0.21128000  0.90715800  0.20235500  1
  Cl  Cl33  1  0.78872000  0.09284200  0.79764500  1
  Cl  Cl34  1  0.34610800  0.03691100  0.05173000  1
  Cl  Cl35  1  0.29427900  0.66409600  0.61129200  1
  Cl  Cl36  1  0.86915600  0.56778800  0.86978800  1
  Cl  Cl37  1  0.57310200  0.20899700  0.53409300  1
  Cl  Cl38  1  0.04638700  0.68370600  0.70008400  1
  Cl  Cl39  1  0.95361300  0.31629400  0.29991600  1
  Cl  Cl40  1  0.96590700  0.29100300  0.92689800  1
  Cl  Cl41  1  0.92689800  0.96590700  0.29100300  1
  Cl  Cl42  1  0.61129200  0.29427900  0.66409600  1
  Cl  Cl43  1  0.79991600  0.81629400  0.45361300  1
  Cl  Cl44  1  0.70572100  0.33590400  0.38870800  1
  Cl  Cl45  1  0.20899700  0.53409300  0.57310200  1
  Cl  Cl46  1  0.20008400  0.18370600  0.54638700  1
  Cl  Cl47  1  0.29764500  0.59284200  0.28872000  1
  Cl  Cl48  1  0.33590400  0.38870800  0.70572100  1
  Cl  Cl49  1  0.13021200  0.13084400  0.43221200  1
  Cl  Cl50  1  0.03409300  0.70899700  0.07310200  1
  Cl  Cl51  1  0.40715800  0.71128000  0.70235500  1
  Cl  Cl52  1  0.68370600  0.70008400  0.04638700  1
  Cl  Cl53  1  0.44827000  0.46308900  0.15389200  1
  Cl  Cl54  1  0.63084400  0.63021200  0.93221200  1
  Cl  Cl55  1  0.18370600  0.54638700  0.20008400  1
  Cl  Cl56  1  0.38870800  0.70572100  0.33590400  1
  Cl  Cl57  1  0.03691100  0.05173000  0.34610800  1
  Cl  Cl58  1  0.94827000  0.65389200  0.96308900  1
  Cl  Cl59  1  0.46590700  0.42689800  0.79100300  1
  Cl  Cl60  1  0.79427900  0.11129200  0.16409600  1
  Cl  Cl61  1  0.07310200  0.03409300  0.70899700  1
  Cl  Cl62  1  0.70235500  0.40715800  0.71128000  1
  Cl  Cl63  1  0.59284200  0.28872000  0.29764500  1
  Cl  Cl64  1  0.70008400  0.04638700  0.68370600  1
  Cl  Cl65  1  0.36915600  0.36978800  0.06778800  1
  Cl  Cl66  1  0.90715800  0.20235500  0.21128000  1
  Cl  Cl67  1  0.79100300  0.46590700  0.42689800  1
  Cl  Cl68  1  0.20572100  0.88870800  0.83590400  1
  Cl  Cl69  1  0.42689800  0.79100300  0.46590700  1
  Cl  Cl70  1  0.54638700  0.20008400  0.18370600  1
  Cl  Cl71  1  0.29100300  0.92689800  0.96590700  1
  Cl  Cl72  1  0.86978800  0.86915600  0.56778800  1
  Cl  Cl73  1  0.81629400  0.45361300  0.79991600  1
  Cl  Cl74  1  0.70899700  0.07310200  0.03409300  1
  Cl  Cl75  1  0.11129200  0.16409600  0.79427900  1
  Cl  Cl76  1  0.43221200  0.13021200  0.13084400  1
  Cl  Cl77  1  0.20235500  0.21128000  0.90715800  1
  Cl  Cl78  1  0.09284200  0.79764500  0.78872000  1
  Cl  Cl79  1  0.29991600  0.95361300  0.31629400  1
  Cl  Cl80  1  0.13084400  0.43221200  0.13021200  1
  Cl  Cl81  1  0.46308900  0.15389200  0.44827000  1
  Cl  Cl82  1  0.71128000  0.70235500  0.40715800  1
  Cl  Cl83  1  0.88870800  0.83590400  0.20572100  1
  Cl  Cl84  1  0.31629400  0.29991600  0.95361300  1
  Cl  Cl85  1  0.96308900  0.94827000  0.65389200  1
  Cl  Cl86  1  0.36978800  0.06778800  0.36915600  1
  Cl  Cl87  1  0.28872000  0.29764500  0.59284200  1
  Cl  Cl88  1  0.65389200  0.96308900  0.94827000  1
  Cl  Cl89  1  0.63021200  0.93221200  0.63084400  1
