# generated using pymatgen
data_Pu(SeO3)2
_symmetry_space_group_name_H-M   'P 1'
_cell_length_a   10.82509200
_cell_length_b   7.09987500
_cell_length_c   8.66936240
_cell_angle_alpha   54.66943409
_cell_angle_beta   90.00000000
_cell_angle_gamma   90.00000000
_symmetry_Int_Tables_number   1
_chemical_formula_structural   Pu(SeO3)2
_chemical_formula_sum   'Pu4 Se8 O24'
_cell_volume   543.58655009
_cell_formula_units_Z   4
loop_
 _symmetry_equiv_pos_site_id
 _symmetry_equiv_pos_as_xyz
  1  'x, y, z'
loop_
 _atom_site_type_symbol
 _atom_site_label
 _atom_site_symmetry_multiplicity
 _atom_site_fract_x
 _atom_site_fract_y
 _atom_site_fract_z
 _atom_site_occupancy
  Pu  Pu0  1  0.40420300  0.24878800  0.50566600  1
  Pu  Pu1  1  0.09579700  0.24878800  0.00566600  1
  Pu  Pu2  1  0.90420300  0.75121200  0.99433400  1
  Pu  Pu3  1  0.59579700  0.75121200  0.49433400  1
  Se  Se4  1  0.78529300  0.19386300  0.07024300  1
  Se  Se5  1  0.57331500  0.71800400  0.06708100  1
  Se  Se6  1  0.28529300  0.80613700  0.42975700  1
  Se  Se7  1  0.07331500  0.28199600  0.43291900  1
  Se  Se8  1  0.42668500  0.28199600  0.93291900  1
  Se  Se9  1  0.71470700  0.19386300  0.57024300  1
  Se  Se10  1  0.92668500  0.71800400  0.56708100  1
  Se  Se11  1  0.21470700  0.80613700  0.92975700  1
  O  O12  1  0.21664500  0.41439200  0.39124500  1
  O  O13  1  0.09667500  0.98907300  0.91632200  1
  O  O14  1  0.28335500  0.41439200  0.89124500  1
  O  O15  1  0.78335500  0.58560800  0.60875500  1
  O  O16  1  0.60115800  0.38607500  0.54514200  1
  O  O17  1  0.74320200  0.05174000  0.30167600  1
  O  O18  1  0.09235000  0.15504300  0.31466800  1
  O  O19  1  0.48052200  0.47562400  0.21437700  1
  O  O20  1  0.51947800  0.52437600  0.78562300  1
  O  O21  1  0.10115800  0.61392500  0.95485800  1
  O  O22  1  0.90765000  0.84495700  0.68533200  1
  O  O23  1  0.59667500  0.01092700  0.58367800  1
  O  O24  1  0.90332500  0.01092700  0.08367800  1
  O  O25  1  0.25679800  0.94826000  0.69832400  1
  O  O26  1  0.71664500  0.58560800  0.10875500  1
  O  O27  1  0.40765000  0.15504300  0.81466800  1
  O  O28  1  0.01947800  0.47562400  0.71437700  1
  O  O29  1  0.75679800  0.05174000  0.80167600  1
  O  O30  1  0.24320200  0.94826000  0.19832400  1
  O  O31  1  0.98052200  0.52437600  0.28562300  1
  O  O32  1  0.59235000  0.84495700  0.18533200  1
  O  O33  1  0.39884200  0.61392500  0.45485800  1
  O  O34  1  0.89884200  0.38607500  0.04514200  1
  O  O35  1  0.40332500  0.98907300  0.41632200  1
