# generated using pymatgen
data_K2Mo(I2O7)2
_symmetry_space_group_name_H-M   'P 1'
_cell_length_a   7.29486037
_cell_length_b   7.29486037
_cell_length_c   17.81875259
_cell_angle_alpha   79.36238352
_cell_angle_beta   79.36238352
_cell_angle_gamma   51.50531085
_symmetry_Int_Tables_number   1
_chemical_formula_structural   K2Mo(I2O7)2
_chemical_formula_sum   'K4 Mo2 I8 O28'
_cell_volume   726.38875347
_cell_formula_units_Z   2
loop_
 _symmetry_equiv_pos_site_id
 _symmetry_equiv_pos_as_xyz
  1  'x, y, z'
loop_
 _atom_site_type_symbol
 _atom_site_label
 _atom_site_symmetry_multiplicity
 _atom_site_fract_x
 _atom_site_fract_y
 _atom_site_fract_z
 _atom_site_occupancy
  K  K0  1  0.82084400  0.81698600  0.46154000  1
  K  K1  1  0.18301400  0.17915600  0.03846000  1
  K  K2  1  0.17915600  0.18301400  0.53846000  1
  K  K3  1  0.81698600  0.82084400  0.96154000  1
  Mo  Mo4  1  0.10983900  0.89016100  0.75000000  1
  Mo  Mo5  1  0.89016100  0.10983900  0.25000000  1
  I  I6  1  0.38071500  0.54757000  0.59039100  1
  I  I7  1  0.45243000  0.61928500  0.90960900  1
  I  I8  1  0.61928500  0.45243000  0.40960900  1
  I  I9  1  0.54757000  0.38071500  0.09039100  1
  I  I10  1  0.27295300  0.30429100  0.32033400  1
  I  I11  1  0.69570900  0.72704700  0.17966600  1
  I  I12  1  0.72704700  0.69570900  0.67966600  1
  I  I13  1  0.30429100  0.27295300  0.82033400  1
  O  O14  1  0.19855000  0.84058700  0.63950900  1
  O  O15  1  0.15941300  0.80145000  0.86049100  1
  O  O16  1  0.80145000  0.15941300  0.36049100  1
  O  O17  1  0.84058700  0.19855000  0.13950900  1
  O  O18  1  0.37516400  0.72745800  0.50001300  1
  O  O19  1  0.27254200  0.62483600  0.99998700  1
  O  O20  1  0.62483600  0.27254200  0.49998700  1
  O  O21  1  0.72745800  0.37516400  0.00001300  1
  O  O22  1  0.12774800  0.56343600  0.58000800  1
  O  O23  1  0.43656400  0.87225200  0.91999200  1
  O  O24  1  0.87225200  0.43656400  0.41999200  1
  O  O25  1  0.56343600  0.12774800  0.08000800  1
  O  O26  1  0.50211200  0.28084900  0.24533700  1
  O  O27  1  0.71915100  0.49788800  0.25466300  1
  O  O28  1  0.49788800  0.71915100  0.75466300  1
  O  O29  1  0.28084900  0.50211200  0.74533700  1
  O  O30  1  0.26616000  0.46384300  0.39040800  1
  O  O31  1  0.53615700  0.73384000  0.10959200  1
  O  O32  1  0.73384000  0.53615700  0.60959200  1
  O  O33  1  0.46384300  0.26616000  0.89040800  1
  O  O34  1  0.43907600  0.01167500  0.36904600  1
  O  O35  1  0.98832500  0.56092400  0.13095400  1
  O  O36  1  0.56092400  0.98832500  0.63095400  1
  O  O37  1  0.01167500  0.43907600  0.86904600  1
  O  O38  1  0.04612200  0.16707100  0.73955500  1
  O  O39  1  0.83292900  0.95387800  0.76044500  1
  O  O40  1  0.95387800  0.83292900  0.26044500  1
  O  O41  1  0.16707100  0.04612200  0.23955500  1
