# generated using pymatgen
data_Ba3Sb4O
_symmetry_space_group_name_H-M   'P 1'
_cell_length_a   13.03024600
_cell_length_b   7.12705200
_cell_length_c   13.13227991
_cell_angle_alpha   67.63103297
_cell_angle_beta   90.00000000
_cell_angle_gamma   90.00000000
_symmetry_Int_Tables_number   1
_chemical_formula_structural   Ba3Sb4O
_chemical_formula_sum   'Ba12 Sb16 O4'
_cell_volume   1127.78961638
_cell_formula_units_Z   4
loop_
 _symmetry_equiv_pos_site_id
 _symmetry_equiv_pos_as_xyz
  1  'x, y, z'
loop_
 _atom_site_type_symbol
 _atom_site_label
 _atom_site_symmetry_multiplicity
 _atom_site_fract_x
 _atom_site_fract_y
 _atom_site_fract_z
 _atom_site_occupancy
  Ba  Ba0  1  0.23340400  0.80900200  0.52153900  1
  Ba  Ba1  1  0.44193800  0.20365100  0.54678300  1
  Ba  Ba2  1  0.76659600  0.19099800  0.47846100  1
  Ba  Ba3  1  0.94819100  0.38815000  0.72200500  1
  Ba  Ba4  1  0.05806200  0.20365100  0.04678300  1
  Ba  Ba5  1  0.26659600  0.80900200  0.02153900  1
  Ba  Ba6  1  0.94193800  0.79634900  0.95321700  1
  Ba  Ba7  1  0.05180900  0.61185000  0.27799500  1
  Ba  Ba8  1  0.55180900  0.38815000  0.22200500  1
  Ba  Ba9  1  0.73340400  0.19099800  0.97846100  1
  Ba  Ba10  1  0.44819100  0.61185000  0.77799500  1
  Ba  Ba11  1  0.55806200  0.79634900  0.45321700  1
  Sb  Sb12  1  0.98248900  0.06882500  0.34317300  1
  Sb  Sb13  1  0.48248900  0.93117500  0.15682700  1
  Sb  Sb14  1  0.65578800  0.72319100  0.93727000  1
  Sb  Sb15  1  0.34363500  0.64964500  0.31431200  1
  Sb  Sb16  1  0.01751100  0.93117500  0.65682700  1
  Sb  Sb17  1  0.15578800  0.27680900  0.56273000  1
  Sb  Sb18  1  0.65636500  0.35035500  0.68568800  1
  Sb  Sb19  1  0.76860200  0.70424700  0.23529800  1
  Sb  Sb20  1  0.84363500  0.35035500  0.18568800  1
  Sb  Sb21  1  0.34421200  0.27680900  0.06273000  1
  Sb  Sb22  1  0.73139800  0.70424700  0.73529800  1
  Sb  Sb23  1  0.84421200  0.72319100  0.43727000  1
  Sb  Sb24  1  0.51751100  0.06882500  0.84317300  1
  Sb  Sb25  1  0.26860200  0.29575300  0.26470200  1
  Sb  Sb26  1  0.23139800  0.29575300  0.76470200  1
  Sb  Sb27  1  0.15636500  0.64964500  0.81431200  1
  O  O28  1  0.91351300  0.16655600  0.92064500  1
  O  O29  1  0.08648700  0.83344400  0.07935500  1
  O  O30  1  0.41351300  0.83344400  0.57935500  1
  O  O31  1  0.58648700  0.16655600  0.42064500  1
