# generated using pymatgen
data_K2LiAlF6
_symmetry_space_group_name_H-M   'P 1'
_cell_length_a   5.69419430
_cell_length_b   5.69419430
_cell_length_c   13.93136400
_cell_angle_alpha   90.00000000
_cell_angle_beta   90.00000000
_cell_angle_gamma   120.00000344
_symmetry_Int_Tables_number   1
_chemical_formula_structural   K2LiAlF6
_chemical_formula_sum   'K6 Li3 Al3 F18'
_cell_volume   391.19096908
_cell_formula_units_Z   3
loop_
 _symmetry_equiv_pos_site_id
 _symmetry_equiv_pos_as_xyz
  1  'x, y, z'
loop_
 _atom_site_type_symbol
 _atom_site_label
 _atom_site_symmetry_multiplicity
 _atom_site_fract_x
 _atom_site_fract_y
 _atom_site_fract_z
 _atom_site_occupancy
  K  K0  1  0.66666700  0.33333300  0.41118000  1
  K  K1  1  0.00000000  0.00000000  0.74767900  1
  K  K2  1  0.66666700  0.33333300  0.10644300  1
  K  K3  1  0.00000000  0.00000000  0.25232100  1
  K  K4  1  0.33333300  0.66666700  0.58882000  1
  K  K5  1  0.33333300  0.66666700  0.89355700  1
  Li  Li6  1  0.66666700  0.33333300  0.85677700  1
  Li  Li7  1  0.33333300  0.66666700  0.14322300  1
  Li  Li8  1  0.00000000  0.00000000  0.50000000  1
  Al  Al9  1  0.33333300  0.66666700  0.33866300  1
  Al  Al10  1  0.66666700  0.33333300  0.66133700  1
  Al  Al11  1  0.00000000  0.00000000  0.00000000  1
  F  F12  1  0.30638300  0.15319200  0.92416600  1
  F  F13  1  0.48114300  0.51885700  0.25788700  1
  F  F14  1  0.51885700  0.48114300  0.74211300  1
  F  F15  1  0.69361700  0.84680800  0.07583400  1
  F  F16  1  0.17964400  0.35928900  0.41290600  1
  F  F17  1  0.15319200  0.30638300  0.07583400  1
  F  F18  1  0.82035600  0.17964400  0.58709400  1
  F  F19  1  0.17964400  0.82035600  0.41290600  1
  F  F20  1  0.84680800  0.69361700  0.92416600  1
  F  F21  1  0.48114300  0.96228600  0.25788700  1
  F  F22  1  0.51885700  0.03771400  0.74211300  1
  F  F23  1  0.03771400  0.51885700  0.25788700  1
  F  F24  1  0.96228600  0.48114300  0.74211300  1
  F  F25  1  0.84680800  0.15319200  0.92416600  1
  F  F26  1  0.35928900  0.17964400  0.58709400  1
  F  F27  1  0.64071100  0.82035600  0.41290600  1
  F  F28  1  0.82035600  0.64071100  0.58709400  1
  F  F29  1  0.15319200  0.84680800  0.07583400  1
