# generated using pymatgen
data_TeAs(BrF2)3
_symmetry_space_group_name_H-M   'P 1'
_cell_length_a   10.40747200
_cell_length_b   8.17681800
_cell_length_c   12.64716628
_cell_angle_alpha   80.09537780
_cell_angle_beta   90.00000000
_cell_angle_gamma   90.00000000
_symmetry_Int_Tables_number   1
_chemical_formula_structural   TeAs(BrF2)3
_chemical_formula_sum   'Te4 As4 Br12 F24'
_cell_volume   1060.23253122
_cell_formula_units_Z   4
loop_
 _symmetry_equiv_pos_site_id
 _symmetry_equiv_pos_as_xyz
  1  'x, y, z'
loop_
 _atom_site_type_symbol
 _atom_site_label
 _atom_site_symmetry_multiplicity
 _atom_site_fract_x
 _atom_site_fract_y
 _atom_site_fract_z
 _atom_site_occupancy
  Te  Te0  1  0.66739500  0.81437100  0.69043400  1
  Te  Te1  1  0.16739500  0.18562900  0.80956600  1
  Te  Te2  1  0.83260500  0.81437100  0.19043400  1
  Te  Te3  1  0.33260500  0.18562900  0.30956600  1
  As  As4  1  0.76822500  0.16406600  0.92155600  1
  As  As5  1  0.23177500  0.83593400  0.07844400  1
  As  As6  1  0.73177500  0.16406600  0.42155600  1
  As  As7  1  0.26822500  0.83593400  0.57844400  1
  Br  Br8  1  0.10758700  0.23615300  0.24912600  1
  Br  Br9  1  0.55281100  0.69503900  0.85728000  1
  Br  Br10  1  0.94718900  0.69503900  0.35728000  1
  Br  Br11  1  0.84957000  0.57272000  0.09646500  1
  Br  Br12  1  0.65043000  0.57272000  0.59646500  1
  Br  Br13  1  0.44718900  0.30496100  0.14272000  1
  Br  Br14  1  0.15043000  0.42728000  0.90353500  1
  Br  Br15  1  0.34957000  0.42728000  0.40353500  1
  Br  Br16  1  0.05281100  0.30496100  0.64272000  1
  Br  Br17  1  0.60758700  0.76384700  0.25087400  1
  Br  Br18  1  0.39241300  0.23615300  0.74912600  1
  Br  Br19  1  0.89241300  0.76384700  0.75087400  1
  F  F20  1  0.16984300  0.78719300  0.95701400  1
  F  F21  1  0.11375700  0.76988100  0.54862700  1
  F  F22  1  0.57487400  0.09135800  0.39118400  1
  F  F23  1  0.23411900  0.04190700  0.50766300  1
  F  F24  1  0.42512600  0.90864200  0.60881600  1
  F  F25  1  0.76588100  0.95809300  0.49233700  1
  F  F26  1  0.19314900  0.63755300  0.14871300  1
  F  F27  1  0.33015700  0.78719300  0.45701400  1
  F  F28  1  0.88624300  0.23011900  0.45137300  1
  F  F29  1  0.69314900  0.36244700  0.35128700  1
  F  F30  1  0.66984300  0.21280700  0.54298600  1
  F  F31  1  0.20861700  0.89770500  0.69815800  1
  F  F32  1  0.73411900  0.95809300  0.99233700  1
  F  F33  1  0.79138300  0.10229500  0.30184200  1
  F  F34  1  0.29138300  0.89770500  0.19815800  1
  F  F35  1  0.30685100  0.63755300  0.64871300  1
  F  F36  1  0.92512600  0.09135800  0.89118400  1
  F  F37  1  0.70861700  0.10229500  0.80184200  1
  F  F38  1  0.83015700  0.21280700  0.04298600  1
  F  F39  1  0.38624300  0.76988100  0.04862700  1
  F  F40  1  0.61375700  0.23011900  0.95137300  1
  F  F41  1  0.07487400  0.90864200  0.10881600  1
  F  F42  1  0.26588100  0.04190700  0.00766300  1
  F  F43  1  0.80685100  0.36244700  0.85128700  1
