# generated using pymatgen
data_Cs4U2V2O13
_symmetry_space_group_name_H-M   'P 1'
_cell_length_a   7.38924900
_cell_length_b   8.56287900
_cell_length_c   13.73813400
_cell_angle_alpha   90.00000000
_cell_angle_beta   90.00000000
_cell_angle_gamma   90.00000000
_symmetry_Int_Tables_number   1
_chemical_formula_structural   Cs4U2V2O13
_chemical_formula_sum   'Cs8 U4 V4 O26'
_cell_volume   869.25631963
_cell_formula_units_Z   2
loop_
 _symmetry_equiv_pos_site_id
 _symmetry_equiv_pos_as_xyz
  1  'x, y, z'
loop_
 _atom_site_type_symbol
 _atom_site_label
 _atom_site_symmetry_multiplicity
 _atom_site_fract_x
 _atom_site_fract_y
 _atom_site_fract_z
 _atom_site_occupancy
  Cs  Cs0  1  0.52126900  0.50000000  0.80239700  1
  Cs  Cs1  1  0.47873100  0.00000000  0.69760300  1
  Cs  Cs2  1  0.87049600  0.00000000  0.50000000  1
  Cs  Cs3  1  0.12950400  0.50000000  0.00000000  1
  Cs  Cs4  1  0.77238800  0.50000000  0.50000000  1
  Cs  Cs5  1  0.47873100  0.00000000  0.30239700  1
  Cs  Cs6  1  0.52126900  0.50000000  0.19760300  1
  Cs  Cs7  1  0.22761200  0.00000000  0.00000000  1
  U  U8  1  0.00000000  0.25000000  0.75000000  1
  U  U9  1  0.00000000  0.75000000  0.25000000  1
  U  U10  1  0.00000000  0.25000000  0.25000000  1
  U  U11  1  0.00000000  0.75000000  0.75000000  1
  V  V12  1  0.28701200  0.29426400  0.50000000  1
  V  V13  1  0.28701200  0.70573600  0.50000000  1
  V  V14  1  0.71298800  0.20573600  0.00000000  1
  V  V15  1  0.71298800  0.79426400  0.00000000  1
  O  O16  1  0.16060200  0.24993400  0.60360200  1
  O  O17  1  0.97962500  0.00000000  0.26231500  1
  O  O18  1  0.47924700  0.80930400  0.50000000  1
  O  O19  1  0.78175100  0.26995100  0.68019700  1
  O  O20  1  0.83939800  0.74993400  0.89639800  1
  O  O21  1  0.83939800  0.74993400  0.10360200  1
  O  O22  1  0.16060200  0.24993400  0.39639800  1
  O  O23  1  0.16060200  0.75006600  0.39639800  1
  O  O24  1  0.78175100  0.73004900  0.68019700  1
  O  O25  1  0.21824900  0.23004900  0.81980300  1
  O  O26  1  0.83939800  0.25006600  0.89639800  1
  O  O27  1  0.02037500  0.50000000  0.23768500  1
  O  O28  1  0.21824900  0.76995100  0.81980300  1
  O  O29  1  0.83939800  0.25006600  0.10360200  1
  O  O30  1  0.35106800  0.50000000  0.50000000  1
  O  O31  1  0.02037500  0.50000000  0.76231500  1
  O  O32  1  0.78175100  0.73004900  0.31980300  1
  O  O33  1  0.16060200  0.75006600  0.60360200  1
  O  O34  1  0.52075300  0.30930400  0.00000000  1
  O  O35  1  0.78175100  0.26995100  0.31980300  1
  O  O36  1  0.64893200  0.00000000  0.00000000  1
  O  O37  1  0.97962500  0.00000000  0.73768500  1
  O  O38  1  0.21824900  0.23004900  0.18019700  1
  O  O39  1  0.21824900  0.76995100  0.18019700  1
  O  O40  1  0.52075300  0.69069600  0.00000000  1
  O  O41  1  0.47924700  0.19069600  0.50000000  1
