# generated using pymatgen
data_K6Se2O9
_symmetry_space_group_name_H-M   'P 1'
_cell_length_a   8.27520200
_cell_length_b   8.27520200
_cell_length_c   17.77098800
_cell_angle_alpha   90.00000000
_cell_angle_beta   90.00000000
_cell_angle_gamma   90.00000000
_symmetry_Int_Tables_number   1
_chemical_formula_structural   K6Se2O9
_chemical_formula_sum   'K24 Se8 O36'
_cell_volume   1216.93892108
_cell_formula_units_Z   4
loop_
 _symmetry_equiv_pos_site_id
 _symmetry_equiv_pos_as_xyz
  1  'x, y, z'
loop_
 _atom_site_type_symbol
 _atom_site_label
 _atom_site_symmetry_multiplicity
 _atom_site_fract_x
 _atom_site_fract_y
 _atom_site_fract_z
 _atom_site_occupancy
  K  K0  1  0.45633400  0.49994100  0.64591400  1
  K  K1  1  0.79062500  0.77573100  0.25355400  1
  K  K2  1  0.29062500  0.72426900  0.49644600  1
  K  K3  1  0.00204100  0.47558700  0.37284400  1
  K  K4  1  0.50204100  0.02441300  0.37715600  1
  K  K5  1  0.22426900  0.20937500  0.24644600  1
  K  K6  1  0.27573100  0.70937500  0.00355400  1
  K  K7  1  0.97558700  0.49795900  0.12284400  1
  K  K8  1  0.04366600  0.99994100  0.60408600  1
  K  K9  1  0.95633400  0.00005900  0.10408600  1
  K  K10  1  0.99994100  0.04366600  0.39591400  1
  K  K11  1  0.49994100  0.45633400  0.35408600  1
  K  K12  1  0.47558700  0.00204100  0.62715600  1
  K  K13  1  0.77573100  0.79062500  0.74644600  1
  K  K14  1  0.02441300  0.50204100  0.62284400  1
  K  K15  1  0.50005900  0.54366600  0.85408600  1
  K  K16  1  0.49795900  0.97558700  0.87715600  1
  K  K17  1  0.99795900  0.52441300  0.87284400  1
  K  K18  1  0.54366600  0.50005900  0.14591400  1
  K  K19  1  0.72426900  0.29062500  0.50355400  1
  K  K20  1  0.00005900  0.95633400  0.89591400  1
  K  K21  1  0.70937500  0.27573100  0.99644600  1
  K  K22  1  0.20937500  0.22426900  0.75355400  1
  K  K23  1  0.52441300  0.99795900  0.12715600  1
  Se  Se24  1  0.24565700  0.75434300  0.75000000  1
  Se  Se25  1  0.73403800  0.26596200  0.75000000  1
  Se  Se26  1  0.76596200  0.76596200  0.50000000  1
  Se  Se27  1  0.75434300  0.24565700  0.25000000  1
  Se  Se28  1  0.74565700  0.74565700  0.00000000  1
  Se  Se29  1  0.23403800  0.23403800  0.00000000  1
  Se  Se30  1  0.25434300  0.25434300  0.50000000  1
  Se  Se31  1  0.26596200  0.73403800  0.25000000  1
  O  O32  1  0.96424000  0.73517500  0.48585600  1
  O  O33  1  0.40493800  0.40493800  0.50000000  1
  O  O34  1  0.75786100  0.24745600  0.14661300  1
  O  O35  1  0.09506200  0.90493800  0.75000000  1
  O  O36  1  0.54682200  0.19899700  0.24836600  1
  O  O37  1  0.03576000  0.26482500  0.98585600  1
  O  O38  1  0.53576000  0.23517500  0.76414400  1
  O  O39  1  0.20906400  0.83763500  0.17335600  1
  O  O40  1  0.24213900  0.75254400  0.64661300  1
  O  O41  1  0.74745600  0.74213900  0.89661300  1
  O  O42  1  0.23517500  0.53576000  0.23585600  1
  O  O43  1  0.83763500  0.20906400  0.82664400  1
  O  O44  1  0.24745600  0.75786100  0.85338700  1
  O  O45  1  0.33763500  0.29093600  0.92335600  1
  O  O46  1  0.25786100  0.25254400  0.60338700  1
  O  O47  1  0.76482500  0.46424000  0.73585600  1
  O  O48  1  0.70906400  0.66236500  0.57664400  1
  O  O49  1  0.26482500  0.03576000  0.01414400  1
  O  O50  1  0.79093600  0.16236500  0.67335600  1
  O  O51  1  0.45317800  0.80100300  0.74836600  1
  O  O52  1  0.30100300  0.04682200  0.49836600  1
  O  O53  1  0.04682200  0.30100300  0.50163400  1
  O  O54  1  0.59506200  0.59506200  0.00000000  1
  O  O55  1  0.25254400  0.25786100  0.39661300  1
  O  O56  1  0.69899700  0.95317800  0.99836600  1
  O  O57  1  0.46424000  0.76482500  0.26414400  1
  O  O58  1  0.73517500  0.96424000  0.51414400  1
  O  O59  1  0.29093600  0.33763500  0.07664400  1
  O  O60  1  0.74213900  0.74745600  0.10338700  1
  O  O61  1  0.80100300  0.45317800  0.25163400  1
  O  O62  1  0.16236500  0.79093600  0.32664400  1
  O  O63  1  0.75254400  0.24213900  0.35338700  1
  O  O64  1  0.19899700  0.54682200  0.75163400  1
  O  O65  1  0.66236500  0.70906400  0.42335600  1
  O  O66  1  0.90493800  0.09506200  0.25000000  1
  O  O67  1  0.95317800  0.69899700  0.00163400  1
