# generated using pymatgen
data_TbAu2
_symmetry_space_group_name_H-M   'P 1'
_cell_length_a   5.27867618
_cell_length_b   5.27867618
_cell_length_c   5.27867618
_cell_angle_alpha   138.20302964
_cell_angle_beta   138.20302964
_cell_angle_gamma   60.59219121
_symmetry_Int_Tables_number   1
_chemical_formula_structural   TbAu2
_chemical_formula_sum   'Tb1 Au2'
_cell_volume   64.63991216
_cell_formula_units_Z   1
loop_
 _symmetry_equiv_pos_site_id
 _symmetry_equiv_pos_as_xyz
  1  'x, y, z'
loop_
 _atom_site_type_symbol
 _atom_site_label
 _atom_site_symmetry_multiplicity
 _atom_site_fract_x
 _atom_site_fract_y
 _atom_site_fract_z
 _atom_site_occupancy
  Tb  Tb0  1  0.00000000  0.00000000  0.00000000  1
  Au  Au1  1  0.66565200  0.66565200  0.00000000  1
  Au  Au2  1  0.33434800  0.33434800  0.00000000  1
