# generated using pymatgen
data_K3Nb2Ag3S8
_symmetry_space_group_name_H-M   'P 1'
_cell_length_a   12.86417497
_cell_length_b   12.86417497
_cell_length_c   14.42999975
_cell_angle_alpha   60.83750588
_cell_angle_beta   60.83750588
_cell_angle_gamma   26.86776200
_symmetry_Int_Tables_number   1
_chemical_formula_structural   K3Nb2Ag3S8
_chemical_formula_sum   'K6 Nb4 Ag6 S16'
_cell_volume   933.99786558
_cell_formula_units_Z   2
loop_
 _symmetry_equiv_pos_site_id
 _symmetry_equiv_pos_as_xyz
  1  'x, y, z'
loop_
 _atom_site_type_symbol
 _atom_site_label
 _atom_site_symmetry_multiplicity
 _atom_site_fract_x
 _atom_site_fract_y
 _atom_site_fract_z
 _atom_site_occupancy
  K  K0  1  0.63753900  0.75396600  0.39948000  1
  K  K1  1  0.36246100  0.24603400  0.60052000  1
  K  K2  1  0.75396600  0.63753900  0.89948000  1
  K  K3  1  0.00000000  0.00000000  0.50000000  1
  K  K4  1  0.24603400  0.36246100  0.10052000  1
  K  K5  1  0.00000000  0.00000000  0.00000000  1
  Nb  Nb6  1  0.15623400  0.58807800  0.77933200  1
  Nb  Nb7  1  0.84376600  0.41192200  0.22066800  1
  Nb  Nb8  1  0.58807800  0.15623400  0.27933200  1
  Nb  Nb9  1  0.41192200  0.84376600  0.72066800  1
  Ag  Ag10  1  0.28291200  0.71708800  0.75000000  1
  Ag  Ag11  1  0.71708800  0.28291200  0.25000000  1
  Ag  Ag12  1  0.65724300  0.08898900  0.78522300  1
  Ag  Ag13  1  0.91101100  0.34275700  0.71477700  1
  Ag  Ag14  1  0.34275700  0.91101100  0.21477700  1
  Ag  Ag15  1  0.08898900  0.65724300  0.28522300  1
  S  S16  1  0.54461000  0.54736900  0.34683100  1
  S  S17  1  0.09884500  0.21745300  0.31632400  1
  S  S18  1  0.28932400  0.28824300  0.39199300  1
  S  S19  1  0.97639300  0.82615700  0.88399800  1
  S  S20  1  0.02360700  0.17384300  0.11600200  1
  S  S21  1  0.45263100  0.45539000  0.15316900  1
  S  S22  1  0.82615700  0.97639300  0.38399800  1
  S  S23  1  0.45539000  0.45263100  0.65316900  1
  S  S24  1  0.17384300  0.02360700  0.61600200  1
  S  S25  1  0.28824300  0.28932400  0.89199300  1
  S  S26  1  0.71175700  0.71067600  0.10800700  1
  S  S27  1  0.71067600  0.71175700  0.60800700  1
  S  S28  1  0.78254700  0.90115500  0.18367600  1
  S  S29  1  0.90115500  0.78254700  0.68367600  1
  S  S30  1  0.54736900  0.54461000  0.84683100  1
  S  S31  1  0.21745300  0.09884500  0.81632400  1
