# generated using pymatgen
data_KBi(PS3)2
_symmetry_space_group_name_H-M   'P 1'
_cell_length_a   7.57116300
_cell_length_b   6.75892600
_cell_length_c   10.05756110
_cell_angle_alpha   87.78096277
_cell_angle_beta   90.00000000
_cell_angle_gamma   90.00000000
_symmetry_Int_Tables_number   1
_chemical_formula_structural   KBi(PS3)2
_chemical_formula_sum   'K2 Bi2 P4 S12'
_cell_volume   514.28892332
_cell_formula_units_Z   2
loop_
 _symmetry_equiv_pos_site_id
 _symmetry_equiv_pos_as_xyz
  1  'x, y, z'
loop_
 _atom_site_type_symbol
 _atom_site_label
 _atom_site_symmetry_multiplicity
 _atom_site_fract_x
 _atom_site_fract_y
 _atom_site_fract_z
 _atom_site_occupancy
  K  K0  1  0.47519500  0.70164600  0.49805600  1
  K  K1  1  0.97519500  0.29835400  0.50194400  1
  Bi  Bi2  1  0.22799500  0.21058900  0.98241900  1
  Bi  Bi3  1  0.72799500  0.78941100  0.01758100  1
  P  P4  1  0.68447100  0.31233300  0.82836700  1
  P  P5  1  0.95922000  0.79608000  0.29771000  1
  P  P6  1  0.18447100  0.68766700  0.17163300  1
  P  P7  1  0.45922000  0.20392000  0.70229000  1
  S  S8  1  0.77190700  0.57223800  0.75001100  1
  S  S9  1  0.53979000  0.17728100  0.51685400  1
  S  S10  1  0.76852900  0.58856600  0.26910400  1
  S  S11  1  0.57013700  0.34469000  0.01396100  1
  S  S12  1  0.37979900  0.95244400  0.80956200  1
  S  S13  1  0.26852900  0.41143400  0.73089600  1
  S  S14  1  0.07013700  0.65531000  0.98603900  1
  S  S15  1  0.87979900  0.04755600  0.19043800  1
  S  S16  1  0.03979000  0.82271900  0.48314600  1
  S  S17  1  0.37184800  0.90875700  0.16994500  1
  S  S18  1  0.87184800  0.09124300  0.83005500  1
  S  S19  1  0.27190700  0.42776200  0.24998900  1
