# generated using pymatgen
data_K2UMo(IO6)2
_symmetry_space_group_name_H-M   'P 1'
_cell_length_a   7.40130800
_cell_length_b   11.54673100
_cell_length_c   16.15014884
_cell_angle_alpha   72.62390515
_cell_angle_beta   90.00000000
_cell_angle_gamma   90.00000000
_symmetry_Int_Tables_number   1
_chemical_formula_structural   K2UMo(IO6)2
_chemical_formula_sum   'K8 U4 Mo4 I8 O48'
_cell_volume   1317.22075288
_cell_formula_units_Z   4
loop_
 _symmetry_equiv_pos_site_id
 _symmetry_equiv_pos_as_xyz
  1  'x, y, z'
loop_
 _atom_site_type_symbol
 _atom_site_label
 _atom_site_symmetry_multiplicity
 _atom_site_fract_x
 _atom_site_fract_y
 _atom_site_fract_z
 _atom_site_occupancy
  K  K0  1  0.25771100  0.74081400  0.14241500  1
  K  K1  1  0.24514900  0.49854600  0.45263600  1
  K  K2  1  0.75771100  0.25918600  0.35758500  1
  K  K3  1  0.74228900  0.25918600  0.85758500  1
  K  K4  1  0.25485100  0.49854600  0.95263600  1
  K  K5  1  0.75485100  0.50145400  0.54736400  1
  K  K6  1  0.74514900  0.50145400  0.04736400  1
  K  K7  1  0.24228900  0.74081400  0.64241500  1
  U  U8  1  0.49254200  0.16946000  0.14054700  1
  U  U9  1  0.99254200  0.83054000  0.35945300  1
  U  U10  1  0.00745800  0.16946000  0.64054700  1
  U  U11  1  0.50745800  0.83054000  0.85945300  1
  Mo  Mo12  1  0.24597700  0.08108300  0.44609500  1
  Mo  Mo13  1  0.25402300  0.08108300  0.94609500  1
  Mo  Mo14  1  0.75402300  0.91891700  0.55390500  1
  Mo  Mo15  1  0.74597700  0.91891700  0.05390500  1
  I  I16  1  0.28637800  0.40409600  0.22817300  1
  I  I17  1  0.51248500  0.17790700  0.61039400  1
  I  I18  1  0.98751500  0.17790700  0.11039400  1
  I  I19  1  0.01248500  0.82209300  0.88960600  1
  I  I20  1  0.48751500  0.82209300  0.38960600  1
  I  I21  1  0.21362200  0.40409600  0.72817300  1
  I  I22  1  0.71362200  0.59590400  0.77182700  1
  I  I23  1  0.78637800  0.59590400  0.27182700  1
  O  O24  1  0.68173100  0.78052500  0.33126500  1
  O  O25  1  0.20089600  0.78270500  0.82715000  1
  O  O26  1  0.79592100  0.91582500  0.44181700  1
  O  O27  1  0.20407900  0.08417500  0.55818300  1
  O  O28  1  0.47616000  0.10851700  0.42327600  1
  O  O29  1  0.18173100  0.21947500  0.16873500  1
  O  O30  1  0.68574000  0.48927200  0.87905800  1
  O  O31  1  0.68686100  0.06841500  0.06774100  1
  O  O32  1  0.81826900  0.78052500  0.83126500  1
  O  O33  1  0.52384000  0.89148300  0.57672400  1
  O  O34  1  0.38739200  0.49039000  0.29409400  1
  O  O35  1  0.48692100  0.03525900  0.23496700  1
  O  O36  1  0.29910400  0.78270500  0.32715000  1
  O  O37  1  0.51307900  0.96474100  0.76503300  1
  O  O38  1  0.81426000  0.48927200  0.37905800  1
  O  O39  1  0.37925200  0.19833300  0.87462500  1
  O  O40  1  0.18686100  0.93158500  0.43225900  1
  O  O41  1  0.11260800  0.49039000  0.79409400  1
  O  O42  1  0.00160800  0.30351400  0.54538800  1
  O  O43  1  0.88739200  0.50961000  0.20590600  1
  O  O44  1  0.62074800  0.80166700  0.12537500  1
  O  O45  1  0.98692100  0.96474100  0.26503300  1
  O  O46  1  0.70089600  0.21729500  0.67285000  1
  O  O47  1  0.70407900  0.91582500  0.94181700  1
  O  O48  1  0.12074800  0.19833300  0.37462500  1
  O  O49  1  0.49839200  0.30351400  0.04538800  1
  O  O50  1  0.31826900  0.21947500  0.66873500  1
  O  O51  1  0.18574000  0.51072800  0.62094200  1
  O  O52  1  0.81313900  0.06841500  0.56774100  1
  O  O53  1  0.01307900  0.03525900  0.73496700  1
  O  O54  1  0.01894200  0.30031900  0.72831200  1
  O  O55  1  0.87925200  0.80166700  0.62537500  1
  O  O56  1  0.51894200  0.69968100  0.77168800  1
  O  O57  1  0.01829700  0.68839700  0.98301500  1
  O  O58  1  0.31426000  0.51072800  0.12094200  1
  O  O59  1  0.79910400  0.21729500  0.17285000  1
  O  O60  1  0.50160800  0.69648600  0.95461200  1
  O  O61  1  0.98105800  0.69968100  0.27168800  1
  O  O62  1  0.97616000  0.89148300  0.07672400  1
  O  O63  1  0.99839200  0.69648600  0.45461200  1
  O  O64  1  0.48170300  0.68839700  0.48301500  1
  O  O65  1  0.31313900  0.93158500  0.93225900  1
  O  O66  1  0.02384000  0.10851700  0.92327600  1
  O  O67  1  0.98170300  0.31160300  0.01698500  1
  O  O68  1  0.29592100  0.08417500  0.05818300  1
  O  O69  1  0.61260800  0.50961000  0.70590600  1
  O  O70  1  0.51829700  0.31160300  0.51698500  1
  O  O71  1  0.48105800  0.30031900  0.22831200  1
