# generated using pymatgen
data_Na2U(WO5)2
_symmetry_space_group_name_H-M   'P 1'
_cell_length_a   6.82530300
_cell_length_b   7.66599320
_cell_length_c   8.63356395
_cell_angle_alpha   89.92126981
_cell_angle_beta   93.00736441
_cell_angle_gamma   106.55327304
_symmetry_Int_Tables_number   1
_chemical_formula_structural   Na2U(WO5)2
_chemical_formula_sum   'Na4 U2 W4 O20'
_cell_volume   432.36988429
_cell_formula_units_Z   2
loop_
 _symmetry_equiv_pos_site_id
 _symmetry_equiv_pos_as_xyz
  1  'x, y, z'
loop_
 _atom_site_type_symbol
 _atom_site_label
 _atom_site_symmetry_multiplicity
 _atom_site_fract_x
 _atom_site_fract_y
 _atom_site_fract_z
 _atom_site_occupancy
  Na  Na0  1  0.40099100  0.09518200  0.79933200  1
  Na  Na1  1  0.58667900  0.39373200  0.20800800  1
  Na  Na2  1  0.59900900  0.90481800  0.20066800  1
  Na  Na3  1  0.41332100  0.60626800  0.79199200  1
  U  U4  1  0.00622800  0.75077100  0.02191400  1
  U  U5  1  0.99377200  0.24922900  0.97808600  1
  W  W6  1  0.84242500  0.96002500  0.63773200  1
  W  W7  1  0.84020300  0.45802800  0.63682300  1
  W  W8  1  0.15757500  0.03997500  0.36226800  1
  W  W9  1  0.15979700  0.54197200  0.36317700  1
  O  O10  1  0.90761200  0.22648500  0.68706300  1
  O  O11  1  0.42146000  0.62487600  0.31745300  1
  O  O12  1  0.83155600  0.98456400  0.42353800  1
  O  O13  1  0.72444400  0.67865700  0.04205800  1
  O  O14  1  0.09238800  0.77351500  0.31293700  1
  O  O15  1  0.84002200  0.70885900  0.63591100  1
  O  O16  1  0.15997800  0.29114100  0.36408900  1
  O  O17  1  0.16879900  0.56852100  0.57779200  1
  O  O18  1  0.28626900  0.82106500  0.99544000  1
  O  O19  1  0.98130800  0.97303600  0.85241000  1
  O  O20  1  0.27555600  0.32134300  0.95794200  1
  O  O21  1  0.97625300  0.51571400  0.85239700  1
  O  O22  1  0.71373100  0.17893500  0.00456000  1
  O  O23  1  0.57854000  0.37512400  0.68254700  1
  O  O24  1  0.83120100  0.43147900  0.42220800  1
  O  O25  1  0.58245700  0.91029400  0.68869500  1
  O  O26  1  0.01869200  0.02696400  0.14759000  1
  O  O27  1  0.16844400  0.01543600  0.57646200  1
  O  O28  1  0.02374700  0.48428600  0.14760300  1
  O  O29  1  0.41754300  0.08970600  0.31130500  1
