# generated using pymatgen
data_KPuP2S7
_symmetry_space_group_name_H-M   'P 1'
_cell_length_a   12.44692700
_cell_length_b   9.07799600
_cell_length_c   9.78982907
_cell_angle_alpha   89.86036896
_cell_angle_beta   90.00000000
_cell_angle_gamma   90.00000000
_symmetry_Int_Tables_number   1
_chemical_formula_structural   KPuP2S7
_chemical_formula_sum   'K4 Pu4 P8 S28'
_cell_volume   1106.18037431
_cell_formula_units_Z   4
loop_
 _symmetry_equiv_pos_site_id
 _symmetry_equiv_pos_as_xyz
  1  'x, y, z'
loop_
 _atom_site_type_symbol
 _atom_site_label
 _atom_site_symmetry_multiplicity
 _atom_site_fract_x
 _atom_site_fract_y
 _atom_site_fract_z
 _atom_site_occupancy
  K  K0  1  0.30691800  0.13242900  0.39475600  1
  K  K1  1  0.80691800  0.36757100  0.60524400  1
  K  K2  1  0.69308200  0.86757100  0.60524400  1
  K  K3  1  0.19308200  0.63242900  0.39475600  1
  Pu  Pu4  1  0.36007100  0.89272200  0.85912100  1
  Pu  Pu5  1  0.86007100  0.60727800  0.14087900  1
  Pu  Pu6  1  0.63992900  0.10727800  0.14087900  1
  Pu  Pu7  1  0.13992900  0.39272200  0.85912100  1
  P  P8  1  0.46291200  0.80405800  0.18523800  1
  P  P9  1  0.96291200  0.69594200  0.81476200  1
  P  P10  1  0.53708800  0.19594200  0.81476200  1
  P  P11  1  0.03708800  0.30405800  0.18523800  1
  P  P12  1  0.10410200  0.02344000  0.72772500  1
  P  P13  1  0.60410200  0.47656000  0.27227500  1
  P  P14  1  0.89589800  0.97656000  0.27227500  1
  P  P15  1  0.39589800  0.52344000  0.72772500  1
  S  S16  1  0.55644800  0.82650600  0.01546100  1
  S  S17  1  0.05644800  0.67349400  0.98453900  1
  S  S18  1  0.44355200  0.17349400  0.98453900  1
  S  S19  1  0.94355200  0.32650600  0.01546100  1
  S  S20  1  0.47509200  0.06530900  0.66685100  1
  S  S21  1  0.97509200  0.43469100  0.33314900  1
  S  S22  1  0.52490800  0.93469100  0.33314900  1
  S  S23  1  0.02490800  0.56530900  0.66685100  1
  S  S24  1  0.30640600  0.85408200  0.14604000  1
  S  S25  1  0.80640600  0.64591800  0.85396000  1
  S  S26  1  0.69359400  0.14591800  0.85396000  1
  S  S27  1  0.19359400  0.35408200  0.14604000  1
  S  S28  1  0.44311800  0.71313100  0.63682600  1
  S  S29  1  0.94311800  0.78686900  0.36317400  1
  S  S30  1  0.55688200  0.28686900  0.36317400  1
  S  S31  1  0.05688200  0.21313100  0.63682600  1
  S  S32  1  0.17306000  0.07652600  0.91020100  1
  S  S33  1  0.67306000  0.42347400  0.08979900  1
  S  S34  1  0.82694000  0.92347400  0.08979900  1
  S  S35  1  0.32694000  0.57652600  0.91020100  1
  S  S36  1  0.21174800  0.89001200  0.63349800  1
  S  S37  1  0.71174800  0.60998800  0.36650200  1
  S  S38  1  0.78825200  0.10998800  0.36650200  1
  S  S39  1  0.28825200  0.39001200  0.63349800  1
  S  S40  1  0.94883000  0.92175900  0.75208500  1
  S  S41  1  0.44883000  0.57824100  0.24791500  1
  S  S42  1  0.05117000  0.07824100  0.24791500  1
  S  S43  1  0.55117000  0.42175900  0.75208500  1
