# generated using pymatgen
data_Ce2Zn17
_symmetry_space_group_name_H-M   'P 1'
_cell_length_a   6.84784539
_cell_length_b   6.84784539
_cell_length_c   6.84784534
_cell_angle_alpha   82.70786619
_cell_angle_beta   82.70786619
_cell_angle_gamma   82.70786660
_symmetry_Int_Tables_number   1
_chemical_formula_structural   Ce2Zn17
_chemical_formula_sum   'Ce2 Zn17'
_cell_volume   313.93205440
_cell_formula_units_Z   1
loop_
 _symmetry_equiv_pos_site_id
 _symmetry_equiv_pos_as_xyz
  1  'x, y, z'
loop_
 _atom_site_type_symbol
 _atom_site_label
 _atom_site_symmetry_multiplicity
 _atom_site_fract_x
 _atom_site_fract_y
 _atom_site_fract_z
 _atom_site_occupancy
  Ce  Ce0  1  0.33662400  0.33662400  0.33662400  1
  Ce  Ce1  1  0.66337600  0.66337600  0.66337600  1
  Zn  Zn2  1  0.09990700  0.09990700  0.09990700  1
  Zn  Zn3  1  0.90009300  0.90009300  0.90009300  1
  Zn  Zn4  1  0.00000000  0.00000000  0.50000000  1
  Zn  Zn5  1  0.00000000  0.50000000  0.00000000  1
  Zn  Zn6  1  0.50000000  0.00000000  0.00000000  1
  Zn  Zn7  1  0.29417800  0.70582200  0.00000000  1
  Zn  Zn8  1  0.70582200  0.00000000  0.29417800  1
  Zn  Zn9  1  0.00000000  0.29417800  0.70582200  1
  Zn  Zn10  1  0.70582200  0.29417800  0.00000000  1
  Zn  Zn11  1  0.29417800  0.00000000  0.70582200  1
  Zn  Zn12  1  0.00000000  0.70582200  0.29417800  1
  Zn  Zn13  1  0.16057000  0.64881200  0.64881200  1
  Zn  Zn14  1  0.64881200  0.64881200  0.16057000  1
  Zn  Zn15  1  0.64881200  0.16057000  0.64881200  1
  Zn  Zn16  1  0.35118800  0.83943000  0.35118800  1
  Zn  Zn17  1  0.83943000  0.35118800  0.35118800  1
  Zn  Zn18  1  0.35118800  0.35118800  0.83943000  1
