# generated using pymatgen
data_K6NbTlAs4
_symmetry_space_group_name_H-M   'P 1'
_cell_length_a   7.87855700
_cell_length_b   10.55825800
_cell_length_c   19.01032100
_cell_angle_alpha   90.00000000
_cell_angle_beta   90.00000000
_cell_angle_gamma   90.00000000
_symmetry_Int_Tables_number   1
_chemical_formula_structural   K6NbTlAs4
_chemical_formula_sum   'K24 Nb4 Tl4 As16'
_cell_volume   1581.35145239
_cell_formula_units_Z   4
loop_
 _symmetry_equiv_pos_site_id
 _symmetry_equiv_pos_as_xyz
  1  'x, y, z'
loop_
 _atom_site_type_symbol
 _atom_site_label
 _atom_site_symmetry_multiplicity
 _atom_site_fract_x
 _atom_site_fract_y
 _atom_site_fract_z
 _atom_site_occupancy
  K  K0  1  0.67891900  0.75000000  0.15237200  1
  K  K1  1  0.49372200  0.95409400  0.75684600  1
  K  K2  1  0.17891900  0.25000000  0.34762800  1
  K  K3  1  0.55584200  0.75000000  0.50282100  1
  K  K4  1  0.82108100  0.75000000  0.65237200  1
  K  K5  1  0.99372200  0.45409400  0.74315400  1
  K  K6  1  0.71948400  0.01892800  0.92129900  1
  K  K7  1  0.99372200  0.04590600  0.74315400  1
  K  K8  1  0.32108100  0.25000000  0.84762800  1
  K  K9  1  0.50627800  0.04590600  0.24315400  1
  K  K10  1  0.00627800  0.95409400  0.25684600  1
  K  K11  1  0.00627800  0.54590600  0.25684600  1
  K  K12  1  0.28051600  0.98107200  0.07870100  1
  K  K13  1  0.50627800  0.45409400  0.24315400  1
  K  K14  1  0.05584200  0.25000000  0.99717900  1
  K  K15  1  0.78051600  0.48107200  0.42129900  1
  K  K16  1  0.78051600  0.01892800  0.42129900  1
  K  K17  1  0.44415800  0.25000000  0.49717900  1
  K  K18  1  0.28051600  0.51892800  0.07870100  1
  K  K19  1  0.21948400  0.98107200  0.57870100  1
  K  K20  1  0.21948400  0.51892800  0.57870100  1
  K  K21  1  0.94415800  0.75000000  0.00282100  1
  K  K22  1  0.71948400  0.48107200  0.92129900  1
  K  K23  1  0.49372200  0.54590600  0.75684600  1
  Nb  Nb24  1  0.10502800  0.75000000  0.83036100  1
  Nb  Nb25  1  0.39497200  0.75000000  0.33036100  1
  Nb  Nb26  1  0.60502800  0.25000000  0.66963900  1
  Nb  Nb27  1  0.89497200  0.25000000  0.16963900  1
  Tl  Tl28  1  0.05981200  0.75000000  0.44889700  1
  Tl  Tl29  1  0.94018800  0.25000000  0.55110300  1
  Tl  Tl30  1  0.55981200  0.25000000  0.05110300  1
  Tl  Tl31  1  0.44018800  0.75000000  0.94889700  1
  As  As32  1  0.71243200  0.44418100  0.60217900  1
  As  As33  1  0.78756800  0.44418100  0.10217900  1
  As  As34  1  0.71243200  0.05581900  0.60217900  1
  As  As35  1  0.78932900  0.75000000  0.83027800  1
  As  As36  1  0.29467100  0.75000000  0.20509900  1
  As  As37  1  0.70532900  0.25000000  0.79490100  1
  As  As38  1  0.21243200  0.94418100  0.89782100  1
  As  As39  1  0.21243200  0.55581900  0.89782100  1
  As  As40  1  0.28756800  0.94418100  0.39782100  1
  As  As41  1  0.71067100  0.75000000  0.33027800  1
  As  As42  1  0.79467100  0.25000000  0.29490100  1
  As  As43  1  0.28756800  0.55581900  0.39782100  1
  As  As44  1  0.28932900  0.25000000  0.66972200  1
  As  As45  1  0.20532900  0.75000000  0.70509900  1
  As  As46  1  0.21067100  0.25000000  0.16972200  1
  As  As47  1  0.78756800  0.05581900  0.10217900  1
