# generated using pymatgen
data_Er2Au5F21
_symmetry_space_group_name_H-M   'P 1'
_cell_length_a   8.05867200
_cell_length_b   9.11018244
_cell_length_c   12.05770263
_cell_angle_alpha   89.17260342
_cell_angle_beta   88.84653217
_cell_angle_gamma   88.79388093
_symmetry_Int_Tables_number   1
_chemical_formula_structural   Er2Au5F21
_chemical_formula_sum   'Er4 Au10 F42'
_cell_volume   884.76549009
_cell_formula_units_Z   2
loop_
 _symmetry_equiv_pos_site_id
 _symmetry_equiv_pos_as_xyz
  1  'x, y, z'
loop_
 _atom_site_type_symbol
 _atom_site_label
 _atom_site_symmetry_multiplicity
 _atom_site_fract_x
 _atom_site_fract_y
 _atom_site_fract_z
 _atom_site_occupancy
  Er  Er0  1  0.67154400  0.31698900  0.49601400  1
  Er  Er1  1  0.32845600  0.68301100  0.50398600  1
  Er  Er2  1  0.66461200  0.18200400  0.00058000  1
  Er  Er3  1  0.33538800  0.81799600  0.99942000  1
  Au  Au4  1  0.17382000  0.27720800  0.59536000  1
  Au  Au5  1  0.82618000  0.72279200  0.40464000  1
  Au  Au6  1  0.55878900  0.50849700  0.79050400  1
  Au  Au7  1  0.44121100  0.49150300  0.20949600  1
  Au  Au8  1  0.83666000  0.77578900  0.09351700  1
  Au  Au9  1  0.16334000  0.22421100  0.90648300  1
  Au  Au10  1  0.44091400  0.01474200  0.29575600  1
  Au  Au11  1  0.55908600  0.98525800  0.70424400  1
  Au  Au12  1  0.01915300  0.24973600  0.24495100  1
  Au  Au13  1  0.98084700  0.75026400  0.75504900  1
  F  F14  1  0.68832500  0.40697000  0.67323700  1
  F  F15  1  0.31167500  0.59303000  0.32676300  1
  F  F16  1  0.85942300  0.25547100  0.12097200  1
  F  F17  1  0.14057700  0.74452900  0.87902800  1
  F  F18  1  0.70035300  0.39969800  0.89652000  1
  F  F19  1  0.29964700  0.60030200  0.10348000  1
  F  F20  1  0.14211500  0.41440500  0.83334400  1
  F  F21  1  0.85788500  0.58559500  0.16665600  1
  F  F22  1  0.66003400  0.10438200  0.81842600  1
  F  F23  1  0.33996600  0.89561800  0.18157400  1
  F  F24  1  0.50000000  0.00000000  0.00000000  1
  F  F25  1  0.52339600  0.13229300  0.41853700  1
  F  F26  1  0.47660400  0.86770700  0.58146300  1
  F  F27  1  0.93153600  0.27842600  0.57604200  1
  F  F28  1  0.06846400  0.72157400  0.42395800  1
  F  F29  1  0.50000000  0.50000000  0.50000000  1
  F  F30  1  0.18503500  0.24443100  0.35954600  1
  F  F31  1  0.81496500  0.75556900  0.64045400  1
  F  F32  1  0.84319100  0.22530700  0.36107000  1
  F  F33  1  0.15680900  0.77469300  0.63893000  1
  F  F34  1  0.82812700  0.51276200  0.45537500  1
  F  F35  1  0.17187300  0.48723800  0.54462500  1
  F  F36  1  0.70031200  0.09228300  0.59645300  1
  F  F37  1  0.29968800  0.90771700  0.40354700  1
  F  F38  1  0.16826400  0.07869400  0.65449600  1
  F  F39  1  0.83173600  0.92130600  0.34550400  1
  F  F40  1  0.58321400  0.73534500  0.38513200  1
  F  F41  1  0.41678600  0.26465500  0.61486800  1
  F  F42  1  0.58811100  0.38518200  0.31206100  1
  F  F43  1  0.41188900  0.61481800  0.68793900  1
  F  F44  1  0.44406900  0.61212100  0.91289200  1
  F  F45  1  0.55593100  0.38787900  0.08710800  1
  F  F46  1  0.17715700  0.02322400  0.97397500  1
  F  F47  1  0.82284300  0.97677600  0.02602500  1
  F  F48  1  0.41637000  0.88010000  0.81209400  1
  F  F49  1  0.58363000  0.11990000  0.18790600  1
  F  F50  1  0.92267500  0.19721100  0.89829100  1
  F  F51  1  0.07732500  0.80278900  0.10170900  1
  F  F52  1  0.40506900  0.25736800  0.91174100  1
  F  F53  1  0.59493100  0.74263200  0.08825900  1
  F  F54  1  0.80067800  0.72945000  0.86315400  1
  F  F55  1  0.19932200  0.27055000  0.13684600  1
