# generated using pymatgen
data_RbGa3S5
_symmetry_space_group_name_H-M   'P 1'
_cell_length_a   12.92120900
_cell_length_b   7.26111900
_cell_length_c   10.52263951
_cell_angle_alpha   76.57441661
_cell_angle_beta   90.00000000
_cell_angle_gamma   90.00000000
_symmetry_Int_Tables_number   1
_chemical_formula_structural   RbGa3S5
_chemical_formula_sum   'Rb4 Ga12 S20'
_cell_volume   960.28014002
_cell_formula_units_Z   4
loop_
 _symmetry_equiv_pos_site_id
 _symmetry_equiv_pos_as_xyz
  1  'x, y, z'
loop_
 _atom_site_type_symbol
 _atom_site_label
 _atom_site_symmetry_multiplicity
 _atom_site_fract_x
 _atom_site_fract_y
 _atom_site_fract_z
 _atom_site_occupancy
  Rb  Rb0  1  0.61296800  0.83424600  0.40165600  1
  Rb  Rb1  1  0.11296800  0.16575400  0.09834400  1
  Rb  Rb2  1  0.38703200  0.16575400  0.59834400  1
  Rb  Rb3  1  0.88703200  0.83424600  0.90165600  1
  Ga  Ga4  1  0.92034600  0.79757100  0.40089800  1
  Ga  Ga5  1  0.57965400  0.79757100  0.90089800  1
  Ga  Ga6  1  0.42034600  0.20242900  0.09910200  1
  Ga  Ga7  1  0.39730900  0.56002900  0.80440900  1
  Ga  Ga8  1  0.10269100  0.56002900  0.30440900  1
  Ga  Ga9  1  0.33681600  0.71070600  0.12400000  1
  Ga  Ga10  1  0.60269100  0.43997100  0.19559100  1
  Ga  Ga11  1  0.07965400  0.20242900  0.59910200  1
  Ga  Ga12  1  0.66318400  0.28929400  0.87600000  1
  Ga  Ga13  1  0.89730900  0.43997100  0.69559100  1
  Ga  Ga14  1  0.16318400  0.71070600  0.62400000  1
  Ga  Ga15  1  0.83681600  0.28929400  0.37600000  1
  S  S16  1  0.83191800  0.71881100  0.58916600  1
  S  S17  1  0.10217200  0.80987900  0.41014400  1
  S  S18  1  0.66808200  0.71881100  0.08916600  1
  S  S19  1  0.39782800  0.80987900  0.91014400  1
  S  S20  1  0.33191800  0.28118900  0.91083400  1
  S  S21  1  0.66471600  0.34524000  0.40162600  1
  S  S22  1  0.57911800  0.57073100  0.76883300  1
  S  S23  1  0.60217200  0.19012100  0.08985600  1
  S  S24  1  0.89782800  0.19012100  0.58985600  1
  S  S25  1  0.63479600  0.06472400  0.76027400  1
  S  S26  1  0.36520400  0.93527600  0.23972600  1
  S  S27  1  0.16808200  0.28118900  0.41083400  1
  S  S28  1  0.07911800  0.42926900  0.73116700  1
  S  S29  1  0.92088200  0.57073100  0.26883300  1
  S  S30  1  0.86520400  0.06472400  0.26027400  1
  S  S31  1  0.13479600  0.93527600  0.73972600  1
  S  S32  1  0.83528400  0.34524000  0.90162600  1
  S  S33  1  0.33528400  0.65476000  0.59837400  1
  S  S34  1  0.42088200  0.42926900  0.23116700  1
  S  S35  1  0.16471600  0.65476000  0.09837400  1
