# generated using pymatgen
data_Th2Al2C3
_symmetry_space_group_name_H-M   'P 1'
_cell_length_a   3.51338800
_cell_length_b   5.43262000
_cell_length_c   11.59014200
_cell_angle_alpha   90.00000000
_cell_angle_beta   90.00000000
_cell_angle_gamma   90.00000000
_symmetry_Int_Tables_number   1
_chemical_formula_structural   Th2Al2C3
_chemical_formula_sum   'Th4 Al4 C6'
_cell_volume   221.21990355
_cell_formula_units_Z   2
loop_
 _symmetry_equiv_pos_site_id
 _symmetry_equiv_pos_as_xyz
  1  'x, y, z'
loop_
 _atom_site_type_symbol
 _atom_site_label
 _atom_site_symmetry_multiplicity
 _atom_site_fract_x
 _atom_site_fract_y
 _atom_site_fract_z
 _atom_site_occupancy
  Th  Th0  1  0.50000000  0.82117700  0.14887300  1
  Th  Th1  1  0.00000000  0.32117700  0.35112700  1
  Th  Th2  1  0.00000000  0.67882300  0.64887300  1
  Th  Th3  1  0.50000000  0.17882300  0.85112700  1
  Al  Al4  1  0.50000000  0.81350900  0.41373400  1
  Al  Al5  1  0.00000000  0.31350900  0.08626600  1
  Al  Al6  1  0.50000000  0.18649100  0.58626600  1
  Al  Al7  1  0.00000000  0.68649100  0.91373400  1
  C  C8  1  0.00000000  0.17186600  0.68921200  1
  C  C9  1  0.50000000  0.67186600  0.81078800  1
  C  C10  1  0.00000000  0.82813400  0.31078800  1
  C  C11  1  0.00000000  0.00000000  0.00000000  1
  C  C12  1  0.50000000  0.32813400  0.18921200  1
  C  C13  1  0.50000000  0.50000000  0.50000000  1
