# generated using pymatgen
data_Sr(BiPd)2
_symmetry_space_group_name_H-M   'P 1'
_cell_length_a   4.84886300
_cell_length_b   4.95659700
_cell_length_c   10.94894663
_cell_angle_alpha   87.80609607
_cell_angle_beta   90.00000000
_cell_angle_gamma   90.00000000
_symmetry_Int_Tables_number   1
_chemical_formula_structural   Sr(BiPd)2
_chemical_formula_sum   'Sr2 Bi4 Pd4'
_cell_volume   262.95256139
_cell_formula_units_Z   2
loop_
 _symmetry_equiv_pos_site_id
 _symmetry_equiv_pos_as_xyz
  1  'x, y, z'
loop_
 _atom_site_type_symbol
 _atom_site_label
 _atom_site_symmetry_multiplicity
 _atom_site_fract_x
 _atom_site_fract_y
 _atom_site_fract_z
 _atom_site_occupancy
  Sr  Sr0  1  0.25000000  0.74023000  0.76332200  1
  Sr  Sr1  1  0.75000000  0.25977000  0.23667800  1
  Bi  Bi2  1  0.25000000  0.79108600  0.11952900  1
  Bi  Bi3  1  0.75000000  0.20891400  0.88047100  1
  Bi  Bi4  1  0.75000000  0.74993600  0.50160900  1
  Bi  Bi5  1  0.25000000  0.25006400  0.49839100  1
  Pd  Pd6  1  0.25000000  0.75819600  0.36960700  1
  Pd  Pd7  1  0.75000000  0.24180400  0.63039300  1
  Pd  Pd8  1  0.25000000  0.30928700  0.00003300  1
  Pd  Pd9  1  0.75000000  0.69071300  0.99996700  1
