# generated using pymatgen
data_RbNd(WO4)2
_symmetry_space_group_name_H-M   'P 1'
_cell_length_a   7.76133376
_cell_length_b   7.76133376
_cell_length_c   7.59294762
_cell_angle_alpha   62.74418263
_cell_angle_beta   62.74418263
_cell_angle_gamma   89.31264594
_symmetry_Int_Tables_number   1
_chemical_formula_structural   RbNd(WO4)2
_chemical_formula_sum   'Rb2 Nd2 W4 O16'
_cell_volume   349.96049280
_cell_formula_units_Z   2
loop_
 _symmetry_equiv_pos_site_id
 _symmetry_equiv_pos_as_xyz
  1  'x, y, z'
loop_
 _atom_site_type_symbol
 _atom_site_label
 _atom_site_symmetry_multiplicity
 _atom_site_fract_x
 _atom_site_fract_y
 _atom_site_fract_z
 _atom_site_occupancy
  Rb  Rb0  1  0.20175500  0.79824500  0.75000000  1
  Rb  Rb1  1  0.79824500  0.20175500  0.25000000  1
  Nd  Nd2  1  0.77525600  0.22474400  0.75000000  1
  Nd  Nd3  1  0.22474400  0.77525600  0.25000000  1
  W  W4  1  0.69712700  0.68732200  0.78069500  1
  W  W5  1  0.68732200  0.69712700  0.28069500  1
  W  W6  1  0.30287300  0.31267800  0.21930500  1
  W  W7  1  0.31267800  0.30287300  0.71930500  1
  O  O8  1  0.37198700  0.58701600  0.47209200  1
  O  O9  1  0.05203700  0.21760300  0.80836600  1
  O  O10  1  0.37883800  0.06768200  0.86543600  1
  O  O11  1  0.06768200  0.37883800  0.36543600  1
  O  O12  1  0.62337700  0.74833900  0.56058400  1
  O  O13  1  0.25166100  0.37662300  0.93941600  1
  O  O14  1  0.93231800  0.62116200  0.63456400  1
  O  O15  1  0.62801300  0.41298400  0.52790800  1
  O  O16  1  0.21760300  0.05203700  0.30836600  1
  O  O17  1  0.94796300  0.78239700  0.19163400  1
  O  O18  1  0.58701600  0.37198700  0.97209200  1
  O  O19  1  0.62116200  0.93231800  0.13456400  1
  O  O20  1  0.37662300  0.25166100  0.43941600  1
  O  O21  1  0.74833900  0.62337700  0.06058400  1
  O  O22  1  0.78239700  0.94796300  0.69163400  1
  O  O23  1  0.41298400  0.62801300  0.02790800  1
