# generated using pymatgen
data_CsHg2
_symmetry_space_group_name_H-M   'P 1'
_cell_length_a   7.15942473
_cell_length_b   7.15942473
_cell_length_c   7.15942473
_cell_angle_alpha   132.32732555
_cell_angle_beta   102.15901014
_cell_angle_gamma   96.66184485
_symmetry_Int_Tables_number   1
_chemical_formula_structural   CsHg2
_chemical_formula_sum   'Cs2 Hg4'
_cell_volume   247.76845248
_cell_formula_units_Z   2
loop_
 _symmetry_equiv_pos_site_id
 _symmetry_equiv_pos_as_xyz
  1  'x, y, z'
loop_
 _atom_site_type_symbol
 _atom_site_label
 _atom_site_symmetry_multiplicity
 _atom_site_fract_x
 _atom_site_fract_y
 _atom_site_fract_z
 _atom_site_occupancy
  Cs  Cs0  1  0.31001600  0.06001600  0.25000000  1
  Cs  Cs1  1  0.68998400  0.93998400  0.75000000  1
  Hg  Hg2  1  0.90609000  0.33410800  0.57198200  1
  Hg  Hg3  1  0.09391000  0.66589200  0.42801800  1
  Hg  Hg4  1  0.26212500  0.33410800  0.92801800  1
  Hg  Hg5  1  0.73787500  0.66589200  0.07198200  1
