# generated using pymatgen
data_Ba2I2O
_symmetry_space_group_name_H-M   'P 1'
_cell_length_a   8.76299366
_cell_length_b   8.76299366
_cell_length_c   8.76299366
_cell_angle_alpha   133.51306392
_cell_angle_beta   127.72961526
_cell_angle_gamma   72.51501371
_symmetry_Int_Tables_number   1
_chemical_formula_structural   Ba2I2O
_chemical_formula_sum   'Ba4 I4 O2'
_cell_volume   377.30028882
_cell_formula_units_Z   2
loop_
 _symmetry_equiv_pos_site_id
 _symmetry_equiv_pos_as_xyz
  1  'x, y, z'
loop_
 _atom_site_type_symbol
 _atom_site_label
 _atom_site_symmetry_multiplicity
 _atom_site_fract_x
 _atom_site_fract_y
 _atom_site_fract_z
 _atom_site_occupancy
  Ba  Ba0  1  0.23286000  0.40709700  0.82576300  1
  Ba  Ba1  1  0.76714000  0.59290300  0.17423700  1
  Ba  Ba2  1  0.41866600  0.09290300  0.32576300  1
  Ba  Ba3  1  0.58133400  0.90709700  0.67423700  1
  I  I4  1  0.69289100  0.34996500  0.34292600  1
  I  I5  1  0.00703900  0.84996500  0.15707400  1
  I  I6  1  0.99296100  0.15003500  0.84292600  1
  I  I7  1  0.30710900  0.65003500  0.65707400  1
  O  O8  1  0.50000000  0.25000000  0.75000000  1
  O  O9  1  0.50000000  0.75000000  0.25000000  1
