# generated using pymatgen
data_XeF6
_symmetry_space_group_name_H-M   'P 1'
_cell_length_a   8.88636100
_cell_length_b   15.15277600
_cell_length_c   15.26686705
_cell_angle_alpha   69.51743421
_cell_angle_beta   90.00000000
_cell_angle_gamma   90.00000000
_symmetry_Int_Tables_number   1
_chemical_formula_structural   XeF6
_chemical_formula_sum   'Xe16 F96'
_cell_volume   1925.76411743
_cell_formula_units_Z   16
loop_
 _symmetry_equiv_pos_site_id
 _symmetry_equiv_pos_as_xyz
  1  'x, y, z'
loop_
 _atom_site_type_symbol
 _atom_site_label
 _atom_site_symmetry_multiplicity
 _atom_site_fract_x
 _atom_site_fract_y
 _atom_site_fract_z
 _atom_site_occupancy
  Xe  Xe0  1  0.13186400  0.90602100  0.70581300  1
  Xe  Xe1  1  0.01573700  0.79175200  0.09578700  1
  Xe  Xe2  1  0.91017700  0.39126800  0.19969300  1
  Xe  Xe3  1  0.00188900  0.68909100  0.39324300  1
  Xe  Xe4  1  0.50188900  0.31090900  0.10675700  1
  Xe  Xe5  1  0.58982300  0.39126800  0.69969300  1
  Xe  Xe6  1  0.86813600  0.09397900  0.29418700  1
  Xe  Xe7  1  0.41017700  0.60873200  0.30030700  1
  Xe  Xe8  1  0.98426300  0.20824800  0.90421300  1
  Xe  Xe9  1  0.49811100  0.68909100  0.89324300  1
  Xe  Xe10  1  0.48426300  0.79175200  0.59578700  1
  Xe  Xe11  1  0.08982300  0.60873200  0.80030700  1
  Xe  Xe12  1  0.51573700  0.20824800  0.40421300  1
  Xe  Xe13  1  0.63186400  0.09397900  0.79418700  1
  Xe  Xe14  1  0.36813600  0.90602100  0.20581300  1
  Xe  Xe15  1  0.99811100  0.31090900  0.60675700  1
  F  F16  1  0.94592100  0.88780200  0.78359700  1
  F  F17  1  0.38467200  0.09936800  0.40752300  1
  F  F18  1  0.19517300  0.24379800  0.63788500  1
  F  F19  1  0.96235200  0.19627000  0.74857400  1
  F  F20  1  0.61027900  0.12077800  0.52055600  1
  F  F21  1  0.92195400  0.20857500  0.56452300  1
  F  F22  1  0.67288500  0.51823500  0.62666700  1
  F  F23  1  0.91284800  0.53009000  0.79798200  1
  F  F24  1  0.86013200  0.41401600  0.31735700  1
  F  F25  1  0.36013200  0.58598400  0.18264300  1
  F  F26  1  0.57804600  0.20857500  0.06452300  1
  F  F27  1  0.55352300  0.70874700  0.22119400  1
  F  F28  1  0.41284800  0.46991000  0.70201800  1
  F  F29  1  0.83032200  0.39115800  0.52933200  1
  F  F30  1  0.05352300  0.29125300  0.27880600  1
  F  F31  1  0.42195400  0.79142500  0.93547700  1
  F  F32  1  0.00626700  0.08705600  0.40035000  1
  F  F33  1  0.74507000  0.06544100  0.69463000  1
  F  F34  1  0.93050800  0.96093500  0.32687900  1
  F  F35  1  0.13298700  0.21815800  0.99674800  1
  F  F36  1  0.40740200  0.35491500  0.98128800  1
  F  F37  1  0.76238400  0.20225000  0.36273400  1
  F  F38  1  0.10713200  0.68291800  0.07067500  1
  F  F39  1  0.43050800  0.03906500  0.17312100  1
  F  F40  1  0.44647700  0.29125300  0.77880600  1
  F  F41  1  0.34329200  0.63148100  0.79166900  1
  F  F42  1  0.39213400  0.42210600  0.11773400  1
  F  F43  1  0.59259800  0.64508500  0.01871200  1
  F  F44  1  0.36701300  0.21815800  0.49674800  1
  F  F45  1  0.06949200  0.03906500  0.67312100  1
  F  F46  1  0.75493000  0.06544100  0.19463000  1
  F  F47  1  0.44592100  0.11219800  0.71640300  1
  F  F48  1  0.15670800  0.63148100  0.29166900  1
  F  F49  1  0.82711500  0.51823500  0.12666700  1
  F  F50  1  0.07804600  0.79142500  0.43547700  1
  F  F51  1  0.63298700  0.78184200  0.50325200  1
  F  F52  1  0.16967800  0.60884200  0.47066800  1
  F  F53  1  0.11532800  0.09936800  0.90752300  1
  F  F54  1  0.55407900  0.88780200  0.28359700  1
  F  F55  1  0.19861400  0.97280800  0.11931200  1
  F  F56  1  0.49373300  0.08705600  0.90035000  1
  F  F57  1  0.11027900  0.87922200  0.97944400  1
  F  F58  1  0.90740200  0.64508500  0.51871200  1
  F  F59  1  0.84329200  0.36851900  0.70833100  1
  F  F60  1  0.61532800  0.90063200  0.59247700  1
  F  F61  1  0.10786600  0.42210600  0.61773400  1
  F  F62  1  0.99549700  0.60570600  0.92073300  1
  F  F63  1  0.65670800  0.36851900  0.20833100  1
  F  F64  1  0.89286800  0.31708200  0.92932500  1
  F  F65  1  0.87205300  0.69728900  0.18127800  1
  F  F66  1  0.12794700  0.30271100  0.81872200  1
  F  F67  1  0.24507000  0.93455900  0.80537000  1
  F  F68  1  0.84218800  0.24136000  0.18357200  1
  F  F69  1  0.56949200  0.96093500  0.82687900  1
  F  F70  1  0.30138600  0.97280800  0.61931200  1
  F  F71  1  0.15781200  0.75864000  0.81642800  1
  F  F72  1  0.13986800  0.58598400  0.68264300  1
  F  F73  1  0.00450300  0.39429400  0.07926700  1
  F  F74  1  0.30482700  0.24379800  0.13788500  1
  F  F75  1  0.99373300  0.91294400  0.59965000  1
  F  F76  1  0.33032200  0.60884200  0.97066800  1
  F  F77  1  0.46235200  0.80373000  0.75142600  1
  F  F78  1  0.05407900  0.11219800  0.21640300  1
  F  F79  1  0.39286800  0.68291800  0.57067500  1
  F  F80  1  0.09259800  0.35491500  0.48128800  1
  F  F81  1  0.69861400  0.02719200  0.38068800  1
  F  F82  1  0.53764800  0.19627000  0.24857400  1
  F  F83  1  0.60713200  0.31708200  0.42932500  1
  F  F84  1  0.50450300  0.60570600  0.42073300  1
  F  F85  1  0.80138600  0.02719200  0.88068800  1
  F  F86  1  0.66967800  0.39115800  0.02933200  1
  F  F87  1  0.58715200  0.53009000  0.29798200  1
  F  F88  1  0.69517300  0.75620200  0.86211500  1
  F  F89  1  0.08715200  0.46991000  0.20201800  1
  F  F90  1  0.37205300  0.30271100  0.31872200  1
  F  F91  1  0.86701300  0.78184200  0.00325200  1
  F  F92  1  0.38972100  0.87922200  0.47944400  1
  F  F93  1  0.60786600  0.57789400  0.88226600  1
  F  F94  1  0.03764800  0.80373000  0.25142600  1
  F  F95  1  0.23761600  0.79775000  0.63726600  1
  F  F96  1  0.73761600  0.20225000  0.86273400  1
  F  F97  1  0.62794700  0.69728900  0.68127800  1
  F  F98  1  0.34218800  0.75864000  0.31642800  1
  F  F99  1  0.88467200  0.90063200  0.09247700  1
  F  F100  1  0.94647700  0.70874700  0.72119400  1
  F  F101  1  0.49549700  0.39429400  0.57926700  1
  F  F102  1  0.88972100  0.12077800  0.02055600  1
  F  F103  1  0.50626700  0.91294400  0.09965000  1
  F  F104  1  0.65781200  0.24136000  0.68357200  1
  F  F105  1  0.25493000  0.93455900  0.30537000  1
  F  F106  1  0.80482700  0.75620200  0.36211500  1
  F  F107  1  0.26238400  0.79775000  0.13726600  1
  F  F108  1  0.32711500  0.48176500  0.37333300  1
  F  F109  1  0.63986800  0.41401600  0.81735700  1
  F  F110  1  0.89213400  0.57789400  0.38226600  1
  F  F111  1  0.17288500  0.48176500  0.87333300  1
