# generated using pymatgen
data_BaP2PbO7
_symmetry_space_group_name_H-M   'P 1'
_cell_length_a   5.69885900
_cell_length_b   9.23096100
_cell_length_c   13.63657700
_cell_angle_alpha   90.00000000
_cell_angle_beta   90.00000000
_cell_angle_gamma   90.00000000
_symmetry_Int_Tables_number   1
_chemical_formula_structural   BaP2PbO7
_chemical_formula_sum   'Ba4 P8 Pb4 O28'
_cell_volume   717.36502202
_cell_formula_units_Z   4
loop_
 _symmetry_equiv_pos_site_id
 _symmetry_equiv_pos_as_xyz
  1  'x, y, z'
loop_
 _atom_site_type_symbol
 _atom_site_label
 _atom_site_symmetry_multiplicity
 _atom_site_fract_x
 _atom_site_fract_y
 _atom_site_fract_z
 _atom_site_occupancy
  Ba  Ba0  1  0.75000000  0.16272900  0.26149100  1
  Ba  Ba1  1  0.25000000  0.83727100  0.73850900  1
  Ba  Ba2  1  0.75000000  0.66272900  0.23850900  1
  Ba  Ba3  1  0.25000000  0.33727100  0.76149100  1
  P  P4  1  0.75000000  0.27833100  0.96600500  1
  P  P5  1  0.25000000  0.72166900  0.03399500  1
  P  P6  1  0.75000000  0.77833100  0.53399500  1
  P  P7  1  0.25000000  0.22166900  0.46600500  1
  P  P8  1  0.75000000  0.03959700  0.81970400  1
  P  P9  1  0.25000000  0.96040300  0.18029600  1
  P  P10  1  0.75000000  0.53959700  0.68029600  1
  P  P11  1  0.25000000  0.46040300  0.31970400  1
  Pb  Pb12  1  0.25000000  0.36339800  0.08666300  1
  Pb  Pb13  1  0.75000000  0.63660200  0.91333700  1
  Pb  Pb14  1  0.25000000  0.86339800  0.41333700  1
  Pb  Pb15  1  0.75000000  0.13660200  0.58666300  1
  O  O16  1  0.97379100  0.35236300  0.92679700  1
  O  O17  1  0.47379100  0.64763700  0.07320300  1
  O  O18  1  0.52620900  0.85236300  0.57320300  1
  O  O19  1  0.02620900  0.14763700  0.42679700  1
  O  O20  1  0.02620900  0.64763700  0.07320300  1
  O  O21  1  0.52620900  0.35236300  0.92679700  1
  O  O22  1  0.47379100  0.14763700  0.42679700  1
  O  O23  1  0.97379100  0.85236300  0.57320300  1
  O  O24  1  0.75000000  0.27111600  0.07791100  1
  O  O25  1  0.25000000  0.72888400  0.92208900  1
  O  O26  1  0.75000000  0.77111600  0.42208900  1
  O  O27  1  0.25000000  0.22888400  0.57791100  1
  O  O28  1  0.75000000  0.11032900  0.92897200  1
  O  O29  1  0.25000000  0.88967100  0.07102800  1
  O  O30  1  0.75000000  0.61032900  0.57102800  1
  O  O31  1  0.25000000  0.38967100  0.42897200  1
  O  O32  1  0.75000000  0.87558400  0.83610300  1
  O  O33  1  0.25000000  0.12441600  0.16389700  1
  O  O34  1  0.75000000  0.37558400  0.66389700  1
  O  O35  1  0.25000000  0.62441600  0.33610300  1
  O  O36  1  0.52810600  0.08929600  0.76486800  1
  O  O37  1  0.02810600  0.91070400  0.23513200  1
  O  O38  1  0.97189400  0.58929600  0.73513200  1
  O  O39  1  0.47189400  0.41070400  0.26486800  1
  O  O40  1  0.47189400  0.91070400  0.23513200  1
  O  O41  1  0.97189400  0.08929600  0.76486800  1
  O  O42  1  0.02810600  0.41070400  0.26486800  1
  O  O43  1  0.52810600  0.58929600  0.73513200  1
