# generated using pymatgen
data_Dy4CdRh
_symmetry_space_group_name_H-M   'P 1'
_cell_length_a   9.62495224
_cell_length_b   9.62495224
_cell_length_c   9.62495224
_cell_angle_alpha   60.00000000
_cell_angle_beta   60.00000000
_cell_angle_gamma   60.00000000
_symmetry_Int_Tables_number   1
_chemical_formula_structural   Dy4CdRh
_chemical_formula_sum   'Dy16 Cd4 Rh4'
_cell_volume   630.49370113
_cell_formula_units_Z   4
loop_
 _symmetry_equiv_pos_site_id
 _symmetry_equiv_pos_as_xyz
  1  'x, y, z'
loop_
 _atom_site_type_symbol
 _atom_site_label
 _atom_site_symmetry_multiplicity
 _atom_site_fract_x
 _atom_site_fract_y
 _atom_site_fract_z
 _atom_site_occupancy
  Dy  Dy0  1  0.56381400  0.56381400  0.93618600  1
  Dy  Dy1  1  0.15045900  0.54862400  0.15045900  1
  Dy  Dy2  1  0.68945400  0.31054600  0.31054600  1
  Dy  Dy3  1  0.93618600  0.56381400  0.56381400  1
  Dy  Dy4  1  0.93618600  0.56381400  0.93618600  1
  Dy  Dy5  1  0.68945400  0.68945400  0.31054600  1
  Dy  Dy6  1  0.56381400  0.93618600  0.93618600  1
  Dy  Dy7  1  0.15045900  0.15045900  0.15045900  1
  Dy  Dy8  1  0.31054600  0.68945400  0.31054600  1
  Dy  Dy9  1  0.54862400  0.15045900  0.15045900  1
  Dy  Dy10  1  0.31054600  0.31054600  0.68945400  1
  Dy  Dy11  1  0.31054600  0.68945400  0.68945400  1
  Dy  Dy12  1  0.15045900  0.15045900  0.54862400  1
  Dy  Dy13  1  0.68945400  0.31054600  0.68945400  1
  Dy  Dy14  1  0.93618600  0.93618600  0.56381400  1
  Dy  Dy15  1  0.56381400  0.93618600  0.56381400  1
  Cd  Cd16  1  0.91927900  0.91927900  0.91927900  1
  Cd  Cd17  1  0.24216200  0.91927900  0.91927900  1
  Cd  Cd18  1  0.91927900  0.91927900  0.24216200  1
  Cd  Cd19  1  0.91927900  0.24216200  0.91927900  1
  Rh  Rh20  1  0.35752200  0.35752200  0.92743300  1
  Rh  Rh21  1  0.35752200  0.35752200  0.35752200  1
  Rh  Rh22  1  0.92743300  0.35752200  0.35752200  1
  Rh  Rh23  1  0.35752200  0.92743300  0.35752200  1
