# generated using pymatgen
data_CaCu
_symmetry_space_group_name_H-M   'P 1'
_cell_length_a   4.26325500
_cell_length_b   5.80624800
_cell_length_c   38.38016700
_cell_angle_alpha   90.00000000
_cell_angle_beta   90.00000000
_cell_angle_gamma   90.00000000
_symmetry_Int_Tables_number   1
_chemical_formula_structural   CaCu
_chemical_formula_sum   'Ca20 Cu20'
_cell_volume   950.04407090
_cell_formula_units_Z   20
loop_
 _symmetry_equiv_pos_site_id
 _symmetry_equiv_pos_as_xyz
  1  'x, y, z'
loop_
 _atom_site_type_symbol
 _atom_site_label
 _atom_site_symmetry_multiplicity
 _atom_site_fract_x
 _atom_site_fract_y
 _atom_site_fract_z
 _atom_site_occupancy
  Ca  Ca0  1  0.75000000  0.37228400  0.53580200  1
  Ca  Ca1  1  0.25000000  0.37659600  0.76430900  1
  Ca  Ca2  1  0.25000000  0.62771600  0.46419800  1
  Ca  Ca3  1  0.75000000  0.37228800  0.13586200  1
  Ca  Ca4  1  0.25000000  0.62771200  0.86413800  1
  Ca  Ca5  1  0.25000000  0.12340400  0.26430900  1
  Ca  Ca6  1  0.75000000  0.12771200  0.63586200  1
  Ca  Ca7  1  0.25000000  0.87228400  0.96419800  1
  Ca  Ca8  1  0.25000000  0.62419400  0.66411900  1
  Ca  Ca9  1  0.75000000  0.62340400  0.23569100  1
  Ca  Ca10  1  0.25000000  0.87228800  0.36413800  1
  Ca  Ca11  1  0.75000000  0.87659600  0.73569100  1
  Ca  Ca12  1  0.75000000  0.37223800  0.93600500  1
  Ca  Ca13  1  0.25000000  0.87580600  0.16411900  1
  Ca  Ca14  1  0.75000000  0.12776200  0.43600500  1
  Ca  Ca15  1  0.75000000  0.12419400  0.83588100  1
  Ca  Ca16  1  0.25000000  0.62776200  0.06399500  1
  Ca  Ca17  1  0.75000000  0.12771600  0.03580200  1
  Ca  Ca18  1  0.75000000  0.37580600  0.33588100  1
  Ca  Ca19  1  0.25000000  0.87223800  0.56399500  1
  Cu  Cu20  1  0.25000000  0.39328500  0.59397100  1
  Cu  Cu21  1  0.25000000  0.85755200  0.79378500  1
  Cu  Cu22  1  0.25000000  0.64244800  0.29378500  1
  Cu  Cu23  1  0.75000000  0.85503200  0.30605600  1
  Cu  Cu24  1  0.75000000  0.89329800  0.10622900  1
  Cu  Cu25  1  0.75000000  0.35755200  0.70621500  1
  Cu  Cu26  1  0.25000000  0.10670200  0.89377100  1
  Cu  Cu27  1  0.75000000  0.60671500  0.40602900  1
  Cu  Cu28  1  0.75000000  0.89328500  0.90602900  1
  Cu  Cu29  1  0.75000000  0.60670200  0.60622900  1
  Cu  Cu30  1  0.75000000  0.60658800  0.00592300  1
  Cu  Cu31  1  0.25000000  0.10671500  0.09397100  1
  Cu  Cu32  1  0.75000000  0.64496800  0.80605600  1
  Cu  Cu33  1  0.25000000  0.10658800  0.49407700  1
  Cu  Cu34  1  0.75000000  0.89341200  0.50592300  1
  Cu  Cu35  1  0.25000000  0.39329800  0.39377100  1
  Cu  Cu36  1  0.25000000  0.39341200  0.99407700  1
  Cu  Cu37  1  0.25000000  0.14496800  0.69394400  1
  Cu  Cu38  1  0.25000000  0.35503200  0.19394400  1
  Cu  Cu39  1  0.75000000  0.14244800  0.20621500  1
