# generated using pymatgen
data_NaLa(GaSe2)4
_symmetry_space_group_name_H-M   'P 1'
_cell_length_a   15.22744884
_cell_length_b   12.56546816
_cell_length_c   12.52617592
_cell_angle_alpha   74.72734382
_cell_angle_beta   52.75383414
_cell_angle_gamma   52.51882204
_symmetry_Int_Tables_number   1
_chemical_formula_structural   NaLa(GaSe2)4
_chemical_formula_sum   'Na4 La4 Ga16 Se32'
_cell_volume   1493.02580309
_cell_formula_units_Z   4
loop_
 _symmetry_equiv_pos_site_id
 _symmetry_equiv_pos_as_xyz
  1  'x, y, z'
loop_
 _atom_site_type_symbol
 _atom_site_label
 _atom_site_symmetry_multiplicity
 _atom_site_fract_x
 _atom_site_fract_y
 _atom_site_fract_z
 _atom_site_occupancy
  Na  Na0  1  0.49691500  0.49691500  0.00308500  1
  Na  Na1  1  0.75308500  0.75308500  0.24691500  1
  Na  Na2  1  0.00308500  0.00308500  0.49691500  1
  Na  Na3  1  0.24691500  0.24691500  0.75308500  1
  La  La4  1  0.75000000  0.75000000  0.75000000  1
  La  La5  1  0.50000000  0.50000000  0.50000000  1
  La  La6  1  0.25000000  0.25000000  0.25000000  1
  La  La7  1  0.00000000  0.00000000  0.00000000  1
  Ga  Ga8  1  0.76151200  0.49290600  0.50905800  1
  Ga  Ga9  1  0.49290600  0.76151200  0.23652400  1
  Ga  Ga10  1  0.98557700  0.26352800  0.15433300  1
  Ga  Ga11  1  0.50905800  0.23652400  0.76151200  1
  Ga  Ga12  1  0.26442300  0.98647200  0.09566700  1
  Ga  Ga13  1  0.23652400  0.50905800  0.49290600  1
  Ga  Ga14  1  0.65343900  0.09566700  0.98647200  1
  Ga  Ga15  1  0.59656100  0.15433300  0.26352800  1
  Ga  Ga16  1  0.15433300  0.59656100  0.98557700  1
  Ga  Ga17  1  0.48848800  0.75709400  0.74094200  1
  Ga  Ga18  1  0.09566700  0.65343900  0.26442300  1
  Ga  Ga19  1  0.01347600  0.74094200  0.75709400  1
  Ga  Ga20  1  0.26352800  0.98557700  0.59656100  1
  Ga  Ga21  1  0.74094200  0.01347600  0.48848800  1
  Ga  Ga22  1  0.75709400  0.48848800  0.01347600  1
  Ga  Ga23  1  0.98647200  0.26442300  0.65343900  1
  Se  Se24  1  0.77689000  0.47603200  0.30589300  1
  Se  Se25  1  0.53565900  0.54213500  0.21769900  1
  Se  Se26  1  0.04252700  0.53449300  0.21093600  1
  Se  Se27  1  0.54213500  0.53565900  0.70450700  1
  Se  Se28  1  0.71550700  0.20747300  0.03795700  1
  Se  Se29  1  0.97165900  0.28217500  0.46367400  1
  Se  Se30  1  0.44118400  0.30589300  0.47603200  1
  Se  Se31  1  0.20747300  0.71550700  0.03906400  1
  Se  Se32  1  0.28217500  0.97165900  0.28249200  1
  Se  Se33  1  0.54549300  0.03230100  0.70786500  1
  Se  Se34  1  0.70786500  0.71434100  0.54549300  1
  Se  Se35  1  0.77396800  0.47311000  0.80881600  1
  Se  Se36  1  0.78632600  0.96750800  0.27834100  1
  Se  Se37  1  0.46367400  0.28249200  0.97165900  1
  Se  Se38  1  0.21204300  0.21093600  0.53449300  1
  Se  Se39  1  0.70450700  0.21769900  0.54213500  1
  Se  Se40  1  0.80881600  0.94410700  0.77396800  1
  Se  Se41  1  0.96782500  0.27834100  0.96750800  1
  Se  Se42  1  0.47311000  0.77396800  0.94410700  1
  Se  Se43  1  0.47603200  0.77689000  0.44118400  1
  Se  Se44  1  0.21769900  0.70450700  0.53565900  1
  Se  Se45  1  0.71434100  0.70786500  0.03230100  1
  Se  Se46  1  0.30589300  0.44118400  0.77689000  1
  Se  Se47  1  0.96750800  0.78632600  0.96782500  1
  Se  Se48  1  0.27834100  0.96782500  0.78632600  1
  Se  Se49  1  0.03795700  0.03906400  0.71550700  1
  Se  Se50  1  0.03230100  0.54549300  0.71434100  1
  Se  Se51  1  0.21093600  0.21204300  0.04252700  1
  Se  Se52  1  0.94410700  0.80881600  0.47311000  1
  Se  Se53  1  0.53449300  0.04252700  0.21204300  1
  Se  Se54  1  0.28249200  0.46367400  0.28217500  1
  Se  Se55  1  0.03906400  0.03795700  0.20747300  1
