# generated using pymatgen
data_AgBF5
_symmetry_space_group_name_H-M   'P 1'
_cell_length_a   6.83424000
_cell_length_b   6.83424000
_cell_length_c   4.11244700
_cell_angle_alpha   90.00000000
_cell_angle_beta   90.00000000
_cell_angle_gamma   90.00000000
_symmetry_Int_Tables_number   1
_chemical_formula_structural   AgBF5
_chemical_formula_sum   'Ag2 B2 F10'
_cell_volume   192.07938914
_cell_formula_units_Z   2
loop_
 _symmetry_equiv_pos_site_id
 _symmetry_equiv_pos_as_xyz
  1  'x, y, z'
loop_
 _atom_site_type_symbol
 _atom_site_label
 _atom_site_symmetry_multiplicity
 _atom_site_fract_x
 _atom_site_fract_y
 _atom_site_fract_z
 _atom_site_occupancy
  Ag  Ag0  1  0.50000000  0.00000000  0.82031500  1
  Ag  Ag1  1  0.00000000  0.50000000  0.17968500  1
  B  B2  1  0.00000000  0.00000000  0.00000000  1
  B  B3  1  0.50000000  0.50000000  0.00000000  1
  F  F4  1  0.00000000  0.50000000  0.68011400  1
  F  F5  1  0.50000000  0.00000000  0.31988600  1
  F  F6  1  0.56489400  0.65727500  0.80221500  1
  F  F7  1  0.84272500  0.06489400  0.80221500  1
  F  F8  1  0.34272500  0.56489400  0.19778500  1
  F  F9  1  0.06489400  0.15727500  0.19778500  1
  F  F10  1  0.93510600  0.84272500  0.19778500  1
  F  F11  1  0.65727500  0.43510600  0.19778500  1
  F  F12  1  0.15727500  0.93510600  0.80221500  1
  F  F13  1  0.43510600  0.34272500  0.80221500  1
