# generated using pymatgen
data_Na6Mg(SO4)4
_symmetry_space_group_name_H-M   'P 1'
_cell_length_a   9.28911600
_cell_length_b   8.31165600
_cell_length_c   9.91585211
_cell_angle_alpha   66.42221772
_cell_angle_beta   90.00000000
_cell_angle_gamma   90.00000000
_symmetry_Int_Tables_number   1
_chemical_formula_structural   Na6Mg(SO4)4
_chemical_formula_sum   'Na12 Mg2 S8 O32'
_cell_volume   701.67005270
_cell_formula_units_Z   2
loop_
 _symmetry_equiv_pos_site_id
 _symmetry_equiv_pos_as_xyz
  1  'x, y, z'
loop_
 _atom_site_type_symbol
 _atom_site_label
 _atom_site_symmetry_multiplicity
 _atom_site_fract_x
 _atom_site_fract_y
 _atom_site_fract_z
 _atom_site_occupancy
  Na  Na0  1  0.13716200  0.68312900  0.88906100  1
  Na  Na1  1  0.15109500  0.90997400  0.44764500  1
  Na  Na2  1  0.34890500  0.40997400  0.44764500  1
  Na  Na3  1  0.84890500  0.09002600  0.55235500  1
  Na  Na4  1  0.01508500  0.53280400  0.31154200  1
  Na  Na5  1  0.36283800  0.18312900  0.88906100  1
  Na  Na6  1  0.86283800  0.31687100  0.11093900  1
  Na  Na7  1  0.98491500  0.46719600  0.68845800  1
  Na  Na8  1  0.63716200  0.81687100  0.11093900  1
  Na  Na9  1  0.48491500  0.03280400  0.31154200  1
  Na  Na10  1  0.51508500  0.96719600  0.68845800  1
  Na  Na11  1  0.65109500  0.59002600  0.55235500  1
  Mg  Mg12  1  0.00000000  0.00000000  0.00000000  1
  Mg  Mg13  1  0.50000000  0.50000000  0.00000000  1
  S  S14  1  0.69426500  0.22464300  0.86021400  1
  S  S15  1  0.80573500  0.72464300  0.86021400  1
  S  S16  1  0.35277700  0.65331400  0.66204500  1
  S  S17  1  0.30573500  0.77535700  0.13978600  1
  S  S18  1  0.85277700  0.84668600  0.33795500  1
  S  S19  1  0.19426500  0.27535700  0.13978600  1
  S  S20  1  0.64722300  0.34668600  0.33795500  1
  S  S21  1  0.14722300  0.15331400  0.66204500  1
  O  O22  1  0.10309300  0.31864200  0.53715100  1
  O  O23  1  0.74478400  0.82056200  0.71095000  1
  O  O24  1  0.39690700  0.81864200  0.53715100  1
  O  O25  1  0.60309300  0.18135800  0.46284900  1
  O  O26  1  0.58406200  0.50127800  0.35426400  1
  O  O27  1  0.75521600  0.32056200  0.71095000  1
  O  O28  1  0.40627000  0.66672700  0.80097600  1
  O  O29  1  0.89534200  0.84278400  0.90580300  1
  O  O30  1  0.10465800  0.15721600  0.09419700  1
  O  O31  1  0.60465800  0.34278400  0.90580300  1
  O  O32  1  0.39534200  0.65721600  0.09419700  1
  O  O33  1  0.89690700  0.68135800  0.46284900  1
  O  O34  1  0.59373000  0.33327300  0.19902400  1
  O  O35  1  0.25521600  0.17943800  0.28905000  1
  O  O36  1  0.81532600  0.15566500  0.96931000  1
  O  O37  1  0.41593800  0.49872200  0.64573600  1
  O  O38  1  0.08406200  0.99872200  0.64573600  1
  O  O39  1  0.09373000  0.16672700  0.80097600  1
  O  O40  1  0.89677600  0.57519200  0.86476200  1
  O  O41  1  0.30713300  0.14050000  0.66903000  1
  O  O42  1  0.60322400  0.07519200  0.86476200  1
  O  O43  1  0.19286700  0.64050000  0.66903000  1
  O  O44  1  0.91593800  0.00127800  0.35426400  1
  O  O45  1  0.24478400  0.67943800  0.28905000  1
  O  O46  1  0.90627000  0.83327300  0.19902400  1
  O  O47  1  0.10322400  0.42480800  0.13523800  1
  O  O48  1  0.69286700  0.85950000  0.33097000  1
  O  O49  1  0.18467400  0.84433500  0.03069000  1
  O  O50  1  0.31532600  0.34433500  0.03069000  1
  O  O51  1  0.39677600  0.92480800  0.13523800  1
  O  O52  1  0.68467400  0.65566500  0.96931000  1
  O  O53  1  0.80713300  0.35950000  0.33097000  1
