# generated using pymatgen
data_K2MoAs2O9
_symmetry_space_group_name_H-M   'P 1'
_cell_length_a   14.20448600
_cell_length_b   7.60548400
_cell_length_c   9.71673490
_cell_angle_alpha   63.89839316
_cell_angle_beta   90.00000000
_cell_angle_gamma   90.00000000
_symmetry_Int_Tables_number   1
_chemical_formula_structural   K2MoAs2O9
_chemical_formula_sum   'K8 Mo4 As8 O36'
_cell_volume   942.66295431
_cell_formula_units_Z   4
loop_
 _symmetry_equiv_pos_site_id
 _symmetry_equiv_pos_as_xyz
  1  'x, y, z'
loop_
 _atom_site_type_symbol
 _atom_site_label
 _atom_site_symmetry_multiplicity
 _atom_site_fract_x
 _atom_site_fract_y
 _atom_site_fract_z
 _atom_site_occupancy
  K  K0  1  0.95225300  0.66626000  0.62481100  1
  K  K1  1  0.45225300  0.33374000  0.87518900  1
  K  K2  1  0.91067800  0.04202300  0.13963100  1
  K  K3  1  0.04774700  0.33374000  0.37518900  1
  K  K4  1  0.54774700  0.66626000  0.12481100  1
  K  K5  1  0.08932200  0.95797700  0.86036900  1
  K  K6  1  0.41067800  0.95797700  0.36036900  1
  K  K7  1  0.58932200  0.04202300  0.63963100  1
  Mo  Mo8  1  0.78334400  0.42364900  0.33076200  1
  Mo  Mo9  1  0.28334400  0.57635100  0.16923800  1
  Mo  Mo10  1  0.21665600  0.57635100  0.66923800  1
  Mo  Mo11  1  0.71665600  0.42364900  0.83076200  1
  As  As12  1  0.34147600  0.86955200  0.80440800  1
  As  As13  1  0.33445300  0.28686900  0.53237400  1
  As  As14  1  0.84147600  0.13044800  0.69559200  1
  As  As15  1  0.16554700  0.28686900  0.03237400  1
  As  As16  1  0.83445300  0.71313100  0.96762600  1
  As  As17  1  0.15852400  0.86955200  0.30440800  1
  As  As18  1  0.65852400  0.13044800  0.19559200  1
  As  As19  1  0.66554700  0.71313100  0.46762600  1
  O  O20  1  0.63642100  0.55029100  0.89063300  1
  O  O21  1  0.14025500  0.70229600  0.73559300  1
  O  O22  1  0.76245000  0.20488100  0.54186000  1
  O  O23  1  0.33946400  0.44714100  0.61250100  1
  O  O24  1  0.35974500  0.70229600  0.23559300  1
  O  O25  1  0.06359800  0.21970400  0.98581500  1
  O  O26  1  0.83946400  0.55285900  0.88749900  1
  O  O27  1  0.65626600  0.28919700  0.27701300  1
  O  O28  1  0.24623300  0.35841100  0.88141100  1
  O  O29  1  0.23755000  0.79511900  0.45814000  1
  O  O30  1  0.74623300  0.64158900  0.61858900  1
  O  O31  1  0.43640200  0.21970400  0.48581500  1
  O  O32  1  0.16053600  0.44714100  0.11250100  1
  O  O33  1  0.72670200  0.92320600  0.32532100  1
  O  O34  1  0.34373400  0.71080300  0.72298700  1
  O  O35  1  0.84373400  0.28919700  0.77701300  1
  O  O36  1  0.05450100  0.93210500  0.35067100  1
  O  O37  1  0.66053600  0.55285900  0.38749900  1
  O  O38  1  0.13642100  0.44970900  0.60936700  1
  O  O39  1  0.93640200  0.78029600  0.01418500  1
  O  O40  1  0.22670200  0.07679400  0.17467900  1
  O  O41  1  0.26245000  0.79511900  0.95814000  1
  O  O42  1  0.94549900  0.06789500  0.64932900  1
  O  O43  1  0.73755000  0.20488100  0.04186000  1
  O  O44  1  0.64025500  0.29770400  0.76440700  1
  O  O45  1  0.25376700  0.35841100  0.38141100  1
  O  O46  1  0.77329800  0.92320600  0.82532100  1
  O  O47  1  0.55450100  0.06789500  0.14932900  1
  O  O48  1  0.56359800  0.78029600  0.51418500  1
  O  O49  1  0.86357900  0.55029100  0.39063300  1
  O  O50  1  0.75376700  0.64158900  0.11858900  1
  O  O51  1  0.36357900  0.44970900  0.10936700  1
  O  O52  1  0.15626600  0.71080300  0.22298700  1
  O  O53  1  0.27329800  0.07679400  0.67467900  1
  O  O54  1  0.85974500  0.29770400  0.26440700  1
  O  O55  1  0.44549900  0.93210500  0.85067100  1
