# generated using pymatgen
data_K2BeF4
_symmetry_space_group_name_H-M   'P 1'
_cell_length_a   5.78145000
_cell_length_b   7.40387800
_cell_length_c   10.06651200
_cell_angle_alpha   90.00000000
_cell_angle_beta   90.00000000
_cell_angle_gamma   90.00000000
_symmetry_Int_Tables_number   1
_chemical_formula_structural   K2BeF4
_chemical_formula_sum   'K8 Be4 F16'
_cell_volume   430.89856080
_cell_formula_units_Z   4
loop_
 _symmetry_equiv_pos_site_id
 _symmetry_equiv_pos_as_xyz
  1  'x, y, z'
loop_
 _atom_site_type_symbol
 _atom_site_label
 _atom_site_symmetry_multiplicity
 _atom_site_fract_x
 _atom_site_fract_y
 _atom_site_fract_z
 _atom_site_occupancy
  K  K0  1  0.25000000  0.99089300  0.30660900  1
  K  K1  1  0.75000000  0.00910700  0.69339100  1
  K  K2  1  0.75000000  0.50910700  0.80660900  1
  K  K3  1  0.25000000  0.49089300  0.19339100  1
  K  K4  1  0.25000000  0.16017600  0.91214400  1
  K  K5  1  0.75000000  0.83982400  0.08785600  1
  K  K6  1  0.75000000  0.33982400  0.41214400  1
  K  K7  1  0.25000000  0.66017600  0.58785600  1
  Be  Be8  1  0.25000000  0.23145800  0.58081200  1
  Be  Be9  1  0.75000000  0.76854200  0.41918800  1
  Be  Be10  1  0.75000000  0.26854200  0.08081200  1
  Be  Be11  1  0.25000000  0.73145800  0.91918800  1
  F  F12  1  0.02937300  0.30344600  0.65443500  1
  F  F13  1  0.52937300  0.69655400  0.34556500  1
  F  F14  1  0.52937300  0.19655400  0.15443500  1
  F  F15  1  0.02937300  0.80344600  0.84556500  1
  F  F16  1  0.47062700  0.80344600  0.84556500  1
  F  F17  1  0.97062700  0.19655400  0.15443500  1
  F  F18  1  0.97062700  0.69655400  0.34556500  1
  F  F19  1  0.47062700  0.30344600  0.65443500  1
  F  F20  1  0.25000000  0.52146000  0.91955400  1
  F  F21  1  0.75000000  0.47854000  0.08044600  1
  F  F22  1  0.75000000  0.97854000  0.41955400  1
  F  F23  1  0.25000000  0.02146000  0.58044600  1
  F  F24  1  0.25000000  0.81090100  0.06490400  1
  F  F25  1  0.75000000  0.18909900  0.93509600  1
  F  F26  1  0.75000000  0.68909900  0.56490400  1
  F  F27  1  0.25000000  0.31090100  0.43509600  1
