# generated using pymatgen
data_SrCo2Te3(ClO4)2
_symmetry_space_group_name_H-M   'P 1'
_cell_length_a   9.17720500
_cell_length_b   6.70654800
_cell_length_c   19.46544207
_cell_angle_alpha   74.18326752
_cell_angle_beta   90.00000000
_cell_angle_gamma   90.00000000
_symmetry_Int_Tables_number   1
_chemical_formula_structural   SrCo2Te3(ClO4)2
_chemical_formula_sum   'Sr4 Co8 Te12 Cl8 O32'
_cell_volume   1152.68676374
_cell_formula_units_Z   4
loop_
 _symmetry_equiv_pos_site_id
 _symmetry_equiv_pos_as_xyz
  1  'x, y, z'
loop_
 _atom_site_type_symbol
 _atom_site_label
 _atom_site_symmetry_multiplicity
 _atom_site_fract_x
 _atom_site_fract_y
 _atom_site_fract_z
 _atom_site_occupancy
  Sr  Sr0  1  0.61945700  0.51434300  0.22804400  1
  Sr  Sr1  1  0.88054300  0.51434300  0.72804400  1
  Sr  Sr2  1  0.11945700  0.48565700  0.27195600  1
  Sr  Sr3  1  0.38054300  0.48565700  0.77195600  1
  Co  Co4  1  0.45672500  0.80971300  0.31939200  1
  Co  Co5  1  0.75551500  0.06261900  0.32377700  1
  Co  Co6  1  0.95672500  0.19028700  0.18060800  1
  Co  Co7  1  0.74448500  0.06261900  0.82377700  1
  Co  Co8  1  0.25551500  0.93738100  0.17622300  1
  Co  Co9  1  0.04327500  0.80971300  0.81939200  1
  Co  Co10  1  0.24448500  0.93738100  0.67622300  1
  Co  Co11  1  0.54327500  0.19028700  0.68060800  1
  Te  Te12  1  0.92668900  0.77727100  0.11185300  1
  Te  Te13  1  0.57331100  0.77727100  0.61185300  1
  Te  Te14  1  0.07331100  0.22272900  0.88814700  1
  Te  Te15  1  0.60773900  0.09095400  0.13732400  1
  Te  Te16  1  0.10773900  0.90904600  0.36267600  1
  Te  Te17  1  0.39226100  0.90904600  0.86267600  1
  Te  Te18  1  0.29001300  0.45135100  0.10577500  1
  Te  Te19  1  0.42668900  0.22272900  0.38814700  1
  Te  Te20  1  0.70998700  0.54864900  0.89422500  1
  Te  Te21  1  0.20998700  0.45135100  0.60577500  1
  Te  Te22  1  0.79001300  0.54864900  0.39422500  1
  Te  Te23  1  0.89226100  0.09095400  0.63732400  1
  Cl  Cl24  1  0.10407800  0.74646900  0.94767800  1
  Cl  Cl25  1  0.89592200  0.25353100  0.05232200  1
  Cl  Cl26  1  0.39592200  0.74646900  0.44767800  1
  Cl  Cl27  1  0.31925400  0.09048700  0.04769900  1
  Cl  Cl28  1  0.68074600  0.90951300  0.95230100  1
  Cl  Cl29  1  0.60407800  0.25353100  0.55232200  1
  Cl  Cl30  1  0.81925400  0.90951300  0.45230100  1
  Cl  Cl31  1  0.18074600  0.09048700  0.54769900  1
  O  O32  1  0.73808500  0.35828900  0.83872000  1
  O  O33  1  0.42862300  0.49366300  0.32391000  1
  O  O34  1  0.23253600  0.83706600  0.29376300  1
  O  O35  1  0.01643100  0.37189600  0.64095000  1
  O  O36  1  0.26191500  0.64171100  0.16128000  1
  O  O37  1  0.73090700  0.81827400  0.14129800  1
  O  O38  1  0.23090700  0.18172600  0.35870200  1
  O  O39  1  0.30974800  0.23721900  0.67529800  1
  O  O40  1  0.26746400  0.83706600  0.79376300  1
  O  O41  1  0.97918400  0.09266500  0.29693600  1
  O  O42  1  0.92862300  0.50633700  0.17609000  1
  O  O43  1  0.76909300  0.81827400  0.64129800  1
  O  O44  1  0.76191500  0.35828900  0.33872000  1
  O  O45  1  0.26909300  0.18172600  0.85870200  1
  O  O46  1  0.52081600  0.09266500  0.79693600  1
  O  O47  1  0.19025200  0.23721900  0.17529800  1
  O  O48  1  0.52277100  0.10351000  0.32211000  1
  O  O49  1  0.80974800  0.76278100  0.82470200  1
  O  O50  1  0.23808500  0.64171100  0.66128000  1
  O  O51  1  0.51643100  0.62810400  0.85905000  1
  O  O52  1  0.07137700  0.49366300  0.82391000  1
  O  O53  1  0.48356900  0.37189600  0.14095000  1
  O  O54  1  0.97722900  0.10351000  0.82211000  1
  O  O55  1  0.02081600  0.90733500  0.70306400  1
  O  O56  1  0.98356900  0.62810400  0.35905000  1
  O  O57  1  0.73253600  0.16293400  0.20623700  1
  O  O58  1  0.02277100  0.89649000  0.17789000  1
  O  O59  1  0.69025200  0.76278100  0.32470200  1
  O  O60  1  0.47722900  0.89649000  0.67789000  1
  O  O61  1  0.76746400  0.16293400  0.70623700  1
  O  O62  1  0.47918400  0.90733500  0.20306400  1
  O  O63  1  0.57137700  0.50633700  0.67609000  1
