# generated using pymatgen
data_Cs2GeO3
_symmetry_space_group_name_H-M   'P 1'
_cell_length_a   14.35698900
_cell_length_b   7.06088200
_cell_length_c   17.74035353
_cell_angle_alpha   72.29595882
_cell_angle_beta   90.00000000
_cell_angle_gamma   90.00000000
_symmetry_Int_Tables_number   1
_chemical_formula_structural   Cs2GeO3
_chemical_formula_sum   'Cs24 Ge12 O36'
_cell_volume   1713.22112274
_cell_formula_units_Z   12
loop_
 _symmetry_equiv_pos_site_id
 _symmetry_equiv_pos_as_xyz
  1  'x, y, z'
loop_
 _atom_site_type_symbol
 _atom_site_label
 _atom_site_symmetry_multiplicity
 _atom_site_fract_x
 _atom_site_fract_y
 _atom_site_fract_z
 _atom_site_occupancy
  Cs  Cs0  1  0.08701400  0.72290100  0.53057200  1
  Cs  Cs1  1  0.49107900  0.65355400  0.28029700  1
  Cs  Cs2  1  0.69559200  0.12402200  0.19448000  1
  Cs  Cs3  1  0.88068900  0.87955100  0.36312700  1
  Cs  Cs4  1  0.00892100  0.65355400  0.78029700  1
  Cs  Cs5  1  0.61931100  0.87955100  0.86312700  1
  Cs  Cs6  1  0.50892100  0.34644600  0.71970300  1
  Cs  Cs7  1  0.38068900  0.12044900  0.13687300  1
  Cs  Cs8  1  0.30440800  0.87597800  0.80552000  1
  Cs  Cs9  1  0.11931100  0.12044900  0.63687300  1
  Cs  Cs10  1  0.58701400  0.27709900  0.96942800  1
  Cs  Cs11  1  0.61104100  0.00160100  0.41536700  1
  Cs  Cs12  1  0.41298600  0.72290100  0.03057200  1
  Cs  Cs13  1  0.34847200  0.55729000  0.49257400  1
  Cs  Cs14  1  0.65152800  0.44271000  0.50742600  1
  Cs  Cs15  1  0.11104100  0.99839900  0.08463300  1
  Cs  Cs16  1  0.19559200  0.87597800  0.30552000  1
  Cs  Cs17  1  0.88895900  0.00160100  0.91536700  1
  Cs  Cs18  1  0.80440800  0.12402200  0.69448000  1
  Cs  Cs19  1  0.91298600  0.27709900  0.46942800  1
  Cs  Cs20  1  0.84847200  0.44271000  0.00742600  1
  Cs  Cs21  1  0.38895900  0.99839900  0.58463300  1
  Cs  Cs22  1  0.15152800  0.55729000  0.99257400  1
  Cs  Cs23  1  0.99107900  0.34644600  0.21970300  1
  Ge  Ge24  1  0.75334600  0.54153900  0.78200200  1
  Ge  Ge25  1  0.65340000  0.72781800  0.10262200  1
  Ge  Ge26  1  0.34660000  0.27218200  0.89737800  1
  Ge  Ge27  1  0.84660000  0.72781800  0.60262200  1
  Ge  Ge28  1  0.15340000  0.27218200  0.39737800  1
  Ge  Ge29  1  0.87405400  0.83326500  0.13399600  1
  Ge  Ge30  1  0.37405400  0.16673500  0.36600400  1
  Ge  Ge31  1  0.25334600  0.45846100  0.71799800  1
  Ge  Ge32  1  0.12594600  0.16673500  0.86600400  1
  Ge  Ge33  1  0.24665400  0.45846100  0.21799800  1
  Ge  Ge34  1  0.62594600  0.83326500  0.63399600  1
  Ge  Ge35  1  0.74665400  0.54153900  0.28200200  1
  O  O36  1  0.55047300  0.71936200  0.58338900  1
  O  O37  1  0.86322100  0.59994500  0.53358700  1
  O  O38  1  0.77300800  0.29410300  0.33329600  1
  O  O39  1  0.94952700  0.71936200  0.08338900  1
  O  O40  1  0.56529000  0.89336700  0.11002800  1
  O  O41  1  0.67071000  0.53864800  0.19901700  1
  O  O42  1  0.40818400  0.93654600  0.35764000  1
  O  O43  1  0.85404800  0.66589100  0.23472500  1
  O  O44  1  0.64595200  0.66589100  0.73472500  1
  O  O45  1  0.63677900  0.59994500  0.03358700  1
  O  O46  1  0.14595200  0.33410900  0.76527500  1
  O  O47  1  0.06529000  0.10663300  0.38997200  1
  O  O48  1  0.09181600  0.93654600  0.85764000  1
  O  O49  1  0.36322100  0.40005500  0.96641300  1
  O  O50  1  0.93471000  0.89336700  0.61002800  1
  O  O51  1  0.23856700  0.12482800  0.91845200  1
  O  O52  1  0.19794200  0.31027700  0.16483700  1
  O  O53  1  0.13677900  0.40005500  0.46641300  1
  O  O54  1  0.59181600  0.06345400  0.64236000  1
  O  O55  1  0.22699200  0.70589700  0.66670400  1
  O  O56  1  0.35404800  0.33410900  0.26527500  1
  O  O57  1  0.27300800  0.70589700  0.16670400  1
  O  O58  1  0.69794200  0.68972300  0.33516300  1
  O  O59  1  0.72699200  0.29410300  0.83329600  1
  O  O60  1  0.30205800  0.31027700  0.66483700  1
  O  O61  1  0.90818400  0.06345400  0.14236000  1
  O  O62  1  0.73856700  0.87517200  0.58154800  1
  O  O63  1  0.44952700  0.28063800  0.41661100  1
  O  O64  1  0.80205800  0.68972300  0.83516300  1
  O  O65  1  0.26143300  0.12482800  0.41845200  1
  O  O66  1  0.43471000  0.10663300  0.88997200  1
  O  O67  1  0.76143300  0.87517200  0.08154800  1
  O  O68  1  0.17071000  0.46135200  0.30098300  1
  O  O69  1  0.32929000  0.46135200  0.80098300  1
  O  O70  1  0.05047300  0.28063800  0.91661100  1
  O  O71  1  0.82929000  0.53864800  0.69901700  1
