# generated using pymatgen
data_Xe2NO2F13
_symmetry_space_group_name_H-M   'P 1'
_cell_length_a   9.13948030
_cell_length_b   9.13948030
_cell_length_c   9.02838038
_cell_angle_alpha   85.91936232
_cell_angle_beta   85.91936232
_cell_angle_gamma   51.14116755
_symmetry_Int_Tables_number   1
_chemical_formula_structural   Xe2NO2F13
_chemical_formula_sum   'Xe4 N2 O4 F26'
_cell_volume   585.41547018
_cell_formula_units_Z   2
loop_
 _symmetry_equiv_pos_site_id
 _symmetry_equiv_pos_as_xyz
  1  'x, y, z'
loop_
 _atom_site_type_symbol
 _atom_site_label
 _atom_site_symmetry_multiplicity
 _atom_site_fract_x
 _atom_site_fract_y
 _atom_site_fract_z
 _atom_site_occupancy
  Xe  Xe0  1  0.84533800  0.84533800  0.28523700  1
  Xe  Xe1  1  0.39743200  0.39743200  0.77396400  1
  Xe  Xe2  1  0.60256800  0.60256800  0.22603600  1
  Xe  Xe3  1  0.15466200  0.15466200  0.71476300  1
  N  N4  1  0.80323200  0.80323200  0.77964600  1
  N  N5  1  0.19676800  0.19676800  0.22035400  1
  O  O6  1  0.73439400  0.73439400  0.80392300  1
  O  O7  1  0.87215800  0.87215800  0.75605800  1
  O  O8  1  0.12784200  0.12784200  0.24394200  1
  O  O9  1  0.26560600  0.26560600  0.19607700  1
  F  F10  1  0.45308600  0.12787500  0.73030600  1
  F  F11  1  0.73319400  0.38274700  0.37417900  1
  F  F12  1  0.26680600  0.61725300  0.62582100  1
  F  F13  1  0.05034400  0.05034400  0.84562400  1
  F  F14  1  0.87212500  0.54691400  0.26969400  1
  F  F15  1  0.78481800  0.43561200  0.05938700  1
  F  F16  1  0.38274700  0.73319400  0.37417900  1
  F  F17  1  0.61725300  0.26680600  0.62582100  1
  F  F18  1  0.11642300  0.61121900  0.29000700  1
  F  F19  1  0.93084300  0.93084300  0.43116200  1
  F  F20  1  0.38878100  0.88357700  0.70999300  1
  F  F21  1  0.12787500  0.45308600  0.73030600  1
  F  F22  1  0.78020300  0.78020300  0.49309800  1
  F  F23  1  0.19077300  0.19077300  0.93382800  1
  F  F24  1  0.06915700  0.06915700  0.56883800  1
  F  F25  1  0.54691400  0.87212500  0.26969400  1
  F  F26  1  0.80922700  0.80922700  0.06617200  1
  F  F27  1  0.94965600  0.94965600  0.15437600  1
  F  F28  1  0.21979700  0.21979700  0.50690200  1
  F  F29  1  0.88357700  0.38878100  0.70999300  1
  F  F30  1  0.56438800  0.21518200  0.94061300  1
  F  F31  1  0.43561200  0.78481800  0.05938700  1
  F  F32  1  0.61121900  0.11642300  0.29000700  1
  F  F33  1  0.21518200  0.56438800  0.94061300  1
  F  F34  1  0.51345300  0.51345300  0.82269100  1
  F  F35  1  0.48654700  0.48654700  0.17730900  1
