# generated using pymatgen
data_BaNb10SiO19
_symmetry_space_group_name_H-M   'P 1'
_cell_length_a   7.86315886
_cell_length_b   7.86315886
_cell_length_c   14.72364300
_cell_angle_alpha   90.00000000
_cell_angle_beta   90.00000000
_cell_angle_gamma   119.99999043
_symmetry_Int_Tables_number   1
_chemical_formula_structural   BaNb10SiO19
_chemical_formula_sum   'Ba2 Nb20 Si2 O38'
_cell_volume   788.38808513
_cell_formula_units_Z   2
loop_
 _symmetry_equiv_pos_site_id
 _symmetry_equiv_pos_as_xyz
  1  'x, y, z'
loop_
 _atom_site_type_symbol
 _atom_site_label
 _atom_site_symmetry_multiplicity
 _atom_site_fract_x
 _atom_site_fract_y
 _atom_site_fract_z
 _atom_site_occupancy
  Ba  Ba0  1  0.66666700  0.33333300  0.59288100  1
  Ba  Ba1  1  0.33333300  0.66666700  0.09288100  1
  Nb  Nb2  1  0.31315500  0.44981100  0.49992400  1
  Nb  Nb3  1  0.66666700  0.33333300  0.33243700  1
  Nb  Nb4  1  0.52424100  0.63794700  0.33889900  1
  Nb  Nb5  1  0.55018900  0.86334500  0.49992400  1
  Nb  Nb6  1  0.04721400  0.22760900  0.67348900  1
  Nb  Nb7  1  0.88629400  0.52424100  0.83889900  1
  Nb  Nb8  1  0.13665500  0.68684500  0.49992400  1
  Nb  Nb9  1  0.22760900  0.18039500  0.17348900  1
  Nb  Nb10  1  0.36205300  0.88629400  0.33889900  1
  Nb  Nb11  1  0.63794700  0.11370600  0.83889900  1
  Nb  Nb12  1  0.47575900  0.36205300  0.83889900  1
  Nb  Nb13  1  0.81960500  0.04721400  0.17348900  1
  Nb  Nb14  1  0.44981100  0.13665500  0.99992400  1
  Nb  Nb15  1  0.33333300  0.66666700  0.83243700  1
  Nb  Nb16  1  0.11370600  0.47575900  0.33889900  1
  Nb  Nb17  1  0.68684500  0.55018900  0.99992400  1
  Nb  Nb18  1  0.18039500  0.95278600  0.67348900  1
  Nb  Nb19  1  0.77239100  0.81960500  0.67348900  1
  Nb  Nb20  1  0.95278600  0.77239100  0.17348900  1
  Nb  Nb21  1  0.86334500  0.31315500  0.99992400  1
  Si  Si22  1  0.00000000  0.00000000  0.88961200  1
  Si  Si23  1  0.00000000  0.00000000  0.38961200  1
  O  O24  1  0.00000000  0.00000000  0.27614000  1
  O  O25  1  0.92066700  0.77212300  0.91928300  1
  O  O26  1  0.86610000  0.30188700  0.75308600  1
  O  O27  1  0.77212300  0.85145600  0.41928300  1
  O  O28  1  0.13390000  0.69811300  0.25308600  1
  O  O29  1  0.69811300  0.56421300  0.75308600  1
  O  O30  1  0.54721700  0.64185600  0.58090300  1
  O  O31  1  0.59276600  0.09953900  0.42005200  1
  O  O32  1  0.85145600  0.07933300  0.91928300  1
  O  O33  1  0.49322700  0.59276600  0.92005200  1
  O  O34  1  0.40723400  0.90046100  0.92005200  1
  O  O35  1  0.90536100  0.54721700  0.08090300  1
  O  O36  1  0.25883700  0.20801300  0.59914300  1
  O  O37  1  0.57601500  0.84169300  0.76209700  1
  O  O38  1  0.05082400  0.25883700  0.09914300  1
  O  O39  1  0.09463900  0.45278300  0.58090300  1
  O  O40  1  0.30188700  0.43578700  0.25308600  1
  O  O41  1  0.43578700  0.13390000  0.75308600  1
  O  O42  1  0.90046100  0.49322700  0.42005200  1
  O  O43  1  0.45278300  0.35814400  0.08090300  1
  O  O44  1  0.00000000  0.00000000  0.77614000  1
  O  O45  1  0.94917600  0.74116300  0.59914300  1
  O  O46  1  0.42398500  0.15830700  0.26209700  1
  O  O47  1  0.73432200  0.57601500  0.26209700  1
  O  O48  1  0.79198700  0.05082400  0.59914300  1
  O  O49  1  0.74116300  0.79198700  0.09914300  1
  O  O50  1  0.64185600  0.09463900  0.08090300  1
  O  O51  1  0.35814400  0.90536100  0.58090300  1
  O  O52  1  0.84169300  0.26567800  0.26209700  1
  O  O53  1  0.56421300  0.86610000  0.25308600  1
  O  O54  1  0.15830700  0.73432200  0.76209700  1
  O  O55  1  0.22787700  0.14854400  0.91928300  1
  O  O56  1  0.26567800  0.42398500  0.76209700  1
  O  O57  1  0.09953900  0.50677300  0.92005200  1
  O  O58  1  0.20801300  0.94917600  0.09914300  1
  O  O59  1  0.14854400  0.92066700  0.41928300  1
  O  O60  1  0.07933300  0.22787700  0.41928300  1
  O  O61  1  0.50677300  0.40723400  0.42005200  1
