# generated using pymatgen
data_Ba4Al2O7
_symmetry_space_group_name_H-M   'P 1'
_cell_length_a   8.23831821
_cell_length_b   8.23831821
_cell_length_c   27.58331100
_cell_angle_alpha   90.00000000
_cell_angle_beta   90.00000000
_cell_angle_gamma   92.28803101
_symmetry_Int_Tables_number   1
_chemical_formula_structural   Ba4Al2O7
_chemical_formula_sum   'Ba32 Al16 O56'
_cell_volume   1870.58370068
_cell_formula_units_Z   8
loop_
 _symmetry_equiv_pos_site_id
 _symmetry_equiv_pos_as_xyz
  1  'x, y, z'
loop_
 _atom_site_type_symbol
 _atom_site_label
 _atom_site_symmetry_multiplicity
 _atom_site_fract_x
 _atom_site_fract_y
 _atom_site_fract_z
 _atom_site_occupancy
  Ba  Ba0  1  0.53294400  0.02906800  0.08850900  1
  Ba  Ba1  1  0.20052600  0.20052600  0.00000000  1
  Ba  Ba2  1  0.50581800  0.49418100  0.60374500  1
  Ba  Ba3  1  0.00134300  0.99865700  0.56933500  1
  Ba  Ba4  1  0.74437500  0.25562500  0.33234300  1
  Ba  Ba5  1  0.00581900  0.99418200  0.89625500  1
  Ba  Ba6  1  0.03041500  0.46958500  0.75000000  1
  Ba  Ba7  1  0.96705600  0.47093200  0.58850900  1
  Ba  Ba8  1  0.46958500  0.03041500  0.25000000  1
  Ba  Ba9  1  0.53041500  0.96958500  0.75000000  1
  Ba  Ba10  1  0.70052600  0.70052600  0.50000000  1
  Ba  Ba11  1  0.99865700  0.00134300  0.43066500  1
  Ba  Ba12  1  0.47379800  0.52620200  0.25060200  1
  Ba  Ba13  1  0.24437500  0.75562500  0.16765700  1
  Ba  Ba14  1  0.47093200  0.96705600  0.41149100  1
  Ba  Ba15  1  0.52620200  0.47379800  0.74939800  1
  Ba  Ba16  1  0.02620200  0.97379800  0.75060200  1
  Ba  Ba17  1  0.99418200  0.00581800  0.10374500  1
  Ba  Ba18  1  0.97379800  0.02620200  0.24939800  1
  Ba  Ba19  1  0.25562500  0.74437500  0.66765700  1
  Ba  Ba20  1  0.75562500  0.24437500  0.83234300  1
  Ba  Ba21  1  0.52906800  0.03294400  0.58850900  1
  Ba  Ba22  1  0.49865700  0.50134300  0.06933500  1
  Ba  Ba23  1  0.97093200  0.46705600  0.08850900  1
  Ba  Ba24  1  0.46705600  0.97093200  0.91149100  1
  Ba  Ba25  1  0.29947400  0.29947400  0.50000000  1
  Ba  Ba26  1  0.50134300  0.49865700  0.93066500  1
  Ba  Ba27  1  0.02906800  0.53294400  0.91149100  1
  Ba  Ba28  1  0.03294400  0.52906800  0.41149100  1
  Ba  Ba29  1  0.96958500  0.53041500  0.25000000  1
  Ba  Ba30  1  0.79947400  0.79947400  0.00000000  1
  Ba  Ba31  1  0.49418200  0.50581800  0.39625500  1
  Al  Al32  1  0.69445600  0.30554400  0.17444900  1
  Al  Al33  1  0.23313700  0.23381300  0.34132000  1
  Al  Al34  1  0.76686300  0.76618700  0.65868000  1
  Al  Al35  1  0.73313700  0.73381300  0.15868000  1
  Al  Al36  1  0.26290900  0.73709100  0.00853200  1
  Al  Al37  1  0.26618700  0.26686300  0.15868000  1
  Al  Al38  1  0.80554400  0.19445600  0.67444900  1
  Al  Al39  1  0.76618700  0.76686300  0.34132000  1
  Al  Al40  1  0.19445600  0.80554400  0.32555100  1
  Al  Al41  1  0.73709100  0.26290900  0.99146800  1
  Al  Al42  1  0.76290900  0.23709100  0.49146800  1
  Al  Al43  1  0.23709100  0.76290900  0.50853200  1
  Al  Al44  1  0.30554400  0.69445600  0.82555100  1
  Al  Al45  1  0.23381300  0.23313700  0.65868000  1
  Al  Al46  1  0.73381300  0.73313700  0.84132000  1
  Al  Al47  1  0.26686300  0.26618700  0.84132000  1
  O  O48  1  0.24819000  0.75181000  0.76642800  1
  O  O49  1  0.78418200  0.21581800  0.12402000  1
  O  O50  1  0.25191100  0.74808900  0.07388800  1
  O  O51  1  0.51929300  0.72970100  0.83100800  1
  O  O52  1  0.02627600  0.72660800  0.49102600  1
  O  O53  1  0.44597200  0.18346100  0.81828100  1
  O  O54  1  0.25181000  0.74819000  0.26642800  1
  O  O55  1  0.47372400  0.77339200  0.99102600  1
  O  O56  1  0.73336000  0.75843300  0.40591300  1
  O  O57  1  0.22660800  0.52627600  0.99102600  1
  O  O58  1  0.57795100  0.69591700  0.68340800  1
  O  O59  1  0.87250200  0.12749800  0.01881400  1
  O  O60  1  0.77029900  0.98070700  0.66899200  1
  O  O61  1  0.71581800  0.28418200  0.62402000  1
  O  O62  1  0.75191100  0.24808900  0.42611200  1
  O  O63  1  0.75843300  0.73336000  0.59408700  1
  O  O64  1  0.98070700  0.77029900  0.33100800  1
  O  O65  1  0.55402800  0.81653900  0.18171900  1
  O  O66  1  0.72970100  0.51929300  0.16899200  1
  O  O67  1  0.21581800  0.78418200  0.87598000  1
  O  O68  1  0.27029900  0.48070700  0.83100800  1
  O  O69  1  0.74808900  0.25191100  0.92611200  1
  O  O70  1  0.18346100  0.44597200  0.18171900  1
  O  O71  1  0.68346100  0.94597200  0.31828100  1
  O  O72  1  0.80408300  0.92204900  0.81659200  1
  O  O73  1  0.19591700  0.07795100  0.18340800  1
  O  O74  1  0.23336000  0.25843300  0.09408700  1
  O  O75  1  0.07795100  0.19591700  0.81659200  1
  O  O76  1  0.81653900  0.55402800  0.81828100  1
  O  O77  1  0.22970100  0.01929300  0.33100800  1
  O  O78  1  0.31653900  0.05402800  0.68171900  1
  O  O79  1  0.77339200  0.47372400  0.00897400  1
  O  O80  1  0.97372400  0.27339200  0.50897400  1
  O  O81  1  0.26664000  0.24156700  0.59408700  1
  O  O82  1  0.37250200  0.62749800  0.48118600  1
  O  O83  1  0.12749800  0.87250200  0.98118600  1
  O  O84  1  0.75181000  0.24819000  0.23357200  1
  O  O85  1  0.74156700  0.76664000  0.09408700  1
  O  O86  1  0.25843300  0.23336000  0.90591300  1
  O  O87  1  0.52627600  0.22660800  0.00897400  1
  O  O88  1  0.27339200  0.97372400  0.49102600  1
  O  O89  1  0.76664000  0.74156700  0.90591300  1
  O  O90  1  0.01929300  0.22970100  0.66899200  1
  O  O91  1  0.92204900  0.80408300  0.18340800  1
  O  O92  1  0.74819000  0.25181000  0.73357200  1
  O  O93  1  0.05402800  0.31653900  0.31828100  1
  O  O94  1  0.24156700  0.26664000  0.40591300  1
  O  O95  1  0.24808900  0.75191100  0.57388800  1
  O  O96  1  0.62749800  0.37250200  0.51881400  1
  O  O97  1  0.42204900  0.30408300  0.31659200  1
  O  O98  1  0.30408300  0.42204900  0.68340800  1
  O  O99  1  0.28418200  0.71581800  0.37598000  1
  O  O100  1  0.94597200  0.68346100  0.68171900  1
  O  O101  1  0.72660800  0.02627600  0.50897400  1
  O  O102  1  0.69591700  0.57795100  0.31659200  1
  O  O103  1  0.48070700  0.27029900  0.16899200  1
