# generated using pymatgen
data_CdTeMoO6
_symmetry_space_group_name_H-M   'P 1'
_cell_length_a   5.36157400
_cell_length_b   5.36157400
_cell_length_c   9.34555900
_cell_angle_alpha   90.00000000
_cell_angle_beta   90.00000000
_cell_angle_gamma   90.00000000
_symmetry_Int_Tables_number   1
_chemical_formula_structural   CdTeMoO6
_chemical_formula_sum   'Cd2 Te2 Mo2 O12'
_cell_volume   268.65188523
_cell_formula_units_Z   2
loop_
 _symmetry_equiv_pos_site_id
 _symmetry_equiv_pos_as_xyz
  1  'x, y, z'
loop_
 _atom_site_type_symbol
 _atom_site_label
 _atom_site_symmetry_multiplicity
 _atom_site_fract_x
 _atom_site_fract_y
 _atom_site_fract_z
 _atom_site_occupancy
  Cd  Cd0  1  0.00000000  0.00000000  0.50000000  1
  Cd  Cd1  1  0.50000000  0.50000000  0.50000000  1
  Te  Te2  1  0.50000000  0.00000000  0.75550900  1
  Te  Te3  1  0.00000000  0.50000000  0.24449100  1
  Mo  Mo4  1  0.50000000  0.00000000  0.18635500  1
  Mo  Mo5  1  0.00000000  0.50000000  0.81364500  1
  O  O6  1  0.68205700  0.18205700  0.07290400  1
  O  O7  1  0.31794300  0.81794300  0.07290400  1
  O  O8  1  0.19196900  0.69196900  0.37772100  1
  O  O9  1  0.80803100  0.30803100  0.37772100  1
  O  O10  1  0.78119700  0.28119700  0.71458100  1
  O  O11  1  0.21880300  0.71880300  0.71458100  1
  O  O12  1  0.69196900  0.80803100  0.62227900  1
  O  O13  1  0.28119700  0.21880300  0.28541900  1
  O  O14  1  0.30803100  0.19196900  0.62227900  1
  O  O15  1  0.81794300  0.68205700  0.92709600  1
  O  O16  1  0.18205700  0.31794300  0.92709600  1
  O  O17  1  0.71880300  0.78119700  0.28541900  1
