# generated using pymatgen
data_NdB2Rh2C
_symmetry_space_group_name_H-M   'P 1'
_cell_length_a   5.82380660
_cell_length_b   5.82380660
_cell_length_c   5.82380660
_cell_angle_alpha   141.11285665
_cell_angle_beta   141.11285665
_cell_angle_gamma   56.16741797
_symmetry_Int_Tables_number   1
_chemical_formula_structural   NdB2Rh2C
_chemical_formula_sum   'Nd1 B2 Rh2 C1'
_cell_volume   77.24116685
_cell_formula_units_Z   1
loop_
 _symmetry_equiv_pos_site_id
 _symmetry_equiv_pos_as_xyz
  1  'x, y, z'
loop_
 _atom_site_type_symbol
 _atom_site_label
 _atom_site_symmetry_multiplicity
 _atom_site_fract_x
 _atom_site_fract_y
 _atom_site_fract_z
 _atom_site_occupancy
  Nd  Nd0  1  0.00000000  0.00000000  0.00000000  1
  B  B1  1  0.64592400  0.64592400  0.00000000  1
  B  B2  1  0.35407600  0.35407600  0.00000000  1
  Rh  Rh3  1  0.25000000  0.75000000  0.50000000  1
  Rh  Rh4  1  0.75000000  0.25000000  0.50000000  1
  C  C5  1  0.50000000  0.50000000  0.00000000  1
