# generated using pymatgen
data_ReI3
_symmetry_space_group_name_H-M   'P 1'
_cell_length_a   11.45528700
_cell_length_b   9.42453700
_cell_length_c   9.87676259
_cell_angle_alpha   68.93551900
_cell_angle_beta   90.00000000
_cell_angle_gamma   90.00000000
_symmetry_Int_Tables_number   1
_chemical_formula_structural   ReI3
_chemical_formula_sum   'Re6 I18'
_cell_volume   995.04888732
_cell_formula_units_Z   6
loop_
 _symmetry_equiv_pos_site_id
 _symmetry_equiv_pos_as_xyz
  1  'x, y, z'
loop_
 _atom_site_type_symbol
 _atom_site_label
 _atom_site_symmetry_multiplicity
 _atom_site_fract_x
 _atom_site_fract_y
 _atom_site_fract_z
 _atom_site_occupancy
  Re  Re0  1  0.75000000  0.17111400  0.64570100  1
  Re  Re1  1  0.85976100  0.16381300  0.86293600  1
  Re  Re2  1  0.35976100  0.83618700  0.13706400  1
  Re  Re3  1  0.14023900  0.83618700  0.13706400  1
  Re  Re4  1  0.64023900  0.16381300  0.86293600  1
  Re  Re5  1  0.25000000  0.82888600  0.35429900  1
  I  I6  1  0.40854400  0.54572200  0.19214800  1
  I  I7  1  0.41082700  0.14441500  0.01696500  1
  I  I8  1  0.25000000  0.09344600  0.38796200  1
  I  I9  1  0.99129800  0.17178000  0.62480100  1
  I  I10  1  0.25000000  0.55331400  0.54274200  1
  I  I11  1  0.58917300  0.85558500  0.98303500  1
  I  I12  1  0.75000000  0.14425500  0.11805400  1
  I  I13  1  0.00870200  0.82822000  0.37519900  1
  I  I14  1  0.25000000  0.85574500  0.88194600  1
  I  I15  1  0.75000000  0.44668600  0.45725800  1
  I  I16  1  0.49129800  0.82822000  0.37519900  1
  I  I17  1  0.59145600  0.45427800  0.80785200  1
  I  I18  1  0.09145600  0.54572200  0.19214800  1
  I  I19  1  0.08917300  0.14441500  0.01696500  1
  I  I20  1  0.91082700  0.85558500  0.98303500  1
  I  I21  1  0.50870200  0.17178000  0.62480100  1
  I  I22  1  0.90854400  0.45427800  0.80785200  1
  I  I23  1  0.75000000  0.90655400  0.61203800  1
