# generated using pymatgen
data_AgAs(S8F3)2
_symmetry_space_group_name_H-M   'P 1'
_cell_length_a   10.05735195
_cell_length_b   10.05735195
_cell_length_c   16.18068004
_cell_angle_alpha   79.63004224
_cell_angle_beta   79.63004224
_cell_angle_gamma   48.20849837
_symmetry_Int_Tables_number   1
_chemical_formula_structural   AgAs(S8F3)2
_chemical_formula_sum   'Ag2 As2 S32 F12'
_cell_volume   1196.30661434
_cell_formula_units_Z   2
loop_
 _symmetry_equiv_pos_site_id
 _symmetry_equiv_pos_as_xyz
  1  'x, y, z'
loop_
 _atom_site_type_symbol
 _atom_site_label
 _atom_site_symmetry_multiplicity
 _atom_site_fract_x
 _atom_site_fract_y
 _atom_site_fract_z
 _atom_site_occupancy
  Ag  Ag0  1  0.83555500  0.16444500  0.75000000  1
  Ag  Ag1  1  0.16444500  0.83555500  0.25000000  1
  As  As2  1  0.50000000  0.50000000  0.00000000  1
  As  As3  1  0.50000000  0.50000000  0.50000000  1
  S  S4  1  0.99798000  0.71241500  0.43749600  1
  S  S5  1  0.09863500  0.06610300  0.35071000  1
  S  S6  1  0.04290700  0.63825500  0.16525600  1
  S  S7  1  0.95709300  0.36174500  0.83474400  1
  S  S8  1  0.93389700  0.90136500  0.14929000  1
  S  S9  1  0.71241500  0.99798000  0.93749600  1
  S  S10  1  0.10739100  0.49771100  0.37249900  1
  S  S11  1  0.06610300  0.09863500  0.85071000  1
  S  S12  1  0.29813200  0.89932100  0.67011400  1
  S  S13  1  0.91051700  0.72927700  0.91926400  1
  S  S14  1  0.68104600  0.06502100  0.21353400  1
  S  S15  1  0.06502100  0.68104600  0.71353400  1
  S  S16  1  0.52084500  0.22025600  0.75648200  1
  S  S17  1  0.08948300  0.27072300  0.08073600  1
  S  S18  1  0.50228900  0.89260900  0.12750100  1
  S  S19  1  0.10067900  0.70186800  0.82988600  1
  S  S20  1  0.28758500  0.00202000  0.06250400  1
  S  S21  1  0.89260900  0.50228900  0.62750100  1
  S  S22  1  0.93497900  0.31895400  0.28646600  1
  S  S23  1  0.89932100  0.29813200  0.17011400  1
  S  S24  1  0.27072300  0.08948300  0.58073600  1
  S  S25  1  0.72927700  0.91051700  0.41926400  1
  S  S26  1  0.36174500  0.95709300  0.33474400  1
  S  S27  1  0.47915500  0.77974400  0.24351800  1
  S  S28  1  0.00202000  0.28758500  0.56250400  1
  S  S29  1  0.63825500  0.04290700  0.66525600  1
  S  S30  1  0.49771100  0.10739100  0.87249900  1
  S  S31  1  0.31895400  0.93497900  0.78646600  1
  S  S32  1  0.70186800  0.10067900  0.32988600  1
  S  S33  1  0.77974400  0.47915500  0.74351800  1
  S  S34  1  0.22025600  0.52084500  0.25648200  1
  S  S35  1  0.90136500  0.93389700  0.64929000  1
  F  F36  1  0.45895400  0.55325800  0.10622300  1
  F  F37  1  0.56739100  0.62707400  0.96823900  1
  F  F38  1  0.27550500  0.69452500  0.98114500  1
  F  F39  1  0.62707400  0.56739100  0.46823900  1
  F  F40  1  0.43260900  0.37292600  0.03176100  1
  F  F41  1  0.30547500  0.72449500  0.51885500  1
  F  F42  1  0.72449500  0.30547500  0.01885500  1
  F  F43  1  0.69452500  0.27550500  0.48114500  1
  F  F44  1  0.54104600  0.44674200  0.89377700  1
  F  F45  1  0.44674200  0.54104600  0.39377700  1
  F  F46  1  0.37292600  0.43260900  0.53176100  1
  F  F47  1  0.55325800  0.45895400  0.60622300  1
