# generated using pymatgen
data_K2Sb2S(O2F3)2
_symmetry_space_group_name_H-M   'P 1'
_cell_length_a   5.72118700
_cell_length_b   9.41349000
_cell_length_c   19.79859937
_cell_angle_alpha   76.25538879
_cell_angle_beta   90.00000000
_cell_angle_gamma   90.00000000
_symmetry_Int_Tables_number   1
_chemical_formula_structural   K2Sb2S(O2F3)2
_chemical_formula_sum   'K8 Sb8 S4 O16 F24'
_cell_volume   1035.74648530
_cell_formula_units_Z   4
loop_
 _symmetry_equiv_pos_site_id
 _symmetry_equiv_pos_as_xyz
  1  'x, y, z'
loop_
 _atom_site_type_symbol
 _atom_site_label
 _atom_site_symmetry_multiplicity
 _atom_site_fract_x
 _atom_site_fract_y
 _atom_site_fract_z
 _atom_site_occupancy
  K  K0  1  0.74599300  0.86128600  0.82668800  1
  K  K1  1  0.24599300  0.13871400  0.67331200  1
  K  K2  1  0.75400700  0.86128600  0.32668800  1
  K  K3  1  0.75011600  0.51887900  0.57540700  1
  K  K4  1  0.25400700  0.13871400  0.17331200  1
  K  K5  1  0.74988400  0.51887900  0.07540700  1
  K  K6  1  0.24988400  0.48112100  0.42459300  1
  K  K7  1  0.25011600  0.48112100  0.92459300  1
  Sb  Sb8  1  0.77714900  0.18608700  0.50125300  1
  Sb  Sb9  1  0.72285100  0.18608700  0.00125300  1
  Sb  Sb10  1  0.22285100  0.81391300  0.49874700  1
  Sb  Sb11  1  0.25962700  0.67712700  0.72174400  1
  Sb  Sb12  1  0.27714900  0.81391300  0.99874700  1
  Sb  Sb13  1  0.74037300  0.32287300  0.27825600  1
  Sb  Sb14  1  0.24037300  0.67712700  0.22174400  1
  Sb  Sb15  1  0.75962700  0.32287300  0.77825600  1
  S  S16  1  0.73824600  0.86974800  0.62098700  1
  S  S17  1  0.76175400  0.86974800  0.12098700  1
  S  S18  1  0.23824600  0.13025200  0.87901300  1
  S  S19  1  0.26175400  0.13025200  0.37901300  1
  O  O20  1  0.11743900  0.99259600  0.39267200  1
  O  O21  1  0.88256100  0.00740400  0.60732800  1
  O  O22  1  0.39577900  0.25990800  0.85788500  1
  O  O23  1  0.93446700  0.87316900  0.17724700  1
  O  O24  1  0.88226500  0.86264700  0.05507500  1
  O  O25  1  0.38256100  0.99259600  0.89267200  1
  O  O26  1  0.38226500  0.13735300  0.44492500  1
  O  O27  1  0.11773500  0.13735300  0.94492500  1
  O  O28  1  0.60422100  0.74009200  0.14211500  1
  O  O29  1  0.43446700  0.12683100  0.32275300  1
  O  O30  1  0.56553300  0.87316900  0.67724700  1
  O  O31  1  0.06553300  0.12683100  0.82275300  1
  O  O32  1  0.61773500  0.86264700  0.55507500  1
  O  O33  1  0.61743900  0.00740400  0.10732800  1
  O  O34  1  0.89577900  0.74009200  0.64211500  1
  O  O35  1  0.10422100  0.25990800  0.35788500  1
  F  F36  1  0.05141800  0.76099800  0.93390800  1
  F  F37  1  0.02623000  0.56671700  0.79111000  1
  F  F38  1  0.47377000  0.56671700  0.29111000  1
  F  F39  1  0.94858200  0.23900200  0.06609200  1
  F  F40  1  0.15052300  0.85277800  0.75087000  1
  F  F41  1  0.97377000  0.43328300  0.20889000  1
  F  F42  1  0.52623000  0.43328300  0.70889000  1
  F  F43  1  0.55141800  0.23900200  0.56609200  1
  F  F44  1  0.21097700  0.60890100  0.05574300  1
  F  F45  1  0.97277400  0.36095000  0.69596300  1
  F  F46  1  0.78902300  0.39109900  0.94425700  1
  F  F47  1  0.52192100  0.70719500  0.95783400  1
  F  F48  1  0.97807900  0.70719500  0.45783400  1
  F  F49  1  0.44858200  0.76099800  0.43390800  1
  F  F50  1  0.02192100  0.29280500  0.54216600  1
  F  F51  1  0.28902300  0.60890100  0.55574300  1
  F  F52  1  0.71097700  0.39109900  0.44425700  1
  F  F53  1  0.47277400  0.63905000  0.80403700  1
  F  F54  1  0.02722600  0.63905000  0.30403700  1
  F  F55  1  0.65052300  0.14722200  0.74913000  1
  F  F56  1  0.47807900  0.29280500  0.04216600  1
  F  F57  1  0.84947700  0.14722200  0.24913000  1
  F  F58  1  0.34947700  0.85277800  0.25087000  1
  F  F59  1  0.52722600  0.36095000  0.19596300  1
