# generated using pymatgen
data_Sr(BrO3)2
_symmetry_space_group_name_H-M   'P 1'
_cell_length_a   7.18664529
_cell_length_b   7.18664529
_cell_length_c   7.53503721
_cell_angle_alpha   74.60718957
_cell_angle_beta   74.60718957
_cell_angle_gamma   114.68459390
_symmetry_Int_Tables_number   1
_chemical_formula_structural   Sr(BrO3)2
_chemical_formula_sum   'Sr2 Br4 O12'
_cell_volume   307.86945022
_cell_formula_units_Z   2
loop_
 _symmetry_equiv_pos_site_id
 _symmetry_equiv_pos_as_xyz
  1  'x, y, z'
loop_
 _atom_site_type_symbol
 _atom_site_label
 _atom_site_symmetry_multiplicity
 _atom_site_fract_x
 _atom_site_fract_y
 _atom_site_fract_z
 _atom_site_occupancy
  Sr  Sr0  1  0.62750000  0.38609000  0.99150700  1
  Sr  Sr1  1  0.38609000  0.62750000  0.49150700  1
  Br  Br2  1  0.40787200  0.77762900  0.95459900  1
  Br  Br3  1  0.77762900  0.40787200  0.45459900  1
  Br  Br4  1  0.97322500  0.11145300  0.02853200  1
  Br  Br5  1  0.11145300  0.97322500  0.52853200  1
  O  O6  1  0.47095200  0.63473000  0.12335200  1
  O  O7  1  0.63473000  0.47095200  0.62335200  1
  O  O8  1  0.74769200  0.52420400  0.24750700  1
  O  O9  1  0.52420400  0.74769200  0.74750700  1
  O  O10  1  0.58202300  0.04989900  0.89842900  1
  O  O11  1  0.04989900  0.58202300  0.39842900  1
  O  O12  1  0.01796100  0.36877100  0.89361500  1
  O  O13  1  0.36877100  0.01796100  0.39361500  1
  O  O14  1  0.02099600  0.76874000  0.75843300  1
  O  O15  1  0.76874000  0.02099600  0.25843300  1
  O  O16  1  0.20466600  0.16819800  0.07032700  1
  O  O17  1  0.16819800  0.20466600  0.57032700  1
