# generated using pymatgen
data_Pa3P4
_symmetry_space_group_name_H-M   'P 1'
_cell_length_a   7.17726521
_cell_length_b   7.17726521
_cell_length_c   7.17726521
_cell_angle_alpha   109.47122063
_cell_angle_beta   109.47122063
_cell_angle_gamma   109.47122063
_symmetry_Int_Tables_number   1
_chemical_formula_structural   Pa3P4
_chemical_formula_sum   'Pa6 P8'
_cell_volume   284.61323515
_cell_formula_units_Z   2
loop_
 _symmetry_equiv_pos_site_id
 _symmetry_equiv_pos_as_xyz
  1  'x, y, z'
loop_
 _atom_site_type_symbol
 _atom_site_label
 _atom_site_symmetry_multiplicity
 _atom_site_fract_x
 _atom_site_fract_y
 _atom_site_fract_z
 _atom_site_occupancy
  Pa  Pa0  1  0.75000000  0.87500000  0.12500000  1
  Pa  Pa1  1  0.37500000  0.25000000  0.62500000  1
  Pa  Pa2  1  0.25000000  0.62500000  0.37500000  1
  Pa  Pa3  1  0.87500000  0.12500000  0.75000000  1
  Pa  Pa4  1  0.62500000  0.37500000  0.25000000  1
  Pa  Pa5  1  0.12500000  0.75000000  0.87500000  1
  P  P6  1  0.66030400  0.66030400  0.66030400  1
  P  P7  1  0.83969600  0.50000000  0.00000000  1
  P  P8  1  0.50000000  0.00000000  0.83969600  1
  P  P9  1  0.33969600  0.50000000  0.00000000  1
  P  P10  1  0.00000000  0.83969600  0.50000000  1
  P  P11  1  0.00000000  0.33969600  0.50000000  1
  P  P12  1  0.50000000  0.00000000  0.33969600  1
  P  P13  1  0.16030400  0.16030400  0.16030400  1
