# generated using pymatgen
data_La4MgIr
_symmetry_space_group_name_H-M   'P 1'
_cell_length_a   10.19755883
_cell_length_b   10.19755883
_cell_length_c   10.19755883
_cell_angle_alpha   60.00000000
_cell_angle_beta   60.00000000
_cell_angle_gamma   60.00000000
_symmetry_Int_Tables_number   1
_chemical_formula_structural   La4MgIr
_chemical_formula_sum   'La16 Mg4 Ir4'
_cell_volume   749.84873040
_cell_formula_units_Z   4
loop_
 _symmetry_equiv_pos_site_id
 _symmetry_equiv_pos_as_xyz
  1  'x, y, z'
loop_
 _atom_site_type_symbol
 _atom_site_label
 _atom_site_symmetry_multiplicity
 _atom_site_fract_x
 _atom_site_fract_y
 _atom_site_fract_z
 _atom_site_occupancy
  La  La0  1  0.43943100  0.06056900  0.43943100  1
  La  La1  1  0.81119200  0.81119200  0.18880800  1
  La  La2  1  0.06056900  0.43943100  0.06056900  1
  La  La3  1  0.18880800  0.81119200  0.18880800  1
  La  La4  1  0.81119200  0.18880800  0.18880800  1
  La  La5  1  0.06056900  0.06056900  0.43943100  1
  La  La6  1  0.65454600  0.65454600  0.65454600  1
  La  La7  1  0.65454600  0.03636100  0.65454600  1
  La  La8  1  0.18880800  0.81119200  0.81119200  1
  La  La9  1  0.03636100  0.65454600  0.65454600  1
  La  La10  1  0.06056900  0.43943100  0.43943100  1
  La  La11  1  0.18880800  0.18880800  0.81119200  1
  La  La12  1  0.65454600  0.65454600  0.03636100  1
  La  La13  1  0.43943100  0.06056900  0.06056900  1
  La  La14  1  0.81119200  0.18880800  0.81119200  1
  La  La15  1  0.43943100  0.43943100  0.06056900  1
  Mg  Mg16  1  0.73503200  0.42165600  0.42165600  1
  Mg  Mg17  1  0.42165600  0.42165600  0.42165600  1
  Mg  Mg18  1  0.42165600  0.73503200  0.42165600  1
  Mg  Mg19  1  0.42165600  0.42165600  0.73503200  1
  Ir  Ir20  1  0.85891000  0.85891000  0.85891000  1
  Ir  Ir21  1  0.85891000  0.42327100  0.85891000  1
  Ir  Ir22  1  0.85891000  0.85891000  0.42327100  1
  Ir  Ir23  1  0.42327100  0.85891000  0.85891000  1
