# generated using pymatgen
data_CsTmSeCl2O3
_symmetry_space_group_name_H-M   'P 1'
_cell_length_a   6.97332000
_cell_length_b   6.64026400
_cell_length_c   18.10876385
_cell_angle_alpha   77.21821597
_cell_angle_beta   90.00000000
_cell_angle_gamma   90.00000000
_symmetry_Int_Tables_number   1
_chemical_formula_structural   CsTmSeCl2O3
_chemical_formula_sum   'Cs4 Tm4 Se4 Cl8 O12'
_cell_volume   817.74186177
_cell_formula_units_Z   4
loop_
 _symmetry_equiv_pos_site_id
 _symmetry_equiv_pos_as_xyz
  1  'x, y, z'
loop_
 _atom_site_type_symbol
 _atom_site_label
 _atom_site_symmetry_multiplicity
 _atom_site_fract_x
 _atom_site_fract_y
 _atom_site_fract_z
 _atom_site_occupancy
  Cs  Cs0  1  0.21043900  0.75346000  0.05394500  1
  Cs  Cs1  1  0.71043900  0.24654000  0.44605500  1
  Cs  Cs2  1  0.78956100  0.24654000  0.94605500  1
  Cs  Cs3  1  0.28956100  0.75346000  0.55394500  1
  Tm  Tm4  1  0.82138100  0.86246500  0.75766500  1
  Tm  Tm5  1  0.67861900  0.86246500  0.25766500  1
  Tm  Tm6  1  0.17861900  0.13753500  0.24233500  1
  Tm  Tm7  1  0.32138100  0.13753500  0.74233500  1
  Se  Se8  1  0.18304000  0.63724900  0.29229500  1
  Se  Se9  1  0.68304000  0.36275100  0.20770500  1
  Se  Se10  1  0.31696000  0.63724900  0.79229500  1
  Se  Se11  1  0.81696000  0.36275100  0.70770500  1
  Cl  Cl12  1  0.68838300  0.87343800  0.11192600  1
  Cl  Cl13  1  0.18838300  0.12656200  0.38807400  1
  Cl  Cl14  1  0.81161700  0.87343800  0.61192600  1
  Cl  Cl15  1  0.31161700  0.12656200  0.88807400  1
  Cl  Cl16  1  0.16097500  0.22765300  0.09335400  1
  Cl  Cl17  1  0.66097500  0.77234700  0.40664600  1
  Cl  Cl18  1  0.83902500  0.77234700  0.90664600  1
  Cl  Cl19  1  0.33902500  0.22765300  0.59335400  1
  O  O20  1  0.82500000  0.51163200  0.77289500  1
  O  O21  1  0.00161200  0.81937900  0.26402100  1
  O  O22  1  0.17500000  0.48836800  0.22710500  1
  O  O23  1  0.99838800  0.18062100  0.73597900  1
  O  O24  1  0.64461400  0.17601600  0.74424200  1
  O  O25  1  0.50161200  0.18062100  0.23597900  1
  O  O26  1  0.35538600  0.82398400  0.25575800  1
  O  O27  1  0.85538600  0.17601600  0.24424200  1
  O  O28  1  0.14461400  0.82398400  0.75575800  1
  O  O29  1  0.49838800  0.81937900  0.76402100  1
  O  O30  1  0.32500000  0.48836800  0.72710500  1
  O  O31  1  0.67500000  0.51163200  0.27289500  1
