# generated using pymatgen
data_Cs3Au2Br11
_symmetry_space_group_name_H-M   'P 1'
_cell_length_a   16.91869800
_cell_length_b   7.88897100
_cell_length_c   19.22441599
_cell_angle_alpha   86.14922971
_cell_angle_beta   90.00000000
_cell_angle_gamma   90.00000000
_symmetry_Int_Tables_number   1
_chemical_formula_structural   Cs3Au2Br11
_chemical_formula_sum   'Cs12 Au8 Br44'
_cell_volume   2560.11138065
_cell_formula_units_Z   4
loop_
 _symmetry_equiv_pos_site_id
 _symmetry_equiv_pos_as_xyz
  1  'x, y, z'
loop_
 _atom_site_type_symbol
 _atom_site_label
 _atom_site_symmetry_multiplicity
 _atom_site_fract_x
 _atom_site_fract_y
 _atom_site_fract_z
 _atom_site_occupancy
  Cs  Cs0  1  0.63155800  0.25341300  0.07615800  1
  Cs  Cs1  1  0.86844200  0.25341300  0.57615800  1
  Cs  Cs2  1  0.02436700  0.76523900  0.90090700  1
  Cs  Cs3  1  0.47563300  0.76523900  0.40090700  1
  Cs  Cs4  1  0.52436700  0.23476100  0.59909300  1
  Cs  Cs5  1  0.77611400  0.74230000  0.32623600  1
  Cs  Cs6  1  0.72388600  0.74230000  0.82623600  1
  Cs  Cs7  1  0.13155800  0.74658700  0.42384200  1
  Cs  Cs8  1  0.97563300  0.23476100  0.09909300  1
  Cs  Cs9  1  0.27611400  0.25770000  0.17376400  1
  Cs  Cs10  1  0.36844200  0.74658700  0.92384200  1
  Cs  Cs11  1  0.22388600  0.25770000  0.67376400  1
  Au  Au12  1  0.31148200  0.26360500  0.43492100  1
  Au  Au13  1  0.49777000  0.24352600  0.83094900  1
  Au  Au14  1  0.99777000  0.75647400  0.66905100  1
  Au  Au15  1  0.50223000  0.75647400  0.16905100  1
  Au  Au16  1  0.00223000  0.24352600  0.33094900  1
  Au  Au17  1  0.68851800  0.73639500  0.56507900  1
  Au  Au18  1  0.81148200  0.73639500  0.06507900  1
  Au  Au19  1  0.18851800  0.26360500  0.93492100  1
  Br  Br20  1  0.20226700  0.61437400  0.78970100  1
  Br  Br21  1  0.16730300  0.26034500  0.45918700  1
  Br  Br22  1  0.83219700  0.07108400  0.92549800  1
  Br  Br23  1  0.56303600  0.02265300  0.90922400  1
  Br  Br24  1  0.79569100  0.96731500  0.14543600  1
  Br  Br25  1  0.06303600  0.97734700  0.59077600  1
  Br  Br26  1  0.94788100  0.46796600  0.40223600  1
  Br  Br27  1  0.54416600  0.73774500  0.58800200  1
  Br  Br28  1  0.93696400  0.02265300  0.40922400  1
  Br  Br29  1  0.17124600  0.49689900  0.01420400  1
  Br  Br30  1  0.44221800  0.01955300  0.76137900  1
  Br  Br31  1  0.73134900  0.23012400  0.31755600  1
  Br  Br32  1  0.94221800  0.98044700  0.73862100  1
  Br  Br33  1  0.70226700  0.38562600  0.71029900  1
  Br  Br34  1  0.95583400  0.73774500  0.08800200  1
  Br  Br35  1  0.76865100  0.23012400  0.81755600  1
  Br  Br36  1  0.05778200  0.01955300  0.26137900  1
  Br  Br37  1  0.43213300  0.46225800  0.75243300  1
  Br  Br38  1  0.70430900  0.96731500  0.64543600  1
  Br  Br39  1  0.93213300  0.53774200  0.74756700  1
  Br  Br40  1  0.66780300  0.07108400  0.42549800  1
  Br  Br41  1  0.32875400  0.49689900  0.51420400  1
  Br  Br42  1  0.29569100  0.03268500  0.35456400  1
  Br  Br43  1  0.82875400  0.50310100  0.98579600  1
  Br  Br44  1  0.23134900  0.76987600  0.18244400  1
  Br  Br45  1  0.55211900  0.46796600  0.90223600  1
  Br  Br46  1  0.66730300  0.73965500  0.04081300  1
  Br  Br47  1  0.67124600  0.50310100  0.48579600  1
  Br  Br48  1  0.55778200  0.98044700  0.23862100  1
  Br  Br49  1  0.33219700  0.92891600  0.57450200  1
  Br  Br50  1  0.20430900  0.03268500  0.85456400  1
  Br  Br51  1  0.29773300  0.61437400  0.28970100  1
  Br  Br52  1  0.79773300  0.38562600  0.21029900  1
  Br  Br53  1  0.04416600  0.26225500  0.91199800  1
  Br  Br54  1  0.83269700  0.73965500  0.54081300  1
  Br  Br55  1  0.05211900  0.53203400  0.59776400  1
  Br  Br56  1  0.26865100  0.76987600  0.68244400  1
  Br  Br57  1  0.43696400  0.97734700  0.09077600  1
  Br  Br58  1  0.45583400  0.26225500  0.41199800  1
  Br  Br59  1  0.44788100  0.53203400  0.09776400  1
  Br  Br60  1  0.16780300  0.92891600  0.07450200  1
  Br  Br61  1  0.33269700  0.26034500  0.95918700  1
  Br  Br62  1  0.06786700  0.46225800  0.25243300  1
  Br  Br63  1  0.56786700  0.53774200  0.24756700  1
