# generated using pymatgen
data_YAg3(PS4)2
_symmetry_space_group_name_H-M   'P 1'
_cell_length_a   9.79726522
_cell_length_b   9.79726522
_cell_length_c   9.49073951
_cell_angle_alpha   61.03895898
_cell_angle_beta   61.03895898
_cell_angle_gamma   56.95709675
_symmetry_Int_Tables_number   1
_chemical_formula_structural   YAg3(PS4)2
_chemical_formula_sum   'Y2 Ag6 P4 S16'
_cell_volume   637.32741697
_cell_formula_units_Z   2
loop_
 _symmetry_equiv_pos_site_id
 _symmetry_equiv_pos_as_xyz
  1  'x, y, z'
loop_
 _atom_site_type_symbol
 _atom_site_label
 _atom_site_symmetry_multiplicity
 _atom_site_fract_x
 _atom_site_fract_y
 _atom_site_fract_z
 _atom_site_occupancy
  Y  Y0  1  0.03474200  0.96525800  0.25000000  1
  Y  Y1  1  0.96525800  0.03474200  0.75000000  1
  Ag  Ag2  1  0.76957900  0.53570800  0.22526900  1
  Ag  Ag3  1  0.46429200  0.23042100  0.27473100  1
  Ag  Ag4  1  0.23042100  0.46429200  0.77473100  1
  Ag  Ag5  1  0.53570800  0.76957900  0.72526900  1
  Ag  Ag6  1  0.43003500  0.56996500  0.25000000  1
  Ag  Ag7  1  0.56996500  0.43003500  0.75000000  1
  P  P8  1  0.85563900  0.33983500  0.93219000  1
  P  P9  1  0.66016500  0.14436100  0.56781000  1
  P  P10  1  0.14436100  0.66016500  0.06781000  1
  P  P11  1  0.33983500  0.85563900  0.43219000  1
  S  S12  1  0.21725700  0.86530700  0.92100100  1
  S  S13  1  0.62944100  0.10151200  0.81306700  1
  S  S14  1  0.32109800  0.42863100  0.02258100  1
  S  S15  1  0.10151200  0.62944100  0.31306700  1
  S  S16  1  0.73897600  0.92646300  0.51905100  1
  S  S17  1  0.78274300  0.13469300  0.07899900  1
  S  S18  1  0.07353700  0.26102400  0.98094900  1
  S  S19  1  0.26102400  0.07353700  0.48094900  1
  S  S20  1  0.92646300  0.73897600  0.01905100  1
  S  S21  1  0.86530700  0.21725700  0.42100100  1
  S  S22  1  0.89848800  0.37055900  0.68693300  1
  S  S23  1  0.37055900  0.89848800  0.18693300  1
  S  S24  1  0.67890200  0.57136900  0.97741900  1
  S  S25  1  0.42863100  0.32109800  0.52258100  1
  S  S26  1  0.13469300  0.78274300  0.57899900  1
  S  S27  1  0.57136900  0.67890200  0.47741900  1
