# generated using pymatgen
data_CsRe(Cl2O)2
_symmetry_space_group_name_H-M   'P 1'
_cell_length_a   10.82445200
_cell_length_b   6.86098400
_cell_length_c   12.27787048
_cell_angle_alpha   89.10932222
_cell_angle_beta   90.00000000
_cell_angle_gamma   90.00000000
_symmetry_Int_Tables_number   1
_chemical_formula_structural   CsRe(Cl2O)2
_chemical_formula_sum   'Cs4 Re4 Cl16 O8'
_cell_volume   911.72296905
_cell_formula_units_Z   4
loop_
 _symmetry_equiv_pos_site_id
 _symmetry_equiv_pos_as_xyz
  1  'x, y, z'
loop_
 _atom_site_type_symbol
 _atom_site_label
 _atom_site_symmetry_multiplicity
 _atom_site_fract_x
 _atom_site_fract_y
 _atom_site_fract_z
 _atom_site_occupancy
  Cs  Cs0  1  0.11266600  0.81357500  0.64912900  1
  Cs  Cs1  1  0.61266600  0.18642500  0.85087100  1
  Cs  Cs2  1  0.88733400  0.18642500  0.35087100  1
  Cs  Cs3  1  0.38733400  0.81357500  0.14912900  1
  Re  Re4  1  0.19163700  0.32042500  0.94745500  1
  Re  Re5  1  0.30836300  0.32042500  0.44745500  1
  Re  Re6  1  0.69163700  0.67957500  0.55254500  1
  Re  Re7  1  0.80836300  0.67957500  0.05254500  1
  Cl  Cl8  1  0.81898400  0.53021800  0.68359500  1
  Cl  Cl9  1  0.10708900  0.12610100  0.08491200  1
  Cl  Cl10  1  0.88354400  0.68677700  0.43800100  1
  Cl  Cl11  1  0.89291100  0.87389900  0.91508800  1
  Cl  Cl12  1  0.31898400  0.46978200  0.81640500  1
  Cl  Cl13  1  0.21445500  0.00945400  0.38243900  1
  Cl  Cl14  1  0.61645600  0.68677700  0.93800100  1
  Cl  Cl15  1  0.38354400  0.31322300  0.06199900  1
  Cl  Cl16  1  0.60708900  0.87389900  0.41508800  1
  Cl  Cl17  1  0.68101600  0.53021800  0.18359500  1
  Cl  Cl18  1  0.11645600  0.31322300  0.56199900  1
  Cl  Cl19  1  0.39291100  0.12610100  0.58491200  1
  Cl  Cl20  1  0.28554500  0.00945400  0.88243900  1
  Cl  Cl21  1  0.78554500  0.99054600  0.61756100  1
  Cl  Cl22  1  0.18101600  0.46978200  0.31640500  1
  Cl  Cl23  1  0.71445500  0.99054600  0.11756100  1
  O  O24  1  0.34473500  0.53817400  0.50815200  1
  O  O25  1  0.84473500  0.46182600  0.99184800  1
  O  O26  1  0.15526500  0.53817400  0.00815200  1
  O  O27  1  0.42775600  0.28480100  0.35701800  1
  O  O28  1  0.07224400  0.28480100  0.85701800  1
  O  O29  1  0.57224400  0.71519900  0.64298200  1
  O  O30  1  0.65526500  0.46182600  0.49184800  1
  O  O31  1  0.92775600  0.71519900  0.14298200  1
