# generated using pymatgen
data_KC2N3
_symmetry_space_group_name_H-M   'P 1'
_cell_length_a   12.13670400
_cell_length_b   3.87420900
_cell_length_c   24.84523738
_cell_angle_alpha   83.14682631
_cell_angle_beta   90.00000000
_cell_angle_gamma   90.00000000
_symmetry_Int_Tables_number   1
_chemical_formula_structural   KC2N3
_chemical_formula_sum   'K12 C24 N36'
_cell_volume   1159.87948965
_cell_formula_units_Z   12
loop_
 _symmetry_equiv_pos_site_id
 _symmetry_equiv_pos_as_xyz
  1  'x, y, z'
loop_
 _atom_site_type_symbol
 _atom_site_label
 _atom_site_symmetry_multiplicity
 _atom_site_fract_x
 _atom_site_fract_y
 _atom_site_fract_z
 _atom_site_occupancy
  K  K0  1  0.65062500  0.57848900  0.48748000  1
  K  K1  1  0.99708800  0.88591500  0.75877300  1
  K  K2  1  0.41284500  0.63504800  0.89925300  1
  K  K3  1  0.58715500  0.36495200  0.10074700  1
  K  K4  1  0.50291200  0.88591500  0.25877300  1
  K  K5  1  0.08715500  0.63504800  0.39925300  1
  K  K6  1  0.84937500  0.57848900  0.98748000  1
  K  K7  1  0.15062500  0.42151100  0.01252000  1
  K  K8  1  0.34937500  0.42151100  0.51252000  1
  K  K9  1  0.49708800  0.11408500  0.74122700  1
  K  K10  1  0.91284500  0.36495200  0.60074700  1
  K  K11  1  0.00291200  0.11408500  0.24122700  1
  C  C12  1  0.49199900  0.08663300  0.40329800  1
  C  C13  1  0.24790500  0.28918900  0.29231400  1
  C  C14  1  0.32355000  0.76639600  0.11935100  1
  C  C15  1  0.50800100  0.91336700  0.59670200  1
  C  C16  1  0.14394400  0.72215400  0.14813400  1
  C  C17  1  0.62934500  0.02710300  0.96836500  1
  C  C18  1  0.37065500  0.97289700  0.03163500  1
  C  C19  1  0.21564300  0.53750900  0.70617400  1
  C  C20  1  0.99199900  0.91336700  0.09670200  1
  C  C21  1  0.78435700  0.46249100  0.29382600  1
  C  C22  1  0.28435700  0.53750900  0.20617400  1
  C  C23  1  0.17645000  0.76639600  0.61935100  1
  C  C24  1  0.87065500  0.02710300  0.46836500  1
  C  C25  1  0.67645000  0.23360400  0.88064900  1
  C  C26  1  0.75209500  0.71081100  0.70768600  1
  C  C27  1  0.85605600  0.27784600  0.85186600  1
  C  C28  1  0.74790500  0.71081100  0.20768600  1
  C  C29  1  0.64394400  0.27784600  0.35186600  1
  C  C30  1  0.82355000  0.23360400  0.38064900  1
  C  C31  1  0.00800100  0.08663300  0.90329800  1
  C  C32  1  0.25209500  0.28918900  0.79231400  1
  C  C33  1  0.71564300  0.46249100  0.79382600  1
  C  C34  1  0.12934500  0.97289700  0.53163500  1
  C  C35  1  0.35605600  0.72215400  0.64813400  1
  N  N36  1  0.46675200  0.77238200  0.64204800  1
  N  N37  1  0.14940900  0.08008900  0.48577900  1
  N  N38  1  0.64940900  0.91991100  0.01422100  1
  N  N39  1  0.53324800  0.22761800  0.35795200  1
  N  N40  1  0.86277700  0.36663800  0.33153900  1
  N  N41  1  0.35059100  0.08008900  0.98577900  1
  N  N42  1  0.85059100  0.91991100  0.51422100  1
  N  N43  1  0.17464000  0.58149900  0.19830100  1
  N  N44  1  0.81406800  0.81418100  0.67246900  1
  N  N45  1  0.18593200  0.18581900  0.32753100  1
  N  N46  1  0.31406800  0.18581900  0.82753100  1
  N  N47  1  0.32162900  0.38933100  0.25561000  1
  N  N48  1  0.32536000  0.58149900  0.69830100  1
  N  N49  1  0.68593200  0.81418100  0.17246900  1
  N  N50  1  0.78501400  0.18854400  0.89348500  1
  N  N51  1  0.59820200  0.14203900  0.91957100  1
  N  N52  1  0.09820200  0.85796100  0.58042900  1
  N  N53  1  0.90179800  0.14203900  0.41957100  1
  N  N54  1  0.40179800  0.85796100  0.08042900  1
  N  N55  1  0.82536000  0.41850100  0.80169900  1
  N  N56  1  0.67464000  0.41850100  0.30169900  1
  N  N57  1  0.67837100  0.61066900  0.74439000  1
  N  N58  1  0.36277700  0.63336200  0.16846100  1
  N  N59  1  0.28501400  0.81145600  0.60651500  1
  N  N60  1  0.44553000  0.95803600  0.44280200  1
  N  N61  1  0.82162900  0.61066900  0.24439000  1
  N  N62  1  0.71498600  0.18854400  0.39348500  1
  N  N63  1  0.63722300  0.36663800  0.83153900  1
  N  N64  1  0.03324800  0.77238200  0.14204800  1
  N  N65  1  0.05447000  0.95803600  0.94280200  1
  N  N66  1  0.17837100  0.38933100  0.75561000  1
  N  N67  1  0.55447000  0.04196400  0.55719800  1
  N  N68  1  0.21498600  0.81145600  0.10651500  1
  N  N69  1  0.96675200  0.22761800  0.85795200  1
  N  N70  1  0.94553000  0.04196400  0.05719800  1
  N  N71  1  0.13722300  0.63336200  0.66846100  1
