# generated using pymatgen
data_Na2Hg3S4
_symmetry_space_group_name_H-M   'P 1'
_cell_length_a   7.58126600
_cell_length_b   8.44157900
_cell_length_c   14.24905500
_cell_angle_alpha   90.00000000
_cell_angle_beta   90.00000000
_cell_angle_gamma   90.00000000
_symmetry_Int_Tables_number   1
_chemical_formula_structural   Na2Hg3S4
_chemical_formula_sum   'Na8 Hg12 S16'
_cell_volume   911.90896802
_cell_formula_units_Z   4
loop_
 _symmetry_equiv_pos_site_id
 _symmetry_equiv_pos_as_xyz
  1  'x, y, z'
loop_
 _atom_site_type_symbol
 _atom_site_label
 _atom_site_symmetry_multiplicity
 _atom_site_fract_x
 _atom_site_fract_y
 _atom_site_fract_z
 _atom_site_occupancy
  Na  Na0  1  0.43531500  0.61809600  0.60678000  1
  Na  Na1  1  0.93531500  0.38190400  0.89322000  1
  Na  Na2  1  0.06468500  0.11809600  0.39322000  1
  Na  Na3  1  0.56468500  0.88190400  0.10678000  1
  Na  Na4  1  0.56468500  0.38190400  0.39322000  1
  Na  Na5  1  0.06468500  0.61809600  0.10678000  1
  Na  Na6  1  0.93531500  0.88190400  0.60678000  1
  Na  Na7  1  0.43531500  0.11809600  0.89322000  1
  Hg  Hg8  1  0.26981500  0.77804100  0.30650900  1
  Hg  Hg9  1  0.76981500  0.22195900  0.19349100  1
  Hg  Hg10  1  0.23018500  0.27804100  0.69349100  1
  Hg  Hg11  1  0.73018500  0.72195900  0.80650900  1
  Hg  Hg12  1  0.73018500  0.22195900  0.69349100  1
  Hg  Hg13  1  0.23018500  0.77804100  0.80650900  1
  Hg  Hg14  1  0.76981500  0.72195900  0.30650900  1
  Hg  Hg15  1  0.26981500  0.27804100  0.19349100  1
  Hg  Hg16  1  0.50000000  0.00000000  0.50000000  1
  Hg  Hg17  1  0.00000000  0.00000000  0.00000000  1
  Hg  Hg18  1  0.00000000  0.50000000  0.50000000  1
  Hg  Hg19  1  0.50000000  0.50000000  0.00000000  1
  S  S20  1  0.73949000  0.65353400  0.48272900  1
  S  S21  1  0.23949000  0.34646600  0.01727100  1
  S  S22  1  0.76051000  0.15353400  0.51727100  1
  S  S23  1  0.26051000  0.84646600  0.98272900  1
  S  S24  1  0.26051000  0.34646600  0.51727100  1
  S  S25  1  0.76051000  0.65353400  0.98272900  1
  S  S26  1  0.23949000  0.84646600  0.48272900  1
  S  S27  1  0.73949000  0.15353400  0.01727100  1
  S  S28  1  0.50963500  0.89339900  0.73155200  1
  S  S29  1  0.00963500  0.10660100  0.76844800  1
  S  S30  1  0.99036500  0.39339900  0.26844800  1
  S  S31  1  0.49036500  0.60660100  0.23155200  1
  S  S32  1  0.49036500  0.10660100  0.26844800  1
  S  S33  1  0.99036500  0.89339900  0.23155200  1
  S  S34  1  0.00963500  0.60660100  0.73155200  1
  S  S35  1  0.50963500  0.39339900  0.76844800  1
