# generated using pymatgen
data_Rb3NaPbO4
_symmetry_space_group_name_H-M   'P 1'
_cell_length_a   6.78048900
_cell_length_b   11.17308900
_cell_length_c   11.29167100
_cell_angle_alpha   68.35069126
_cell_angle_beta   90.00000000
_cell_angle_gamma   90.00000000
_symmetry_Int_Tables_number   1
_chemical_formula_structural   Rb3NaPbO4
_chemical_formula_sum   'Rb12 Na4 Pb4 O16'
_cell_volume   795.10206719
_cell_formula_units_Z   4
loop_
 _symmetry_equiv_pos_site_id
 _symmetry_equiv_pos_as_xyz
  1  'x, y, z'
loop_
 _atom_site_type_symbol
 _atom_site_label
 _atom_site_symmetry_multiplicity
 _atom_site_fract_x
 _atom_site_fract_y
 _atom_site_fract_z
 _atom_site_occupancy
  Rb  Rb0  1  0.62087100  0.68104800  0.89294600  1
  Rb  Rb1  1  0.32373700  0.96627300  0.67165100  1
  Rb  Rb2  1  0.37912900  0.31895200  0.10705400  1
  Rb  Rb3  1  0.12087100  0.31895200  0.60705400  1
  Rb  Rb4  1  0.60717800  0.45584700  0.68789100  1
  Rb  Rb5  1  0.39282200  0.54415300  0.31210900  1
  Rb  Rb6  1  0.10717800  0.54415300  0.81210900  1
  Rb  Rb7  1  0.89282200  0.45584700  0.18789100  1
  Rb  Rb8  1  0.82373700  0.03372700  0.82834900  1
  Rb  Rb9  1  0.87912900  0.68104800  0.39294600  1
  Rb  Rb10  1  0.17626300  0.96627300  0.17165100  1
  Rb  Rb11  1  0.67626300  0.03372700  0.32834900  1
  Na  Na12  1  0.61945000  0.87491500  0.10910900  1
  Na  Na13  1  0.88055000  0.87491500  0.60910900  1
  Na  Na14  1  0.11945000  0.12508500  0.39089100  1
  Na  Na15  1  0.38055000  0.12508500  0.89089100  1
  Pb  Pb16  1  0.64259000  0.24133400  0.50967000  1
  Pb  Pb17  1  0.35741000  0.75866600  0.49033000  1
  Pb  Pb18  1  0.14259000  0.75866600  0.99033000  1
  Pb  Pb19  1  0.85741000  0.24133400  0.00967000  1
  O  O20  1  0.26182200  0.57126400  0.05444500  1
  O  O21  1  0.23817800  0.57126400  0.55444500  1
  O  O22  1  0.12649900  0.89548700  0.45471900  1
  O  O23  1  0.00579200  0.79555200  0.81223000  1
  O  O24  1  0.57548600  0.77096700  0.61876500  1
  O  O25  1  0.92451400  0.77096700  0.11876500  1
  O  O26  1  0.76182200  0.42873600  0.44555500  1
  O  O27  1  0.73817800  0.42873600  0.94555500  1
  O  O28  1  0.87350100  0.10451300  0.54528100  1
  O  O29  1  0.42451400  0.22903300  0.38123500  1
  O  O30  1  0.50579200  0.20444800  0.68777000  1
  O  O31  1  0.07548600  0.22903300  0.88123500  1
  O  O32  1  0.62649900  0.10451300  0.04528100  1
  O  O33  1  0.99420800  0.20444800  0.18777000  1
  O  O34  1  0.37350100  0.89548700  0.95471900  1
  O  O35  1  0.49420800  0.79555200  0.31223000  1
