# generated using pymatgen
data_Li3ScF6
_symmetry_space_group_name_H-M   'P 1'
_cell_length_a   8.89653001
_cell_length_b   8.89653001
_cell_length_c   9.64906800
_cell_angle_alpha   90.00000000
_cell_angle_beta   90.00000000
_cell_angle_gamma   120.00000009
_symmetry_Int_Tables_number   1
_chemical_formula_structural   Li3ScF6
_chemical_formula_sum   'Li18 Sc6 F36'
_cell_volume   661.38949813
_cell_formula_units_Z   6
loop_
 _symmetry_equiv_pos_site_id
 _symmetry_equiv_pos_as_xyz
  1  'x, y, z'
loop_
 _atom_site_type_symbol
 _atom_site_label
 _atom_site_symmetry_multiplicity
 _atom_site_fract_x
 _atom_site_fract_y
 _atom_site_fract_z
 _atom_site_occupancy
  Li  Li0  1  0.34048300  0.36081200  0.96318400  1
  Li  Li1  1  0.69946300  0.00000000  0.25000000  1
  Li  Li2  1  0.69946300  0.69946300  0.75000000  1
  Li  Li3  1  0.97967100  0.63918800  0.53681600  1
  Li  Li4  1  0.65951700  0.63918800  0.03681600  1
  Li  Li5  1  0.34048300  0.97967100  0.46318400  1
  Li  Li6  1  0.63918800  0.65951700  0.46318400  1
  Li  Li7  1  0.30053700  0.30053700  0.25000000  1
  Li  Li8  1  0.00000000  0.69946300  0.25000000  1
  Li  Li9  1  0.30053700  0.00000000  0.75000000  1
  Li  Li10  1  0.02032900  0.36081200  0.46318400  1
  Li  Li11  1  0.36081200  0.02032900  0.03681600  1
  Li  Li12  1  0.02032900  0.65951700  0.96318400  1
  Li  Li13  1  0.65951700  0.02032900  0.53681600  1
  Li  Li14  1  0.97967100  0.34048300  0.03681600  1
  Li  Li15  1  0.63918800  0.97967100  0.96318400  1
  Li  Li16  1  0.00000000  0.30053700  0.75000000  1
  Li  Li17  1  0.36081200  0.34048300  0.53681600  1
  Sc  Sc18  1  0.66666700  0.33333300  0.26388800  1
  Sc  Sc19  1  0.66666700  0.33333300  0.76388800  1
  Sc  Sc20  1  0.00000000  0.00000000  0.00000000  1
  Sc  Sc21  1  0.33333300  0.66666700  0.23611200  1
  Sc  Sc22  1  0.00000000  0.00000000  0.50000000  1
  Sc  Sc23  1  0.33333300  0.66666700  0.73611200  1
  F  F24  1  0.88216800  0.77315900  0.89280800  1
  F  F25  1  0.78398700  0.55255100  0.14481000  1
  F  F26  1  0.44744900  0.23143600  0.14481000  1
  F  F27  1  0.11783200  0.89099100  0.60719200  1
  F  F28  1  0.78398700  0.23143600  0.64481000  1
  F  F29  1  0.88216800  0.10900900  0.39280800  1
  F  F30  1  0.55255100  0.76856400  0.85519000  1
  F  F31  1  0.77315900  0.89099100  0.10719200  1
  F  F32  1  0.57131200  0.11192600  0.38152900  1
  F  F33  1  0.89099100  0.11783200  0.89280800  1
  F  F34  1  0.10900900  0.22684100  0.60719200  1
  F  F35  1  0.76856400  0.21601300  0.14481000  1
  F  F36  1  0.54061400  0.11192600  0.88152900  1
  F  F37  1  0.21601300  0.76856400  0.35519000  1
  F  F38  1  0.88807400  0.45938600  0.38152900  1
  F  F39  1  0.10900900  0.88216800  0.10719200  1
  F  F40  1  0.77315900  0.88216800  0.60719200  1
  F  F41  1  0.44744900  0.21601300  0.64481000  1
  F  F42  1  0.22684100  0.11783200  0.39280800  1
  F  F43  1  0.42868800  0.88807400  0.61847100  1
  F  F44  1  0.22684100  0.10900900  0.89280800  1
  F  F45  1  0.11783200  0.22684100  0.10719200  1
  F  F46  1  0.45938600  0.88807400  0.11847100  1
  F  F47  1  0.88807400  0.42868800  0.88152900  1
  F  F48  1  0.76856400  0.55255100  0.64481000  1
  F  F49  1  0.23143600  0.44744900  0.35519000  1
  F  F50  1  0.11192600  0.57131200  0.11847100  1
  F  F51  1  0.23143600  0.78398700  0.85519000  1
  F  F52  1  0.21601300  0.44744900  0.85519000  1
  F  F53  1  0.11192600  0.54061400  0.61847100  1
  F  F54  1  0.89099100  0.77315900  0.39280800  1
  F  F55  1  0.57131200  0.45938600  0.88152900  1
  F  F56  1  0.54061400  0.42868800  0.38152900  1
  F  F57  1  0.45938600  0.57131200  0.61847100  1
  F  F58  1  0.42868800  0.54061400  0.11847100  1
  F  F59  1  0.55255100  0.78398700  0.35519000  1
