# generated using pymatgen
data_VSnPO5
_symmetry_space_group_name_H-M   'P 1'
_cell_length_a   6.62775892
_cell_length_b   6.98336890
_cell_length_c   10.66062741
_cell_angle_alpha   83.43602268
_cell_angle_beta   74.29654611
_cell_angle_gamma   113.05919016
_symmetry_Int_Tables_number   1
_chemical_formula_structural   VSnPO5
_chemical_formula_sum   'V4 Sn4 P4 O20'
_cell_volume   423.31213068
_cell_formula_units_Z   4
loop_
 _symmetry_equiv_pos_site_id
 _symmetry_equiv_pos_as_xyz
  1  'x, y, z'
loop_
 _atom_site_type_symbol
 _atom_site_label
 _atom_site_symmetry_multiplicity
 _atom_site_fract_x
 _atom_site_fract_y
 _atom_site_fract_z
 _atom_site_occupancy
  V  V0  1  0.44571500  0.31927400  0.92039900  1
  V  V1  1  0.55430700  0.68072800  0.07958500  1
  V  V2  1  0.94561500  0.81934000  0.42021300  1
  V  V3  1  0.05438000  0.18065500  0.57979300  1
  Sn  Sn4  1  0.01925500  0.26023600  0.19982700  1
  Sn  Sn5  1  0.51976900  0.76065700  0.69983300  1
  Sn  Sn6  1  0.48022000  0.23933600  0.30017200  1
  Sn  Sn7  1  0.98076100  0.73976700  0.80014900  1
  P  P8  1  0.39576400  0.69133300  0.41160800  1
  P  P9  1  0.89580900  0.19163800  0.91173000  1
  P  P10  1  0.10417900  0.80836400  0.08828100  1
  P  P11  1  0.60423900  0.30865300  0.58839600  1
  O  O12  1  0.38778700  0.35229300  0.11173700  1
  O  O13  1  0.88876600  0.85311200  0.61186800  1
  O  O14  1  0.11124800  0.14688600  0.38812800  1
  O  O15  1  0.61226100  0.64775100  0.88820900  1
  O  O16  1  0.61301800  0.81658600  0.45142300  1
  O  O17  1  0.11311600  0.31704900  0.95148300  1
  O  O18  1  0.88684700  0.68293000  0.04855700  1
  O  O19  1  0.38698100  0.18342600  0.54858300  1
  O  O20  1  0.78817300  0.49933900  0.46788100  1
  O  O21  1  0.28854100  0.99925300  0.96794600  1
  O  O22  1  0.71139700  0.00077300  0.03207600  1
  O  O23  1  0.21181200  0.50066700  0.53213500  1
  O  O24  1  0.28663900  0.84409500  0.38118500  1
  O  O25  1  0.78673400  0.34448300  0.88134600  1
  O  O26  1  0.21330900  0.65554600  0.11861300  1
  O  O27  1  0.71337800  0.15590100  0.61880700  1
  O  O28  1  0.47585500  0.61070900  0.28582500  1
  O  O29  1  0.97596100  0.11073800  0.78606200  1
  O  O30  1  0.02403000  0.88923800  0.21395900  1
  O  O31  1  0.52413500  0.38924100  0.71419200  1
