# generated using pymatgen
data_Cs2UMoO7
_symmetry_space_group_name_H-M   'P 1'
_cell_length_a   12.24627876
_cell_length_b   12.81334719
_cell_length_c   18.14487301
_cell_angle_alpha   90.00000000
_cell_angle_beta   90.00000000
_cell_angle_gamma   90.00000000
_symmetry_Int_Tables_number   1
_chemical_formula_structural   Cs2UMoO7
_chemical_formula_sum   'Cs24 U12 Mo12 O84'
_cell_volume   2847.21765506
_cell_formula_units_Z   12
loop_
 _symmetry_equiv_pos_site_id
 _symmetry_equiv_pos_as_xyz
  1  'x, y, z'
loop_
 _atom_site_type_symbol
 _atom_site_label
 _atom_site_symmetry_multiplicity
 _atom_site_fract_x
 _atom_site_fract_y
 _atom_site_fract_z
 _atom_site_occupancy
  Cs  Cs0  1  0.63206785  0.49440792  0.40303255  1
  Cs  Cs1  1  0.63950255  0.95815292  0.40523477  1
  Cs  Cs2  1  0.36793215  0.50559208  0.90303255  1
  Cs  Cs3  1  0.86455148  0.52081256  0.24140539  1
  Cs  Cs4  1  0.86623712  0.51626213  0.56879545  1
  Cs  Cs5  1  0.63544852  0.52081256  0.74140539  1
  Cs  Cs6  1  0.13376288  0.48373787  0.06879545  1
  Cs  Cs7  1  0.37585854  0.99771683  0.56500754  1
  Cs  Cs8  1  0.13950255  0.04184708  0.40523477  1
  Cs  Cs9  1  0.87585854  0.00228317  0.56500754  1
  Cs  Cs10  1  0.12414146  0.99771683  0.06500754  1
  Cs  Cs11  1  0.63376288  0.51626213  0.06879545  1
  Cs  Cs12  1  0.13206785  0.50559208  0.40303255  1
  Cs  Cs13  1  0.36049745  0.04184708  0.90523477  1
  Cs  Cs14  1  0.87231625  0.00113564  0.24461371  1
  Cs  Cs15  1  0.13544852  0.47918744  0.74140539  1
  Cs  Cs16  1  0.12768375  0.99886436  0.74461371  1
  Cs  Cs17  1  0.37231625  0.99886436  0.24461371  1
  Cs  Cs18  1  0.86793215  0.49440792  0.90303255  1
  Cs  Cs19  1  0.86049745  0.95815292  0.90523477  1
  Cs  Cs20  1  0.62768375  0.00113564  0.74461371  1
  Cs  Cs21  1  0.62414146  0.00228317  0.06500754  1
  Cs  Cs22  1  0.36455148  0.47918744  0.24140539  1
  Cs  Cs23  1  0.36623712  0.48373787  0.56879545  1
  U  U24  1  0.86354631  0.26261668  0.40484805  1
  U  U25  1  0.37047892  0.75906137  0.73616169  1
  U  U26  1  0.12964953  0.75438092  0.57287240  1
  U  U27  1  0.13645369  0.73738332  0.90484805  1
  U  U28  1  0.63645369  0.26261668  0.90484805  1
  U  U29  1  0.62952108  0.24093863  0.23616169  1
  U  U30  1  0.87035047  0.24561908  0.07287240  1
  U  U31  1  0.36354631  0.73738332  0.40484805  1
  U  U32  1  0.37035047  0.75438092  0.07287240  1
  U  U33  1  0.87047892  0.24093863  0.73616169  1
  U  U34  1  0.12952108  0.75906137  0.23616169  1
  U  U35  1  0.62964953  0.24561908  0.57287240  1
  Mo  Mo36  1  0.91412489  0.74542238  0.40521998  1
  Mo  Mo37  1  0.41260343  0.24576338  0.73752657  1
  Mo  Mo38  1  0.08587511  0.25457762  0.90521998  1
  Mo  Mo39  1  0.40922923  0.24011063  0.07399891  1
  Mo  Mo40  1  0.59077077  0.75988937  0.57399891  1
  Mo  Mo41  1  0.58739657  0.75423662  0.23752657  1
  Mo  Mo42  1  0.58587511  0.74542238  0.90521998  1
  Mo  Mo43  1  0.41412489  0.25457762  0.40521998  1
  Mo  Mo44  1  0.91260343  0.75423662  0.73752657  1
  Mo  Mo45  1  0.09077077  0.24011063  0.57399891  1
  Mo  Mo46  1  0.08739657  0.24576338  0.23752657  1
  Mo  Mo47  1  0.90922923  0.75988937  0.07399891  1
  O  O48  1  0.62248643  0.10750437  0.53933606  1
  O  O49  1  0.11237608  0.11879890  0.90741981  1
  O  O50  1  0.50249786  0.76685246  0.49295764  1
  O  O51  1  0.29175591  0.17242124  0.74846320  1
  O  O52  1  0.20185370  0.15513496  0.55888134  1
  O  O53  1  0.38266204  0.62248004  0.70156452  1
  O  O54  1  0.37447217  0.89826437  0.76847445  1
  O  O55  1  0.75261100  0.28783315  0.81792562  1
  O  O56  1  0.49304750  0.29490067  0.48626261  1
  O  O57  1  0.99750214  0.76685246  0.99295764  1
  O  O58  1  0.61237608  0.88120110  0.90741981  1
  O  O59  1  0.98605552  0.80709614  0.15423165  1
  O  O60  1  0.49997377  0.22047587  0.81736326  1
  O  O61  1  0.38762392  0.11879890  0.40741981  1
  O  O62  1  0.01394448  0.19290386  0.65423165  1
  O  O63  1  0.00894278  0.28862310  0.82201977  1
  O  O64  1  0.88052969  0.61952956  0.73231082  1
  O  O65  1  0.40261918  0.59472130  0.40195514  1
  O  O66  1  0.13873247  0.36920616  0.58726312  1
  O  O67  1  0.00249786  0.23314754  0.49295764  1
  O  O68  1  0.11947031  0.38047044  0.23231082  1
  O  O69  1  0.09738082  0.59472130  0.90195514  1
  O  O70  1  0.87751357  0.10750437  0.03933606  1
  O  O71  1  0.61733796  0.37751996  0.20156452  1
  O  O72  1  0.62071116  0.38248186  0.60750920  1
  O  O73  1  0.16376805  0.88075320  0.90778432  1
  O  O74  1  0.51594584  0.79898044  0.15436289  1
  O  O75  1  0.70824409  0.82757876  0.24846320  1
  O  O76  1  0.36126753  0.36920616  0.08726312  1
  O  O77  1  0.87447217  0.10173563  0.76847445  1
  O  O78  1  0.63873247  0.63079384  0.58726312  1
  O  O79  1  0.70975621  0.67458214  0.90501283  1
  O  O80  1  0.79814630  0.84486504  0.05888134  1
  O  O81  1  0.99105722  0.71137690  0.32201977  1
  O  O82  1  0.48405416  0.20101956  0.65436289  1
  O  O83  1  0.24906015  0.70707658  0.49167889  1
  O  O84  1  0.37928884  0.61751814  0.10750920  1
  O  O85  1  0.99304750  0.70509933  0.48626261  1
  O  O86  1  0.83623195  0.11924680  0.40778432  1
  O  O87  1  0.01594584  0.20101956  0.15436289  1
  O  O88  1  0.29024379  0.32541786  0.40501283  1
  O  O89  1  0.88266204  0.37751996  0.70156452  1
  O  O90  1  0.50002623  0.77952413  0.31736326  1
  O  O91  1  0.12248643  0.89249563  0.53933606  1
  O  O92  1  0.25078246  0.79924219  0.15454584  1
  O  O93  1  0.38052969  0.38047044  0.73231082  1
  O  O94  1  0.20975621  0.32541786  0.90501283  1
  O  O95  1  0.33623195  0.88075320  0.40778432  1
  O  O96  1  0.25093985  0.70707658  0.99167889  1
  O  O97  1  0.74906015  0.29292342  0.49167889  1
  O  O98  1  0.51394448  0.80709614  0.65423165  1
  O  O99  1  0.24738900  0.71216685  0.31792562  1
  O  O100  1  0.11733796  0.62248004  0.20156452  1
  O  O101  1  0.99997377  0.77952413  0.81736326  1
  O  O102  1  0.88762392  0.88120110  0.40741981  1
  O  O103  1  0.00695250  0.29490067  0.98626261  1
  O  O104  1  0.74738900  0.28783315  0.31792562  1
  O  O105  1  0.29814630  0.15513496  0.05888134  1
  O  O106  1  0.24921754  0.79924219  0.65454584  1
  O  O107  1  0.75078246  0.20075781  0.15454584  1
  O  O108  1  0.62552783  0.10173563  0.26847445  1
  O  O109  1  0.66376805  0.11924680  0.90778432  1
  O  O110  1  0.61947031  0.61952956  0.23231082  1
  O  O111  1  0.20824409  0.17242124  0.24846320  1
  O  O112  1  0.49750214  0.23314754  0.99295764  1
  O  O113  1  0.12552783  0.89826437  0.26847445  1
  O  O114  1  0.00002623  0.22047587  0.31736326  1
  O  O115  1  0.79175591  0.82757876  0.74846320  1
  O  O116  1  0.79024379  0.67458214  0.40501283  1
  O  O117  1  0.86126753  0.63079384  0.08726312  1
  O  O118  1  0.48605552  0.19290386  0.15423165  1
  O  O119  1  0.70185370  0.84486504  0.55888134  1
  O  O120  1  0.37751357  0.89249563  0.03933606  1
  O  O121  1  0.90261918  0.40527870  0.40195514  1
  O  O122  1  0.75093985  0.29292342  0.99167889  1
  O  O123  1  0.50894278  0.71137690  0.82201977  1
  O  O124  1  0.59738082  0.40527870  0.90195514  1
  O  O125  1  0.87928884  0.38248186  0.10750920  1
  O  O126  1  0.25261100  0.71216685  0.81792562  1
  O  O127  1  0.49105722  0.28862310  0.32201977  1
  O  O128  1  0.98405416  0.79898044  0.65436289  1
  O  O129  1  0.12071116  0.61751814  0.60750920  1
  O  O130  1  0.74921754  0.20075781  0.65454584  1
  O  O131  1  0.50695250  0.70509933  0.98626261  1
