# generated using pymatgen
data_Cs3V2Cl9
_symmetry_space_group_name_H-M   'P 1'
_cell_length_a   7.47656009
_cell_length_b   7.47656009
_cell_length_c   18.23300300
_cell_angle_alpha   90.00000000
_cell_angle_beta   90.00000000
_cell_angle_gamma   120.00000082
_symmetry_Int_Tables_number   1
_chemical_formula_structural   Cs3V2Cl9
_chemical_formula_sum   'Cs6 V4 Cl18'
_cell_volume   882.65805349
_cell_formula_units_Z   2
loop_
 _symmetry_equiv_pos_site_id
 _symmetry_equiv_pos_as_xyz
  1  'x, y, z'
loop_
 _atom_site_type_symbol
 _atom_site_label
 _atom_site_symmetry_multiplicity
 _atom_site_fract_x
 _atom_site_fract_y
 _atom_site_fract_z
 _atom_site_occupancy
  Cs  Cs0  1  0.00000000  0.00000000  0.25000000  1
  Cs  Cs1  1  0.00000000  0.00000000  0.75000000  1
  Cs  Cs2  1  0.33333300  0.66666700  0.42458400  1
  Cs  Cs3  1  0.66666700  0.33333300  0.57541600  1
  Cs  Cs4  1  0.66666700  0.33333300  0.92458400  1
  Cs  Cs5  1  0.33333300  0.66666700  0.07541600  1
  V  V6  1  0.33333300  0.66666700  0.66409500  1
  V  V7  1  0.66666700  0.33333300  0.33590500  1
  V  V8  1  0.66666700  0.33333300  0.16409500  1
  V  V9  1  0.33333300  0.66666700  0.83590500  1
  Cl  Cl10  1  0.51893100  0.48106900  0.25000000  1
  Cl  Cl11  1  0.51893100  0.03786300  0.25000000  1
  Cl  Cl12  1  0.96213700  0.48106900  0.25000000  1
  Cl  Cl13  1  0.48106900  0.51893100  0.75000000  1
  Cl  Cl14  1  0.48106900  0.96213700  0.75000000  1
  Cl  Cl15  1  0.03786300  0.51893100  0.75000000  1
  Cl  Cl16  1  0.81735800  0.18264200  0.40565600  1
  Cl  Cl17  1  0.81735800  0.63471600  0.40565600  1
  Cl  Cl18  1  0.36528400  0.18264200  0.40565600  1
  Cl  Cl19  1  0.18264200  0.81735800  0.59434400  1
  Cl  Cl20  1  0.18264200  0.36528400  0.59434400  1
  Cl  Cl21  1  0.63471600  0.81735800  0.59434400  1
  Cl  Cl22  1  0.18264200  0.81735800  0.90565600  1
  Cl  Cl23  1  0.18264200  0.36528400  0.90565600  1
  Cl  Cl24  1  0.63471600  0.81735800  0.90565600  1
  Cl  Cl25  1  0.81735800  0.18264200  0.09434400  1
  Cl  Cl26  1  0.81735800  0.63471600  0.09434400  1
  Cl  Cl27  1  0.36528400  0.18264200  0.09434400  1
