# generated using pymatgen
data_MgV2PbO7
_symmetry_space_group_name_H-M   'P 1'
_cell_length_a   15.27936000
_cell_length_b   6.96238400
_cell_length_c   11.70902076
_cell_angle_alpha   82.07214155
_cell_angle_beta   90.00000000
_cell_angle_gamma   90.00000000
_symmetry_Int_Tables_number   1
_chemical_formula_structural   MgV2PbO7
_chemical_formula_sum   'Mg8 V16 Pb8 O56'
_cell_volume   1233.70972282
_cell_formula_units_Z   8
loop_
 _symmetry_equiv_pos_site_id
 _symmetry_equiv_pos_as_xyz
  1  'x, y, z'
loop_
 _atom_site_type_symbol
 _atom_site_label
 _atom_site_symmetry_multiplicity
 _atom_site_fract_x
 _atom_site_fract_y
 _atom_site_fract_z
 _atom_site_occupancy
  Mg  Mg0  1  0.75092200  0.01142600  0.23977300  1
  Mg  Mg1  1  0.67678300  0.37582000  0.06280000  1
  Mg  Mg2  1  0.32321700  0.62418000  0.93720000  1
  Mg  Mg3  1  0.25092200  0.98857400  0.26022700  1
  Mg  Mg4  1  0.74907800  0.01142600  0.73977300  1
  Mg  Mg5  1  0.17678300  0.62418000  0.43720000  1
  Mg  Mg6  1  0.82321700  0.37582000  0.56280000  1
  Mg  Mg7  1  0.24907800  0.98857400  0.76022700  1
  V  V8  1  0.30416200  0.49108100  0.23070000  1
  V  V9  1  0.49336900  0.62922400  0.14611700  1
  V  V10  1  0.86302300  0.15622000  0.97979600  1
  V  V11  1  0.36302300  0.84378000  0.52020400  1
  V  V12  1  0.99336900  0.37077600  0.35388300  1
  V  V13  1  0.35718900  0.11179800  0.99534400  1
  V  V14  1  0.63697700  0.15622000  0.47979600  1
  V  V15  1  0.80416200  0.50891900  0.26930000  1
  V  V16  1  0.19583800  0.49108100  0.73070000  1
  V  V17  1  0.69583800  0.50891900  0.76930000  1
  V  V18  1  0.00663100  0.62922400  0.64611700  1
  V  V19  1  0.13697700  0.84378000  0.02020400  1
  V  V20  1  0.64281100  0.88820200  0.00465600  1
  V  V21  1  0.14281100  0.11179800  0.49534400  1
  V  V22  1  0.85718900  0.88820200  0.50465600  1
  V  V23  1  0.50663100  0.37077600  0.85388300  1
  Pb  Pb24  1  0.12536400  0.34081000  0.05377600  1
  Pb  Pb25  1  0.01868900  0.10973900  0.77819700  1
  Pb  Pb26  1  0.98131100  0.89026100  0.22180300  1
  Pb  Pb27  1  0.87463600  0.65919000  0.94622400  1
  Pb  Pb28  1  0.48131100  0.10973900  0.27819700  1
  Pb  Pb29  1  0.51868900  0.89026100  0.72180300  1
  Pb  Pb30  1  0.37463600  0.34081000  0.55377600  1
  Pb  Pb31  1  0.62536400  0.65919000  0.44622400  1
  O  O32  1  0.76433500  0.70062800  0.78521300  1
  O  O33  1  0.29099600  0.31022200  0.96706000  1
  O  O34  1  0.24956600  0.67486600  0.28671400  1
  O  O35  1  0.33324100  0.93748200  0.90573400  1
  O  O36  1  0.23566500  0.29937200  0.21478700  1
  O  O37  1  0.83324100  0.06251800  0.59426600  1
  O  O38  1  0.50910600  0.73372700  0.26644400  1
  O  O39  1  0.14723800  0.01831200  0.63881000  1
  O  O40  1  0.66675900  0.06251800  0.09426600  1
  O  O41  1  0.73566500  0.70062800  0.28521300  1
  O  O42  1  0.74956600  0.32513400  0.21328600  1
  O  O43  1  0.96800000  0.24417400  0.95834800  1
  O  O44  1  0.25043400  0.67486600  0.78671400  1
  O  O45  1  0.03200000  0.75582600  0.04165200  1
  O  O46  1  0.62044900  0.42087300  0.89366400  1
  O  O47  1  0.29037200  0.64860100  0.53375800  1
  O  O48  1  0.35276200  0.01831200  0.13881000  1
  O  O49  1  0.35527900  0.98594600  0.38476700  1
  O  O50  1  0.75043400  0.32513400  0.71328600  1
  O  O51  1  0.53200000  0.24417400  0.45834800  1
  O  O52  1  0.49089400  0.26627300  0.73355600  1
  O  O53  1  0.70962800  0.35139900  0.46624200  1
  O  O54  1  0.14472100  0.98594600  0.88476700  1
  O  O55  1  0.70900400  0.68977800  0.03294000  1
  O  O56  1  0.61649400  0.60164900  0.67544300  1
  O  O57  1  0.87955100  0.42087300  0.39366400  1
  O  O58  1  0.85527900  0.01405400  0.11523300  1
  O  O59  1  0.12044900  0.57912700  0.60633600  1
  O  O60  1  0.96899400  0.79923500  0.52863000  1
  O  O61  1  0.34688200  0.98833600  0.63078200  1
  O  O62  1  0.65311800  0.01166400  0.36921800  1
  O  O63  1  0.84688200  0.01166400  0.86921800  1
  O  O64  1  0.64472100  0.01405400  0.61523300  1
  O  O65  1  0.11649400  0.39835100  0.82455700  1
  O  O66  1  0.38350600  0.39835100  0.32455700  1
  O  O67  1  0.64723800  0.98168800  0.86119000  1
  O  O68  1  0.03100600  0.20076500  0.47137000  1
  O  O69  1  0.53100600  0.79923500  0.02863000  1
  O  O70  1  0.00910600  0.26627300  0.23355600  1
  O  O71  1  0.46800000  0.75582600  0.54165200  1
  O  O72  1  0.05870100  0.57044500  0.35137400  1
  O  O73  1  0.88350600  0.60164900  0.17544300  1
  O  O74  1  0.37955100  0.57912700  0.10633600  1
  O  O75  1  0.20900400  0.31022200  0.46706000  1
  O  O76  1  0.16675900  0.93748200  0.40573400  1
  O  O77  1  0.85276200  0.98168800  0.36119000  1
  O  O78  1  0.79037200  0.35139900  0.96624200  1
  O  O79  1  0.15311800  0.98833600  0.13078200  1
  O  O80  1  0.46899400  0.20076500  0.97137000  1
  O  O81  1  0.55870100  0.42955500  0.14862600  1
  O  O82  1  0.99089400  0.73372700  0.76644400  1
  O  O83  1  0.26433500  0.29937200  0.71478700  1
  O  O84  1  0.79099600  0.68977800  0.53294000  1
  O  O85  1  0.94129900  0.42955500  0.64862600  1
  O  O86  1  0.20962800  0.64860100  0.03375800  1
  O  O87  1  0.44129900  0.57044500  0.85137400  1
