# generated using pymatgen
data_TlGaBr4
_symmetry_space_group_name_H-M   'P 1'
_cell_length_a   11.61654900
_cell_length_b   12.74494300
_cell_length_c   13.10693111
_cell_angle_alpha   70.82082628
_cell_angle_beta   90.00000000
_cell_angle_gamma   90.00000000
_symmetry_Int_Tables_number   1
_chemical_formula_structural   TlGaBr4
_chemical_formula_sum   'Tl8 Ga8 Br32'
_cell_volume   1832.80430203
_cell_formula_units_Z   8
loop_
 _symmetry_equiv_pos_site_id
 _symmetry_equiv_pos_as_xyz
  1  'x, y, z'
loop_
 _atom_site_type_symbol
 _atom_site_label
 _atom_site_symmetry_multiplicity
 _atom_site_fract_x
 _atom_site_fract_y
 _atom_site_fract_z
 _atom_site_occupancy
  Tl  Tl0  1  0.13861700  0.70233800  0.37881600  1
  Tl  Tl1  1  0.36138300  0.70233800  0.87881600  1
  Tl  Tl2  1  0.84039200  0.79551800  0.01900000  1
  Tl  Tl3  1  0.15960800  0.20448200  0.98100000  1
  Tl  Tl4  1  0.34039200  0.20448200  0.48100000  1
  Tl  Tl5  1  0.63861700  0.29766200  0.12118400  1
  Tl  Tl6  1  0.65960800  0.79551800  0.51900000  1
  Tl  Tl7  1  0.86138300  0.29766200  0.62118400  1
  Ga  Ga8  1  0.63817900  0.48231500  0.78851300  1
  Ga  Ga9  1  0.36182100  0.51768500  0.21148700  1
  Ga  Ga10  1  0.42083100  0.00235200  0.27912700  1
  Ga  Ga11  1  0.57916900  0.99764800  0.72087300  1
  Ga  Ga12  1  0.86182100  0.48231500  0.28851300  1
  Ga  Ga13  1  0.13817900  0.51768500  0.71148700  1
  Ga  Ga14  1  0.07916900  0.00235200  0.77912700  1
  Ga  Ga15  1  0.92083100  0.99764800  0.22087300  1
  Br  Br16  1  0.24389700  0.02434700  0.35809700  1
  Br  Br17  1  0.74389700  0.97565300  0.14190300  1
  Br  Br18  1  0.92427500  0.90229300  0.40940300  1
  Br  Br19  1  0.12591700  0.50015700  0.89619700  1
  Br  Br20  1  0.21498300  0.64660600  0.12857900  1
  Br  Br21  1  0.95413000  0.18927800  0.18255900  1
  Br  Br22  1  0.28501700  0.64660600  0.62857900  1
  Br  Br23  1  0.32556800  0.33831900  0.20092700  1
  Br  Br24  1  0.96673300  0.58199900  0.61279200  1
  Br  Br25  1  0.57572500  0.90229300  0.90940300  1
  Br  Br26  1  0.67443200  0.66168100  0.79907300  1
  Br  Br27  1  0.82556800  0.66168100  0.29907300  1
  Br  Br28  1  0.54587000  0.18927800  0.68255900  1
  Br  Br29  1  0.53326700  0.58199900  0.11279200  1
  Br  Br30  1  0.42427500  0.09770700  0.09059700  1
  Br  Br31  1  0.71498300  0.35339400  0.37142100  1
  Br  Br32  1  0.93149500  0.08143300  0.85841100  1
  Br  Br33  1  0.07572500  0.09770700  0.59059700  1
  Br  Br34  1  0.56850500  0.08143300  0.35841100  1
  Br  Br35  1  0.25610300  0.02434700  0.85809700  1
  Br  Br36  1  0.04587000  0.81072200  0.81744100  1
  Br  Br37  1  0.75610300  0.97565300  0.64190300  1
  Br  Br38  1  0.03326700  0.41800100  0.38720800  1
  Br  Br39  1  0.46673300  0.41800100  0.88720800  1
  Br  Br40  1  0.78501700  0.35339400  0.87142100  1
  Br  Br41  1  0.62591700  0.49984300  0.60380300  1
  Br  Br42  1  0.37408300  0.50015700  0.39619700  1
  Br  Br43  1  0.17443200  0.33831900  0.70092700  1
  Br  Br44  1  0.87408300  0.49984300  0.10380300  1
  Br  Br45  1  0.45413000  0.81072200  0.31744100  1
  Br  Br46  1  0.43149500  0.91856700  0.64158900  1
  Br  Br47  1  0.06850500  0.91856700  0.14158900  1
