# generated using pymatgen
data_Na15S5Cl(O5F)4
_symmetry_space_group_name_H-M   'P 1'
_cell_length_a   12.32685871
_cell_length_b   12.32685871
_cell_length_c   14.15477500
_cell_angle_alpha   90.00000000
_cell_angle_beta   90.00000000
_cell_angle_gamma   120.00000383
_symmetry_Int_Tables_number   1
_chemical_formula_structural   Na15S5Cl(O5F)4
_chemical_formula_sum   'Na45 S15 Cl3 O60 F12'
_cell_volume   1862.68073044
_cell_formula_units_Z   3
loop_
 _symmetry_equiv_pos_site_id
 _symmetry_equiv_pos_as_xyz
  1  'x, y, z'
loop_
 _atom_site_type_symbol
 _atom_site_label
 _atom_site_symmetry_multiplicity
 _atom_site_fract_x
 _atom_site_fract_y
 _atom_site_fract_z
 _atom_site_occupancy
  Na  Na0  1  0.85241400  0.52227000  0.14271800  1
  Na  Na1  1  0.66748000  0.84689200  0.32980000  1
  Na  Na2  1  0.33014400  0.47773000  0.14271800  1
  Na  Na3  1  0.82800500  0.66593300  0.71344400  1
  Na  Na4  1  0.00000000  0.81721700  0.52414100  1
  Na  Na5  1  0.84689200  0.66748000  0.32980000  1
  Na  Na6  1  0.48458400  0.48458400  0.71615600  1
  Na  Na7  1  0.66389600  0.51006600  0.90959700  1
  Na  Na8  1  0.33610400  0.84617000  0.90959700  1
  Na  Na9  1  0.33284100  0.48495100  0.53047700  1
  Na  Na10  1  0.48993400  0.15383000  0.90959700  1
  Na  Na11  1  0.82058800  0.15310800  0.32980000  1
  Na  Na12  1  0.17941200  0.33252000  0.32980000  1
  Na  Na13  1  0.47773000  0.33014400  0.14271800  1
  Na  Na14  1  0.00000000  0.82453800  0.13339900  1
  Na  Na15  1  0.81721700  0.00000000  0.52414100  1
  Na  Na16  1  0.19019300  0.00000000  0.89648000  1
  Na  Na17  1  0.48183800  0.48183800  0.32466300  1
  Na  Na18  1  0.00000000  0.19019300  0.89648000  1
  Na  Na19  1  0.48495100  0.33284100  0.53047700  1
  Na  Na20  1  0.18278300  0.18278300  0.52414100  1
  Na  Na21  1  0.16207300  0.33406700  0.71344400  1
  Na  Na22  1  0.00000000  0.51541600  0.71615600  1
  Na  Na23  1  0.33252000  0.17941200  0.32980000  1
  Na  Na24  1  0.83792700  0.17199500  0.71344400  1
  Na  Na25  1  0.80980700  0.80980700  0.89648000  1
  Na  Na26  1  0.51816200  0.00000000  0.32466300  1
  Na  Na27  1  0.15383000  0.48993400  0.90959700  1
  Na  Na28  1  0.51541600  0.00000000  0.71615600  1
  Na  Na29  1  0.15310800  0.82058800  0.32980000  1
  Na  Na30  1  0.33406700  0.16207300  0.71344400  1
  Na  Na31  1  0.14758600  0.66985600  0.14271800  1
  Na  Na32  1  0.66985600  0.14758600  0.14271800  1
  Na  Na33  1  0.66715900  0.15211100  0.53047700  1
  Na  Na34  1  0.84788900  0.51504900  0.53047700  1
  Na  Na35  1  0.51504900  0.84788900  0.53047700  1
  Na  Na36  1  0.15211100  0.66715900  0.53047700  1
  Na  Na37  1  0.82453800  0.00000000  0.13339900  1
  Na  Na38  1  0.17199500  0.83792700  0.71344400  1
  Na  Na39  1  0.17546200  0.17546200  0.13339900  1
  Na  Na40  1  0.00000000  0.51816200  0.32466300  1
  Na  Na41  1  0.52227000  0.85241400  0.14271800  1
  Na  Na42  1  0.66593300  0.82800500  0.71344400  1
  Na  Na43  1  0.84617000  0.33610400  0.90959700  1
  Na  Na44  1  0.51006600  0.66389600  0.90959700  1
  S  S45  1  0.00000000  0.66877400  0.91756400  1
  S  S46  1  0.33681400  0.00000000  0.50758900  1
  S  S47  1  0.66541100  0.66541100  0.12534000  1
  S  S48  1  0.33333300  0.66666700  0.72225900  1
  S  S49  1  0.66877400  0.00000000  0.91756400  1
  S  S50  1  0.00000000  0.00000000  0.69972000  1
  S  S51  1  0.66318600  0.66318600  0.50758900  1
  S  S52  1  0.00000000  0.33681400  0.50758900  1
  S  S53  1  0.33458900  0.00000000  0.12534000  1
  S  S54  1  0.33333300  0.66666700  0.34511500  1
  S  S55  1  0.66666700  0.33333300  0.34511500  1
  S  S56  1  0.66666700  0.33333300  0.72225900  1
  S  S57  1  0.00000000  0.33458900  0.12534000  1
  S  S58  1  0.00000000  0.00000000  0.32877900  1
  S  S59  1  0.33122600  0.33122600  0.91756400  1
  Cl  Cl60  1  0.66666700  0.33333300  0.04333300  1
  Cl  Cl61  1  0.33333300  0.66666700  0.04333300  1
  Cl  Cl62  1  0.00000000  0.00000000  0.99871900  1
  O  O63  1  0.67204700  0.00000000  0.02272400  1
  O  O64  1  0.22055300  0.88582300  0.53973900  1
  O  O65  1  0.55114600  0.33086600  0.68765700  1
  O  O66  1  0.33086600  0.55114600  0.68765700  1
  O  O67  1  0.44907400  0.77938300  0.31041100  1
  O  O68  1  0.22028000  0.66913400  0.68765700  1
  O  O69  1  0.55151400  0.55151400  0.54821800  1
  O  O70  1  0.66913400  0.22028000  0.68765700  1
  O  O71  1  0.00000000  0.44848600  0.54821800  1
  O  O72  1  0.66666700  0.33333300  0.82795000  1
  O  O73  1  0.11448900  0.00000000  0.73421500  1
  O  O74  1  0.00000000  0.33526100  0.01945300  1
  O  O75  1  0.88535700  0.66674700  0.88032100  1
  O  O76  1  0.77944700  0.66527000  0.53973900  1
  O  O77  1  0.21861100  0.33325300  0.88032100  1
  O  O78  1  0.66674700  0.88535700  0.88032100  1
  O  O79  1  0.32795300  0.32795300  0.02272400  1
  O  O80  1  0.00000000  0.11448900  0.73421500  1
  O  O81  1  0.66527000  0.77944700  0.53973900  1
  O  O82  1  0.77993400  0.66641200  0.16077900  1
  O  O83  1  0.00000000  0.44870400  0.16099300  1
  O  O84  1  0.77938300  0.44907400  0.31041100  1
  O  O85  1  0.44848600  0.00000000  0.54821800  1
  O  O86  1  0.00000000  0.34291200  0.40160200  1
  O  O87  1  0.11464300  0.78138900  0.88032100  1
  O  O88  1  0.33526100  0.00000000  0.01945300  1
  O  O89  1  0.66641200  0.77993400  0.16077900  1
  O  O90  1  0.33325300  0.21861100  0.88032100  1
  O  O91  1  0.88647800  0.22006600  0.16077900  1
  O  O92  1  0.22006600  0.88647800  0.16077900  1
  O  O93  1  0.00000000  0.88568400  0.36382300  1
  O  O94  1  0.66666700  0.33333300  0.45151200  1
  O  O95  1  0.33333300  0.66666700  0.45151200  1
  O  O96  1  0.66473900  0.66473900  0.01945300  1
  O  O97  1  0.00000000  0.00000000  0.59357800  1
  O  O98  1  0.44885400  0.77972000  0.68765700  1
  O  O99  1  0.88551100  0.88551100  0.73421500  1
  O  O100  1  0.88568400  0.00000000  0.36382300  1
  O  O101  1  0.11352200  0.33358800  0.16077900  1
  O  O102  1  0.11431600  0.11431600  0.36382300  1
  O  O103  1  0.55129600  0.55129600  0.16099300  1
  O  O104  1  0.77972000  0.44885400  0.68765700  1
  O  O105  1  0.55092600  0.33030900  0.31041100  1
  O  O106  1  0.00000000  0.00000000  0.22304700  1
  O  O107  1  0.33030900  0.55092600  0.31041100  1
  O  O108  1  0.34291200  0.00000000  0.40160200  1
  O  O109  1  0.88582300  0.22055300  0.53973900  1
  O  O110  1  0.00000000  0.67204700  0.02272400  1
  O  O111  1  0.65708800  0.65708800  0.40160200  1
  O  O112  1  0.44649500  0.44649500  0.88462200  1
  O  O113  1  0.00000000  0.55350500  0.88462200  1
  O  O114  1  0.55350500  0.00000000  0.88462200  1
  O  O115  1  0.33333300  0.66666700  0.82795000  1
  O  O116  1  0.66969100  0.22061700  0.31041100  1
  O  O117  1  0.78138900  0.11464300  0.88032100  1
  O  O118  1  0.33358800  0.11352200  0.16077900  1
  O  O119  1  0.33473000  0.11417700  0.53973900  1
  O  O120  1  0.44870400  0.00000000  0.16099300  1
  O  O121  1  0.22061700  0.66969100  0.31041100  1
  O  O122  1  0.11417700  0.33473000  0.53973900  1
  F  F123  1  0.34054400  0.34054400  0.43268600  1
  F  F124  1  0.65270900  0.65270900  0.79242400  1
  F  F125  1  0.34729100  0.00000000  0.79242400  1
  F  F126  1  0.65945600  0.00000000  0.43268600  1
  F  F127  1  0.00000000  0.65945600  0.43268600  1
  F  F128  1  0.31602900  0.31602900  0.64139400  1
  F  F129  1  0.68397100  0.00000000  0.64139400  1
  F  F130  1  0.00000000  0.34729100  0.79242400  1
  F  F131  1  0.00000000  0.68397100  0.64139400  1
  F  F132  1  0.32328500  0.32328500  0.23220500  1
  F  F133  1  0.67671500  0.00000000  0.23220500  1
  F  F134  1  0.00000000  0.67671500  0.23220500  1
