# generated using pymatgen
data_KNa7Pb2O7
_symmetry_space_group_name_H-M   'P 1'
_cell_length_a   6.04086100
_cell_length_b   10.75668900
_cell_length_c   17.82085779
_cell_angle_alpha   89.66216534
_cell_angle_beta   90.00000000
_cell_angle_gamma   90.00000000
_symmetry_Int_Tables_number   1
_chemical_formula_structural   KNa7Pb2O7
_chemical_formula_sum   'K4 Na28 Pb8 O28'
_cell_volume   1157.97320475
_cell_formula_units_Z   4
loop_
 _symmetry_equiv_pos_site_id
 _symmetry_equiv_pos_as_xyz
  1  'x, y, z'
loop_
 _atom_site_type_symbol
 _atom_site_label
 _atom_site_symmetry_multiplicity
 _atom_site_fract_x
 _atom_site_fract_y
 _atom_site_fract_z
 _atom_site_occupancy
  K  K0  1  0.01598000  0.86001000  0.46369300  1
  K  K1  1  0.98402000  0.13999000  0.53630700  1
  K  K2  1  0.48402000  0.36001000  0.46369300  1
  K  K3  1  0.51598000  0.63999000  0.53630700  1
  Na  Na4  1  0.31936800  0.66689700  0.19451500  1
  Na  Na5  1  0.44109500  0.07021400  0.41982600  1
  Na  Na6  1  0.28623900  0.70536200  0.82259200  1
  Na  Na7  1  0.18063200  0.16689700  0.19451500  1
  Na  Na8  1  0.81936800  0.83310300  0.80548500  1
  Na  Na9  1  0.40168000  0.40991000  0.29354200  1
  Na  Na10  1  0.83598500  0.57856400  0.86431700  1
  Na  Na11  1  0.68063200  0.33310300  0.80548500  1
  Na  Na12  1  0.33598500  0.92143600  0.13568300  1
  Na  Na13  1  0.21376100  0.20536200  0.82259200  1
  Na  Na14  1  0.66401500  0.07856400  0.86431700  1
  Na  Na15  1  0.05890500  0.57021400  0.41982600  1
  Na  Na16  1  0.66951400  0.81330700  0.97075300  1
  Na  Na17  1  0.59832000  0.59009000  0.70645800  1
  Na  Na18  1  0.16951400  0.68669300  0.02924700  1
  Na  Na19  1  0.14592200  0.45773100  0.74661100  1
  Na  Na20  1  0.55890500  0.92978600  0.58017400  1
  Na  Na21  1  0.85407800  0.54226900  0.25338900  1
  Na  Na22  1  0.83048600  0.31330700  0.97075300  1
  Na  Na23  1  0.35407800  0.95773100  0.74661100  1
  Na  Na24  1  0.90168000  0.09009000  0.70645800  1
  Na  Na25  1  0.78623900  0.79463800  0.17740800  1
  Na  Na26  1  0.94109500  0.42978600  0.58017400  1
  Na  Na27  1  0.09832000  0.90991000  0.29354200  1
  Na  Na28  1  0.64592200  0.04226900  0.25338900  1
  Na  Na29  1  0.71376100  0.29463800  0.17740800  1
  Na  Na30  1  0.33048600  0.18669300  0.02924700  1
  Na  Na31  1  0.16401500  0.42143600  0.13568300  1
  Pb  Pb32  1  0.68337700  0.55990800  0.07776900  1
  Pb  Pb33  1  0.31662300  0.44009200  0.92223100  1
  Pb  Pb34  1  0.06604600  0.75017700  0.64246600  1
  Pb  Pb35  1  0.43395400  0.25017700  0.64246600  1
  Pb  Pb36  1  0.93395400  0.24982300  0.35753400  1
  Pb  Pb37  1  0.81662300  0.05990800  0.07776900  1
  Pb  Pb38  1  0.18337700  0.94009200  0.92223100  1
  Pb  Pb39  1  0.56604600  0.74982300  0.35753400  1
  O  O40  1  0.43342900  0.57266000  0.38145100  1
  O  O41  1  0.01109100  0.75707700  0.91718100  1
  O  O42  1  0.56657100  0.42734000  0.61854900  1
  O  O43  1  0.01426500  0.63877700  0.54709400  1
  O  O44  1  0.98890900  0.24292300  0.08281900  1
  O  O45  1  0.90593800  0.72179500  0.33343000  1
  O  O46  1  0.09406200  0.27820500  0.66657000  1
  O  O47  1  0.95468500  0.65460600  0.73997100  1
  O  O48  1  0.04531500  0.34539400  0.26002900  1
  O  O49  1  0.51314100  0.11822400  0.13814500  1
  O  O50  1  0.48890900  0.25707700  0.91718100  1
  O  O51  1  0.45468500  0.84539400  0.26002900  1
  O  O52  1  0.54531500  0.15460600  0.73997100  1
  O  O53  1  0.48685900  0.88177600  0.86185500  1
  O  O54  1  0.51109100  0.74292300  0.08281900  1
  O  O55  1  0.02586300  0.01587300  0.81990700  1
  O  O56  1  0.01314100  0.38177600  0.86185500  1
  O  O57  1  0.51426500  0.86122300  0.45290600  1
  O  O58  1  0.06657100  0.07266000  0.38145100  1
  O  O59  1  0.47413700  0.51587300  0.81990700  1
  O  O60  1  0.97413700  0.98412700  0.18009300  1
  O  O61  1  0.48573500  0.13877700  0.54709400  1
  O  O62  1  0.98573500  0.36122300  0.45290600  1
  O  O63  1  0.93342900  0.92734000  0.61854900  1
  O  O64  1  0.98685900  0.61822400  0.13814500  1
  O  O65  1  0.40593800  0.77820500  0.66657000  1
  O  O66  1  0.52586300  0.48412700  0.18009300  1
  O  O67  1  0.59406200  0.22179500  0.33343000  1
