# generated using pymatgen
data_Ce
_symmetry_space_group_name_H-M   'P 1'
_cell_length_a   3.33010640
_cell_length_b   3.33010640
_cell_length_c   5.77112044
_cell_angle_alpha   73.17554353
_cell_angle_beta   73.17554353
_cell_angle_gamma   59.88308880
_symmetry_Int_Tables_number   1
_chemical_formula_structural   Ce
_chemical_formula_sum   Ce2
_cell_volume   52.18021327
_cell_formula_units_Z   2
loop_
 _symmetry_equiv_pos_site_id
 _symmetry_equiv_pos_as_xyz
  1  'x, y, z'
loop_
 _atom_site_type_symbol
 _atom_site_label
 _atom_site_symmetry_multiplicity
 _atom_site_fract_x
 _atom_site_fract_y
 _atom_site_fract_z
 _atom_site_occupancy
  Ce  Ce0  1  0.74463900  0.74463900  0.24950500  1
  Ce  Ce1  1  0.25536100  0.25536100  0.75049500  1
