# generated using pymatgen
data_CaNiAsHO5
_symmetry_space_group_name_H-M   'P 1'
_cell_length_a   5.99951800
_cell_length_b   7.52679700
_cell_length_c   9.01506200
_cell_angle_alpha   90.00000000
_cell_angle_beta   90.00000000
_cell_angle_gamma   90.00000000
_symmetry_Int_Tables_number   1
_chemical_formula_structural   CaNiAsHO5
_chemical_formula_sum   'Ca4 Ni4 As4 H4 O20'
_cell_volume   407.09454381
_cell_formula_units_Z   4
loop_
 _symmetry_equiv_pos_site_id
 _symmetry_equiv_pos_as_xyz
  1  'x, y, z'
loop_
 _atom_site_type_symbol
 _atom_site_label
 _atom_site_symmetry_multiplicity
 _atom_site_fract_x
 _atom_site_fract_y
 _atom_site_fract_z
 _atom_site_occupancy
  Ca  Ca0  1  0.47478900  0.37244200  0.17327400  1
  Ca  Ca1  1  0.97478900  0.12755800  0.82672600  1
  Ca  Ca2  1  0.52521100  0.87244200  0.32672600  1
  Ca  Ca3  1  0.02521100  0.62755800  0.67327400  1
  Ni  Ni4  1  0.25668400  0.24252000  0.50360200  1
  Ni  Ni5  1  0.75668400  0.25748000  0.49639800  1
  Ni  Ni6  1  0.74331600  0.74252000  0.99639800  1
  Ni  Ni7  1  0.24331600  0.75748000  0.00360200  1
  As  As8  1  0.01669100  0.12068100  0.17952900  1
  As  As9  1  0.51669100  0.37931900  0.82047100  1
  As  As10  1  0.98330900  0.62068100  0.32047100  1
  As  As11  1  0.48330900  0.87931900  0.67952900  1
  H  H12  1  0.01183700  0.48969000  0.98150300  1
  H  H13  1  0.51183700  0.01031000  0.01849700  1
  H  H14  1  0.98816300  0.98969000  0.51849700  1
  H  H15  1  0.48816300  0.51031000  0.48150300  1
  O  O16  1  0.98997500  0.93928800  0.05998200  1
  O  O17  1  0.48997500  0.56071200  0.94001800  1
  O  O18  1  0.01002500  0.43928800  0.44001800  1
  O  O19  1  0.51002500  0.06071200  0.55998200  1
  O  O20  1  0.08688300  0.28893700  0.05925100  1
  O  O21  1  0.58688300  0.21106300  0.94074900  1
  O  O22  1  0.91311700  0.78893700  0.44074900  1
  O  O23  1  0.41311700  0.71106300  0.55925100  1
  O  O24  1  0.76759400  0.14811200  0.27351100  1
  O  O25  1  0.26759400  0.35188800  0.72648900  1
  O  O26  1  0.23240600  0.64811200  0.22648900  1
  O  O27  1  0.73240600  0.85188800  0.77351100  1
  O  O28  1  0.24684200  0.10842300  0.29499200  1
  O  O29  1  0.74684200  0.39157700  0.70500800  1
  O  O30  1  0.75315800  0.60842300  0.20500800  1
  O  O31  1  0.25315800  0.89157700  0.79499200  1
  O  O32  1  0.49862600  0.39638300  0.42702200  1
  O  O33  1  0.99862600  0.10361700  0.57297800  1
  O  O34  1  0.50137400  0.89638300  0.07297800  1
  O  O35  1  0.00137400  0.60361700  0.92702200  1
