# generated using pymatgen
data_Cs2PtC2
_symmetry_space_group_name_H-M   'P 1'
_cell_length_a   5.75722019
_cell_length_b   5.75722019
_cell_length_c   5.25844300
_cell_angle_alpha   90.00000000
_cell_angle_beta   90.00000000
_cell_angle_gamma   120.00000224
_symmetry_Int_Tables_number   1
_chemical_formula_structural   Cs2PtC2
_chemical_formula_sum   'Cs2 Pt1 C2'
_cell_volume   150.94317218
_cell_formula_units_Z   1
loop_
 _symmetry_equiv_pos_site_id
 _symmetry_equiv_pos_as_xyz
  1  'x, y, z'
loop_
 _atom_site_type_symbol
 _atom_site_label
 _atom_site_symmetry_multiplicity
 _atom_site_fract_x
 _atom_site_fract_y
 _atom_site_fract_z
 _atom_site_occupancy
  Cs  Cs0  1  0.33333300  0.66666700  0.26935500  1
  Cs  Cs1  1  0.66666700  0.33333300  0.73064500  1
  Pt  Pt2  1  0.00000000  0.00000000  0.00000000  1
  C  C3  1  0.00000000  0.00000000  0.37868200  1
  C  C4  1  0.00000000  0.00000000  0.62131800  1
