# generated using pymatgen
data_YI3
_symmetry_space_group_name_H-M   'P 1'
_cell_length_a   8.77045618
_cell_length_b   8.77045618
_cell_length_c   8.77045532
_cell_angle_alpha   52.12711269
_cell_angle_beta   52.12711269
_cell_angle_gamma   52.12711653
_symmetry_Int_Tables_number   1
_chemical_formula_structural   YI3
_chemical_formula_sum   'Y2 I6'
_cell_volume   388.77068914
_cell_formula_units_Z   2
loop_
 _symmetry_equiv_pos_site_id
 _symmetry_equiv_pos_as_xyz
  1  'x, y, z'
loop_
 _atom_site_type_symbol
 _atom_site_label
 _atom_site_symmetry_multiplicity
 _atom_site_fract_x
 _atom_site_fract_y
 _atom_site_fract_z
 _atom_site_occupancy
  Y  Y0  1  0.16639800  0.16639800  0.16639800  1
  Y  Y1  1  0.83360200  0.83360200  0.83360200  1
  I  I2  1  0.57762200  0.22167800  0.93525700  1
  I  I3  1  0.77832200  0.06474300  0.42237800  1
  I  I4  1  0.06474300  0.42237800  0.77832200  1
  I  I5  1  0.42237800  0.77832200  0.06474300  1
  I  I6  1  0.93525700  0.57762200  0.22167800  1
  I  I7  1  0.22167800  0.93525700  0.57762200  1
