# generated using pymatgen
data_Ta2Hg3S(O2F5)2
_symmetry_space_group_name_H-M   'P 1'
_cell_length_a   12.30912150
_cell_length_b   10.48936124
_cell_length_c   9.30622782
_cell_angle_alpha   76.63821534
_cell_angle_beta   56.00576461
_cell_angle_gamma   47.35602005
_symmetry_Int_Tables_number   1
_chemical_formula_structural   Ta2Hg3S(O2F5)2
_chemical_formula_sum   'Ta4 Hg6 S2 O8 F20'
_cell_volume   710.98909436
_cell_formula_units_Z   2
loop_
 _symmetry_equiv_pos_site_id
 _symmetry_equiv_pos_as_xyz
  1  'x, y, z'
loop_
 _atom_site_type_symbol
 _atom_site_label
 _atom_site_symmetry_multiplicity
 _atom_site_fract_x
 _atom_site_fract_y
 _atom_site_fract_z
 _atom_site_occupancy
  Ta  Ta0  1  0.01278100  0.87326000  0.60967800  1
  Ta  Ta1  1  0.50428100  0.60967800  0.87326000  1
  Ta  Ta2  1  0.64032200  0.74571900  0.23721900  1
  Ta  Ta3  1  0.37674000  0.23721900  0.74571900  1
  Hg  Hg4  1  0.99778100  0.50221900  0.50221900  1
  Hg  Hg5  1  0.74778100  0.25221900  0.25221900  1
  Hg  Hg6  1  0.02050600  0.67807600  0.24851100  1
  Hg  Hg7  1  0.05290600  0.24851100  0.67807600  1
  Hg  Hg8  1  0.00148900  0.19709400  0.22949400  1
  Hg  Hg9  1  0.57192400  0.22949400  0.19709400  1
  S  S10  1  0.14618700  0.85381300  0.85381300  1
  S  S11  1  0.39618700  0.10381300  0.10381300  1
  O  O12  1  0.14640800  0.78236700  0.73018100  1
  O  O13  1  0.34104500  0.73018100  0.78236700  1
  O  O14  1  0.51981900  0.90895500  0.10359200  1
  O  O15  1  0.46763300  0.10359200  0.90895500  1
  O  O16  1  0.04444500  0.84821500  0.03762400  1
  O  O17  1  0.06971600  0.03762400  0.84821500  1
  O  O18  1  0.21237600  0.18028400  0.20555500  1
  O  O19  1  0.40178500  0.20555500  0.18028400  1
  F  F20  1  0.89613400  0.96820000  0.49072800  1
  F  F21  1  0.64493800  0.49072800  0.96820000  1
  F  F22  1  0.75927200  0.60506200  0.35386600  1
  F  F23  1  0.28180000  0.35386600  0.60506200  1
  F  F24  1  0.22812100  0.66161900  0.42287700  1
  F  F25  1  0.68738300  0.42287700  0.66161900  1
  F  F26  1  0.82712300  0.56261700  0.02187900  1
  F  F27  1  0.58838100  0.02187900  0.56261700  1
  F  F28  1  0.80723600  0.06816700  0.81939900  1
  F  F29  1  0.30519900  0.81939900  0.06816700  1
  F  F30  1  0.43060100  0.94480100  0.44276400  1
  F  F31  1  0.18183300  0.44276400  0.94480100  1
  F  F32  1  0.93282600  0.75045200  0.72017300  1
  F  F33  1  0.59655000  0.72017300  0.75045200  1
  F  F34  1  0.52982700  0.65345000  0.31717400  1
  F  F35  1  0.49954800  0.31717400  0.65345000  1
  F  F36  1  0.08708100  0.00312100  0.49952200  1
  F  F37  1  0.41027600  0.49952200  0.00312100  1
  F  F38  1  0.75047800  0.83972400  0.16291900  1
  F  F39  1  0.24687900  0.16291900  0.83972400  1
