# generated using pymatgen
data_Sr2AlCO3F5
_symmetry_space_group_name_H-M   'P 1'
_cell_length_a   8.85456800
_cell_length_b   5.51977300
_cell_length_c   13.65690351
_cell_angle_alpha   74.71265145
_cell_angle_beta   90.00000000
_cell_angle_gamma   90.00000000
_symmetry_Int_Tables_number   1
_chemical_formula_structural   Sr2AlCO3F5
_chemical_formula_sum   'Sr8 Al4 C4 O12 F20'
_cell_volume   643.86548464
_cell_formula_units_Z   4
loop_
 _symmetry_equiv_pos_site_id
 _symmetry_equiv_pos_as_xyz
  1  'x, y, z'
loop_
 _atom_site_type_symbol
 _atom_site_label
 _atom_site_symmetry_multiplicity
 _atom_site_fract_x
 _atom_site_fract_y
 _atom_site_fract_z
 _atom_site_occupancy
  Sr  Sr0  1  0.14076500  0.69508000  0.58851500  1
  Sr  Sr1  1  0.64076500  0.30492000  0.91148500  1
  Sr  Sr2  1  0.39113900  0.30791200  0.40152600  1
  Sr  Sr3  1  0.89113900  0.69208800  0.09847400  1
  Sr  Sr4  1  0.60886100  0.69208800  0.59847400  1
  Sr  Sr5  1  0.85923500  0.30492000  0.41148500  1
  Sr  Sr6  1  0.10886100  0.30791200  0.90152600  1
  Sr  Sr7  1  0.35923500  0.69508000  0.08851500  1
  Al  Al8  1  0.87195700  0.19689800  0.66964300  1
  Al  Al9  1  0.12804300  0.80310200  0.33035700  1
  Al  Al10  1  0.62804300  0.19689800  0.16964300  1
  Al  Al11  1  0.37195700  0.80310200  0.83035700  1
  C  C12  1  0.37530400  0.17423300  0.63855300  1
  C  C13  1  0.12469600  0.17423300  0.13855300  1
  C  C14  1  0.87530400  0.82576700  0.86144700  1
  C  C15  1  0.62469600  0.82576700  0.36144700  1
  O  O16  1  0.87620200  0.99642500  0.91120500  1
  O  O17  1  0.12379800  0.00357500  0.08879500  1
  O  O18  1  0.87101100  0.88197100  0.76327900  1
  O  O19  1  0.87890600  0.59006000  0.91240700  1
  O  O20  1  0.37890600  0.40994000  0.58759300  1
  O  O21  1  0.62379800  0.99642500  0.41120500  1
  O  O22  1  0.12898900  0.11802900  0.23672100  1
  O  O23  1  0.37101100  0.11802900  0.73672100  1
  O  O24  1  0.62898900  0.88197100  0.26327900  1
  O  O25  1  0.12109400  0.40994000  0.08759300  1
  O  O26  1  0.62109400  0.59006000  0.41240700  1
  O  O27  1  0.37620200  0.00357500  0.58879500  1
  F  F28  1  0.27340200  0.66989200  0.26606600  1
  F  F29  1  0.22437900  0.89400900  0.90872700  1
  F  F30  1  0.12867500  0.48984800  0.42996400  1
  F  F31  1  0.37132500  0.48984800  0.92996400  1
  F  F32  1  0.87132500  0.51015200  0.57003600  1
  F  F33  1  0.97250600  0.67464700  0.27370900  1
  F  F34  1  0.22659800  0.66989200  0.76606600  1
  F  F35  1  0.99374900  0.91359300  0.41122700  1
  F  F36  1  0.77562100  0.10599100  0.09127300  1
  F  F37  1  0.49374900  0.08640700  0.08877300  1
  F  F38  1  0.02749400  0.32535300  0.72629100  1
  F  F39  1  0.77340200  0.33010800  0.23393400  1
  F  F40  1  0.72659800  0.33010800  0.73393400  1
  F  F41  1  0.72437900  0.10599100  0.59127300  1
  F  F42  1  0.27562100  0.89400900  0.40872700  1
  F  F43  1  0.00625100  0.08640700  0.58877300  1
  F  F44  1  0.62867500  0.51015200  0.07003600  1
  F  F45  1  0.50625100  0.91359300  0.91122700  1
  F  F46  1  0.52749400  0.67464700  0.77370900  1
  F  F47  1  0.47250600  0.32535300  0.22629100  1
