# generated using pymatgen
data_Sr21(Cd2Bi9)2
_symmetry_space_group_name_H-M   'P 1'
_cell_length_a   13.02176358
_cell_length_b   13.02176358
_cell_length_c   18.48110478
_cell_angle_alpha   88.58583080
_cell_angle_beta   88.58583080
_cell_angle_gamma   87.50420873
_symmetry_Int_Tables_number   1
_chemical_formula_structural   Sr21(Cd2Bi9)2
_chemical_formula_sum   'Sr42 Cd8 Bi36'
_cell_volume   3128.97257862
_cell_formula_units_Z   2
loop_
 _symmetry_equiv_pos_site_id
 _symmetry_equiv_pos_as_xyz
  1  'x, y, z'
loop_
 _atom_site_type_symbol
 _atom_site_label
 _atom_site_symmetry_multiplicity
 _atom_site_fract_x
 _atom_site_fract_y
 _atom_site_fract_z
 _atom_site_occupancy
  Sr  Sr0  1  0.74128200  0.40297700  0.15630900  1
  Sr  Sr1  1  0.00307900  0.26003900  0.06140800  1
  Sr  Sr2  1  0.00798900  0.76938800  0.57586400  1
  Sr  Sr3  1  0.57887500  0.92793500  0.75766300  1
  Sr  Sr4  1  0.75852500  0.07040800  0.35124100  1
  Sr  Sr5  1  0.42845800  0.67912200  0.38163800  1
  Sr  Sr6  1  0.92959200  0.24147500  0.64875900  1
  Sr  Sr7  1  0.59347600  0.59347600  0.74585600  1
  Sr  Sr8  1  0.23061200  0.99201100  0.42413600  1
  Sr  Sr9  1  0.50496000  0.18110600  0.43541000  1
  Sr  Sr10  1  0.18110600  0.50496000  0.43541000  1
  Sr  Sr11  1  0.73996100  0.99692100  0.93859200  1
  Sr  Sr12  1  0.42112500  0.07206500  0.24233700  1
  Sr  Sr13  1  0.25051700  0.92410900  0.85441400  1
  Sr  Sr14  1  0.49107100  0.74518100  0.94405300  1
  Sr  Sr15  1  0.40297700  0.74128200  0.15630900  1
  Sr  Sr16  1  0.49504000  0.81889400  0.56459000  1
  Sr  Sr17  1  0.99201100  0.23061200  0.42413600  1
  Sr  Sr18  1  0.92410900  0.25051700  0.85441400  1
  Sr  Sr19  1  0.24147500  0.92959200  0.64875900  1
  Sr  Sr20  1  0.50892900  0.25481900  0.05594700  1
  Sr  Sr21  1  0.25434600  0.25434600  0.58226100  1
  Sr  Sr22  1  0.07040800  0.75852500  0.35124100  1
  Sr  Sr23  1  0.59702300  0.25871800  0.84369100  1
  Sr  Sr24  1  0.74565400  0.74565400  0.41773900  1
  Sr  Sr25  1  0.76938800  0.00798900  0.57586400  1
  Sr  Sr26  1  0.73610600  0.73610600  0.09405700  1
  Sr  Sr27  1  0.25481900  0.50892900  0.05594700  1
  Sr  Sr28  1  0.26003900  0.00307900  0.06140800  1
  Sr  Sr29  1  0.26389400  0.26389400  0.90594300  1
  Sr  Sr30  1  0.40652400  0.40652400  0.25414400  1
  Sr  Sr31  1  0.92793500  0.57887500  0.75766300  1
  Sr  Sr32  1  0.07589100  0.74948300  0.14558600  1
  Sr  Sr33  1  0.67912200  0.42845800  0.38163800  1
  Sr  Sr34  1  0.74518100  0.49107100  0.94405300  1
  Sr  Sr35  1  0.74948300  0.07589100  0.14558600  1
  Sr  Sr36  1  0.32087800  0.57154200  0.61836200  1
  Sr  Sr37  1  0.81889400  0.49504000  0.56459000  1
  Sr  Sr38  1  0.57154200  0.32087800  0.61836200  1
  Sr  Sr39  1  0.25871800  0.59702300  0.84369100  1
  Sr  Sr40  1  0.07206500  0.42112500  0.24233700  1
  Sr  Sr41  1  0.99692100  0.73996100  0.93859200  1
  Cd  Cd42  1  0.61010500  0.85699300  0.24678000  1
  Cd  Cd43  1  0.99782700  0.99782700  0.79063100  1
  Cd  Cd44  1  0.84496000  0.84496000  0.75321400  1
  Cd  Cd45  1  0.00217300  0.00217300  0.20936900  1
  Cd  Cd46  1  0.85699300  0.61010500  0.24678000  1
  Cd  Cd47  1  0.38989500  0.14300700  0.75322000  1
  Cd  Cd48  1  0.15504000  0.15504000  0.24678600  1
  Cd  Cd49  1  0.14300700  0.38989500  0.75322000  1
  Bi  Bi50  1  0.61800300  0.61800300  0.25619600  1
  Bi  Bi51  1  0.76082500  0.39664200  0.74366600  1
  Bi  Bi52  1  0.93961500  0.93961500  0.05929700  1
  Bi  Bi53  1  0.39664200  0.76082500  0.74366600  1
  Bi  Bi54  1  0.73943300  0.73943300  0.88331800  1
  Bi  Bi55  1  0.75578600  0.24421400  0.00000000  1
  Bi  Bi56  1  0.94354500  0.54247500  0.09265100  1
  Bi  Bi57  1  0.74854800  0.74854800  0.62380700  1
  Bi  Bi58  1  0.04925200  0.04925200  0.56553100  1
  Bi  Bi59  1  0.78271000  0.07938700  0.75659900  1
  Bi  Bi60  1  0.46348200  0.46348200  0.92360100  1
  Bi  Bi61  1  0.15282700  0.15282700  0.74691800  1
  Bi  Bi62  1  0.24494300  0.75505700  0.50000000  1
  Bi  Bi63  1  0.92061300  0.21729000  0.24340100  1
  Bi  Bi64  1  0.25145200  0.25145200  0.37619300  1
  Bi  Bi65  1  0.84717300  0.84717300  0.25308200  1
  Bi  Bi66  1  0.53281500  0.92830500  0.39281200  1
  Bi  Bi67  1  0.38199700  0.38199700  0.74380400  1
  Bi  Bi68  1  0.60335800  0.23917500  0.25633400  1
  Bi  Bi69  1  0.23917500  0.60335800  0.25633400  1
  Bi  Bi70  1  0.06038500  0.06038500  0.94070300  1
  Bi  Bi71  1  0.05645500  0.45752500  0.90734900  1
  Bi  Bi72  1  0.53651800  0.53651800  0.07639900  1
  Bi  Bi73  1  0.07169500  0.46718500  0.60718800  1
  Bi  Bi74  1  0.26056700  0.26056700  0.11668200  1
  Bi  Bi75  1  0.57470200  0.57470200  0.53563800  1
  Bi  Bi76  1  0.92830500  0.53281500  0.39281200  1
  Bi  Bi77  1  0.45752500  0.05645500  0.90734900  1
  Bi  Bi78  1  0.75505700  0.24494300  0.50000000  1
  Bi  Bi79  1  0.24421400  0.75578600  0.00000000  1
  Bi  Bi80  1  0.54247500  0.94354500  0.09265100  1
  Bi  Bi81  1  0.21729000  0.92061300  0.24340100  1
  Bi  Bi82  1  0.42529800  0.42529800  0.46436200  1
  Bi  Bi83  1  0.46718500  0.07169500  0.60718800  1
  Bi  Bi84  1  0.07938700  0.78271000  0.75659900  1
  Bi  Bi85  1  0.95074800  0.95074800  0.43446900  1
