# generated using pymatgen
data_SbTe(IF2)3
_symmetry_space_group_name_H-M   'P 1'
_cell_length_a   10.91017400
_cell_length_b   8.70661200
_cell_length_c   13.42343144
_cell_angle_alpha   80.26131841
_cell_angle_beta   90.00000000
_cell_angle_gamma   90.00000000
_symmetry_Int_Tables_number   1
_chemical_formula_structural   SbTe(IF2)3
_chemical_formula_sum   'Sb4 Te4 I12 F24'
_cell_volume   1256.72565931
_cell_formula_units_Z   4
loop_
 _symmetry_equiv_pos_site_id
 _symmetry_equiv_pos_as_xyz
  1  'x, y, z'
loop_
 _atom_site_type_symbol
 _atom_site_label
 _atom_site_symmetry_multiplicity
 _atom_site_fract_x
 _atom_site_fract_y
 _atom_site_fract_z
 _atom_site_occupancy
  Sb  Sb0  1  0.22350500  0.68401300  0.42216200  1
  Sb  Sb1  1  0.77649500  0.31598700  0.57783800  1
  Sb  Sb2  1  0.27649500  0.68401300  0.92216200  1
  Sb  Sb3  1  0.72350500  0.31598700  0.07783800  1
  Te  Te4  1  0.32377100  0.31765300  0.19576500  1
  Te  Te5  1  0.82377100  0.68234700  0.30423500  1
  Te  Te6  1  0.17622900  0.31765300  0.69576500  1
  Te  Te7  1  0.67622900  0.68234700  0.80423500  1
  I  I8  1  0.04663900  0.22061700  0.86626300  1
  I  I9  1  0.33636500  0.06477200  0.10317800  1
  I  I10  1  0.95336100  0.77938300  0.13373700  1
  I  I11  1  0.16363500  0.06477200  0.60317800  1
  I  I12  1  0.59013800  0.71962700  0.23775800  1
  I  I13  1  0.45336100  0.22061700  0.36626300  1
  I  I14  1  0.83636500  0.93522800  0.39682200  1
  I  I15  1  0.54663900  0.77938300  0.63373700  1
  I  I16  1  0.90986200  0.71962700  0.73775800  1
  I  I17  1  0.66363500  0.93522800  0.89682200  1
  I  I18  1  0.09013800  0.28037300  0.26224200  1
  I  I19  1  0.40986200  0.28037300  0.76224200  1
  F  F20  1  0.93803800  0.38925500  0.60666500  1
  F  F21  1  0.23920500  0.47969100  0.99707300  1
  F  F22  1  0.83842800  0.26002400  0.45429000  1
  F  F23  1  0.21477500  0.61936500  0.80119900  1
  F  F24  1  0.43803800  0.61074500  0.89333500  1
  F  F25  1  0.38353900  0.75726800  0.45087600  1
  F  F26  1  0.78522500  0.38063500  0.19880100  1
  F  F27  1  0.68285100  0.11391000  0.14987200  1
  F  F28  1  0.71477500  0.38063500  0.69880100  1
  F  F29  1  0.76079500  0.52030900  0.00292700  1
  F  F30  1  0.11646100  0.75726800  0.95087600  1
  F  F31  1  0.31714900  0.88609000  0.85012800  1
  F  F32  1  0.16157200  0.73997600  0.54571000  1
  F  F33  1  0.06196200  0.61074500  0.39333500  1
  F  F34  1  0.28522500  0.61936500  0.30119900  1
  F  F35  1  0.33842800  0.73997600  0.04571000  1
  F  F36  1  0.81714900  0.11391000  0.64987200  1
  F  F37  1  0.56196200  0.38925500  0.10666500  1
  F  F38  1  0.26079500  0.47969100  0.49707300  1
  F  F39  1  0.18285100  0.88609000  0.35012800  1
  F  F40  1  0.73920500  0.52030900  0.50292700  1
  F  F41  1  0.66157200  0.26002400  0.95429000  1
  F  F42  1  0.61646100  0.24273200  0.54912400  1
  F  F43  1  0.88353900  0.24273200  0.04912400  1
