# generated using pymatgen
data_CsIn3
_symmetry_space_group_name_H-M   'P 1'
_cell_length_a   10.00061821
_cell_length_b   10.00061821
_cell_length_c   10.00061821
_cell_angle_alpha   137.49042803
_cell_angle_beta   137.49042803
_cell_angle_gamma   61.68433483
_symmetry_Int_Tables_number   1
_chemical_formula_structural   CsIn3
_chemical_formula_sum   'Cs3 In9'
_cell_volume   451.41586867
_cell_formula_units_Z   3
loop_
 _symmetry_equiv_pos_site_id
 _symmetry_equiv_pos_as_xyz
  1  'x, y, z'
loop_
 _atom_site_type_symbol
 _atom_site_label
 _atom_site_symmetry_multiplicity
 _atom_site_fract_x
 _atom_site_fract_y
 _atom_site_fract_z
 _atom_site_occupancy
  Cs  Cs0  1  0.00000000  0.00000000  0.00000000  1
  Cs  Cs1  1  0.62762100  0.12762100  0.50000000  1
  Cs  Cs2  1  0.87237900  0.37237900  0.50000000  1
  In  In3  1  0.50000000  0.50000000  0.00000000  1
  In  In4  1  0.30565300  0.60876500  0.69688800  1
  In  In5  1  0.39123500  0.08812300  0.69688800  1
  In  In6  1  0.39123500  0.69434700  0.30311200  1
  In  In7  1  0.91187700  0.60876500  0.30311200  1
  In  In8  1  0.57245900  0.77916000  0.79329900  1
  In  In9  1  0.22084000  0.01413900  0.79329900  1
  In  In10  1  0.22084000  0.42754100  0.20670100  1
  In  In11  1  0.98586100  0.77916000  0.20670100  1
