# generated using pymatgen
data_Rb2Th(PSe3)3
_symmetry_space_group_name_H-M   'P 1'
_cell_length_a   10.43172800
_cell_length_b   10.80580647
_cell_length_c   17.05285066
_cell_angle_alpha   89.91528915
_cell_angle_beta   107.43471708
_cell_angle_gamma   91.74365939
_symmetry_Int_Tables_number   1
_chemical_formula_structural   Rb2Th(PSe3)3
_chemical_formula_sum   'Rb8 Th4 P12 Se36'
_cell_volume   1833.03420566
_cell_formula_units_Z   4
loop_
 _symmetry_equiv_pos_site_id
 _symmetry_equiv_pos_as_xyz
  1  'x, y, z'
loop_
 _atom_site_type_symbol
 _atom_site_label
 _atom_site_symmetry_multiplicity
 _atom_site_fract_x
 _atom_site_fract_y
 _atom_site_fract_z
 _atom_site_occupancy
  Rb  Rb0  1  0.39384700  0.90119900  0.67385700  1
  Rb  Rb1  1  0.66488600  0.47763700  0.29101600  1
  Rb  Rb2  1  0.07504400  0.81991700  0.98913800  1
  Rb  Rb3  1  0.82457500  0.39075900  0.59816700  1
  Rb  Rb4  1  0.91239800  0.90912800  0.68076900  1
  Rb  Rb5  1  0.11819300  0.33486100  0.27220700  1
  Rb  Rb6  1  0.63470300  0.97175900  0.01401400  1
  Rb  Rb7  1  0.34436400  0.39574900  0.60709400  1
  Th  Th8  1  0.56712200  0.42368900  0.92073400  1
  Th  Th9  1  0.17270300  0.87361700  0.35948800  1
  Th  Th10  1  0.14488900  0.36633800  0.97068300  1
  Th  Th11  1  0.59509800  0.93087900  0.30960200  1
  P  P12  1  0.64775000  0.22209200  0.76549600  1
  P  P13  1  0.29999900  0.07356000  0.15007500  1
  P  P14  1  0.43998300  0.22401300  0.13025500  1
  P  P15  1  0.86021800  0.57717800  0.08651800  1
  P  P16  1  0.58180300  0.73681400  0.48803400  1
  P  P17  1  0.87927600  0.71997000  0.19384600  1
  P  P18  1  0.83443000  0.14809400  0.85737400  1
  P  P19  1  0.90564500  0.14884400  0.42290600  1
  P  P20  1  0.09227800  0.07486300  0.51468100  1
  P  P21  1  0.32826000  0.68460300  0.86887600  1
  P  P22  1  0.15831200  0.56128100  0.79253300  1
  P  P23  1  0.41229300  0.61299100  0.41207100  1
  Se  Se24  1  0.66597600  0.76524200  0.17943300  1
  Se  Se25  1  0.07345500  0.87023800  0.50890800  1
  Se  Se26  1  0.09884300  0.13410100  0.07460900  1
  Se  Se27  1  0.36404900  0.71444700  0.28930600  1
  Se  Se28  1  0.01827000  0.20250200  0.82396900  1
  Se  Se29  1  0.00142100  0.88095200  0.17348000  1
  Se  Se30  1  0.99395500  0.64105700  0.31350800  1
  Se  Se31  1  0.26291700  0.37661800  0.81626700  1
  Se  Se32  1  0.49940400  0.17162600  0.83239000  1
  Se  Se33  1  0.38595600  0.89729400  0.12923700  1
  Se  Se34  1  0.40150200  0.21631000  0.99253700  1
  Se  Se35  1  0.35457800  0.40068300  0.15081500  1
  Se  Se36  1  0.73798100  0.41619900  0.10662600  1
  Se  Se37  1  0.47676500  0.92107400  0.46359000  1
  Se  Se38  1  0.66645100  0.42675400  0.77109600  1
  Se  Se39  1  0.33841000  0.08095800  0.28777800  1
  Se  Se40  1  0.46559500  0.42178200  0.41735100  1
  Se  Se41  1  0.84309200  0.26830700  0.96847500  1
  Se  Se42  1  0.48748800  0.64478100  0.81113400  1
  Se  Se43  1  0.61635000  0.14325900  0.64495800  1
  Se  Se44  1  0.72226300  0.09376800  0.45661600  1
  Se  Se45  1  0.12327700  0.15360900  0.63516900  1
  Se  Se46  1  0.00099600  0.56319600  0.85544800  1
  Se  Se47  1  0.79128400  0.95102700  0.86102500  1
  Se  Se48  1  0.89678300  0.02899700  0.31171500  1
  Se  Se49  1  0.07361400  0.53235400  0.10086400  1
  Se  Se50  1  0.74510300  0.65697300  0.96729100  1
  Se  Se51  1  0.37587200  0.58199400  0.99125000  1
  Se  Se52  1  0.94813900  0.34603100  0.41949000  1
  Se  Se53  1  0.73903400  0.73394200  0.42508700  1
  Se  Se54  1  0.25245500  0.65207600  0.46932300  1
  Se  Se55  1  0.63943600  0.68112100  0.61470100  1
  Se  Se56  1  0.24079600  0.12538800  0.44794800  1
  Se  Se57  1  0.27690700  0.87607000  0.86454000  1
  Se  Se58  1  0.64116400  0.16357200  0.20600700  1
  Se  Se59  1  0.09975000  0.61810500  0.66606400  1
