# generated using pymatgen
data_CaTa2Bi2O9
_symmetry_space_group_name_H-M   'P 1'
_cell_length_a   12.97167861
_cell_length_b   12.97167861
_cell_length_c   5.55636200
_cell_angle_alpha   90.00000000
_cell_angle_beta   90.00000000
_cell_angle_gamma   155.54772416
_symmetry_Int_Tables_number   1
_chemical_formula_structural   CaTa2Bi2O9
_chemical_formula_sum   'Ca2 Ta4 Bi4 O18'
_cell_volume   387.00377551
_cell_formula_units_Z   2
loop_
 _symmetry_equiv_pos_site_id
 _symmetry_equiv_pos_as_xyz
  1  'x, y, z'
loop_
 _atom_site_type_symbol
 _atom_site_label
 _atom_site_symmetry_multiplicity
 _atom_site_fract_x
 _atom_site_fract_y
 _atom_site_fract_z
 _atom_site_occupancy
  Ca  Ca0  1  0.75543000  0.75543000  0.49930500  1
  Ca  Ca1  1  0.24457000  0.24457000  0.99930500  1
  Ta  Ta2  1  0.82899900  0.66679800  0.03430800  1
  Ta  Ta3  1  0.17100100  0.33320200  0.53430800  1
  Ta  Ta4  1  0.33320200  0.17100100  0.53430800  1
  Ta  Ta5  1  0.66679800  0.82899900  0.03430800  1
  Bi  Bi6  1  0.01858700  0.41705000  0.95721100  1
  Bi  Bi7  1  0.41705000  0.01858700  0.95721100  1
  Bi  Bi8  1  0.58295000  0.98141300  0.45721100  1
  Bi  Bi9  1  0.98141300  0.58295000  0.45721100  1
  O  O10  1  0.67870300  0.98581500  0.05182700  1
  O  O11  1  0.53875400  0.36692700  0.84469100  1
  O  O12  1  0.67224200  0.67224200  0.07273400  1
  O  O13  1  0.32775800  0.32775800  0.57273400  1
  O  O14  1  0.36692700  0.53875400  0.84469100  1
  O  O15  1  0.26327500  0.76234700  0.23292500  1
  O  O16  1  0.01418500  0.32129700  0.55182700  1
  O  O17  1  0.97482800  0.09716500  0.26796700  1
  O  O18  1  0.09716500  0.97482800  0.26796700  1
  O  O19  1  0.63307300  0.46124600  0.34469100  1
  O  O20  1  0.32129700  0.01418500  0.55182700  1
  O  O21  1  0.02517200  0.90283500  0.76796700  1
  O  O22  1  0.73672500  0.23765300  0.73292500  1
  O  O23  1  0.46124600  0.63307300  0.34469100  1
  O  O24  1  0.23765300  0.73672500  0.73292500  1
  O  O25  1  0.90283500  0.02517200  0.76796700  1
  O  O26  1  0.98581500  0.67870300  0.05182700  1
  O  O27  1  0.76234700  0.26327500  0.23292500  1
