# generated using pymatgen
data_TlNO3
_symmetry_space_group_name_H-M   'P 1'
_cell_length_a   6.40636700
_cell_length_b   8.18021500
_cell_length_c   12.49699700
_cell_angle_alpha   90.00000000
_cell_angle_beta   90.00000000
_cell_angle_gamma   90.00000000
_symmetry_Int_Tables_number   1
_chemical_formula_structural   TlNO3
_chemical_formula_sum   'Tl8 N8 O24'
_cell_volume   654.91086927
_cell_formula_units_Z   8
loop_
 _symmetry_equiv_pos_site_id
 _symmetry_equiv_pos_as_xyz
  1  'x, y, z'
loop_
 _atom_site_type_symbol
 _atom_site_label
 _atom_site_symmetry_multiplicity
 _atom_site_fract_x
 _atom_site_fract_y
 _atom_site_fract_z
 _atom_site_occupancy
  Tl  Tl0  1  0.29321600  0.99618200  0.37227300  1
  Tl  Tl1  1  0.79321600  0.00381800  0.12772700  1
  Tl  Tl2  1  0.70678400  0.49618200  0.62772700  1
  Tl  Tl3  1  0.20678400  0.50381800  0.87227300  1
  Tl  Tl4  1  0.70678400  0.00381800  0.62772700  1
  Tl  Tl5  1  0.20678400  0.99618200  0.87227300  1
  Tl  Tl6  1  0.29321600  0.50381800  0.37227300  1
  Tl  Tl7  1  0.79321600  0.49618200  0.12772700  1
  N  N8  1  0.66652400  0.25000000  0.86406800  1
  N  N9  1  0.16652400  0.75000000  0.63593200  1
  N  N10  1  0.33347600  0.75000000  0.13593200  1
  N  N11  1  0.83347600  0.25000000  0.36406800  1
  N  N12  1  0.73131200  0.75000000  0.89060700  1
  N  N13  1  0.23131200  0.25000000  0.60939300  1
  N  N14  1  0.26868800  0.25000000  0.10939300  1
  N  N15  1  0.76868800  0.75000000  0.39060700  1
  O  O16  1  0.65255900  0.25000000  0.32391700  1
  O  O17  1  0.15255900  0.75000000  0.17608300  1
  O  O18  1  0.34744100  0.75000000  0.67608300  1
  O  O19  1  0.84744100  0.25000000  0.82391700  1
  O  O20  1  0.86361500  0.25000000  0.46377900  1
  O  O21  1  0.36361500  0.75000000  0.03622100  1
  O  O22  1  0.13638500  0.75000000  0.53622100  1
  O  O23  1  0.63638500  0.25000000  0.96377900  1
  O  O24  1  0.83757700  0.88491300  0.35654300  1
  O  O25  1  0.33757700  0.11508700  0.14345700  1
  O  O26  1  0.16242300  0.38491300  0.64345700  1
  O  O27  1  0.66242300  0.61508700  0.85654300  1
  O  O28  1  0.16242300  0.11508700  0.64345700  1
  O  O29  1  0.66242300  0.88491300  0.85654300  1
  O  O30  1  0.83757700  0.61508700  0.35654300  1
  O  O31  1  0.33757700  0.38491300  0.14345700  1
  O  O32  1  0.62330600  0.75000000  0.46162400  1
  O  O33  1  0.12330600  0.25000000  0.03837600  1
  O  O34  1  0.37669400  0.25000000  0.53837600  1
  O  O35  1  0.87669400  0.75000000  0.96162400  1
  O  O36  1  0.99189900  0.25000000  0.30065400  1
  O  O37  1  0.49189900  0.75000000  0.19934600  1
  O  O38  1  0.00810100  0.75000000  0.69934600  1
  O  O39  1  0.50810100  0.25000000  0.80065400  1
