# generated using pymatgen
data_RbAg(NO3)2
_symmetry_space_group_name_H-M   'P 1'
_cell_length_a   5.13311100
_cell_length_b   8.53448000
_cell_length_c   14.64608543
_cell_angle_alpha   81.80364233
_cell_angle_beta   90.00000000
_cell_angle_gamma   90.00000000
_symmetry_Int_Tables_number   1
_chemical_formula_structural   RbAg(NO3)2
_chemical_formula_sum   'Rb4 Ag4 N8 O24'
_cell_volume   635.06807524
_cell_formula_units_Z   4
loop_
 _symmetry_equiv_pos_site_id
 _symmetry_equiv_pos_as_xyz
  1  'x, y, z'
loop_
 _atom_site_type_symbol
 _atom_site_label
 _atom_site_symmetry_multiplicity
 _atom_site_fract_x
 _atom_site_fract_y
 _atom_site_fract_z
 _atom_site_occupancy
  Rb  Rb0  1  0.95282500  0.73370500  0.06172200  1
  Rb  Rb1  1  0.45282500  0.26629500  0.43827800  1
  Rb  Rb2  1  0.54717500  0.73370500  0.56172200  1
  Rb  Rb3  1  0.04717500  0.26629500  0.93827800  1
  Ag  Ag4  1  0.07078100  0.80746600  0.77953500  1
  Ag  Ag5  1  0.57078100  0.19253400  0.72046500  1
  Ag  Ag6  1  0.92921900  0.19253400  0.22046500  1
  Ag  Ag7  1  0.42921900  0.80746600  0.27953500  1
  N  N8  1  0.86685100  0.56865600  0.33338300  1
  N  N9  1  0.53105700  0.94049200  0.89516200  1
  N  N10  1  0.13314900  0.43134400  0.66661700  1
  N  N11  1  0.36685100  0.43134400  0.16661700  1
  N  N12  1  0.03105700  0.05950800  0.60483800  1
  N  N13  1  0.63314900  0.56865600  0.83338300  1
  N  N14  1  0.96894300  0.94049200  0.39516200  1
  N  N15  1  0.46894300  0.05950800  0.10483800  1
  O  O16  1  0.73348100  0.98377100  0.38875500  1
  O  O17  1  0.13923500  0.40838100  0.13318200  1
  O  O18  1  0.86076500  0.59161900  0.86681800  1
  O  O19  1  0.52016500  0.43933300  0.85869800  1
  O  O20  1  0.95681300  0.16880400  0.54381500  1
  O  O21  1  0.76651900  0.98377100  0.88875500  1
  O  O22  1  0.63641200  0.99012700  0.16308400  1
  O  O23  1  0.47983500  0.56066700  0.14130200  1
  O  O24  1  0.63923500  0.59161900  0.36681800  1
  O  O25  1  0.26651900  0.01622900  0.61124500  1
  O  O26  1  0.46738800  0.32349900  0.22414900  1
  O  O27  1  0.54318700  0.16880400  0.04381500  1
  O  O28  1  0.36076500  0.40838100  0.63318200  1
  O  O29  1  0.96738800  0.67650100  0.27585100  1
  O  O30  1  0.13641200  0.00987300  0.33691600  1
  O  O31  1  0.97983500  0.43933300  0.35869800  1
  O  O32  1  0.04318700  0.83119600  0.45618500  1
  O  O33  1  0.03261200  0.32349900  0.72414900  1
  O  O34  1  0.02016500  0.56066700  0.64130200  1
  O  O35  1  0.86358800  0.99012700  0.66308400  1
  O  O36  1  0.45681300  0.83119600  0.95618500  1
  O  O37  1  0.53261200  0.67650100  0.77585100  1
  O  O38  1  0.36358800  0.00987300  0.83691600  1
  O  O39  1  0.23348100  0.01622900  0.11124500  1
