# generated using pymatgen
data_Ta2Hg2F11
_symmetry_space_group_name_H-M   'P 1'
_cell_length_a   12.55223481
_cell_length_b   12.55223481
_cell_length_c   15.03435551
_cell_angle_alpha   55.27519482
_cell_angle_beta   55.27519482
_cell_angle_gamma   35.87843182
_symmetry_Int_Tables_number   1
_chemical_formula_structural   Ta2Hg2F11
_chemical_formula_sum   'Ta8 Hg8 F44'
_cell_volume   1111.92294017
_cell_formula_units_Z   4
loop_
 _symmetry_equiv_pos_site_id
 _symmetry_equiv_pos_as_xyz
  1  'x, y, z'
loop_
 _atom_site_type_symbol
 _atom_site_label
 _atom_site_symmetry_multiplicity
 _atom_site_fract_x
 _atom_site_fract_y
 _atom_site_fract_z
 _atom_site_occupancy
  Ta  Ta0  1  0.37547100  0.92287300  0.48318700  1
  Ta  Ta1  1  0.08680000  0.70152200  0.62868100  1
  Ta  Ta2  1  0.07712700  0.62452900  0.01681300  1
  Ta  Ta3  1  0.29847800  0.91320000  0.87131900  1
  Ta  Ta4  1  0.70152200  0.08680000  0.12868100  1
  Ta  Ta5  1  0.62452900  0.07712700  0.51681300  1
  Ta  Ta6  1  0.92287300  0.37547100  0.98318700  1
  Ta  Ta7  1  0.91320000  0.29847800  0.37131900  1
  Hg  Hg8  1  0.05717000  0.53165800  0.37390000  1
  Hg  Hg9  1  0.53165800  0.05717000  0.87390000  1
  Hg  Hg10  1  0.33216700  0.80076900  0.21497400  1
  Hg  Hg11  1  0.80076900  0.33216700  0.71497400  1
  Hg  Hg12  1  0.66783300  0.19923100  0.78502600  1
  Hg  Hg13  1  0.94283000  0.46834200  0.62610000  1
  Hg  Hg14  1  0.46834200  0.94283000  0.12610000  1
  Hg  Hg15  1  0.19923100  0.66783300  0.28502600  1
  F  F16  1  0.88383000  0.45024900  0.40438700  1
  F  F17  1  0.20658000  0.40099100  0.00004000  1
  F  F18  1  0.59900900  0.79342000  0.49996000  1
  F  F19  1  0.39971500  0.72251700  0.57716000  1
  F  F20  1  0.21637800  0.03745900  0.60663000  1
  F  F21  1  0.54975100  0.11617000  0.09561300  1
  F  F22  1  0.47816000  0.84401300  0.35466400  1
  F  F23  1  0.79342000  0.59900900  0.99996000  1
  F  F24  1  0.24443900  0.69868600  0.48698400  1
  F  F25  1  0.27748300  0.60028500  0.92284000  1
  F  F26  1  0.49144100  0.72622500  0.79134800  1
  F  F27  1  0.84401300  0.47816000  0.85466400  1
  F  F28  1  0.10041700  0.99574600  0.85311100  1
  F  F29  1  0.89110000  0.73727600  0.75238700  1
  F  F30  1  0.89958300  0.00425400  0.14688900  1
  F  F31  1  0.78362200  0.96254100  0.39337000  1
  F  F32  1  0.10890000  0.26272400  0.24761300  1
  F  F33  1  0.03745900  0.21637800  0.10663000  1
  F  F34  1  0.96254100  0.78362200  0.89337000  1
  F  F35  1  0.75556100  0.30131400  0.51301600  1
  F  F36  1  0.99574600  0.10041700  0.35311100  1
  F  F37  1  0.00425400  0.89958300  0.64688900  1
  F  F38  1  0.27377500  0.50855900  0.70865200  1
  F  F39  1  0.12384400  0.07774200  0.46196400  1
  F  F40  1  0.11617000  0.54975100  0.59561300  1
  F  F41  1  0.07774200  0.12384400  0.96196400  1
  F  F42  1  0.60028500  0.27748300  0.42284000  1
  F  F43  1  0.50855900  0.27377500  0.20865200  1
  F  F44  1  0.69868600  0.24443900  0.98698400  1
  F  F45  1  0.52184000  0.15598700  0.64533600  1
  F  F46  1  0.30131400  0.75556100  0.01301600  1
  F  F47  1  0.45024900  0.88383000  0.90438700  1
  F  F48  1  0.14301600  0.32172700  0.88959700  1
  F  F49  1  0.72622500  0.49144100  0.29134800  1
  F  F50  1  0.92225800  0.87615600  0.03803600  1
  F  F51  1  0.26272400  0.10890000  0.74761300  1
  F  F52  1  0.32172700  0.14301600  0.38959700  1
  F  F53  1  0.15598700  0.52184000  0.14533600  1
  F  F54  1  0.87615600  0.92225800  0.53803600  1
  F  F55  1  0.73727600  0.89110000  0.25238700  1
  F  F56  1  0.72251700  0.39971500  0.07716000  1
  F  F57  1  0.40099100  0.20658000  0.50004000  1
  F  F58  1  0.67827300  0.85698400  0.61040300  1
  F  F59  1  0.85698400  0.67827300  0.11040300  1
