# generated using pymatgen
data_Na2SbSO4F3
_symmetry_space_group_name_H-M   'P 1'
_cell_length_a   8.46568224
_cell_length_b   8.46568224
_cell_length_c   11.25367300
_cell_angle_alpha   90.00000000
_cell_angle_beta   90.00000000
_cell_angle_gamma   128.72816372
_symmetry_Int_Tables_number   1
_chemical_formula_structural   Na2SbSO4F3
_chemical_formula_sum   'Na8 Sb4 S4 O16 F12'
_cell_volume   629.18923884
_cell_formula_units_Z   4
loop_
 _symmetry_equiv_pos_site_id
 _symmetry_equiv_pos_as_xyz
  1  'x, y, z'
loop_
 _atom_site_type_symbol
 _atom_site_label
 _atom_site_symmetry_multiplicity
 _atom_site_fract_x
 _atom_site_fract_y
 _atom_site_fract_z
 _atom_site_occupancy
  Na  Na0  1  0.96978400  0.46978400  0.25000000  1
  Na  Na1  1  0.61803000  0.38197000  0.00000000  1
  Na  Na2  1  0.03021600  0.53021600  0.75000000  1
  Na  Na3  1  0.38197000  0.61803000  0.00000000  1
  Na  Na4  1  0.11803000  0.88197000  0.50000000  1
  Na  Na5  1  0.53021600  0.03021600  0.75000000  1
  Na  Na6  1  0.46978400  0.96978400  0.25000000  1
  Na  Na7  1  0.88197000  0.11803000  0.50000000  1
  Sb  Sb8  1  0.11254100  0.11254100  0.16283900  1
  Sb  Sb9  1  0.38745900  0.38745900  0.66283900  1
  Sb  Sb10  1  0.88745900  0.88745900  0.83716100  1
  Sb  Sb11  1  0.61254100  0.61254100  0.33716100  1
  S  S12  1  0.31707400  0.68292600  0.50000000  1
  S  S13  1  0.81707400  0.18292600  0.00000000  1
  S  S14  1  0.68292600  0.31707400  0.50000000  1
  S  S15  1  0.18292600  0.81707400  0.00000000  1
  O  O16  1  0.79556800  0.27347000  0.89440400  1
  O  O17  1  0.27347000  0.79556800  0.89440400  1
  O  O18  1  0.71333900  0.96290300  0.97649600  1
  O  O19  1  0.78666100  0.53709700  0.47649600  1
  O  O20  1  0.22653000  0.70443200  0.39440400  1
  O  O21  1  0.72653000  0.20443200  0.10559600  1
  O  O22  1  0.70443200  0.22653000  0.39440400  1
  O  O23  1  0.29556800  0.77347000  0.60559600  1
  O  O24  1  0.53709700  0.78666100  0.47649600  1
  O  O25  1  0.28666100  0.03709700  0.02350400  1
  O  O26  1  0.96290300  0.71333900  0.97649600  1
  O  O27  1  0.77347000  0.29556800  0.60559600  1
  O  O28  1  0.21333900  0.46290300  0.52350400  1
  O  O29  1  0.46290300  0.21333900  0.52350400  1
  O  O30  1  0.20443200  0.72653000  0.10559600  1
  O  O31  1  0.03709700  0.28666100  0.02350400  1
  F  F32  1  0.90412400  0.72029600  0.71922600  1
  F  F33  1  0.37690100  0.37690100  0.11605900  1
  F  F34  1  0.27970400  0.09587600  0.28077400  1
  F  F35  1  0.87690100  0.87690100  0.38394100  1
  F  F36  1  0.22029600  0.40412400  0.78077400  1
  F  F37  1  0.62309900  0.62309900  0.88394100  1
  F  F38  1  0.72029600  0.90412400  0.71922600  1
  F  F39  1  0.77970400  0.59587600  0.21922600  1
  F  F40  1  0.40412400  0.22029600  0.78077400  1
  F  F41  1  0.12309900  0.12309900  0.61605900  1
  F  F42  1  0.09587600  0.27970400  0.28077400  1
  F  F43  1  0.59587600  0.77970400  0.21922600  1
