# generated using pymatgen
data_K2Y4Sn2S11
_symmetry_space_group_name_H-M   'P 1'
_cell_length_a   8.69951100
_cell_length_b   8.69951100
_cell_length_c   28.33558200
_cell_angle_alpha   90.00000000
_cell_angle_beta   90.00000000
_cell_angle_gamma   90.00000000
_symmetry_Int_Tables_number   1
_chemical_formula_structural   K2Y4Sn2S11
_chemical_formula_sum   'K8 Y16 Sn8 S44'
_cell_volume   2144.47911222
_cell_formula_units_Z   4
loop_
 _symmetry_equiv_pos_site_id
 _symmetry_equiv_pos_as_xyz
  1  'x, y, z'
loop_
 _atom_site_type_symbol
 _atom_site_label
 _atom_site_symmetry_multiplicity
 _atom_site_fract_x
 _atom_site_fract_y
 _atom_site_fract_z
 _atom_site_occupancy
  K  K0  1  0.00000000  0.50000000  0.62743600  1
  K  K1  1  0.00000000  0.50000000  0.80393100  1
  K  K2  1  0.50000000  0.00000000  0.69606900  1
  K  K3  1  0.00000000  0.50000000  0.12743600  1
  K  K4  1  0.00000000  0.50000000  0.30393100  1
  K  K5  1  0.50000000  0.00000000  0.87256400  1
  K  K6  1  0.50000000  0.00000000  0.19606900  1
  K  K7  1  0.50000000  0.00000000  0.37256400  1
  Y  Y8  1  0.89361800  0.19881700  0.44554400  1
  Y  Y9  1  0.60638200  0.30118300  0.55445600  1
  Y  Y10  1  0.80118300  0.89361800  0.55445600  1
  Y  Y11  1  0.69881700  0.39361800  0.94554400  1
  Y  Y12  1  0.30118300  0.60638200  0.94554400  1
  Y  Y13  1  0.60638200  0.69881700  0.05445600  1
  Y  Y14  1  0.19881700  0.89361800  0.05445600  1
  Y  Y15  1  0.69881700  0.60638200  0.44554400  1
  Y  Y16  1  0.39361800  0.69881700  0.55445600  1
  Y  Y17  1  0.89361800  0.80118300  0.94554400  1
  Y  Y18  1  0.30118300  0.39361800  0.44554400  1
  Y  Y19  1  0.80118300  0.10638200  0.05445600  1
  Y  Y20  1  0.39361800  0.30118300  0.05445600  1
  Y  Y21  1  0.10638200  0.80118300  0.44554400  1
  Y  Y22  1  0.10638200  0.19881700  0.94554400  1
  Y  Y23  1  0.19881700  0.10638200  0.55445600  1
  Sn  Sn24  1  0.00000000  0.00000000  0.69062200  1
  Sn  Sn25  1  0.50000000  0.50000000  0.80937800  1
  Sn  Sn26  1  0.50000000  0.50000000  0.19062200  1
  Sn  Sn27  1  0.00000000  0.00000000  0.30937800  1
  Sn  Sn28  1  0.50000000  0.50000000  0.69062200  1
  Sn  Sn29  1  0.00000000  0.00000000  0.80937800  1
  Sn  Sn30  1  0.00000000  0.00000000  0.19062200  1
  Sn  Sn31  1  0.50000000  0.50000000  0.30937800  1
  S  S32  1  0.19005800  0.89468900  0.95506000  1
  S  S33  1  0.30994200  0.60531100  0.04494000  1
  S  S34  1  0.19005800  0.10531100  0.45506000  1
  S  S35  1  0.17565300  0.16091000  0.64796800  1
  S  S36  1  0.60531100  0.30994200  0.45506000  1
  S  S37  1  0.10531100  0.19005800  0.04494000  1
  S  S38  1  0.17565300  0.83909000  0.14796800  1
  S  S39  1  0.80994200  0.89468900  0.45506000  1
  S  S40  1  0.85261100  0.85261100  0.25000000  1
  S  S41  1  0.80994200  0.10531100  0.95506000  1
  S  S42  1  0.89468900  0.19005800  0.54494000  1
  S  S43  1  0.39468900  0.69005800  0.45506000  1
  S  S44  1  0.64738900  0.64738900  0.75000000  1
  S  S45  1  0.85261100  0.14738900  0.75000000  1
  S  S46  1  0.83909000  0.82434700  0.85203200  1
  S  S47  1  0.66091000  0.67565300  0.14796800  1
  S  S48  1  0.00000000  0.50000000  0.94145500  1
  S  S49  1  0.39468900  0.30994200  0.95506000  1
  S  S50  1  0.35261100  0.35261100  0.75000000  1
  S  S51  1  0.16091000  0.82434700  0.35203200  1
  S  S52  1  0.83909000  0.17565300  0.35203200  1
  S  S53  1  0.33909000  0.32434700  0.14796800  1
  S  S54  1  0.30994200  0.39468900  0.54494000  1
  S  S55  1  0.00000000  0.50000000  0.44145500  1
  S  S56  1  0.67565300  0.33909000  0.85203200  1
  S  S57  1  0.82434700  0.83909000  0.64796800  1
  S  S58  1  0.50000000  0.00000000  0.55854500  1
  S  S59  1  0.67565300  0.66091000  0.35203200  1
  S  S60  1  0.32434700  0.66091000  0.85203200  1
  S  S61  1  0.33909000  0.67565300  0.64796800  1
  S  S62  1  0.35261100  0.64738900  0.25000000  1
  S  S63  1  0.60531100  0.69005800  0.95506000  1
  S  S64  1  0.64738900  0.35261100  0.25000000  1
  S  S65  1  0.89468900  0.80994200  0.04494000  1
  S  S66  1  0.32434700  0.33909000  0.35203200  1
  S  S67  1  0.50000000  0.00000000  0.05854500  1
  S  S68  1  0.82434700  0.16091000  0.14796800  1
  S  S69  1  0.69005800  0.39468900  0.04494000  1
  S  S70  1  0.66091000  0.32434700  0.64796800  1
  S  S71  1  0.10531100  0.80994200  0.54494000  1
  S  S72  1  0.14738900  0.14738900  0.25000000  1
  S  S73  1  0.16091000  0.17565300  0.85203200  1
  S  S74  1  0.14738900  0.85261100  0.75000000  1
  S  S75  1  0.69005800  0.60531100  0.54494000  1
