# generated using pymatgen
data_La4B4Cl5
_symmetry_space_group_name_H-M   'P 1'
_cell_length_a   8.66856347
_cell_length_b   8.66856347
_cell_length_c   9.37609022
_cell_angle_alpha   60.42926614
_cell_angle_beta   60.42926614
_cell_angle_gamma   28.63382471
_symmetry_Int_Tables_number   1
_chemical_formula_structural   La4B4Cl5
_chemical_formula_sum   'La4 B4 Cl5'
_cell_volume   290.55821471
_cell_formula_units_Z   1
loop_
 _symmetry_equiv_pos_site_id
 _symmetry_equiv_pos_as_xyz
  1  'x, y, z'
loop_
 _atom_site_type_symbol
 _atom_site_label
 _atom_site_symmetry_multiplicity
 _atom_site_fract_x
 _atom_site_fract_y
 _atom_site_fract_z
 _atom_site_occupancy
  La  La0  1  0.16006200  0.16006200  0.76327300  1
  La  La1  1  0.56044800  0.56044800  0.20235100  1
  La  La2  1  0.43955200  0.43955200  0.79764900  1
  La  La3  1  0.83993800  0.83993800  0.23672700  1
  B  B4  1  0.02397700  0.02397700  0.07682100  1
  B  B5  1  0.68536700  0.31463300  0.00000000  1
  B  B6  1  0.97602300  0.97602300  0.92317900  1
  B  B7  1  0.31463300  0.68536700  0.00000000  1
  Cl  Cl8  1  0.24741100  0.24741100  0.15167400  1
  Cl  Cl9  1  0.00000000  0.00000000  0.50000000  1
  Cl  Cl10  1  0.35119300  0.35119300  0.44334000  1
  Cl  Cl11  1  0.64880700  0.64880700  0.55666000  1
  Cl  Cl12  1  0.75258900  0.75258900  0.84832600  1
