# generated using pymatgen
data_CaFeClO2
_symmetry_space_group_name_H-M   'P 1'
_cell_length_a   5.45022270
_cell_length_b   5.45022270
_cell_length_c   8.83219163
_cell_angle_alpha   76.73761116
_cell_angle_beta   76.73761116
_cell_angle_gamma   41.69386874
_symmetry_Int_Tables_number   1
_chemical_formula_structural   CaFeClO2
_chemical_formula_sum   'Ca2 Fe2 Cl2 O4'
_cell_volume   169.16887673
_cell_formula_units_Z   2
loop_
 _symmetry_equiv_pos_site_id
 _symmetry_equiv_pos_as_xyz
  1  'x, y, z'
loop_
 _atom_site_type_symbol
 _atom_site_label
 _atom_site_symmetry_multiplicity
 _atom_site_fract_x
 _atom_site_fract_y
 _atom_site_fract_z
 _atom_site_occupancy
  Ca  Ca0  1  0.39241300  0.39241300  0.79200100  1
  Ca  Ca1  1  0.60758700  0.60758700  0.20799900  1
  Fe  Fe2  1  0.86075200  0.86075200  0.50197200  1
  Fe  Fe3  1  0.13924800  0.13924800  0.49802800  1
  Cl  Cl4  1  0.66540500  0.66540500  0.87699700  1
  Cl  Cl5  1  0.33459500  0.33459500  0.12300300  1
  O  O6  1  0.31473100  0.31473100  0.55769400  1
  O  O7  1  0.97580900  0.97580900  0.66178800  1
  O  O8  1  0.02419100  0.02419100  0.33821200  1
  O  O9  1  0.68526900  0.68526900  0.44230600  1
