# generated using pymatgen
data_Li2Te2O5
_symmetry_space_group_name_H-M   'P 1'
_cell_length_a   5.31803000
_cell_length_b   8.45116200
_cell_length_c   24.51529800
_cell_angle_alpha   90.00000000
_cell_angle_beta   90.00000000
_cell_angle_gamma   90.00000000
_symmetry_Int_Tables_number   1
_chemical_formula_structural   Li2Te2O5
_chemical_formula_sum   'Li16 Te16 O40'
_cell_volume   1101.80410591
_cell_formula_units_Z   8
loop_
 _symmetry_equiv_pos_site_id
 _symmetry_equiv_pos_as_xyz
  1  'x, y, z'
loop_
 _atom_site_type_symbol
 _atom_site_label
 _atom_site_symmetry_multiplicity
 _atom_site_fract_x
 _atom_site_fract_y
 _atom_site_fract_z
 _atom_site_occupancy
  Li  Li0  1  0.82577700  0.84065800  0.83091100  1
  Li  Li1  1  0.32577700  0.84065800  0.66908900  1
  Li  Li2  1  0.36332400  0.15267000  0.41829200  1
  Li  Li3  1  0.17422300  0.34065800  0.33091100  1
  Li  Li4  1  0.32577700  0.65934200  0.83091100  1
  Li  Li5  1  0.86332400  0.34733000  0.41829200  1
  Li  Li6  1  0.17422300  0.15934200  0.16908900  1
  Li  Li7  1  0.63667600  0.65267000  0.91829200  1
  Li  Li8  1  0.67422300  0.34065800  0.16908900  1
  Li  Li9  1  0.63667600  0.84733000  0.58170800  1
  Li  Li10  1  0.13667600  0.65267000  0.58170800  1
  Li  Li11  1  0.86332400  0.15267000  0.08170800  1
  Li  Li12  1  0.36332400  0.34733000  0.08170800  1
  Li  Li13  1  0.67422300  0.15934200  0.33091100  1
  Li  Li14  1  0.13667600  0.84733000  0.91829200  1
  Li  Li15  1  0.82577700  0.65934200  0.66908900  1
  Te  Te16  1  0.63816000  0.06707000  0.94345600  1
  Te  Te17  1  0.86184000  0.56707000  0.05654400  1
  Te  Te18  1  0.86184000  0.93293000  0.44345600  1
  Te  Te19  1  0.66654100  0.55914400  0.30602500  1
  Te  Te20  1  0.36184000  0.93293000  0.05654400  1
  Te  Te21  1  0.16654100  0.55914400  0.19397500  1
  Te  Te22  1  0.83345900  0.05914400  0.69397500  1
  Te  Te23  1  0.33345900  0.44085600  0.69397500  1
  Te  Te24  1  0.13816000  0.43293000  0.94345600  1
  Te  Te25  1  0.36184000  0.56707000  0.44345600  1
  Te  Te26  1  0.16654100  0.94085600  0.30602500  1
  Te  Te27  1  0.83345900  0.44085600  0.80602500  1
  Te  Te28  1  0.63816000  0.43293000  0.55654400  1
  Te  Te29  1  0.13816000  0.06707000  0.55654400  1
  Te  Te30  1  0.33345900  0.05914400  0.80602500  1
  Te  Te31  1  0.66654100  0.94085600  0.19397500  1
  O  O32  1  0.69460000  0.87857800  0.66124300  1
  O  O33  1  0.69196400  0.50162400  0.46595500  1
  O  O34  1  0.36487200  0.47118000  0.27842000  1
  O  O35  1  0.23519400  0.12609700  0.08297300  1
  O  O36  1  0.80803600  0.49837600  0.96595500  1
  O  O37  1  0.19196400  0.50162400  0.03404500  1
  O  O38  1  0.13512800  0.52882000  0.77842000  1
  O  O39  1  0.99802200  0.85501600  0.37210300  1
  O  O40  1  0.69460000  0.62142200  0.83875700  1
  O  O41  1  0.63512800  0.52882000  0.72158000  1
  O  O42  1  0.19196400  0.99837600  0.46595500  1
  O  O43  1  0.69196400  0.99837600  0.03404500  1
  O  O44  1  0.26480600  0.62609700  0.91702700  1
  O  O45  1  0.86487200  0.47118000  0.22158000  1
  O  O46  1  0.19460000  0.87857800  0.83875700  1
  O  O47  1  0.30540000  0.12142200  0.33875700  1
  O  O48  1  0.00197800  0.35501600  0.87210300  1
  O  O49  1  0.73519400  0.12609700  0.41702700  1
  O  O50  1  0.50197800  0.35501600  0.62789700  1
  O  O51  1  0.23519400  0.37390300  0.41702700  1
  O  O52  1  0.99802200  0.64498400  0.12789700  1
  O  O53  1  0.76480600  0.87390300  0.91702700  1
  O  O54  1  0.30803600  0.49837600  0.53404500  1
  O  O55  1  0.73519400  0.37390300  0.08297300  1
  O  O56  1  0.19460000  0.62142200  0.66124300  1
  O  O57  1  0.50197800  0.14498400  0.87210300  1
  O  O58  1  0.30803600  0.00162400  0.96595500  1
  O  O59  1  0.86487200  0.02882000  0.27842000  1
  O  O60  1  0.63512800  0.97118000  0.77842000  1
  O  O61  1  0.49802200  0.85501600  0.12789700  1
  O  O62  1  0.26480600  0.87390300  0.58297300  1
  O  O63  1  0.80540000  0.37857800  0.33875700  1
  O  O64  1  0.49802200  0.64498400  0.37210300  1
  O  O65  1  0.00197800  0.14498400  0.62789700  1
  O  O66  1  0.36487200  0.02882000  0.22158000  1
  O  O67  1  0.76480600  0.62609700  0.58297300  1
  O  O68  1  0.80803600  0.00162400  0.53404500  1
  O  O69  1  0.80540000  0.12142200  0.16124300  1
  O  O70  1  0.13512800  0.97118000  0.72158000  1
  O  O71  1  0.30540000  0.37857800  0.16124300  1
