# generated using pymatgen
data_CaV2O4
_symmetry_space_group_name_H-M   'P 1'
_cell_length_a   3.09394300
_cell_length_b   9.27597800
_cell_length_c   10.83650300
_cell_angle_alpha   90.00000000
_cell_angle_beta   90.00000000
_cell_angle_gamma   90.00000000
_symmetry_Int_Tables_number   1
_chemical_formula_structural   CaV2O4
_chemical_formula_sum   'Ca4 V8 O16'
_cell_volume   311.00056204
_cell_formula_units_Z   4
loop_
 _symmetry_equiv_pos_site_id
 _symmetry_equiv_pos_as_xyz
  1  'x, y, z'
loop_
 _atom_site_type_symbol
 _atom_site_label
 _atom_site_symmetry_multiplicity
 _atom_site_fract_x
 _atom_site_fract_y
 _atom_site_fract_z
 _atom_site_occupancy
  Ca  Ca0  1  0.25000000  0.25616000  0.15258400  1
  Ca  Ca1  1  0.75000000  0.74384000  0.84741600  1
  Ca  Ca2  1  0.25000000  0.75616000  0.34741600  1
  Ca  Ca3  1  0.75000000  0.24384000  0.65258400  1
  V  V4  1  0.25000000  0.43456300  0.38722800  1
  V  V5  1  0.75000000  0.56543700  0.61277200  1
  V  V6  1  0.25000000  0.93456300  0.11277200  1
  V  V7  1  0.75000000  0.06543700  0.88722800  1
  V  V8  1  0.25000000  0.41757100  0.89467800  1
  V  V9  1  0.75000000  0.58242900  0.10532200  1
  V  V10  1  0.25000000  0.91757100  0.60532200  1
  V  V11  1  0.75000000  0.08242900  0.39467800  1
  O  O12  1  0.25000000  0.20725200  0.83410100  1
  O  O13  1  0.75000000  0.79274800  0.16589900  1
  O  O14  1  0.25000000  0.70725200  0.66589900  1
  O  O15  1  0.75000000  0.29274800  0.33410100  1
  O  O16  1  0.25000000  0.11746400  0.52490900  1
  O  O17  1  0.75000000  0.88253600  0.47509100  1
  O  O18  1  0.25000000  0.61746400  0.97509100  1
  O  O19  1  0.75000000  0.38253600  0.02490900  1
  O  O20  1  0.25000000  0.02516000  0.28250500  1
  O  O21  1  0.75000000  0.97484000  0.71749500  1
  O  O22  1  0.25000000  0.52516000  0.21749500  1
  O  O23  1  0.75000000  0.47484000  0.78250500  1
  O  O24  1  0.25000000  0.41895200  0.57233100  1
  O  O25  1  0.75000000  0.58104800  0.42766900  1
  O  O26  1  0.25000000  0.91895200  0.92766900  1
  O  O27  1  0.75000000  0.08104800  0.07233100  1
