# generated using pymatgen
data_TlPd3O4
_symmetry_space_group_name_H-M   'P 1'
_cell_length_a   6.90046699
_cell_length_b   6.90046699
_cell_length_c   6.90046699
_cell_angle_alpha   60.00000000
_cell_angle_beta   60.00000000
_cell_angle_gamma   60.00000000
_symmetry_Int_Tables_number   1
_chemical_formula_structural   TlPd3O4
_chemical_formula_sum   'Tl2 Pd6 O8'
_cell_volume   232.33810864
_cell_formula_units_Z   2
loop_
 _symmetry_equiv_pos_site_id
 _symmetry_equiv_pos_as_xyz
  1  'x, y, z'
loop_
 _atom_site_type_symbol
 _atom_site_label
 _atom_site_symmetry_multiplicity
 _atom_site_fract_x
 _atom_site_fract_y
 _atom_site_fract_z
 _atom_site_occupancy
  Tl  Tl0  1  0.50000000  0.50000000  0.50000000  1
  Tl  Tl1  1  0.00000000  0.00000000  0.00000000  1
  Pd  Pd2  1  0.50000000  0.00000000  0.00000000  1
  Pd  Pd3  1  0.00000000  0.00000000  0.50000000  1
  Pd  Pd4  1  0.50000000  0.00000000  0.50000000  1
  Pd  Pd5  1  0.00000000  0.50000000  0.50000000  1
  Pd  Pd6  1  0.00000000  0.50000000  0.00000000  1
  Pd  Pd7  1  0.50000000  0.50000000  0.00000000  1
  O  O8  1  0.85831700  0.85831700  0.85831700  1
  O  O9  1  0.57495100  0.14168300  0.14168300  1
  O  O10  1  0.14168300  0.14168300  0.57495100  1
  O  O11  1  0.14168300  0.57495100  0.14168300  1
  O  O12  1  0.85831700  0.85831700  0.42504900  1
  O  O13  1  0.85831700  0.42504900  0.85831700  1
  O  O14  1  0.14168300  0.14168300  0.14168300  1
  O  O15  1  0.42504900  0.85831700  0.85831700  1
