# generated using pymatgen
data_Cs2Ba2(CO3)3
_symmetry_space_group_name_H-M   'P 1'
_cell_length_a   9.10776920
_cell_length_b   9.10776920
_cell_length_c   9.10776920
_cell_angle_alpha   109.47122063
_cell_angle_beta   109.47122063
_cell_angle_gamma   109.47122063
_symmetry_Int_Tables_number   1
_chemical_formula_structural   Cs2Ba2(CO3)3
_chemical_formula_sum   'Cs4 Ba4 C6 O18'
_cell_volume   581.58628885
_cell_formula_units_Z   2
loop_
 _symmetry_equiv_pos_site_id
 _symmetry_equiv_pos_as_xyz
  1  'x, y, z'
loop_
 _atom_site_type_symbol
 _atom_site_label
 _atom_site_symmetry_multiplicity
 _atom_site_fract_x
 _atom_site_fract_y
 _atom_site_fract_z
 _atom_site_occupancy
  Cs  Cs0  1  0.00000000  0.11987700  0.50000000  1
  Cs  Cs1  1  0.11987700  0.50000000  0.00000000  1
  Cs  Cs2  1  0.38012300  0.38012300  0.38012300  1
  Cs  Cs3  1  0.50000000  0.00000000  0.11987700  1
  Ba  Ba4  1  0.00000000  0.58283300  0.50000000  1
  Ba  Ba5  1  0.50000000  0.00000000  0.58283300  1
  Ba  Ba6  1  0.91716700  0.91716700  0.91716700  1
  Ba  Ba7  1  0.58283300  0.50000000  0.00000000  1
  C  C8  1  0.65937800  0.75000000  0.40937800  1
  C  C9  1  0.09062200  0.84062200  0.25000000  1
  C  C10  1  0.25000000  0.09062200  0.84062200  1
  C  C11  1  0.40937800  0.65937800  0.75000000  1
  C  C12  1  0.84062200  0.25000000  0.09062200  1
  C  C13  1  0.75000000  0.40937800  0.65937800  1
  O  O14  1  0.96526800  0.25000000  0.21526800  1
  O  O15  1  0.25000000  0.21526800  0.96526800  1
  O  O16  1  0.36420900  0.70415800  0.62744000  1
  O  O17  1  0.62744000  0.36420900  0.70415800  1
  O  O18  1  0.70415800  0.62744000  0.36420900  1
  O  O19  1  0.21526800  0.96526800  0.25000000  1
  O  O20  1  0.87256000  0.57671700  0.73676900  1
  O  O21  1  0.79584200  0.16005200  0.92328300  1
  O  O22  1  0.13579100  0.76323100  0.33994800  1
  O  O23  1  0.33994800  0.13579100  0.76323100  1
  O  O24  1  0.92328300  0.79584200  0.16005200  1
  O  O25  1  0.16005200  0.92328300  0.79584200  1
  O  O26  1  0.28473200  0.53473200  0.75000000  1
  O  O27  1  0.75000000  0.28473200  0.53473200  1
  O  O28  1  0.76323100  0.33994800  0.13579100  1
  O  O29  1  0.57671700  0.73676900  0.87256000  1
  O  O30  1  0.53473200  0.75000000  0.28473200  1
  O  O31  1  0.73676900  0.87256000  0.57671700  1
