# generated using pymatgen
data_NaSmSe2O7
_symmetry_space_group_name_H-M   'P 1'
_cell_length_a   7.00171700
_cell_length_b   8.34516400
_cell_length_c   10.92291196
_cell_angle_alpha   88.63911385
_cell_angle_beta   90.00000000
_cell_angle_gamma   90.00000000
_symmetry_Int_Tables_number   1
_chemical_formula_structural   NaSmSe2O7
_chemical_formula_sum   'Na4 Sm4 Se8 O28'
_cell_volume   638.05093023
_cell_formula_units_Z   4
loop_
 _symmetry_equiv_pos_site_id
 _symmetry_equiv_pos_as_xyz
  1  'x, y, z'
loop_
 _atom_site_type_symbol
 _atom_site_label
 _atom_site_symmetry_multiplicity
 _atom_site_fract_x
 _atom_site_fract_y
 _atom_site_fract_z
 _atom_site_occupancy
  Na  Na0  1  0.37393100  0.81143500  0.93706700  1
  Na  Na1  1  0.87393100  0.68856500  0.06293300  1
  Na  Na2  1  0.62606900  0.18856500  0.06293300  1
  Na  Na3  1  0.12606900  0.31143500  0.93706700  1
  Sm  Sm4  1  0.85120200  0.19510700  0.58606600  1
  Sm  Sm5  1  0.35120200  0.30489300  0.41393400  1
  Sm  Sm6  1  0.14879800  0.80489300  0.41393400  1
  Sm  Sm7  1  0.64879800  0.69510700  0.58606600  1
  Se  Se8  1  0.32962600  0.05635700  0.66806300  1
  Se  Se9  1  0.17037400  0.55635700  0.66806300  1
  Se  Se10  1  0.67037400  0.94364300  0.33193700  1
  Se  Se11  1  0.14226300  0.04335900  0.16140600  1
  Se  Se12  1  0.82962600  0.44364300  0.33193700  1
  Se  Se13  1  0.35773700  0.54335900  0.16140600  1
  Se  Se14  1  0.64226300  0.45664100  0.83859400  1
  Se  Se15  1  0.85773700  0.95664100  0.83859400  1
  O  O16  1  0.22297800  0.07778200  0.30504700  1
  O  O17  1  0.84122000  0.93508000  0.45029900  1
  O  O18  1  0.88491100  0.64156800  0.33992600  1
  O  O19  1  0.72297800  0.42221800  0.69495300  1
  O  O20  1  0.00503300  0.33751200  0.41306600  1
  O  O21  1  0.56048000  0.64408900  0.81042200  1
  O  O22  1  0.47232800  0.32891800  0.88152400  1
  O  O23  1  0.49496700  0.83751200  0.41306600  1
  O  O24  1  0.43952000  0.35591100  0.18957800  1
  O  O25  1  0.61508900  0.14156800  0.33992600  1
  O  O26  1  0.15878000  0.06492000  0.54970100  1
  O  O27  1  0.27702200  0.57778200  0.30504700  1
  O  O28  1  0.93952000  0.14408900  0.81042200  1
  O  O29  1  0.31602200  0.04698000  0.05764000  1
  O  O30  1  0.11508900  0.35843200  0.66007400  1
  O  O31  1  0.38491100  0.85843200  0.66007400  1
  O  O32  1  0.02767200  0.82891800  0.88152400  1
  O  O33  1  0.50503300  0.16248800  0.58693400  1
  O  O34  1  0.65878000  0.43508000  0.45029900  1
  O  O35  1  0.06048000  0.85591100  0.18957800  1
  O  O36  1  0.34122000  0.56492000  0.54970100  1
  O  O37  1  0.81602200  0.45302000  0.94236000  1
  O  O38  1  0.97232800  0.17108200  0.11847600  1
  O  O39  1  0.18397800  0.54698000  0.05764000  1
  O  O40  1  0.52767200  0.67108200  0.11847600  1
  O  O41  1  0.99496700  0.66248800  0.58693400  1
  O  O42  1  0.77702200  0.92221800  0.69495300  1
  O  O43  1  0.68397800  0.95302000  0.94236000  1
