# generated using pymatgen
data_Dy3CuSiS7
_symmetry_space_group_name_H-M   'P 1'
_cell_length_a   9.88713381
_cell_length_b   9.88713381
_cell_length_c   5.70317100
_cell_angle_alpha   90.00000000
_cell_angle_beta   90.00000000
_cell_angle_gamma   119.99999876
_symmetry_Int_Tables_number   1
_chemical_formula_structural   Dy3CuSiS7
_chemical_formula_sum   'Dy6 Cu2 Si2 S14'
_cell_volume   482.82289365
_cell_formula_units_Z   2
loop_
 _symmetry_equiv_pos_site_id
 _symmetry_equiv_pos_as_xyz
  1  'x, y, z'
loop_
 _atom_site_type_symbol
 _atom_site_label
 _atom_site_symmetry_multiplicity
 _atom_site_fract_x
 _atom_site_fract_y
 _atom_site_fract_z
 _atom_site_occupancy
  Dy  Dy0  1  0.13076300  0.35732400  0.74556000  1
  Dy  Dy1  1  0.64267600  0.77343900  0.74556000  1
  Dy  Dy2  1  0.77343900  0.13076300  0.24556000  1
  Dy  Dy3  1  0.35732400  0.22656100  0.24556000  1
  Dy  Dy4  1  0.22656100  0.86923700  0.74556000  1
  Dy  Dy5  1  0.86923700  0.64267600  0.24556000  1
  Cu  Cu6  1  0.00000000  0.00000000  0.70152000  1
  Cu  Cu7  1  0.00000000  0.00000000  0.20152000  1
  Si  Si8  1  0.66666700  0.33333300  0.83407300  1
  Si  Si9  1  0.33333300  0.66666700  0.33407300  1
  S  S10  1  0.66666700  0.33333300  0.46340000  1
  S  S11  1  0.90413700  0.74154400  0.71856300  1
  S  S12  1  0.16259200  0.90413700  0.21856300  1
  S  S13  1  0.83740800  0.09586300  0.71856300  1
  S  S14  1  0.89420400  0.41781300  0.98332500  1
  S  S15  1  0.74154400  0.83740800  0.21856300  1
  S  S16  1  0.25845600  0.16259200  0.71856300  1
  S  S17  1  0.10579600  0.58218700  0.48332500  1
  S  S18  1  0.47639100  0.89420400  0.48332500  1
  S  S19  1  0.58218700  0.47639100  0.98332500  1
  S  S20  1  0.33333300  0.66666700  0.96340000  1
  S  S21  1  0.09586300  0.25845600  0.21856300  1
  S  S22  1  0.41781300  0.52360900  0.48332500  1
  S  S23  1  0.52360900  0.10579600  0.98332500  1
