# generated using pymatgen
data_Tl2SnO3
_symmetry_space_group_name_H-M   'P 1'
_cell_length_a   3.29968400
_cell_length_b   10.41881600
_cell_length_c   12.73605100
_cell_angle_alpha   90.00000000
_cell_angle_beta   90.00000000
_cell_angle_gamma   90.00000000
_symmetry_Int_Tables_number   1
_chemical_formula_structural   Tl2SnO3
_chemical_formula_sum   'Tl8 Sn4 O12'
_cell_volume   437.85015590
_cell_formula_units_Z   4
loop_
 _symmetry_equiv_pos_site_id
 _symmetry_equiv_pos_as_xyz
  1  'x, y, z'
loop_
 _atom_site_type_symbol
 _atom_site_label
 _atom_site_symmetry_multiplicity
 _atom_site_fract_x
 _atom_site_fract_y
 _atom_site_fract_z
 _atom_site_occupancy
  Tl  Tl0  1  0.75000000  0.63643000  0.39474600  1
  Tl  Tl1  1  0.25000000  0.36357000  0.60525400  1
  Tl  Tl2  1  0.75000000  0.13643000  0.10525400  1
  Tl  Tl3  1  0.25000000  0.86357000  0.89474600  1
  Tl  Tl4  1  0.75000000  0.79191700  0.15437500  1
  Tl  Tl5  1  0.25000000  0.20808300  0.84562500  1
  Tl  Tl6  1  0.75000000  0.29191700  0.34562500  1
  Tl  Tl7  1  0.25000000  0.70808300  0.65437500  1
  Sn  Sn8  1  0.25000000  0.96096200  0.39029600  1
  Sn  Sn9  1  0.75000000  0.03903800  0.60970400  1
  Sn  Sn10  1  0.25000000  0.46096200  0.10970400  1
  Sn  Sn11  1  0.75000000  0.53903800  0.89029600  1
  O  O12  1  0.75000000  0.89376500  0.49024800  1
  O  O13  1  0.25000000  0.10623500  0.50975200  1
  O  O14  1  0.75000000  0.39376500  0.00975200  1
  O  O15  1  0.25000000  0.60623500  0.99024800  1
  O  O16  1  0.75000000  0.54252800  0.19020300  1
  O  O17  1  0.25000000  0.45747200  0.80979700  1
  O  O18  1  0.75000000  0.04252800  0.30979700  1
  O  O19  1  0.25000000  0.95747200  0.69020300  1
  O  O20  1  0.25000000  0.78952700  0.31055400  1
  O  O21  1  0.75000000  0.21047300  0.68944600  1
  O  O22  1  0.25000000  0.28952700  0.18944600  1
  O  O23  1  0.75000000  0.71047300  0.81055400  1
