# generated using pymatgen
data_Ce4MnSe6O
_symmetry_space_group_name_H-M   'P 1'
_cell_length_a   9.66467246
_cell_length_b   9.66467246
_cell_length_c   7.06774000
_cell_angle_alpha   90.00000000
_cell_angle_beta   90.00000000
_cell_angle_gamma   120.00000313
_symmetry_Int_Tables_number   1
_chemical_formula_structural   Ce4MnSe6O
_chemical_formula_sum   'Ce8 Mn2 Se12 O2'
_cell_volume   571.72273544
_cell_formula_units_Z   2
loop_
 _symmetry_equiv_pos_site_id
 _symmetry_equiv_pos_as_xyz
  1  'x, y, z'
loop_
 _atom_site_type_symbol
 _atom_site_label
 _atom_site_symmetry_multiplicity
 _atom_site_fract_x
 _atom_site_fract_y
 _atom_site_fract_z
 _atom_site_occupancy
  Ce  Ce0  1  0.66666700  0.33333300  0.70993400  1
  Ce  Ce1  1  0.59663400  0.79831700  0.65899600  1
  Ce  Ce2  1  0.79831700  0.20168300  0.15899600  1
  Ce  Ce3  1  0.40336600  0.20168300  0.15899600  1
  Ce  Ce4  1  0.79831700  0.59663400  0.15899600  1
  Ce  Ce5  1  0.33333300  0.66666700  0.20993400  1
  Ce  Ce6  1  0.20168300  0.40336600  0.65899600  1
  Ce  Ce7  1  0.20168300  0.79831700  0.65899600  1
  Mn  Mn8  1  0.00000000  0.00000000  0.99589900  1
  Mn  Mn9  1  0.00000000  0.00000000  0.49589900  1
  Se  Se10  1  0.12770900  0.87229100  0.26167500  1
  Se  Se11  1  0.12770900  0.25541700  0.26167500  1
  Se  Se12  1  0.87229100  0.12770900  0.76167500  1
  Se  Se13  1  0.52951700  0.47048300  0.44537200  1
  Se  Se14  1  0.05903400  0.52951700  0.94537200  1
  Se  Se15  1  0.25541700  0.12770900  0.76167500  1
  Se  Se16  1  0.47048300  0.52951700  0.94537200  1
  Se  Se17  1  0.47048300  0.94096600  0.94537200  1
  Se  Se18  1  0.74458300  0.87229100  0.26167500  1
  Se  Se19  1  0.87229100  0.74458300  0.76167500  1
  Se  Se20  1  0.94096600  0.47048300  0.44537200  1
  Se  Se21  1  0.52951700  0.05903400  0.44537200  1
  O  O22  1  0.66666700  0.33333300  0.04870200  1
  O  O23  1  0.33333300  0.66666700  0.54870200  1
