# generated using pymatgen
data_CaU(MoO4)4
_symmetry_space_group_name_H-M   'P 1'
_cell_length_a   6.74832300
_cell_length_b   8.36170100
_cell_length_c   14.29053915
_cell_angle_alpha   54.57971417
_cell_angle_beta   90.00000000
_cell_angle_gamma   90.00000000
_symmetry_Int_Tables_number   1
_chemical_formula_structural   CaU(MoO4)4
_chemical_formula_sum   'Ca2 U2 Mo8 O32'
_cell_volume   657.13635850
_cell_formula_units_Z   2
loop_
 _symmetry_equiv_pos_site_id
 _symmetry_equiv_pos_as_xyz
  1  'x, y, z'
loop_
 _atom_site_type_symbol
 _atom_site_label
 _atom_site_symmetry_multiplicity
 _atom_site_fract_x
 _atom_site_fract_y
 _atom_site_fract_z
 _atom_site_occupancy
  Ca  Ca0  1  0.30017900  0.50000000  0.25000000  1
  Ca  Ca1  1  0.69982100  0.50000000  0.75000000  1
  U  U2  1  0.69873500  0.00000000  0.75000000  1
  U  U3  1  0.30126500  0.00000000  0.25000000  1
  Mo  Mo4  1  0.83274000  0.79886400  0.40691600  1
  Mo  Mo5  1  0.16726000  0.20113600  0.59308400  1
  Mo  Mo6  1  0.83061900  0.30145800  0.40403900  1
  Mo  Mo7  1  0.83274000  0.20113600  0.09308400  1
  Mo  Mo8  1  0.16726000  0.79886400  0.90691600  1
  Mo  Mo9  1  0.16938100  0.69854200  0.59596100  1
  Mo  Mo10  1  0.83061900  0.69854200  0.09596100  1
  Mo  Mo11  1  0.16938100  0.30145800  0.90403900  1
  O  O12  1  0.15055200  0.18472500  0.06793700  1
  O  O13  1  0.15292600  0.09332900  0.90344700  1
  O  O14  1  0.15055200  0.81527500  0.43206300  1
  O  O15  1  0.41999500  0.63513100  0.62438300  1
  O  O16  1  0.58000500  0.36486900  0.37561700  1
  O  O17  1  0.14832500  0.31434600  0.43716200  1
  O  O18  1  0.84376100  0.59480200  0.40251700  1
  O  O19  1  0.84944800  0.18472500  0.56793700  1
  O  O20  1  0.93417200  0.50000000  0.25000000  1
  O  O21  1  0.84707400  0.90667100  0.09655300  1
  O  O22  1  0.41999500  0.36486900  0.87561700  1
  O  O23  1  0.94248000  0.00000000  0.25000000  1
  O  O24  1  0.15292600  0.90667100  0.59655300  1
  O  O25  1  0.42226800  0.87241600  0.87079000  1
  O  O26  1  0.05752000  0.00000000  0.75000000  1
  O  O27  1  0.15623900  0.40519800  0.59748300  1
  O  O28  1  0.06582800  0.50000000  0.75000000  1
  O  O29  1  0.85167500  0.68565400  0.56283800  1
  O  O30  1  0.69894800  0.78342500  0.74725800  1
  O  O31  1  0.30105200  0.78342500  0.24725800  1
  O  O32  1  0.14832500  0.68565400  0.06283800  1
  O  O33  1  0.85167500  0.31434600  0.93716200  1
  O  O34  1  0.84707400  0.09332900  0.40344700  1
  O  O35  1  0.57773200  0.12758400  0.12921000  1
  O  O36  1  0.84944800  0.81527500  0.93206300  1
  O  O37  1  0.69894800  0.21657500  0.75274200  1
  O  O38  1  0.84376100  0.40519800  0.09748300  1
  O  O39  1  0.57773200  0.87241600  0.37079000  1
  O  O40  1  0.42226800  0.12758400  0.62921000  1
  O  O41  1  0.15623900  0.59480200  0.90251700  1
  O  O42  1  0.30105200  0.21657500  0.25274200  1
  O  O43  1  0.58000500  0.63513100  0.12438300  1
