# generated using pymatgen
data_Cs2Nb4O11
_symmetry_space_group_name_H-M   'P 1'
_cell_length_a   7.60603300
_cell_length_b   10.70163200
_cell_length_c   29.48337800
_cell_angle_alpha   90.00000000
_cell_angle_beta   90.00000000
_cell_angle_gamma   90.00000000
_symmetry_Int_Tables_number   1
_chemical_formula_structural   Cs2Nb4O11
_chemical_formula_sum   'Cs16 Nb32 O88'
_cell_volume   2399.85752093
_cell_formula_units_Z   8
loop_
 _symmetry_equiv_pos_site_id
 _symmetry_equiv_pos_as_xyz
  1  'x, y, z'
loop_
 _atom_site_type_symbol
 _atom_site_label
 _atom_site_symmetry_multiplicity
 _atom_site_fract_x
 _atom_site_fract_y
 _atom_site_fract_z
 _atom_site_occupancy
  Cs  Cs0  1  0.24754300  0.35506500  0.57617400  1
  Cs  Cs1  1  0.74202400  0.87686000  0.69281600  1
  Cs  Cs2  1  0.25797600  0.37686000  0.19281600  1
  Cs  Cs3  1  0.25797600  0.12314000  0.30718400  1
  Cs  Cs4  1  0.74754300  0.64493500  0.57617400  1
  Cs  Cs5  1  0.74202400  0.62314000  0.80718400  1
  Cs  Cs6  1  0.24202400  0.37686000  0.80718400  1
  Cs  Cs7  1  0.24754300  0.14493500  0.92382600  1
  Cs  Cs8  1  0.74754300  0.85506500  0.92382600  1
  Cs  Cs9  1  0.24202400  0.12314000  0.69281600  1
  Cs  Cs10  1  0.75245700  0.85506500  0.07617400  1
  Cs  Cs11  1  0.75245700  0.64493500  0.42382600  1
  Cs  Cs12  1  0.75797600  0.62314000  0.19281600  1
  Cs  Cs13  1  0.25245700  0.14493500  0.07617400  1
  Cs  Cs14  1  0.25245700  0.35506500  0.42382600  1
  Cs  Cs15  1  0.75797600  0.87686000  0.30718400  1
  Nb  Nb16  1  0.48281800  0.01072600  0.81166200  1
  Nb  Nb17  1  0.25725300  0.75000000  0.75000000  1
  Nb  Nb18  1  0.24631400  0.73945700  0.37503300  1
  Nb  Nb19  1  0.25000000  0.73023400  0.00000000  1
  Nb  Nb20  1  0.98281800  0.98927400  0.81166200  1
  Nb  Nb21  1  0.74274700  0.25000000  0.25000000  1
  Nb  Nb22  1  0.25368600  0.76054300  0.87503300  1
  Nb  Nb23  1  0.51718200  0.51072600  0.31166200  1
  Nb  Nb24  1  0.51718200  0.98927400  0.18833800  1
  Nb  Nb25  1  0.98281800  0.51072600  0.68833800  1
  Nb  Nb26  1  0.48281800  0.48927400  0.68833800  1
  Nb  Nb27  1  0.49901300  0.00211500  0.56157100  1
  Nb  Nb28  1  0.01718200  0.01072600  0.18833800  1
  Nb  Nb29  1  0.75000000  0.23023400  0.50000000  1
  Nb  Nb30  1  0.01718200  0.48927400  0.31166200  1
  Nb  Nb31  1  0.75368600  0.26054300  0.62496700  1
  Nb  Nb32  1  0.25000000  0.76976600  0.50000000  1
  Nb  Nb33  1  0.00098700  0.49788500  0.06157100  1
  Nb  Nb34  1  0.50098700  0.50211500  0.06157100  1
  Nb  Nb35  1  0.24631400  0.76054300  0.12496700  1
  Nb  Nb36  1  0.25368600  0.73945700  0.62496700  1
  Nb  Nb37  1  0.75725300  0.25000000  0.75000000  1
  Nb  Nb38  1  0.75368600  0.23945700  0.87503300  1
  Nb  Nb39  1  0.74631400  0.23945700  0.12496700  1
  Nb  Nb40  1  0.00098700  0.00211500  0.43842900  1
  Nb  Nb41  1  0.99901300  0.50211500  0.93842900  1
  Nb  Nb42  1  0.74631400  0.26054300  0.37503300  1
  Nb  Nb43  1  0.75000000  0.26976600  0.00000000  1
  Nb  Nb44  1  0.49901300  0.49788500  0.93842900  1
  Nb  Nb45  1  0.24274700  0.75000000  0.25000000  1
  Nb  Nb46  1  0.99901300  0.99788500  0.56157100  1
  Nb  Nb47  1  0.50098700  0.99788500  0.43842900  1
  O  O48  1  0.93558100  0.37680800  0.36300200  1
  O  O49  1  0.95242800  0.12456500  0.49984500  1
  O  O50  1  0.56522800  0.37570200  0.73394800  1
  O  O51  1  0.43524900  0.62360100  0.63694200  1
  O  O52  1  0.06522800  0.62429800  0.73394800  1
  O  O53  1  0.93524900  0.12360100  0.86305800  1
  O  O54  1  0.95242800  0.37543500  0.00015500  1
  O  O55  1  0.43491200  0.62734800  0.73301300  1
  O  O56  1  0.25040900  0.45082800  0.05354500  1
  O  O57  1  0.04757200  0.87543500  0.50015500  1
  O  O58  1  0.24774000  0.81369300  0.31587300  1
  O  O59  1  0.56475100  0.37639900  0.36305800  1
  O  O60  1  0.75040900  0.54917200  0.05354500  1
  O  O61  1  0.43821300  0.63277200  0.10074600  1
  O  O62  1  0.93821300  0.36722800  0.10074600  1
  O  O63  1  0.54757200  0.37543500  0.99984500  1
  O  O64  1  0.56441900  0.12319200  0.86300200  1
  O  O65  1  0.74959100  0.95082800  0.55354500  1
  O  O66  1  0.56508800  0.12734800  0.23301300  1
  O  O67  1  0.24959100  0.04917200  0.55354500  1
  O  O68  1  0.56508800  0.37265200  0.26698700  1
  O  O69  1  0.56475100  0.12360100  0.13694200  1
  O  O70  1  0.93558100  0.12319200  0.13699800  1
  O  O71  1  0.43491200  0.87265200  0.76698700  1
  O  O72  1  0.74795300  0.93723800  0.81432300  1
  O  O73  1  0.74774000  0.31369300  0.18412700  1
  O  O74  1  0.75204700  0.56276200  0.31432300  1
  O  O75  1  0.54757200  0.12456500  0.50015500  1
  O  O76  1  0.93491200  0.12734800  0.76698700  1
  O  O77  1  0.75226000  0.18630700  0.68412700  1
  O  O78  1  0.56441900  0.37680800  0.63699800  1
  O  O79  1  0.56522800  0.12429800  0.76605200  1
  O  O80  1  0.93491200  0.37265200  0.73301300  1
  O  O81  1  0.93821300  0.13277200  0.39925400  1
  O  O82  1  0.56178700  0.13277200  0.60074600  1
  O  O83  1  0.74885800  0.17198300  0.05187900  1
  O  O84  1  0.24885800  0.82801700  0.05187900  1
  O  O85  1  0.06178700  0.63277200  0.89925400  1
  O  O86  1  0.93477200  0.12429800  0.23394800  1
  O  O87  1  0.93755400  0.13282100  0.60060700  1
  O  O88  1  0.43821300  0.86722800  0.39925400  1
  O  O89  1  0.24795300  0.06276200  0.81432300  1
  O  O90  1  0.25204700  0.43723800  0.31432300  1
  O  O91  1  0.04757200  0.62456500  0.99984500  1
  O  O92  1  0.06475100  0.62360100  0.36305800  1
  O  O93  1  0.43477200  0.87570200  0.23394800  1
  O  O94  1  0.56244600  0.36717900  0.10060700  1
  O  O95  1  0.06244600  0.86717900  0.39939300  1
  O  O96  1  0.25040900  0.04917200  0.44645500  1
  O  O97  1  0.24774000  0.68630700  0.18412700  1
  O  O98  1  0.75226000  0.31369300  0.81587300  1
  O  O99  1  0.43755400  0.86717900  0.60060700  1
  O  O100  1  0.25226000  0.81369300  0.68412700  1
  O  O101  1  0.74959100  0.54917200  0.94645500  1
  O  O102  1  0.93755400  0.36717900  0.89939300  1
  O  O103  1  0.56178700  0.36722800  0.89925400  1
  O  O104  1  0.24959100  0.45082800  0.94645500  1
  O  O105  1  0.06522800  0.87570200  0.76605200  1
  O  O106  1  0.74795300  0.56276200  0.68567700  1
  O  O107  1  0.25114200  0.67198300  0.55187900  1
  O  O108  1  0.93477200  0.37570200  0.26605200  1
  O  O109  1  0.75040900  0.95082800  0.44645500  1
  O  O110  1  0.06508800  0.62734800  0.26698700  1
  O  O111  1  0.74885800  0.32801700  0.44812100  1
  O  O112  1  0.25226000  0.68630700  0.81587300  1
  O  O113  1  0.93524900  0.37639900  0.63694200  1
  O  O114  1  0.75114200  0.32801700  0.55187900  1
  O  O115  1  0.06475100  0.87639900  0.13694200  1
  O  O116  1  0.43477200  0.62429800  0.26605200  1
  O  O117  1  0.24795300  0.43723800  0.68567700  1
  O  O118  1  0.43755400  0.63282100  0.89939300  1
  O  O119  1  0.75204700  0.93723800  0.18567700  1
  O  O120  1  0.43558100  0.62319200  0.36300200  1
  O  O121  1  0.75114200  0.17198300  0.94812100  1
  O  O122  1  0.25204700  0.06276200  0.18567700  1
  O  O123  1  0.06244600  0.63282100  0.10060700  1
  O  O124  1  0.45242800  0.62456500  0.00015500  1
  O  O125  1  0.06441900  0.87680800  0.86300200  1
  O  O126  1  0.06441900  0.62319200  0.63699800  1
  O  O127  1  0.45242800  0.87543500  0.49984500  1
  O  O128  1  0.25114200  0.82801700  0.94812100  1
  O  O129  1  0.43558100  0.87680800  0.13699800  1
  O  O130  1  0.24885800  0.67198300  0.44812100  1
  O  O131  1  0.06178700  0.86722800  0.60074600  1
  O  O132  1  0.43524900  0.87639900  0.86305800  1
  O  O133  1  0.74774000  0.18630700  0.31587300  1
  O  O134  1  0.06508800  0.87265200  0.23301300  1
  O  O135  1  0.56244600  0.13282100  0.39939300  1
