# generated using pymatgen
data_NaErO2
_symmetry_space_group_name_H-M   'P 1'
_cell_length_a   7.36751479
_cell_length_b   7.36751479
_cell_length_c   5.91776868
_cell_angle_alpha   75.97047563
_cell_angle_beta   75.97047563
_cell_angle_gamma   126.51525601
_symmetry_Int_Tables_number   1
_chemical_formula_structural   NaErO2
_chemical_formula_sum   'Na4 Er4 O8'
_cell_volume   217.49474204
_cell_formula_units_Z   4
loop_
 _symmetry_equiv_pos_site_id
 _symmetry_equiv_pos_as_xyz
  1  'x, y, z'
loop_
 _atom_site_type_symbol
 _atom_site_label
 _atom_site_symmetry_multiplicity
 _atom_site_fract_x
 _atom_site_fract_y
 _atom_site_fract_z
 _atom_site_occupancy
  Na  Na0  1  0.18018000  0.81982000  0.25000000  1
  Na  Na1  1  0.94429100  0.05570900  0.25000000  1
  Na  Na2  1  0.81982000  0.18018000  0.75000000  1
  Na  Na3  1  0.05570900  0.94429100  0.75000000  1
  Er  Er4  1  0.56713900  0.43286100  0.75000000  1
  Er  Er5  1  0.43286100  0.56713900  0.25000000  1
  Er  Er6  1  0.30670700  0.69329300  0.75000000  1
  Er  Er7  1  0.69329300  0.30670700  0.25000000  1
  O  O8  1  0.76697500  0.63989700  0.29488600  1
  O  O9  1  0.36010300  0.23302500  0.20511400  1
  O  O10  1  0.23302500  0.36010300  0.70511400  1
  O  O11  1  0.63989700  0.76697500  0.79488600  1
  O  O12  1  0.54022600  0.91640900  0.29282500  1
  O  O13  1  0.91640900  0.54022600  0.79282500  1
  O  O14  1  0.45977400  0.08359100  0.70717500  1
  O  O15  1  0.08359100  0.45977400  0.20717500  1
