# generated using pymatgen
data_K2MgP2WO10
_symmetry_space_group_name_H-M   'P 1'
_cell_length_a   9.29843900
_cell_length_b   9.31372819
_cell_length_c   10.87907087
_cell_angle_alpha   90.27421242
_cell_angle_beta   90.44223076
_cell_angle_gamma   90.17448251
_symmetry_Int_Tables_number   1
_chemical_formula_structural   K2MgP2WO10
_chemical_formula_sum   'K8 Mg4 P8 W4 O40'
_cell_volume   942.11829723
_cell_formula_units_Z   4
loop_
 _symmetry_equiv_pos_site_id
 _symmetry_equiv_pos_as_xyz
  1  'x, y, z'
loop_
 _atom_site_type_symbol
 _atom_site_label
 _atom_site_symmetry_multiplicity
 _atom_site_fract_x
 _atom_site_fract_y
 _atom_site_fract_z
 _atom_site_occupancy
  K  K0  1  0.84264100  0.50000300  0.34200800  1
  K  K1  1  0.50826400  0.18852600  0.19953800  1
  K  K2  1  0.00374000  0.33596000  0.67735600  1
  K  K3  1  0.66234100  0.99774900  0.87340800  1
  K  K4  1  0.25705200  0.00758400  0.45018200  1
  K  K5  1  0.51642700  0.75383100  0.57519200  1
  K  K6  1  0.26352800  0.47636300  0.93939300  1
  K  K7  1  0.98946600  0.73013800  0.05230400  1
  Mg  Mg8  1  0.35425500  0.35632700  0.49507400  1
  Mg  Mg9  1  0.86678300  0.12314400  0.24183100  1
  Mg  Mg10  1  0.64324800  0.62521200  0.01277000  1
  Mg  Mg11  1  0.15497300  0.84326100  0.75076900  1
  P  P12  1  0.17327700  0.31748100  0.23463900  1
  P  P13  1  0.83455400  0.68166200  0.76072300  1
  P  P14  1  0.67603700  0.18360400  0.49506900  1
  P  P15  1  0.67728200  0.81364700  0.26764500  1
  P  P16  1  0.32937900  0.15775000  0.74152700  1
  P  P17  1  0.82485900  0.31193000  0.98838400  1
  P  P18  1  0.33957600  0.82182700  0.00819000  1
  P  P19  1  0.16613400  0.65860700  0.49666000  1
  W  W20  1  0.37975300  0.61124700  0.25244300  1
  W  W21  1  0.11980800  0.10200700  0.99319600  1
  W  W22  1  0.60883700  0.39251800  0.74463100  1
  W  W23  1  0.89213500  0.89216000  0.50916400  1
  O  O24  1  0.05522000  0.97900000  0.87726200  1
  O  O25  1  0.99746100  0.67149900  0.77134400  1
  O  O26  1  0.69470400  0.97094300  0.23630700  1
  O  O27  1  0.25598700  0.75711600  0.89965700  1
  O  O28  1  0.74340900  0.77684700  0.39815900  1
  O  O29  1  0.33448300  0.99503000  0.72980000  1
  O  O30  1  0.22813100  0.24791000  0.11052700  1
  O  O31  1  0.51042300  0.77797600  0.28777500  1
  O  O32  1  0.95728800  0.99066200  0.37919300  1
  O  O33  1  0.77199600  0.52939200  0.71689700  1
  O  O34  1  0.20836600  0.48414400  0.21531800  1
  O  O35  1  0.73924800  0.70929800  0.17274200  1
  O  O36  1  0.98883500  0.26909000  0.96037700  1
  O  O37  1  0.27857400  0.74799100  0.12762800  1
  O  O38  1  0.50171200  0.80819000  0.99971800  1
  O  O39  1  0.73014200  0.02794100  0.53722000  1
  O  O40  1  0.24185800  0.71327900  0.37588600  1
  O  O41  1  0.00306700  0.70879200  0.48020100  1
  O  O42  1  0.81665600  0.47033200  0.02163300  1
  O  O43  1  0.29871300  0.98703700  0.02495900  1
  O  O44  1  0.01358300  0.03353300  0.11730100  1
  O  O45  1  0.48425500  0.45815400  0.63045700  1
  O  O46  1  0.24161100  0.20874200  0.85699500  1
  O  O47  1  0.44689600  0.49972100  0.37490500  1
  O  O48  1  0.16861100  0.49588700  0.50725000  1
  O  O49  1  0.48881400  0.21564500  0.76973900  1
  O  O50  1  0.26551000  0.25890900  0.33970000  1
  O  O51  1  0.23683600  0.73979500  0.60354300  1
  O  O52  1  0.76151000  0.72841600  0.87981300  1
  O  O53  1  0.48863700  0.53773700  0.13049900  1
  O  O54  1  0.75103700  0.27937600  0.85967700  1
  O  O55  1  0.26653500  0.23310100  0.62872100  1
  O  O56  1  0.02436600  0.95357900  0.61919900  1
  O  O57  1  0.01265000  0.29878700  0.25021800  1
  O  O58  1  0.75696200  0.23017900  0.38013300  1
  O  O59  1  0.76417000  0.20944900  0.08448700  1
  O  O60  1  0.54747100  0.49609700  0.87437600  1
  O  O61  1  0.72231100  0.28120400  0.60725100  1
  O  O62  1  0.78544700  0.78503900  0.65454400  1
  O  O63  1  0.51345400  0.18139900  0.47724600  1
