# generated using pymatgen
data_Ag2F5
_symmetry_space_group_name_H-M   'P 1'
_cell_length_a   5.19665700
_cell_length_b   7.58895209
_cell_length_c   11.44632362
_cell_angle_alpha   88.02099993
_cell_angle_beta   89.21203781
_cell_angle_gamma   72.83294788
_symmetry_Int_Tables_number   1
_chemical_formula_structural   Ag2F5
_chemical_formula_sum   'Ag8 F20'
_cell_volume   431.03935577
_cell_formula_units_Z   4
loop_
 _symmetry_equiv_pos_site_id
 _symmetry_equiv_pos_as_xyz
  1  'x, y, z'
loop_
 _atom_site_type_symbol
 _atom_site_label
 _atom_site_symmetry_multiplicity
 _atom_site_fract_x
 _atom_site_fract_y
 _atom_site_fract_z
 _atom_site_occupancy
  Ag  Ag0  1  0.50000000  0.50000000  0.00000000  1
  Ag  Ag1  1  0.50000000  0.00000000  0.50000000  1
  Ag  Ag2  1  0.04280800  0.27789000  0.75337000  1
  Ag  Ag3  1  0.95719200  0.72211000  0.24663000  1
  Ag  Ag4  1  0.50000000  0.00000000  0.00000000  1
  Ag  Ag5  1  0.50000000  0.50000000  0.50000000  1
  Ag  Ag6  1  0.04598500  0.78481500  0.76561200  1
  Ag  Ag7  1  0.95401500  0.21518500  0.23438800  1
  F  F8  1  0.44979300  0.26671700  0.42766600  1
  F  F9  1  0.55020700  0.73328300  0.57233400  1
  F  F10  1  0.67274100  0.77090900  0.09550000  1
  F  F11  1  0.32725900  0.22909100  0.90450000  1
  F  F12  1  0.47990300  0.16158500  0.13241500  1
  F  F13  1  0.52009700  0.83841500  0.86758500  1
  F  F14  1  0.94403500  0.02346300  0.84650600  1
  F  F15  1  0.05596500  0.97653700  0.15349400  1
  F  F16  1  0.63892000  0.87798200  0.34592100  1
  F  F17  1  0.36108000  0.12201800  0.65407900  1
  F  F18  1  0.79353300  0.33908100  0.60103600  1
  F  F19  1  0.20646700  0.66091900  0.39896400  1
  F  F20  1  0.87205700  0.35594200  0.08125900  1
  F  F21  1  0.12794300  0.64405800  0.91874100  1
  F  F22  1  0.72173800  0.43844600  0.84911800  1
  F  F23  1  0.27826200  0.56155400  0.15088200  1
  F  F24  1  0.15385900  0.54510900  0.68614400  1
  F  F25  1  0.84614100  0.45489100  0.31385600  1
  F  F26  1  0.95131800  0.92243100  0.61747500  1
  F  F27  1  0.04868200  0.07756900  0.38252500  1
