# generated using pymatgen
data_Tm3B5O12
_symmetry_space_group_name_H-M   'P 1'
_cell_length_a   4.61753300
_cell_length_b   12.53803700
_cell_length_c   12.84399500
_cell_angle_alpha   90.00000000
_cell_angle_beta   90.00000000
_cell_angle_gamma   90.00000000
_symmetry_Int_Tables_number   1
_chemical_formula_structural   Tm3B5O12
_chemical_formula_sum   'Tm12 B20 O48'
_cell_volume   743.60051662
_cell_formula_units_Z   4
loop_
 _symmetry_equiv_pos_site_id
 _symmetry_equiv_pos_as_xyz
  1  'x, y, z'
loop_
 _atom_site_type_symbol
 _atom_site_label
 _atom_site_symmetry_multiplicity
 _atom_site_fract_x
 _atom_site_fract_y
 _atom_site_fract_z
 _atom_site_occupancy
  Tm  Tm0  1  0.99928200  0.80714600  0.86460500  1
  Tm  Tm1  1  0.00000000  0.00000000  0.63216400  1
  Tm  Tm2  1  0.00071800  0.19285400  0.13539500  1
  Tm  Tm3  1  0.99928200  0.80714600  0.13539500  1
  Tm  Tm4  1  0.00000000  0.50000000  0.13216400  1
  Tm  Tm5  1  0.99928200  0.69285400  0.36460500  1
  Tm  Tm6  1  0.00071800  0.30714600  0.36460500  1
  Tm  Tm7  1  0.00071800  0.19285400  0.86460500  1
  Tm  Tm8  1  0.00000000  0.00000000  0.36783600  1
  Tm  Tm9  1  0.00000000  0.50000000  0.86783600  1
  Tm  Tm10  1  0.00071800  0.30714600  0.63539500  1
  Tm  Tm11  1  0.99928200  0.69285400  0.63539500  1
  B  B12  1  0.50000000  0.00000000  0.16178100  1
  B  B13  1  0.52962200  0.15129200  0.29817200  1
  B  B14  1  0.47037800  0.65129200  0.79817200  1
  B  B15  1  0.47037800  0.84870800  0.70182800  1
  B  B16  1  0.45634700  0.37410600  0.50000000  1
  B  B17  1  0.50000000  0.50000000  0.66178100  1
  B  B18  1  0.54365300  0.62589400  0.50000000  1
  B  B19  1  0.54365300  0.87410600  0.00000000  1
  B  B20  1  0.54022400  0.84993500  0.50000000  1
  B  B21  1  0.52962200  0.34870800  0.20182800  1
  B  B22  1  0.50000000  0.50000000  0.33821900  1
  B  B23  1  0.50000000  0.00000000  0.83821900  1
  B  B24  1  0.45977600  0.34993500  0.00000000  1
  B  B25  1  0.54022400  0.65006500  0.00000000  1
  B  B26  1  0.52962200  0.34870800  0.79817200  1
  B  B27  1  0.47037800  0.65129200  0.20182800  1
  B  B28  1  0.45977600  0.15006500  0.50000000  1
  B  B29  1  0.47037800  0.84870800  0.29817200  1
  B  B30  1  0.52962200  0.15129200  0.70182800  1
  B  B31  1  0.45634700  0.12589400  0.00000000  1
  O  O32  1  0.31033400  0.93526800  0.76649000  1
  O  O33  1  0.68966600  0.06473200  0.76649000  1
  O  O34  1  0.33437900  0.42605500  0.40395200  1
  O  O35  1  0.75857500  0.36035500  0.50000000  1
  O  O36  1  0.24142500  0.63964500  0.50000000  1
  O  O37  1  0.34306600  0.85464400  0.59488200  1
  O  O38  1  0.65693400  0.14535600  0.59488200  1
  O  O39  1  0.69814700  0.76232000  0.00000000  1
  O  O40  1  0.21940400  0.34807100  0.79571100  1
  O  O41  1  0.65693400  0.35464400  0.09488200  1
  O  O42  1  0.30185300  0.23768000  0.00000000  1
  O  O43  1  0.31033400  0.56473200  0.26649000  1
  O  O44  1  0.68966600  0.43526800  0.73351000  1
  O  O45  1  0.34306600  0.85464400  0.40511800  1
  O  O46  1  0.78059600  0.65192900  0.20428900  1
  O  O47  1  0.65815300  0.25000000  0.75000000  1
  O  O48  1  0.33437900  0.42605500  0.59604800  1
  O  O49  1  0.31033400  0.56473200  0.73351000  1
  O  O50  1  0.34306600  0.64535600  0.09488200  1
  O  O51  1  0.21940400  0.15192900  0.70428900  1
  O  O52  1  0.65693400  0.35464400  0.90511800  1
  O  O53  1  0.34184700  0.75000000  0.75000000  1
  O  O54  1  0.21940400  0.15192900  0.29571100  1
  O  O55  1  0.66562100  0.92605500  0.09604800  1
  O  O56  1  0.65693400  0.14535600  0.40511800  1
  O  O57  1  0.65815300  0.25000000  0.25000000  1
  O  O58  1  0.66562100  0.57394500  0.40395200  1
  O  O59  1  0.75857500  0.13964500  0.00000000  1
  O  O60  1  0.68966600  0.06473200  0.23351000  1
  O  O61  1  0.69814700  0.73768000  0.50000000  1
  O  O62  1  0.34306600  0.64535600  0.90511800  1
  O  O63  1  0.23878800  0.07091500  0.50000000  1
  O  O64  1  0.66562100  0.57394500  0.59604800  1
  O  O65  1  0.24142500  0.86035500  0.00000000  1
  O  O66  1  0.78059600  0.84807100  0.29571100  1
  O  O67  1  0.66562100  0.92605500  0.90395200  1
  O  O68  1  0.78059600  0.65192900  0.79571100  1
  O  O69  1  0.30185300  0.26232000  0.50000000  1
  O  O70  1  0.76121200  0.57091500  0.00000000  1
  O  O71  1  0.31033400  0.93526800  0.23351000  1
  O  O72  1  0.33437900  0.07394500  0.09604800  1
  O  O73  1  0.76121200  0.92908500  0.50000000  1
  O  O74  1  0.23878800  0.42908500  0.00000000  1
  O  O75  1  0.34184700  0.75000000  0.25000000  1
  O  O76  1  0.21940400  0.34807100  0.20428900  1
  O  O77  1  0.78059600  0.84807100  0.70428900  1
  O  O78  1  0.68966600  0.43526800  0.26649000  1
  O  O79  1  0.33437900  0.07394500  0.90395200  1
