# generated using pymatgen
data_Ca4Mn3B3CO15
_symmetry_space_group_name_H-M   'P 1'
_cell_length_a   10.73243444
_cell_length_b   10.73243444
_cell_length_c   5.98860600
_cell_angle_alpha   90.00000000
_cell_angle_beta   90.00000000
_cell_angle_gamma   120.00000273
_symmetry_Int_Tables_number   1
_chemical_formula_structural   Ca4Mn3B3CO15
_chemical_formula_sum   'Ca8 Mn6 B6 C2 O30'
_cell_volume   597.38298628
_cell_formula_units_Z   2
loop_
 _symmetry_equiv_pos_site_id
 _symmetry_equiv_pos_as_xyz
  1  'x, y, z'
loop_
 _atom_site_type_symbol
 _atom_site_label
 _atom_site_symmetry_multiplicity
 _atom_site_fract_x
 _atom_site_fract_y
 _atom_site_fract_z
 _atom_site_occupancy
  Ca  Ca0  1  0.69806800  0.86871700  0.17996400  1
  Ca  Ca1  1  0.86871700  0.17064900  0.67996400  1
  Ca  Ca2  1  0.13128300  0.82935100  0.17996400  1
  Ca  Ca3  1  0.66666700  0.33333300  0.68468500  1
  Ca  Ca4  1  0.33333300  0.66666700  0.18468500  1
  Ca  Ca5  1  0.17064900  0.30193200  0.17996400  1
  Ca  Ca6  1  0.82935100  0.69806800  0.67996400  1
  Ca  Ca7  1  0.30193200  0.13128300  0.67996400  1
  Mn  Mn8  1  0.50028400  0.49974600  0.93053800  1
  Mn  Mn9  1  0.49971600  0.50025400  0.43053800  1
  Mn  Mn10  1  0.49974600  0.99946200  0.43053800  1
  Mn  Mn11  1  0.50025400  0.00053800  0.93053800  1
  Mn  Mn12  1  0.00053800  0.50028400  0.43053800  1
  Mn  Mn13  1  0.99946200  0.49971600  0.93053800  1
  B  B14  1  0.55302400  0.78317300  0.68048700  1
  B  B15  1  0.23014800  0.44697600  0.68048700  1
  B  B16  1  0.78317300  0.23014800  0.18048700  1
  B  B17  1  0.21682700  0.76985200  0.68048700  1
  B  B18  1  0.44697600  0.21682700  0.18048700  1
  B  B19  1  0.76985200  0.55302400  0.18048700  1
  C  C20  1  0.00000000  0.00000000  0.49547000  1
  C  C21  1  0.00000000  0.00000000  0.99547000  1
  O  O22  1  0.47145800  0.17012400  0.97651100  1
  O  O23  1  0.86192200  0.95003000  0.49938700  1
  O  O24  1  0.39973600  0.31586600  0.18246100  1
  O  O25  1  0.08810800  0.13807800  0.49938700  1
  O  O26  1  0.17012400  0.69866600  0.47651100  1
  O  O27  1  0.09575800  0.47427800  0.18006000  1
  O  O28  1  0.91613000  0.60026400  0.18246100  1
  O  O29  1  0.68413400  0.08387000  0.18246100  1
  O  O30  1  0.30057700  0.46703000  0.88454100  1
  O  O31  1  0.13807800  0.04997000  0.99938700  1
  O  O32  1  0.16645300  0.69942300  0.88454100  1
  O  O33  1  0.52854200  0.82987600  0.47651100  1
  O  O34  1  0.31586600  0.91613000  0.68246100  1
  O  O35  1  0.82987600  0.30133400  0.97651100  1
  O  O36  1  0.91189200  0.86192200  0.99938700  1
  O  O37  1  0.83354700  0.30057700  0.38454100  1
  O  O38  1  0.30133400  0.47145800  0.47651100  1
  O  O39  1  0.53297000  0.83354700  0.88454100  1
  O  O40  1  0.46703000  0.16645300  0.38454100  1
  O  O41  1  0.60026400  0.68413400  0.68246100  1
  O  O42  1  0.08387000  0.39973600  0.68246100  1
  O  O43  1  0.04997000  0.91189200  0.49938700  1
  O  O44  1  0.52572200  0.62148000  0.18006000  1
  O  O45  1  0.62148000  0.09575800  0.68006000  1
  O  O46  1  0.47427800  0.37852000  0.68006000  1
  O  O47  1  0.69942300  0.53297000  0.38454100  1
  O  O48  1  0.90424200  0.52572200  0.68006000  1
  O  O49  1  0.69866600  0.52854200  0.97651100  1
  O  O50  1  0.95003000  0.08810800  0.99938700  1
  O  O51  1  0.37852000  0.90424200  0.18006000  1
