# generated using pymatgen
data_YAl3Ni2
_symmetry_space_group_name_H-M   'P 1'
_cell_length_a   9.01597664
_cell_length_b   9.01597664
_cell_length_c   4.07811200
_cell_angle_alpha   90.00000000
_cell_angle_beta   90.00000000
_cell_angle_gamma   120.00000473
_symmetry_Int_Tables_number   1
_chemical_formula_structural   YAl3Ni2
_chemical_formula_sum   'Y3 Al9 Ni6'
_cell_volume   287.08818256
_cell_formula_units_Z   3
loop_
 _symmetry_equiv_pos_site_id
 _symmetry_equiv_pos_as_xyz
  1  'x, y, z'
loop_
 _atom_site_type_symbol
 _atom_site_label
 _atom_site_symmetry_multiplicity
 _atom_site_fract_x
 _atom_site_fract_y
 _atom_site_fract_z
 _atom_site_occupancy
  Y  Y0  1  0.33333300  0.66666700  0.50000000  1
  Y  Y1  1  0.66666700  0.33333300  0.50000000  1
  Y  Y2  1  0.00000000  0.00000000  0.00000000  1
  Al  Al3  1  0.00000000  0.29664500  0.50000000  1
  Al  Al4  1  0.00000000  0.50000000  0.00000000  1
  Al  Al5  1  0.50000000  0.50000000  0.00000000  1
  Al  Al6  1  0.50000000  0.00000000  0.00000000  1
  Al  Al7  1  0.70335500  0.00000000  0.50000000  1
  Al  Al8  1  0.70335500  0.70335500  0.50000000  1
  Al  Al9  1  0.29664500  0.00000000  0.50000000  1
  Al  Al10  1  0.00000000  0.70335500  0.50000000  1
  Al  Al11  1  0.29664500  0.29664500  0.50000000  1
  Ni  Ni12  1  0.81797300  0.18202700  0.00000000  1
  Ni  Ni13  1  0.81797300  0.63594700  0.00000000  1
  Ni  Ni14  1  0.18202700  0.81797300  0.00000000  1
  Ni  Ni15  1  0.63594700  0.81797300  0.00000000  1
  Ni  Ni16  1  0.36405300  0.18202700  0.00000000  1
  Ni  Ni17  1  0.18202700  0.36405300  0.00000000  1
