# generated using pymatgen
data_Ni5Se4(BrO6)2
_symmetry_space_group_name_H-M   'P 1'
_cell_length_a   7.82346507
_cell_length_b   10.23122132
_cell_length_c   9.35911773
_cell_angle_alpha   84.74263274
_cell_angle_beta   83.20463193
_cell_angle_gamma   107.72816369
_symmetry_Int_Tables_number   1
_chemical_formula_structural   Ni5Se4(BrO6)2
_chemical_formula_sum   'Ni10 Se8 Br4 O24'
_cell_volume   702.06602344
_cell_formula_units_Z   2
loop_
 _symmetry_equiv_pos_site_id
 _symmetry_equiv_pos_as_xyz
  1  'x, y, z'
loop_
 _atom_site_type_symbol
 _atom_site_label
 _atom_site_symmetry_multiplicity
 _atom_site_fract_x
 _atom_site_fract_y
 _atom_site_fract_z
 _atom_site_occupancy
  Ni  Ni0  1  0.24999700  0.25000000  0.75000200  1
  Ni  Ni1  1  0.41742300  0.83963200  0.46944800  1
  Ni  Ni2  1  0.08257900  0.66036900  0.03055100  1
  Ni  Ni3  1  0.99838700  0.34914100  0.52574600  1
  Ni  Ni4  1  0.50161300  0.15086000  0.97425400  1
  Ni  Ni5  1  0.75000100  0.75000200  0.24999900  1
  Ni  Ni6  1  0.91741100  0.33965800  0.96937300  1
  Ni  Ni7  1  0.58258900  0.16034100  0.53062700  1
  Ni  Ni8  1  0.49840400  0.84908800  0.02570900  1
  Ni  Ni9  1  0.00159700  0.65091300  0.47429100  1
  Se  Se10  1  0.26284100  0.57394800  0.73245100  1
  Se  Se11  1  0.76284000  0.07395200  0.23245200  1
  Se  Se12  1  0.73716000  0.42604800  0.26754800  1
  Se  Se13  1  0.23715900  0.92605200  0.76754900  1
  Se  Se14  1  0.33565900  0.56571200  0.27193800  1
  Se  Se15  1  0.83566000  0.06573200  0.77193700  1
  Se  Se16  1  0.66434000  0.43426800  0.72806200  1
  Se  Se17  1  0.16434100  0.93428800  0.22806200  1
  Br  Br18  1  0.70138500  0.68447800  0.98110300  1
  Br  Br19  1  0.20134600  0.18447000  0.48112300  1
  Br  Br20  1  0.29865200  0.31552900  0.01887700  1
  Br  Br21  1  0.79861500  0.81552300  0.51889800  1
  O  O22  1  0.70968600  0.18961800  0.11125500  1
  O  O23  1  0.20966400  0.68961600  0.61125000  1
  O  O24  1  0.29033600  0.81038400  0.88875000  1
  O  O25  1  0.79031400  0.31038100  0.38874500  1
  O  O26  1  0.87033800  0.47613400  0.61729500  1
  O  O27  1  0.37033800  0.97611900  0.11730800  1
  O  O28  1  0.12966200  0.52388100  0.38269200  1
  O  O29  1  0.62966100  0.02386600  0.88270600  1
  O  O30  1  0.98208500  0.19280500  0.85192600  1
  O  O31  1  0.48209100  0.69279900  0.35191900  1
  O  O32  1  0.01790900  0.80720100  0.14808100  1
  O  O33  1  0.51791400  0.30719400  0.64807500  1
  O  O34  1  0.69729600  0.32911800  0.87158100  1
  O  O35  1  0.19729200  0.82912800  0.37158600  1
  O  O36  1  0.30270800  0.67087200  0.12841400  1
  O  O37  1  0.80270400  0.17088200  0.62841900  1
  O  O38  1  0.08035000  0.53262100  0.87297500  1
  O  O39  1  0.58037200  0.03261300  0.37299000  1
  O  O40  1  0.91962800  0.46738700  0.12701000  1
  O  O41  1  0.41965000  0.96737800  0.62702500  1
  O  O42  1  0.20816500  0.42243900  0.65433000  1
  O  O43  1  0.70815100  0.92242700  0.15433900  1
  O  O44  1  0.79184900  0.57757300  0.34566000  1
  O  O45  1  0.29183500  0.07756100  0.84567000  1
