# generated using pymatgen
data_La5Al3Ni2
_symmetry_space_group_name_H-M   'P 1'
_cell_length_a   7.91957003
_cell_length_b   7.91957003
_cell_length_c   10.47881800
_cell_angle_alpha   90.00000000
_cell_angle_beta   90.00000000
_cell_angle_gamma   128.43227200
_symmetry_Int_Tables_number   1
_chemical_formula_structural   La5Al3Ni2
_chemical_formula_sum   'La10 Al6 Ni4'
_cell_volume   514.83460653
_cell_formula_units_Z   2
loop_
 _symmetry_equiv_pos_site_id
 _symmetry_equiv_pos_as_xyz
  1  'x, y, z'
loop_
 _atom_site_type_symbol
 _atom_site_label
 _atom_site_symmetry_multiplicity
 _atom_site_fract_x
 _atom_site_fract_y
 _atom_site_fract_z
 _atom_site_occupancy
  La  La0  1  0.87483900  0.12516100  0.00000000  1
  La  La1  1  0.47567300  0.04066700  0.25000000  1
  La  La2  1  0.12516100  0.87483900  0.50000000  1
  La  La3  1  0.12516100  0.87483900  0.00000000  1
  La  La4  1  0.52432700  0.95933300  0.75000000  1
  La  La5  1  0.87483900  0.12516100  0.50000000  1
  La  La6  1  0.38975400  0.38975400  0.75000000  1
  La  La7  1  0.95933300  0.52432700  0.75000000  1
  La  La8  1  0.04066700  0.47567300  0.25000000  1
  La  La9  1  0.61024600  0.61024600  0.25000000  1
  Al  Al10  1  0.88220600  0.88220600  0.75000000  1
  Al  Al11  1  0.35261400  0.64738600  0.00000000  1
  Al  Al12  1  0.35261400  0.64738600  0.50000000  1
  Al  Al13  1  0.11779400  0.11779400  0.25000000  1
  Al  Al14  1  0.64738600  0.35261400  0.00000000  1
  Al  Al15  1  0.64738600  0.35261400  0.50000000  1
  Ni  Ni16  1  0.67027200  0.67027200  0.56118600  1
  Ni  Ni17  1  0.67027200  0.67027200  0.93881400  1
  Ni  Ni18  1  0.32972800  0.32972800  0.06118600  1
  Ni  Ni19  1  0.32972800  0.32972800  0.43881400  1
