# generated using pymatgen
data_YbSnAu
_symmetry_space_group_name_H-M   'P 1'
_cell_length_a   11.98342584
_cell_length_b   11.98342584
_cell_length_c   11.98342584
_cell_angle_alpha   157.07302580
_cell_angle_beta   139.82658043
_cell_angle_gamma   46.75672510
_symmetry_Int_Tables_number   1
_chemical_formula_structural   YbSnAu
_chemical_formula_sum   'Yb6 Sn6 Au6'
_cell_volume   431.26723204
_cell_formula_units_Z   6
loop_
 _symmetry_equiv_pos_site_id
 _symmetry_equiv_pos_as_xyz
  1  'x, y, z'
loop_
 _atom_site_type_symbol
 _atom_site_label
 _atom_site_symmetry_multiplicity
 _atom_site_fract_x
 _atom_site_fract_y
 _atom_site_fract_z
 _atom_site_occupancy
  Yb  Yb0  1  0.80298500  0.33455900  0.46842600  1
  Yb  Yb1  1  0.03456100  0.50000000  0.53456100  1
  Yb  Yb2  1  0.70149900  0.16790800  0.53359100  1
  Yb  Yb3  1  0.13386700  0.66544100  0.46842600  1
  Yb  Yb4  1  0.36568300  0.83209200  0.53359100  1
  Yb  Yb5  1  0.46753400  0.00000000  0.46753400  1
  Sn  Sn6  1  0.90538900  0.06791600  0.83747300  1
  Sn  Sn7  1  0.92973300  0.76495800  0.16477500  1
  Sn  Sn8  1  0.39981700  0.23504200  0.16477500  1
  Sn  Sn9  1  0.24195500  0.40594600  0.83600900  1
  Sn  Sn10  1  0.43006300  0.59405400  0.83600900  1
  Sn  Sn11  1  0.76955800  0.93208400  0.83747300  1
  Au  Au12  1  0.59040800  0.42348200  0.16692700  1
  Au  Au13  1  0.09804200  0.26230100  0.83574000  1
  Au  Au14  1  0.57343900  0.73769900  0.83574000  1
  Au  Au15  1  0.26622500  0.10037600  0.16584900  1
  Au  Au16  1  0.74344500  0.57651800  0.16692700  1
  Au  Au17  1  0.06547300  0.89962400  0.16584900  1
