# generated using pymatgen
data_RbYbBr3
_symmetry_space_group_name_H-M   'P 1'
_cell_length_a   7.81896900
_cell_length_b   8.09213800
_cell_length_c   11.28297200
_cell_angle_alpha   90.00000000
_cell_angle_beta   90.00000000
_cell_angle_gamma   90.00000000
_symmetry_Int_Tables_number   1
_chemical_formula_structural   RbYbBr3
_chemical_formula_sum   'Rb4 Yb4 Br12'
_cell_volume   713.89819206
_cell_formula_units_Z   4
loop_
 _symmetry_equiv_pos_site_id
 _symmetry_equiv_pos_as_xyz
  1  'x, y, z'
loop_
 _atom_site_type_symbol
 _atom_site_label
 _atom_site_symmetry_multiplicity
 _atom_site_fract_x
 _atom_site_fract_y
 _atom_site_fract_z
 _atom_site_occupancy
  Rb  Rb0  1  0.48437900  0.55940400  0.75000000  1
  Rb  Rb1  1  0.51562100  0.44059600  0.25000000  1
  Rb  Rb2  1  0.98437900  0.94059600  0.25000000  1
  Rb  Rb3  1  0.01562100  0.05940400  0.75000000  1
  Yb  Yb4  1  0.50000000  0.00000000  0.50000000  1
  Yb  Yb5  1  0.50000000  0.00000000  0.00000000  1
  Yb  Yb6  1  0.00000000  0.50000000  0.50000000  1
  Yb  Yb7  1  0.00000000  0.50000000  0.00000000  1
  Br  Br8  1  0.29901200  0.29616000  0.96052300  1
  Br  Br9  1  0.42432200  0.01598400  0.25000000  1
  Br  Br10  1  0.57567800  0.98401600  0.75000000  1
  Br  Br11  1  0.07567800  0.51598400  0.25000000  1
  Br  Br12  1  0.70098800  0.70384000  0.03947700  1
  Br  Br13  1  0.79901200  0.20384000  0.03947700  1
  Br  Br14  1  0.92432200  0.48401600  0.75000000  1
  Br  Br15  1  0.20098800  0.79616000  0.53947700  1
  Br  Br16  1  0.70098800  0.70384000  0.46052300  1
  Br  Br17  1  0.79901200  0.20384000  0.46052300  1
  Br  Br18  1  0.29901200  0.29616000  0.53947700  1
  Br  Br19  1  0.20098800  0.79616000  0.96052300  1
