# generated using pymatgen
data_Cs2NaCoF6
_symmetry_space_group_name_H-M   'P 1'
_cell_length_a   10.80258952
_cell_length_b   10.80258952
_cell_length_c   10.80258984
_cell_angle_alpha   33.78505130
_cell_angle_beta   33.78505130
_cell_angle_gamma   33.78505037
_symmetry_Int_Tables_number   1
_chemical_formula_structural   Cs2NaCoF6
_chemical_formula_sum   'Cs4 Na2 Co2 F12'
_cell_volume   347.34605819
_cell_formula_units_Z   2
loop_
 _symmetry_equiv_pos_site_id
 _symmetry_equiv_pos_as_xyz
  1  'x, y, z'
loop_
 _atom_site_type_symbol
 _atom_site_label
 _atom_site_symmetry_multiplicity
 _atom_site_fract_x
 _atom_site_fract_y
 _atom_site_fract_z
 _atom_site_occupancy
  Cs  Cs0  1  0.28354400  0.28354400  0.28354400  1
  Cs  Cs1  1  0.12782500  0.12782500  0.12782500  1
  Cs  Cs2  1  0.71645600  0.71645600  0.71645600  1
  Cs  Cs3  1  0.87217500  0.87217500  0.87217500  1
  Na  Na4  1  0.40441900  0.40441900  0.40441900  1
  Na  Na5  1  0.59558100  0.59558100  0.59558100  1
  Co  Co6  1  0.00000000  0.00000000  0.00000000  1
  Co  Co7  1  0.50000000  0.50000000  0.50000000  1
  F  F8  1  0.17848600  0.74858900  0.17848600  1
  F  F9  1  0.82151400  0.25141100  0.82151400  1
  F  F10  1  0.74858900  0.17848600  0.17848600  1
  F  F11  1  0.60211800  0.18518400  0.60211800  1
  F  F12  1  0.39788200  0.39788200  0.81481600  1
  F  F13  1  0.82151400  0.82151400  0.25141100  1
  F  F14  1  0.60211800  0.60211800  0.18518400  1
  F  F15  1  0.17848600  0.17848600  0.74858900  1
  F  F16  1  0.81481600  0.39788200  0.39788200  1
  F  F17  1  0.25141100  0.82151400  0.82151400  1
  F  F18  1  0.39788200  0.81481600  0.39788200  1
  F  F19  1  0.18518400  0.60211800  0.60211800  1
