# generated using pymatgen
data_U2CuAs2(H4O5)4
_symmetry_space_group_name_H-M   'P 1'
_cell_length_a   7.16610400
_cell_length_b   7.16610400
_cell_length_c   17.68416000
_cell_angle_alpha   90.00000000
_cell_angle_beta   90.00000000
_cell_angle_gamma   90.00000000
_symmetry_Int_Tables_number   1
_chemical_formula_structural   U2CuAs2(H4O5)4
_chemical_formula_sum   'U4 Cu2 As4 H32 O40'
_cell_volume   908.13549148
_cell_formula_units_Z   2
loop_
 _symmetry_equiv_pos_site_id
 _symmetry_equiv_pos_as_xyz
  1  'x, y, z'
loop_
 _atom_site_type_symbol
 _atom_site_label
 _atom_site_symmetry_multiplicity
 _atom_site_fract_x
 _atom_site_fract_y
 _atom_site_fract_z
 _atom_site_occupancy
  U  U0  1  0.50000000  0.00000000  0.05629400  1
  U  U1  1  0.00000000  0.50000000  0.94370600  1
  U  U2  1  0.50000000  0.00000000  0.55533600  1
  U  U3  1  0.00000000  0.50000000  0.44466400  1
  Cu  Cu4  1  0.50000000  0.00000000  0.31079100  1
  Cu  Cu5  1  0.00000000  0.50000000  0.68920900  1
  As  As6  1  0.50000000  0.50000000  0.00000000  1
  As  As7  1  0.00000000  0.00000000  0.00000000  1
  As  As8  1  0.50000000  0.50000000  0.50000000  1
  As  As9  1  0.00000000  0.00000000  0.50000000  1
  H  H10  1  0.62412800  0.31852700  0.85298500  1
  H  H11  1  0.18147300  0.12412800  0.85298500  1
  H  H12  1  0.81852700  0.87587200  0.85298500  1
  H  H13  1  0.37587200  0.68147300  0.85298500  1
  H  H14  1  0.87587200  0.18147300  0.14701500  1
  H  H15  1  0.31852700  0.37587200  0.14701500  1
  H  H16  1  0.68147300  0.62412800  0.14701500  1
  H  H17  1  0.12412800  0.81852700  0.14701500  1
  H  H18  1  0.82510100  0.09332000  0.35582000  1
  H  H19  1  0.40668000  0.32510100  0.35582000  1
  H  H20  1  0.59332000  0.67489900  0.35582000  1
  H  H21  1  0.17489900  0.90668000  0.35582000  1
  H  H22  1  0.67489900  0.40668000  0.64418000  1
  H  H23  1  0.09332000  0.17489900  0.64418000  1
  H  H24  1  0.90668000  0.82510100  0.64418000  1
  H  H25  1  0.32510100  0.59332000  0.64418000  1
  H  H26  1  0.81986600  0.11829200  0.26604300  1
  H  H27  1  0.38170800  0.31986600  0.26604300  1
  H  H28  1  0.61829200  0.68013400  0.26604300  1
  H  H29  1  0.18013400  0.88170800  0.26604300  1
  H  H30  1  0.68013400  0.38170800  0.73395700  1
  H  H31  1  0.11829200  0.18013400  0.73395700  1
  H  H32  1  0.88170800  0.81986600  0.73395700  1
  H  H33  1  0.31986600  0.61829200  0.73395700  1
  H  H34  1  0.47199900  0.21464900  0.80307400  1
  H  H35  1  0.28535100  0.97199900  0.80307400  1
  H  H36  1  0.71464900  0.02800100  0.80307400  1
  H  H37  1  0.52800100  0.78535100  0.80307400  1
  H  H38  1  0.02800100  0.28535100  0.19692600  1
  H  H39  1  0.21464900  0.52800100  0.19692600  1
  H  H40  1  0.78535100  0.47199900  0.19692600  1
  H  H41  1  0.97199900  0.71464900  0.19692600  1
  O  O42  1  0.50000000  0.00000000  0.45185400  1
  O  O43  1  0.00000000  0.50000000  0.54814600  1
  O  O44  1  0.50000000  0.00000000  0.95376700  1
  O  O45  1  0.00000000  0.50000000  0.04623300  1
  O  O46  1  0.50000000  0.00000000  0.65760200  1
  O  O47  1  0.00000000  0.50000000  0.34239800  1
  O  O48  1  0.50000000  0.00000000  0.15961500  1
  O  O49  1  0.00000000  0.50000000  0.84038500  1
  O  O50  1  0.55091500  0.68330400  0.05931500  1
  O  O51  1  0.81669600  0.05091500  0.05931500  1
  O  O52  1  0.18330400  0.94908500  0.05931500  1
  O  O53  1  0.44908500  0.31669600  0.05931500  1
  O  O54  1  0.94908500  0.81669600  0.94068500  1
  O  O55  1  0.68330400  0.44908500  0.94068500  1
  O  O56  1  0.31669600  0.55091500  0.94068500  1
  O  O57  1  0.05091500  0.18330400  0.94068500  1
  O  O58  1  0.44069300  0.68286600  0.55841500  1
  O  O59  1  0.81713400  0.94069300  0.55841500  1
  O  O60  1  0.18286600  0.05930700  0.55841500  1
  O  O61  1  0.55930700  0.31713400  0.55841500  1
  O  O62  1  0.05930700  0.81713400  0.44158500  1
  O  O63  1  0.68286600  0.55930700  0.44158500  1
  O  O64  1  0.31713400  0.44069300  0.44158500  1
  O  O65  1  0.94069300  0.18286600  0.44158500  1
  O  O66  1  0.77522700  0.03602400  0.30896700  1
  O  O67  1  0.46397600  0.27522700  0.30896700  1
  O  O68  1  0.53602400  0.72477300  0.30896700  1
  O  O69  1  0.22477300  0.96397600  0.30896700  1
  O  O70  1  0.72477300  0.46397600  0.69103300  1
  O  O71  1  0.03602400  0.22477300  0.69103300  1
  O  O72  1  0.96397600  0.77522700  0.69103300  1
  O  O73  1  0.27522700  0.53602400  0.69103300  1
  O  O74  1  0.60607100  0.25258500  0.80442500  1
  O  O75  1  0.24741500  0.10607100  0.80442500  1
  O  O76  1  0.75258500  0.89392900  0.80442500  1
  O  O77  1  0.39392900  0.74741500  0.80442500  1
  O  O78  1  0.89392900  0.24741500  0.19557500  1
  O  O79  1  0.25258500  0.39392900  0.19557500  1
  O  O80  1  0.74741500  0.60607100  0.19557500  1
  O  O81  1  0.10607100  0.75258500  0.19557500  1
