# generated using pymatgen
data_NaCoPO4
_symmetry_space_group_name_H-M   'P 1'
_cell_length_a   5.29879108
_cell_length_b   7.47629132
_cell_length_c   10.13790900
_cell_angle_alpha   90.00003230
_cell_angle_beta   89.99999435
_cell_angle_gamma   90.23015767
_symmetry_Int_Tables_number   1
_chemical_formula_structural   NaCoPO4
_chemical_formula_sum   'Na4 Co4 P4 O16'
_cell_volume   401.61312429
_cell_formula_units_Z   4
loop_
 _symmetry_equiv_pos_site_id
 _symmetry_equiv_pos_as_xyz
  1  'x, y, z'
loop_
 _atom_site_type_symbol
 _atom_site_label
 _atom_site_symmetry_multiplicity
 _atom_site_fract_x
 _atom_site_fract_y
 _atom_site_fract_z
 _atom_site_occupancy
  Na  Na0  1  0.71578300  0.51579200  0.11893200  1
  Na  Na1  1  0.21578300  0.01579200  0.38106900  1
  Na  Na2  1  0.28421700  0.48420500  0.88106600  1
  Na  Na3  1  0.78421700  0.98420500  0.61893400  1
  Co  Co4  1  0.70316300  0.00794000  0.16934800  1
  Co  Co5  1  0.20316300  0.50794000  0.33065200  1
  Co  Co6  1  0.79684100  0.49206100  0.66934700  1
  Co  Co7  1  0.29684000  0.99206100  0.83065300  1
  P  P8  1  0.30009900  0.72010100  0.59888700  1
  P  P9  1  0.19990200  0.77990200  0.09888000  1
  P  P10  1  0.69990200  0.27990100  0.40112000  1
  P  P11  1  0.80009900  0.22010100  0.90111300  1
  O  O12  1  0.74927900  0.21421400  0.05182100  1
  O  O13  1  0.24927900  0.71421400  0.44817900  1
  O  O14  1  0.25071600  0.78578500  0.94818000  1
  O  O15  1  0.75071600  0.28578500  0.55182000  1
  O  O16  1  0.91377500  0.79784000  0.13015100  1
  O  O17  1  0.41377500  0.29784000  0.36984900  1
  O  O18  1  0.58622800  0.70216200  0.63014800  1
  O  O19  1  0.08622800  0.20216200  0.86985100  1
  O  O20  1  0.78242100  0.08790400  0.35582200  1
  O  O21  1  0.28242000  0.58790400  0.14417800  1
  O  O22  1  0.21757700  0.91209700  0.64417700  1
  O  O23  1  0.71757700  0.41209700  0.85582300  1
  O  O24  1  0.34714100  0.92823600  0.17299500  1
  O  O25  1  0.65285800  0.07176200  0.82700600  1
  O  O26  1  0.15285800  0.57176200  0.67299400  1
  O  O27  1  0.84714100  0.42823600  0.32700500  1
