# generated using pymatgen
data_CsGd(CO3)2
_symmetry_space_group_name_H-M   'P 1'
_cell_length_a   8.57996400
_cell_length_b   8.89112071
_cell_length_c   8.89224800
_cell_angle_alpha   98.72271933
_cell_angle_beta   96.59001993
_cell_angle_gamma   115.37153228
_symmetry_Int_Tables_number   1
_chemical_formula_structural   CsGd(CO3)2
_chemical_formula_sum   'Cs4 Gd4 C8 O24'
_cell_volume   593.43573774
_cell_formula_units_Z   4
loop_
 _symmetry_equiv_pos_site_id
 _symmetry_equiv_pos_as_xyz
  1  'x, y, z'
loop_
 _atom_site_type_symbol
 _atom_site_label
 _atom_site_symmetry_multiplicity
 _atom_site_fract_x
 _atom_site_fract_y
 _atom_site_fract_z
 _atom_site_occupancy
  Cs  Cs0  1  0.24485500  0.03078900  0.03698800  1
  Cs  Cs1  1  0.75514500  0.96921100  0.96301200  1
  Cs  Cs2  1  0.24143300  0.18964000  0.52691800  1
  Cs  Cs3  1  0.75856700  0.81036000  0.47308200  1
  Gd  Gd4  1  0.26105100  0.52214600  0.04881500  1
  Gd  Gd5  1  0.73894900  0.47785400  0.95118500  1
  Gd  Gd6  1  0.24116600  0.71384500  0.54315100  1
  Gd  Gd7  1  0.75883400  0.28615500  0.45684900  1
  C  C8  1  0.58539000  0.39962200  0.23326400  1
  C  C9  1  0.41461000  0.60037800  0.76673600  1
  C  C10  1  0.00474900  0.72284800  0.21284100  1
  C  C11  1  0.99525100  0.27715200  0.78715900  1
  C  C12  1  0.54350700  0.14134000  0.73989100  1
  C  C13  1  0.45649300  0.85866000  0.26010900  1
  C  C14  1  0.02853900  0.29793000  0.28937200  1
  C  C15  1  0.97146100  0.70207000  0.71062800  1
  O  O16  1  0.50501500  0.44255600  0.12763800  1
  O  O17  1  0.49498500  0.55744400  0.87236200  1
  O  O18  1  0.72444100  0.38209800  0.20573200  1
  O  O19  1  0.27555900  0.61790200  0.79426800  1
  O  O20  1  0.46280700  0.62726800  0.63733400  1
  O  O21  1  0.53719300  0.37273200  0.36266600  1
  O  O22  1  0.04699000  0.62608300  0.11713300  1
  O  O23  1  0.95301000  0.37391700  0.88286700  1
  O  O24  1  0.13386100  0.26159500  0.83949900  1
  O  O25  1  0.86613900  0.73840500  0.16050100  1
  O  O26  1  0.09461700  0.79938100  0.35218200  1
  O  O27  1  0.90538300  0.20061900  0.64781800  1
  O  O28  1  0.60915800  0.27325400  0.67502900  1
  O  O29  1  0.39084200  0.72674600  0.32497100  1
  O  O30  1  0.55795600  0.17700600  0.88942800  1
  O  O31  1  0.44204400  0.82299400  0.11057200  1
  O  O32  1  0.53135800  0.01274600  0.34019400  1
  O  O33  1  0.46864200  0.98725400  0.65980600  1
  O  O34  1  0.06529100  0.42924300  0.40192500  1
  O  O35  1  0.93470900  0.57075700  0.59807500  1
  O  O36  1  0.10385300  0.84407000  0.70587800  1
  O  O37  1  0.89614700  0.15593000  0.29412200  1
  O  O38  1  0.11935800  0.30808900  0.18316100  1
  O  O39  1  0.88064200  0.69191100  0.81683900  1
