# generated using pymatgen
data_Sm2Ti2S2O5
_symmetry_space_group_name_H-M   'P 1'
_cell_length_a   11.92796941
_cell_length_b   11.92796941
_cell_length_c   11.92796941
_cell_angle_alpha   161.45987143
_cell_angle_beta   161.45987143
_cell_angle_gamma   26.33670815
_symmetry_Int_Tables_number   1
_chemical_formula_structural   Sm2Ti2S2O5
_chemical_formula_sum   'Sm2 Ti2 S2 O5'
_cell_volume   171.51981099
_cell_formula_units_Z   1
loop_
 _symmetry_equiv_pos_site_id
 _symmetry_equiv_pos_as_xyz
  1  'x, y, z'
loop_
 _atom_site_type_symbol
 _atom_site_label
 _atom_site_symmetry_multiplicity
 _atom_site_fract_x
 _atom_site_fract_y
 _atom_site_fract_z
 _atom_site_occupancy
  Sm  Sm0  1  0.83393700  0.83393700  0.00000000  1
  Sm  Sm1  1  0.16606300  0.16606300  0.00000000  1
  Ti  Ti2  1  0.42197200  0.42197200  0.00000000  1
  Ti  Ti3  1  0.57802800  0.57802800  0.00000000  1
  S  S4  1  0.29584000  0.29584000  0.00000000  1
  S  S5  1  0.70416000  0.70416000  0.00000000  1
  O  O6  1  0.90232000  0.40232000  0.50000000  1
  O  O7  1  0.40232000  0.90232000  0.50000000  1
  O  O8  1  0.09768000  0.59768000  0.50000000  1
  O  O9  1  0.59768000  0.09768000  0.50000000  1
  O  O10  1  0.50000000  0.50000000  0.00000000  1
