# generated using pymatgen
data_K3Bi(PS4)2
_symmetry_space_group_name_H-M   'P 1'
_cell_length_a   6.95283500
_cell_length_b   9.26403000
_cell_length_c   24.37786100
_cell_angle_alpha   90.00000000
_cell_angle_beta   90.00000000
_cell_angle_gamma   90.00000000
_symmetry_Int_Tables_number   1
_chemical_formula_structural   K3Bi(PS4)2
_chemical_formula_sum   'K12 Bi4 P8 S32'
_cell_volume   1570.20903626
_cell_formula_units_Z   4
loop_
 _symmetry_equiv_pos_site_id
 _symmetry_equiv_pos_as_xyz
  1  'x, y, z'
loop_
 _atom_site_type_symbol
 _atom_site_label
 _atom_site_symmetry_multiplicity
 _atom_site_fract_x
 _atom_site_fract_y
 _atom_site_fract_z
 _atom_site_occupancy
  K  K0  1  0.99243000  0.75548600  0.92229800  1
  K  K1  1  0.00757000  0.25548600  0.57770200  1
  K  K2  1  0.49276300  0.48044800  0.81280700  1
  K  K3  1  0.50723700  0.98044800  0.68719300  1
  K  K4  1  0.00295000  0.08828500  0.78796800  1
  K  K5  1  0.49705000  0.91171500  0.28796800  1
  K  K6  1  0.49243000  0.74451400  0.07770200  1
  K  K7  1  0.99705000  0.58828500  0.71203200  1
  K  K8  1  0.99276300  0.01955200  0.18719300  1
  K  K9  1  0.50295000  0.41171500  0.21203200  1
  K  K10  1  0.00723700  0.51955200  0.31280700  1
  K  K11  1  0.50757000  0.24451400  0.42229800  1
  Bi  Bi12  1  0.06176500  0.35032400  0.05263800  1
  Bi  Bi13  1  0.43823500  0.64967600  0.55263800  1
  Bi  Bi14  1  0.56176500  0.14967600  0.94736200  1
  Bi  Bi15  1  0.93823500  0.85032400  0.44736200  1
  P  P16  1  0.50537900  0.38977400  0.65457000  1
  P  P17  1  0.03546000  0.85426100  0.59213400  1
  P  P18  1  0.96454000  0.35426100  0.90786600  1
  P  P19  1  0.00537900  0.11022600  0.34543000  1
  P  P20  1  0.46454000  0.14573900  0.09213400  1
  P  P21  1  0.49462100  0.88977400  0.84543000  1
  P  P22  1  0.99462100  0.61022600  0.15457000  1
  P  P23  1  0.53546000  0.64573900  0.40786600  1
  S  S24  1  0.26739600  0.94181000  0.55236700  1
  S  S25  1  0.73229500  0.81186400  0.80836800  1
  S  S26  1  0.24525800  0.20744100  0.31729700  1
  S  S27  1  0.73260400  0.44181000  0.94763300  1
  S  S28  1  0.97004600  0.38701200  0.16447700  1
  S  S29  1  0.56495500  0.86990800  0.42008900  1
  S  S30  1  0.52025600  0.59085000  0.32851100  1
  S  S31  1  0.51858000  0.86151800  0.93144400  1
  S  S32  1  0.23260400  0.05819000  0.05236700  1
  S  S33  1  0.23229500  0.68813600  0.19163200  1
  S  S34  1  0.78585700  0.91828900  0.55313400  1
  S  S35  1  0.74525800  0.29255900  0.68270300  1
  S  S36  1  0.06495500  0.63009200  0.57991100  1
  S  S37  1  0.97974400  0.40915000  0.82851100  1
  S  S38  1  0.48142000  0.36151800  0.56855600  1
  S  S39  1  0.02995400  0.88701200  0.33552300  1
  S  S40  1  0.98142000  0.13848200  0.43144400  1
  S  S41  1  0.93504500  0.13009200  0.92008900  1
  S  S42  1  0.21414300  0.41828900  0.94686600  1
  S  S43  1  0.47004600  0.11298800  0.83552300  1
  S  S44  1  0.43504500  0.36990800  0.07991100  1
  S  S45  1  0.25474200  0.79255900  0.81729700  1
  S  S46  1  0.02025600  0.90915000  0.67148900  1
  S  S47  1  0.71414300  0.08171100  0.05313400  1
  S  S48  1  0.26770500  0.31186400  0.69163200  1
  S  S49  1  0.75474200  0.70744100  0.18270300  1
  S  S50  1  0.76770500  0.18813600  0.30836800  1
  S  S51  1  0.52995400  0.61298800  0.66447700  1
  S  S52  1  0.28585700  0.58171100  0.44686600  1
  S  S53  1  0.01858000  0.63848200  0.06855600  1
  S  S54  1  0.47974400  0.09085000  0.17148900  1
  S  S55  1  0.76739600  0.55819000  0.44763300  1
