# generated using pymatgen
data_K3NbP2O9
_symmetry_space_group_name_H-M   'P 1'
_cell_length_a   17.93559100
_cell_length_b   5.29444300
_cell_length_c   9.94017678
_cell_angle_alpha   89.92386250
_cell_angle_beta   90.00000000
_cell_angle_gamma   90.00000000
_symmetry_Int_Tables_number   1
_chemical_formula_structural   K3NbP2O9
_chemical_formula_sum   'K12 Nb4 P8 O36'
_cell_volume   943.90805746
_cell_formula_units_Z   4
loop_
 _symmetry_equiv_pos_site_id
 _symmetry_equiv_pos_as_xyz
  1  'x, y, z'
loop_
 _atom_site_type_symbol
 _atom_site_label
 _atom_site_symmetry_multiplicity
 _atom_site_fract_x
 _atom_site_fract_y
 _atom_site_fract_z
 _atom_site_occupancy
  K  K0  1  0.86303800  0.75622400  0.07652100  1
  K  K1  1  0.63696200  0.75622400  0.57652100  1
  K  K2  1  0.42647900  0.24974400  0.04192500  1
  K  K3  1  0.36303800  0.24377600  0.42347900  1
  K  K4  1  0.13696200  0.24377600  0.92347900  1
  K  K5  1  0.70490500  0.25093800  0.95756700  1
  K  K6  1  0.20490500  0.74906200  0.54243300  1
  K  K7  1  0.29509500  0.74906200  0.04243300  1
  K  K8  1  0.79509500  0.25093800  0.45756700  1
  K  K9  1  0.07352100  0.24974400  0.54192500  1
  K  K10  1  0.57352100  0.75025600  0.95807500  1
  K  K11  1  0.92647900  0.75025600  0.45807500  1
  Nb  Nb12  1  0.41076300  0.76415100  0.68577500  1
  Nb  Nb13  1  0.58923700  0.23584900  0.31422500  1
  Nb  Nb14  1  0.91076300  0.23584900  0.81422500  1
  Nb  Nb15  1  0.08923700  0.76415100  0.18577500  1
  P  P16  1  0.71093300  0.74464000  0.26389900  1
  P  P17  1  0.21093300  0.25536000  0.23610100  1
  P  P18  1  0.96109700  0.26314100  0.17085800  1
  P  P19  1  0.46109700  0.73685900  0.32914200  1
  P  P20  1  0.78906700  0.74464000  0.76389900  1
  P  P21  1  0.03890300  0.73685900  0.82914200  1
  P  P22  1  0.28906700  0.25536000  0.73610100  1
  P  P23  1  0.53890300  0.26314100  0.67085800  1
  O  O24  1  0.41955600  0.77431500  0.86427300  1
  O  O25  1  0.40311500  0.74901600  0.44410800  1
  O  O26  1  0.69897800  0.74769800  0.11277800  1
  O  O27  1  0.30102200  0.25230200  0.88722200  1
  O  O28  1  0.07098500  0.77340900  0.68902400  1
  O  O29  1  0.97689200  0.93996400  0.85844900  1
  O  O30  1  0.59688500  0.25098400  0.55589200  1
  O  O31  1  0.08044400  0.77431500  0.36427300  1
  O  O32  1  0.66293900  0.52323600  0.33200600  1
  O  O33  1  0.29136500  0.28240000  0.19027000  1
  O  O34  1  0.70863500  0.71760000  0.80973000  1
  O  O35  1  0.52310800  0.93996400  0.35844900  1
  O  O36  1  0.83706100  0.52323600  0.83200600  1
  O  O37  1  0.09688500  0.74901600  0.94410800  1
  O  O38  1  0.02310800  0.06003600  0.14155100  1
  O  O39  1  0.49906200  0.52784900  0.65971200  1
  O  O40  1  0.91955600  0.22568500  0.63572700  1
  O  O41  1  0.67763400  0.99362900  0.33220200  1
  O  O42  1  0.90311500  0.25098400  0.05589200  1
  O  O43  1  0.20863500  0.28240000  0.69027000  1
  O  O44  1  0.42901500  0.77340900  0.18902400  1
  O  O45  1  0.32236600  0.00637100  0.66779800  1
  O  O46  1  0.79136500  0.71760000  0.30973000  1
  O  O47  1  0.82236600  0.99362900  0.83220200  1
  O  O48  1  0.16293900  0.47676400  0.16799400  1
  O  O49  1  0.80102200  0.74769800  0.61277800  1
  O  O50  1  0.92901500  0.22659100  0.31097600  1
  O  O51  1  0.19897800  0.25230200  0.38722200  1
  O  O52  1  0.17763400  0.00637100  0.16779800  1
  O  O53  1  0.99906200  0.47215100  0.84028800  1
  O  O54  1  0.50093800  0.47215100  0.34028800  1
  O  O55  1  0.47689200  0.06003600  0.64155100  1
  O  O56  1  0.58044400  0.22568500  0.13572700  1
  O  O57  1  0.00093800  0.52784900  0.15971200  1
  O  O58  1  0.57098500  0.22659100  0.81097600  1
  O  O59  1  0.33706100  0.47676400  0.66799400  1
