# generated using pymatgen
data_CeCuS2
_symmetry_space_group_name_H-M   'P 1'
_cell_length_a   7.19878900
_cell_length_b   6.45763000
_cell_length_c   6.89906115
_cell_angle_alpha   82.19663892
_cell_angle_beta   90.00000000
_cell_angle_gamma   90.00000000
_symmetry_Int_Tables_number   1
_chemical_formula_structural   CeCuS2
_chemical_formula_sum   'Ce4 Cu4 S8'
_cell_volume   317.74757181
_cell_formula_units_Z   4
loop_
 _symmetry_equiv_pos_site_id
 _symmetry_equiv_pos_as_xyz
  1  'x, y, z'
loop_
 _atom_site_type_symbol
 _atom_site_label
 _atom_site_symmetry_multiplicity
 _atom_site_fract_x
 _atom_site_fract_y
 _atom_site_fract_z
 _atom_site_occupancy
  Ce  Ce0  1  0.55191000  0.68899900  0.19951800  1
  Ce  Ce1  1  0.05191000  0.31100100  0.30048200  1
  Ce  Ce2  1  0.44809000  0.31100100  0.80048200  1
  Ce  Ce3  1  0.94809000  0.68899900  0.69951800  1
  Cu  Cu4  1  0.83369900  0.06924000  0.96109200  1
  Cu  Cu5  1  0.16630100  0.93076000  0.03890800  1
  Cu  Cu6  1  0.33369900  0.93076000  0.53890800  1
  Cu  Cu7  1  0.66630100  0.06924000  0.46109200  1
  S  S8  1  0.88358200  0.90949000  0.28325000  1
  S  S9  1  0.38358200  0.09051000  0.21675000  1
  S  S10  1  0.11641800  0.09051000  0.71675000  1
  S  S11  1  0.61641800  0.90949000  0.78325000  1
  S  S12  1  0.72659100  0.41224900  0.49996600  1
  S  S13  1  0.77340900  0.41224900  0.99996600  1
  S  S14  1  0.27340900  0.58775100  0.50003400  1
  S  S15  1  0.22659100  0.58775100  0.00003400  1
