# generated using pymatgen
data_Sm3Si2Cl5O6
_symmetry_space_group_name_H-M   'P 1'
_cell_length_a   7.55731731
_cell_length_b   7.55731731
_cell_length_c   11.99443391
_cell_angle_alpha   80.70604583
_cell_angle_beta   80.70604583
_cell_angle_gamma   89.34678883
_symmetry_Int_Tables_number   1
_chemical_formula_structural   Sm3Si2Cl5O6
_chemical_formula_sum   'Sm6 Si4 Cl10 O12'
_cell_volume   667.09555096
_cell_formula_units_Z   2
loop_
 _symmetry_equiv_pos_site_id
 _symmetry_equiv_pos_as_xyz
  1  'x, y, z'
loop_
 _atom_site_type_symbol
 _atom_site_label
 _atom_site_symmetry_multiplicity
 _atom_site_fract_x
 _atom_site_fract_y
 _atom_site_fract_z
 _atom_site_occupancy
  Sm  Sm0  1  0.08167800  0.58525800  0.66852300  1
  Sm  Sm1  1  0.50000000  0.00000000  0.00000000  1
  Sm  Sm2  1  0.58525800  0.08167800  0.66852300  1
  Sm  Sm3  1  0.91832200  0.41474200  0.33147700  1
  Sm  Sm4  1  0.41474200  0.91832200  0.33147700  1
  Sm  Sm5  1  0.00000000  0.50000000  0.00000000  1
  Si  Si6  1  0.10891600  0.81892900  0.14216500  1
  Si  Si7  1  0.81892900  0.10891600  0.14216500  1
  Si  Si8  1  0.18107100  0.89108400  0.85783500  1
  Si  Si9  1  0.89108400  0.18107100  0.85783500  1
  Cl  Cl10  1  0.38293400  0.38293400  0.64121300  1
  Cl  Cl11  1  0.31968400  0.89229100  0.57915800  1
  Cl  Cl12  1  0.10770900  0.68031600  0.42084200  1
  Cl  Cl13  1  0.76991100  0.76991100  0.66762200  1
  Cl  Cl14  1  0.31720700  0.31720700  0.99611000  1
  Cl  Cl15  1  0.89229100  0.31968400  0.57915800  1
  Cl  Cl16  1  0.68279300  0.68279300  0.00389000  1
  Cl  Cl17  1  0.23008900  0.23008900  0.33237800  1
  Cl  Cl18  1  0.68031600  0.10770900  0.42084200  1
  Cl  Cl19  1  0.61706600  0.61706600  0.35878700  1
  O  O20  1  0.95306600  0.95306600  0.18747500  1
  O  O21  1  0.04157600  0.61074000  0.17204000  1
  O  O22  1  0.38926000  0.95842400  0.82796000  1
  O  O23  1  0.12999800  0.69770800  0.82774300  1
  O  O24  1  0.87000200  0.30229200  0.17225700  1
  O  O25  1  0.30229200  0.87000200  0.17225700  1
  O  O26  1  0.85328800  0.14671200  0.00000000  1
  O  O27  1  0.69770800  0.12999800  0.82774300  1
  O  O28  1  0.14671200  0.85328800  0.00000000  1
  O  O29  1  0.61074000  0.04157600  0.17204000  1
  O  O30  1  0.95842400  0.38926000  0.82796000  1
  O  O31  1  0.04693400  0.04693400  0.81252500  1
