# generated using pymatgen
data_RbMgF3
_symmetry_space_group_name_H-M   'P 1'
_cell_length_a   5.92941250
_cell_length_b   5.92941250
_cell_length_c   14.43823500
_cell_angle_alpha   90.00000000
_cell_angle_beta   90.00000000
_cell_angle_gamma   120.00000559
_symmetry_Int_Tables_number   1
_chemical_formula_structural   RbMgF3
_chemical_formula_sum   'Rb6 Mg6 F18'
_cell_volume   439.61048569
_cell_formula_units_Z   6
loop_
 _symmetry_equiv_pos_site_id
 _symmetry_equiv_pos_as_xyz
  1  'x, y, z'
loop_
 _atom_site_type_symbol
 _atom_site_label
 _atom_site_symmetry_multiplicity
 _atom_site_fract_x
 _atom_site_fract_y
 _atom_site_fract_z
 _atom_site_occupancy
  Rb  Rb0  1  0.00000000  0.00000000  0.25000000  1
  Rb  Rb1  1  0.00000000  0.00000000  0.75000000  1
  Rb  Rb2  1  0.33333300  0.66666700  0.09820100  1
  Rb  Rb3  1  0.66666700  0.33333300  0.59820100  1
  Rb  Rb4  1  0.66666700  0.33333300  0.90179900  1
  Rb  Rb5  1  0.33333300  0.66666700  0.40179900  1
  Mg  Mg6  1  0.00000000  0.00000000  0.00000000  1
  Mg  Mg7  1  0.00000000  0.00000000  0.50000000  1
  Mg  Mg8  1  0.33333300  0.66666700  0.84762200  1
  Mg  Mg9  1  0.66666700  0.33333300  0.34762200  1
  Mg  Mg10  1  0.66666700  0.33333300  0.15237800  1
  Mg  Mg11  1  0.33333300  0.66666700  0.65237800  1
  F  F12  1  0.52093900  0.04187900  0.25000000  1
  F  F13  1  0.47906100  0.52093900  0.75000000  1
  F  F14  1  0.04187900  0.52093900  0.75000000  1
  F  F15  1  0.95812100  0.47906100  0.25000000  1
  F  F16  1  0.52093900  0.47906100  0.25000000  1
  F  F17  1  0.47906100  0.95812100  0.75000000  1
  F  F18  1  0.83402300  0.66804600  0.07986400  1
  F  F19  1  0.16597700  0.83402300  0.57986400  1
  F  F20  1  0.66804600  0.83402300  0.57986400  1
  F  F21  1  0.33195400  0.16597700  0.07986400  1
  F  F22  1  0.83402300  0.16597700  0.07986400  1
  F  F23  1  0.16597700  0.33195400  0.92013600  1
  F  F24  1  0.16597700  0.83402300  0.92013600  1
  F  F25  1  0.16597700  0.33195400  0.57986400  1
  F  F26  1  0.66804600  0.83402300  0.92013600  1
  F  F27  1  0.33195400  0.16597700  0.42013600  1
  F  F28  1  0.83402300  0.66804600  0.42013600  1
  F  F29  1  0.83402300  0.16597700  0.42013600  1
