# generated using pymatgen
data_KVF4
_symmetry_space_group_name_H-M   'P 1'
_cell_length_a   7.74828600
_cell_length_b   7.90528100
_cell_length_c   12.61779500
_cell_angle_alpha   90.00000000
_cell_angle_beta   90.00000000
_cell_angle_gamma   90.00000000
_symmetry_Int_Tables_number   1
_chemical_formula_structural   KVF4
_chemical_formula_sum   'K8 V8 F32'
_cell_volume   772.86995011
_cell_formula_units_Z   8
loop_
 _symmetry_equiv_pos_site_id
 _symmetry_equiv_pos_as_xyz
  1  'x, y, z'
loop_
 _atom_site_type_symbol
 _atom_site_label
 _atom_site_symmetry_multiplicity
 _atom_site_fract_x
 _atom_site_fract_y
 _atom_site_fract_z
 _atom_site_occupancy
  K  K0  1  0.25000000  0.62422300  0.51568500  1
  K  K1  1  0.75000000  0.37577700  0.48431500  1
  K  K2  1  0.75000000  0.12422300  0.98431500  1
  K  K3  1  0.25000000  0.87577700  0.01568500  1
  K  K4  1  0.25000000  0.12522700  0.52786000  1
  K  K5  1  0.75000000  0.87477300  0.47214000  1
  K  K6  1  0.75000000  0.62522700  0.97214000  1
  K  K7  1  0.25000000  0.37477300  0.02786000  1
  V  V8  1  0.50054500  0.62543100  0.24854600  1
  V  V9  1  0.00054500  0.37456900  0.75145400  1
  V  V10  1  0.49945500  0.12543100  0.25145400  1
  V  V11  1  0.99945500  0.87456900  0.74854600  1
  V  V12  1  0.49945500  0.37456900  0.75145400  1
  V  V13  1  0.99945500  0.62543100  0.24854600  1
  V  V14  1  0.50054500  0.87456900  0.74854600  1
  V  V15  1  0.00054500  0.12543100  0.25145400  1
  F  F16  1  0.45035900  0.37550100  0.24839000  1
  F  F17  1  0.95035900  0.62449900  0.75161000  1
  F  F18  1  0.54964100  0.87550100  0.25161000  1
  F  F19  1  0.04964100  0.12449900  0.74839000  1
  F  F20  1  0.54964100  0.62449900  0.75161000  1
  F  F21  1  0.04964100  0.37550100  0.24839000  1
  F  F22  1  0.45035900  0.12449900  0.74839000  1
  F  F23  1  0.95035900  0.87550100  0.25161000  1
  F  F24  1  0.25000000  0.42178300  0.78368200  1
  F  F25  1  0.75000000  0.57821700  0.21631800  1
  F  F26  1  0.75000000  0.92178300  0.71631800  1
  F  F27  1  0.25000000  0.07821700  0.28368200  1
  F  F28  1  0.75000000  0.32771700  0.71978800  1
  F  F29  1  0.25000000  0.67228300  0.28021200  1
  F  F30  1  0.25000000  0.82771700  0.78021200  1
  F  F31  1  0.75000000  0.17228300  0.21978800  1
  F  F32  1  0.04506800  0.11726800  0.10133600  1
  F  F33  1  0.54506800  0.88273200  0.89866400  1
  F  F34  1  0.95493200  0.61726800  0.39866400  1
  F  F35  1  0.45493200  0.38273200  0.60133600  1
  F  F36  1  0.95493200  0.88273200  0.89866400  1
  F  F37  1  0.45493200  0.11726800  0.10133600  1
  F  F38  1  0.04506800  0.38273200  0.60133600  1
  F  F39  1  0.54506800  0.61726800  0.39866400  1
  F  F40  1  0.95707200  0.13301300  0.40183700  1
  F  F41  1  0.45707200  0.86698700  0.59816300  1
  F  F42  1  0.04292800  0.63301300  0.09816300  1
  F  F43  1  0.54292800  0.36698700  0.90183700  1
  F  F44  1  0.04292800  0.86698700  0.59816300  1
  F  F45  1  0.54292800  0.13301300  0.40183700  1
  F  F46  1  0.95707200  0.36698700  0.90183700  1
  F  F47  1  0.45707200  0.63301300  0.09816300  1
