# generated using pymatgen
data_MnP4
_symmetry_space_group_name_H-M   'P 1'
_cell_length_a   5.11123800
_cell_length_b   5.85347945
_cell_length_c   16.35118457
_cell_angle_alpha   89.25905166
_cell_angle_beta   95.16350995
_cell_angle_gamma   115.60120423
_symmetry_Int_Tables_number   1
_chemical_formula_structural   MnP4
_chemical_formula_sum   'Mn6 P24'
_cell_volume   439.20119643
_cell_formula_units_Z   6
loop_
 _symmetry_equiv_pos_site_id
 _symmetry_equiv_pos_as_xyz
  1  'x, y, z'
loop_
 _atom_site_type_symbol
 _atom_site_label
 _atom_site_symmetry_multiplicity
 _atom_site_fract_x
 _atom_site_fract_y
 _atom_site_fract_z
 _atom_site_occupancy
  Mn  Mn0  1  0.49888000  0.81765500  0.40630300  1
  Mn  Mn1  1  0.12944500  0.12046600  0.92476200  1
  Mn  Mn2  1  0.87055500  0.87953400  0.07523800  1
  Mn  Mn3  1  0.50112000  0.18234500  0.59369700  1
  Mn  Mn4  1  0.49108300  0.44980900  0.74117200  1
  Mn  Mn5  1  0.50891700  0.55019100  0.25882800  1
  P  P6  1  0.92625600  0.75896500  0.72645000  1
  P  P7  1  0.65568500  0.24778000  0.23013600  1
  P  P8  1  0.94297900  0.47259500  0.56550700  1
  P  P9  1  0.38292400  0.13486100  0.45120900  1
  P  P10  1  0.56600800  0.42928100  0.88353700  1
  P  P11  1  0.62911500  0.50474200  0.39020900  1
  P  P12  1  0.71677600  0.17337200  0.10015900  1
  P  P13  1  0.94381500  0.85228400  0.21928500  1
  P  P14  1  0.36604800  0.85866700  0.27228500  1
  P  P15  1  0.30805000  0.19091000  0.05606400  1
  P  P16  1  0.98851000  0.42836500  0.93500200  1
  P  P17  1  0.61707600  0.86513900  0.54879100  1
  P  P18  1  0.28322400  0.82662800  0.89984100  1
  P  P19  1  0.01149000  0.57163500  0.06499800  1
  P  P20  1  0.43399200  0.57071900  0.11646300  1
  P  P21  1  0.95270600  0.12129900  0.40020700  1
  P  P22  1  0.07374400  0.24103500  0.27355000  1
  P  P23  1  0.69195000  0.80909000  0.94393600  1
  P  P24  1  0.63395200  0.14133300  0.72771500  1
  P  P25  1  0.34431500  0.75222000  0.76986400  1
  P  P26  1  0.04729400  0.87870100  0.59979300  1
  P  P27  1  0.05618500  0.14771600  0.78071500  1
  P  P28  1  0.37088500  0.49525800  0.60979100  1
  P  P29  1  0.05702100  0.52740500  0.43449300  1
