# generated using pymatgen
data_Ti7Cl16
_symmetry_space_group_name_H-M   'P 1'
_cell_length_a   6.86909900
_cell_length_b   10.06736500
_cell_length_c   14.55589600
_cell_angle_alpha   90.00000000
_cell_angle_beta   90.00000000
_cell_angle_gamma   90.00000000
_symmetry_Int_Tables_number   1
_chemical_formula_structural   Ti7Cl16
_chemical_formula_sum   'Ti14 Cl32'
_cell_volume   1006.59445610
_cell_formula_units_Z   2
loop_
 _symmetry_equiv_pos_site_id
 _symmetry_equiv_pos_as_xyz
  1  'x, y, z'
loop_
 _atom_site_type_symbol
 _atom_site_label
 _atom_site_symmetry_multiplicity
 _atom_site_fract_x
 _atom_site_fract_y
 _atom_site_fract_z
 _atom_site_occupancy
  Ti  Ti0  1  0.00000000  0.00000000  0.00000000  1
  Ti  Ti1  1  0.50000000  0.50000000  0.50000000  1
  Ti  Ti2  1  0.50000000  0.53861700  0.76306100  1
  Ti  Ti3  1  0.50000000  0.46138300  0.23693900  1
  Ti  Ti4  1  0.00000000  0.03861700  0.73693900  1
  Ti  Ti5  1  0.00000000  0.96138300  0.26306100  1
  Ti  Ti6  1  0.70333400  0.74583000  0.86348400  1
  Ti  Ti7  1  0.70333400  0.25417000  0.13651600  1
  Ti  Ti8  1  0.79666600  0.24583000  0.63651600  1
  Ti  Ti9  1  0.79666600  0.75417000  0.36348400  1
  Ti  Ti10  1  0.29666600  0.25417000  0.13651600  1
  Ti  Ti11  1  0.29666600  0.74583000  0.86348400  1
  Ti  Ti12  1  0.20333400  0.75417000  0.36348400  1
  Ti  Ti13  1  0.20333400  0.24583000  0.63651600  1
  Cl  Cl14  1  0.50000000  0.75672900  0.99298400  1
  Cl  Cl15  1  0.50000000  0.24327100  0.00701600  1
  Cl  Cl16  1  0.00000000  0.25672900  0.50701600  1
  Cl  Cl17  1  0.00000000  0.74327100  0.49298400  1
  Cl  Cl18  1  0.00000000  0.75817200  0.98144700  1
  Cl  Cl19  1  0.00000000  0.24182800  0.01855300  1
  Cl  Cl20  1  0.50000000  0.25817200  0.51855300  1
  Cl  Cl21  1  0.50000000  0.74182800  0.48144700  1
  Cl  Cl22  1  0.00000000  0.77557600  0.75380500  1
  Cl  Cl23  1  0.00000000  0.22442400  0.24619500  1
  Cl  Cl24  1  0.50000000  0.27557600  0.74619500  1
  Cl  Cl25  1  0.50000000  0.72442400  0.25380500  1
  Cl  Cl26  1  0.50000000  0.76956500  0.73042400  1
  Cl  Cl27  1  0.50000000  0.23043500  0.26957600  1
  Cl  Cl28  1  0.00000000  0.26956500  0.76957600  1
  Cl  Cl29  1  0.00000000  0.73043500  0.23042400  1
  Cl  Cl30  1  0.75461200  0.00444400  0.87166600  1
  Cl  Cl31  1  0.75461200  0.99555600  0.12833400  1
  Cl  Cl32  1  0.74538800  0.50444400  0.62833400  1
  Cl  Cl33  1  0.74538800  0.49555600  0.37166600  1
  Cl  Cl34  1  0.24538800  0.99555600  0.12833400  1
  Cl  Cl35  1  0.24538800  0.00444400  0.87166600  1
  Cl  Cl36  1  0.25461200  0.49555600  0.37166600  1
  Cl  Cl37  1  0.25461200  0.50444400  0.62833400  1
  Cl  Cl38  1  0.74976900  0.51435900  0.87242500  1
  Cl  Cl39  1  0.74976900  0.48564100  0.12757500  1
  Cl  Cl40  1  0.75023100  0.01435900  0.62757500  1
  Cl  Cl41  1  0.75023100  0.98564100  0.37242500  1
  Cl  Cl42  1  0.25023100  0.48564100  0.12757500  1
  Cl  Cl43  1  0.25023100  0.51435900  0.87242500  1
  Cl  Cl44  1  0.24976900  0.98564100  0.37242500  1
  Cl  Cl45  1  0.24976900  0.01435900  0.62757500  1
