# generated using pymatgen
data_K2Zn(SiO3)2
_symmetry_space_group_name_H-M   'P 1'
_cell_length_a   5.80523165
_cell_length_b   5.80523165
_cell_length_c   10.56793500
_cell_angle_alpha   90.00000000
_cell_angle_beta   90.00000000
_cell_angle_gamma   113.19364469
_symmetry_Int_Tables_number   1
_chemical_formula_structural   K2Zn(SiO3)2
_chemical_formula_sum   'K4 Zn2 Si4 O12'
_cell_volume   327.36281789
_cell_formula_units_Z   2
loop_
 _symmetry_equiv_pos_site_id
 _symmetry_equiv_pos_as_xyz
  1  'x, y, z'
loop_
 _atom_site_type_symbol
 _atom_site_label
 _atom_site_symmetry_multiplicity
 _atom_site_fract_x
 _atom_site_fract_y
 _atom_site_fract_z
 _atom_site_occupancy
  K  K0  1  0.28098000  0.93471200  0.57541200  1
  K  K1  1  0.06528800  0.71902000  0.92458800  1
  K  K2  1  0.71902000  0.06528800  0.07541200  1
  K  K3  1  0.93471200  0.28098000  0.42458800  1
  Zn  Zn4  1  0.19366300  0.80633700  0.25000000  1
  Zn  Zn5  1  0.80633700  0.19366300  0.75000000  1
  Si  Si6  1  0.36527400  0.33073100  0.86311200  1
  Si  Si7  1  0.33073100  0.36527400  0.13688800  1
  Si  Si8  1  0.66926900  0.63472600  0.63688800  1
  Si  Si9  1  0.63472600  0.66926900  0.36311200  1
  O  O10  1  0.54740100  0.45259900  0.25000000  1
  O  O11  1  0.52019800  0.87879400  0.33652700  1
  O  O12  1  0.51568200  0.51568200  0.50000000  1
  O  O13  1  0.87879400  0.52019800  0.66347300  1
  O  O14  1  0.47980200  0.12120600  0.83652700  1
  O  O15  1  0.06195700  0.21855500  0.87584800  1
  O  O16  1  0.93804300  0.78144600  0.37584800  1
  O  O17  1  0.45259900  0.54740100  0.75000000  1
  O  O18  1  0.12120600  0.47980200  0.16347300  1
  O  O19  1  0.21855400  0.06195700  0.12415200  1
  O  O20  1  0.78144500  0.93804300  0.62415200  1
  O  O21  1  0.48431800  0.48431800  0.00000000  1
