# generated using pymatgen
data_K3Fe5(PO4)6
_symmetry_space_group_name_H-M   'P 1'
_cell_length_a   16.05921949
_cell_length_b   16.05921949
_cell_length_c   10.85277469
_cell_angle_alpha   89.95360635
_cell_angle_beta   89.95360635
_cell_angle_gamma   156.48514320
_symmetry_Int_Tables_number   1
_chemical_formula_structural   K3Fe5(PO4)6
_chemical_formula_sum   'K6 Fe10 P12 O48'
_cell_volume   1116.72131804
_cell_formula_units_Z   2
loop_
 _symmetry_equiv_pos_site_id
 _symmetry_equiv_pos_as_xyz
  1  'x, y, z'
loop_
 _atom_site_type_symbol
 _atom_site_label
 _atom_site_symmetry_multiplicity
 _atom_site_fract_x
 _atom_site_fract_y
 _atom_site_fract_z
 _atom_site_occupancy
  K  K0  1  0.93976800  0.06023100  0.75000000  1
  K  K1  1  0.78563400  0.50906600  0.98771900  1
  K  K2  1  0.06023100  0.93976900  0.25000000  1
  K  K3  1  0.50906600  0.78563400  0.48771900  1
  K  K4  1  0.49093400  0.21436600  0.51228100  1
  K  K5  1  0.21436600  0.49093400  0.01228100  1
  Fe  Fe6  1  0.70327200  0.80298500  0.07760000  1
  Fe  Fe7  1  0.80298500  0.70327200  0.57760000  1
  Fe  Fe8  1  0.80668600  0.19331400  0.25000000  1
  Fe  Fe9  1  0.19701500  0.29672800  0.42240000  1
  Fe  Fe10  1  0.81044300  0.18955700  0.75000000  1
  Fe  Fe11  1  0.00000000  0.50000000  0.50000000  1
  Fe  Fe12  1  0.29672800  0.19701500  0.92240000  1
  Fe  Fe13  1  0.18955700  0.81044300  0.25000000  1
  Fe  Fe14  1  0.50000000  0.00000000  0.00000000  1
  Fe  Fe15  1  0.19331400  0.80668600  0.75000000  1
  P  P16  1  0.29479100  0.99678900  0.99753600  1
  P  P17  1  0.21688900  0.27752900  0.12287800  1
  P  P18  1  0.78311100  0.72247100  0.87712200  1
  P  P19  1  0.00321100  0.70520900  0.50246400  1
  P  P20  1  0.72247100  0.78311100  0.37712200  1
  P  P21  1  0.71811600  0.28188400  0.25000000  1
  P  P22  1  0.27752900  0.21688900  0.62287800  1
  P  P23  1  0.70520900  0.00321100  0.00246400  1
  P  P24  1  0.99678900  0.29479100  0.49753600  1
  P  P25  1  0.28188400  0.71811600  0.75000000  1
  P  P26  1  0.72151400  0.27848600  0.75000000  1
  P  P27  1  0.27848600  0.72151400  0.25000000  1
  O  O28  1  0.83903100  0.13311500  0.88264300  1
  O  O29  1  0.76838800  0.73743700  0.43208300  1
  O  O30  1  0.83601300  0.62035900  0.51125100  1
  O  O31  1  0.16398700  0.37964100  0.48874900  1
  O  O32  1  0.11997700  0.00797300  0.57197700  1
  O  O33  1  0.50105100  0.61030700  0.40984600  1
  O  O34  1  0.71379300  0.21107100  0.14154900  1
  O  O35  1  0.78892900  0.28620700  0.35845100  1
  O  O36  1  0.79431100  0.74911400  0.73562000  1
  O  O37  1  0.21107100  0.71379300  0.64154900  1
  O  O38  1  0.20568900  0.25088600  0.26438000  1
  O  O39  1  0.37964100  0.16398700  0.98874900  1
  O  O40  1  0.51993600  0.89521400  0.99796100  1
  O  O41  1  0.26256300  0.23161200  0.06791700  1
  O  O42  1  0.74911400  0.79431100  0.23562000  1
  O  O43  1  0.15671500  0.85014400  0.88551400  1
  O  O44  1  0.88002300  0.99202700  0.42802300  1
  O  O45  1  0.49894900  0.38969300  0.59015400  1
  O  O46  1  0.38969300  0.49894900  0.09015400  1
  O  O47  1  0.89521400  0.51993600  0.49796100  1
  O  O48  1  0.49747900  0.87897100  0.72248300  1
  O  O49  1  0.50252100  0.12102900  0.27751700  1
  O  O50  1  0.13311500  0.83903100  0.38264300  1
  O  O51  1  0.11809300  0.50635200  0.22460800  1
  O  O52  1  0.88190700  0.49364800  0.77539200  1
  O  O53  1  0.86688500  0.16096900  0.61735700  1
  O  O54  1  0.87897100  0.49747900  0.22248300  1
  O  O55  1  0.99202700  0.88002300  0.92802300  1
  O  O56  1  0.85014400  0.15671500  0.38551400  1
  O  O57  1  0.20823600  0.71761900  0.35883300  1
  O  O58  1  0.16096900  0.86688500  0.11735700  1
  O  O59  1  0.48006400  0.10478600  0.00203900  1
  O  O60  1  0.73743700  0.76838800  0.93208300  1
  O  O61  1  0.71761900  0.20823600  0.85883300  1
  O  O62  1  0.79176400  0.28238100  0.64116700  1
  O  O63  1  0.25088600  0.20568900  0.76438000  1
  O  O64  1  0.84328500  0.14985600  0.11448600  1
  O  O65  1  0.62035900  0.83601300  0.01125100  1
  O  O66  1  0.10478600  0.48006400  0.50203900  1
  O  O67  1  0.28238100  0.79176400  0.14116700  1
  O  O68  1  0.00797300  0.11997700  0.07197700  1
  O  O69  1  0.28620700  0.78892900  0.85845100  1
  O  O70  1  0.14985600  0.84328500  0.61448600  1
  O  O71  1  0.23161200  0.26256300  0.56791700  1
  O  O72  1  0.61030700  0.50105100  0.90984600  1
  O  O73  1  0.12102900  0.50252100  0.77751700  1
  O  O74  1  0.49364800  0.88190700  0.27539200  1
  O  O75  1  0.50635200  0.11809300  0.72460800  1
