# generated using pymatgen
data_CaTe2O5
_symmetry_space_group_name_H-M   'P 1'
_cell_length_a   5.85167800
_cell_length_b   9.62411600
_cell_length_c   11.20888691
_cell_angle_alpha   65.67741189
_cell_angle_beta   90.00000000
_cell_angle_gamma   90.00000000
_symmetry_Int_Tables_number   1
_chemical_formula_structural   CaTe2O5
_chemical_formula_sum   'Ca4 Te8 O20'
_cell_volume   575.22399648
_cell_formula_units_Z   4
loop_
 _symmetry_equiv_pos_site_id
 _symmetry_equiv_pos_as_xyz
  1  'x, y, z'
loop_
 _atom_site_type_symbol
 _atom_site_label
 _atom_site_symmetry_multiplicity
 _atom_site_fract_x
 _atom_site_fract_y
 _atom_site_fract_z
 _atom_site_occupancy
  Ca  Ca0  1  0.19594900  0.02459500  0.35937200  1
  Ca  Ca1  1  0.69594900  0.97540500  0.14062800  1
  Ca  Ca2  1  0.80405100  0.97540500  0.64062800  1
  Ca  Ca3  1  0.30405100  0.02459500  0.85937200  1
  Te  Te4  1  0.82169000  0.25772400  0.78129700  1
  Te  Te5  1  0.32169000  0.74227600  0.71870300  1
  Te  Te6  1  0.17831000  0.74227600  0.21870300  1
  Te  Te7  1  0.67831000  0.25772400  0.28129700  1
  Te  Te8  1  0.36222600  0.34812600  0.51213000  1
  Te  Te9  1  0.86222600  0.65187400  0.98787000  1
  Te  Te10  1  0.63777400  0.65187400  0.48787000  1
  Te  Te11  1  0.13777400  0.34812600  0.01213000  1
  O  O12  1  0.89304900  0.47605700  0.90936200  1
  O  O13  1  0.39304900  0.52394300  0.59063800  1
  O  O14  1  0.10695100  0.52394300  0.09063800  1
  O  O15  1  0.60695100  0.47605700  0.40936200  1
  O  O16  1  0.52637300  0.20519500  0.65675000  1
  O  O17  1  0.02637300  0.79480500  0.84325000  1
  O  O18  1  0.47362700  0.79480500  0.34325000  1
  O  O19  1  0.97362700  0.20519500  0.15675000  1
  O  O20  1  0.09085500  0.22446200  0.90350700  1
  O  O21  1  0.59085500  0.77553800  0.59649300  1
  O  O22  1  0.90914500  0.77553800  0.09649300  1
  O  O23  1  0.40914500  0.22446200  0.40350700  1
  O  O24  1  0.50867800  0.13661300  0.21626200  1
  O  O25  1  0.00867800  0.86338700  0.28373800  1
  O  O26  1  0.49132200  0.86338700  0.78373800  1
  O  O27  1  0.99132200  0.13661300  0.71626200  1
  O  O28  1  0.85428700  0.11492600  0.41547700  1
  O  O29  1  0.35428700  0.88507400  0.08452300  1
  O  O30  1  0.14571300  0.88507400  0.58452300  1
  O  O31  1  0.64571300  0.11492600  0.91547700  1
