# generated using pymatgen
data_BaCuSn2
_symmetry_space_group_name_H-M   'P 1'
_cell_length_a   10.10725043
_cell_length_b   10.10725043
_cell_length_c   4.69183300
_cell_angle_alpha   90.00000000
_cell_angle_beta   90.00000000
_cell_angle_gamma   152.15908445
_symmetry_Int_Tables_number   1
_chemical_formula_structural   BaCuSn2
_chemical_formula_sum   'Ba2 Cu2 Sn4'
_cell_volume   223.84243089
_cell_formula_units_Z   2
loop_
 _symmetry_equiv_pos_site_id
 _symmetry_equiv_pos_as_xyz
  1  'x, y, z'
loop_
 _atom_site_type_symbol
 _atom_site_label
 _atom_site_symmetry_multiplicity
 _atom_site_fract_x
 _atom_site_fract_y
 _atom_site_fract_z
 _atom_site_occupancy
  Ba  Ba0  1  0.39190700  0.60809300  0.25000000  1
  Ba  Ba1  1  0.60809300  0.39190700  0.75000000  1
  Cu  Cu2  1  0.82087300  0.17912700  0.75000000  1
  Cu  Cu3  1  0.17912700  0.82087300  0.25000000  1
  Sn  Sn4  1  0.04334000  0.95666000  0.25000000  1
  Sn  Sn5  1  0.95666000  0.04334000  0.75000000  1
  Sn  Sn6  1  0.25005900  0.74994100  0.75000000  1
  Sn  Sn7  1  0.74994100  0.25005900  0.25000000  1
