# generated using pymatgen
data_CsSn
_symmetry_space_group_name_H-M   'P 1'
_cell_length_a   14.79198600
_cell_length_b   14.79198600
_cell_length_c   14.79198600
_cell_angle_alpha   90.00000000
_cell_angle_beta   90.00000000
_cell_angle_gamma   90.00000000
_symmetry_Int_Tables_number   1
_chemical_formula_structural   CsSn
_chemical_formula_sum   'Cs32 Sn32'
_cell_volume   3236.52869136
_cell_formula_units_Z   32
loop_
 _symmetry_equiv_pos_site_id
 _symmetry_equiv_pos_as_xyz
  1  'x, y, z'
loop_
 _atom_site_type_symbol
 _atom_site_label
 _atom_site_symmetry_multiplicity
 _atom_site_fract_x
 _atom_site_fract_y
 _atom_site_fract_z
 _atom_site_occupancy
  Cs  Cs0  1  0.66342200  0.93385700  0.14114000  1
  Cs  Cs1  1  0.33333900  0.33333900  0.33333900  1
  Cs  Cs2  1  0.33657800  0.93385700  0.85886000  1
  Cs  Cs3  1  0.66666100  0.33333900  0.66666100  1
  Cs  Cs4  1  0.64114000  0.56614300  0.83657800  1
  Cs  Cs5  1  0.83333900  0.83333900  0.83333900  1
  Cs  Cs6  1  0.83333900  0.16666100  0.16666100  1
  Cs  Cs7  1  0.56614300  0.83657800  0.64114000  1
  Cs  Cs8  1  0.16666100  0.83333900  0.16666100  1
  Cs  Cs9  1  0.66342200  0.06614300  0.85886000  1
  Cs  Cs10  1  0.33657800  0.06614300  0.14114000  1
  Cs  Cs11  1  0.16342200  0.64114000  0.43385700  1
  Cs  Cs12  1  0.16666100  0.16666100  0.83333900  1
  Cs  Cs13  1  0.35886000  0.43385700  0.83657800  1
  Cs  Cs14  1  0.33333900  0.66666100  0.66666100  1
  Cs  Cs15  1  0.64114000  0.43385700  0.16342200  1
  Cs  Cs16  1  0.66666100  0.66666100  0.33333900  1
  Cs  Cs17  1  0.14114000  0.33657800  0.06614300  1
  Cs  Cs18  1  0.06614300  0.85886000  0.66342200  1
  Cs  Cs19  1  0.43385700  0.16342200  0.64114000  1
  Cs  Cs20  1  0.43385700  0.83657800  0.35886000  1
  Cs  Cs21  1  0.85886000  0.66342200  0.06614300  1
  Cs  Cs22  1  0.93385700  0.14114000  0.66342200  1
  Cs  Cs23  1  0.56614300  0.16342200  0.35886000  1
  Cs  Cs24  1  0.93385700  0.85886000  0.33657800  1
  Cs  Cs25  1  0.35886000  0.56614300  0.16342200  1
  Cs  Cs26  1  0.83657800  0.64114000  0.56614300  1
  Cs  Cs27  1  0.06614300  0.14114000  0.33657800  1
  Cs  Cs28  1  0.83657800  0.35886000  0.43385700  1
  Cs  Cs29  1  0.14114000  0.66342200  0.93385700  1
  Cs  Cs30  1  0.16342200  0.35886000  0.56614300  1
  Cs  Cs31  1  0.85886000  0.33657800  0.93385700  1
  Sn  Sn32  1  0.42293900  0.67977500  0.93336800  1
  Sn  Sn33  1  0.07139300  0.92860700  0.92860700  1
  Sn  Sn34  1  0.92293900  0.56663200  0.82022500  1
  Sn  Sn35  1  0.57139300  0.42860700  0.42860700  1
  Sn  Sn36  1  0.07706100  0.56663200  0.17977500  1
  Sn  Sn37  1  0.42860700  0.57139300  0.42860700  1
  Sn  Sn38  1  0.32022500  0.06663200  0.42293900  1
  Sn  Sn39  1  0.17977500  0.92293900  0.43336800  1
  Sn  Sn40  1  0.07139300  0.07139300  0.07139300  1
  Sn  Sn41  1  0.17977500  0.07706100  0.56663200  1
  Sn  Sn42  1  0.92293900  0.43336800  0.17977500  1
  Sn  Sn43  1  0.93336800  0.42293900  0.67977500  1
  Sn  Sn44  1  0.07706100  0.43336800  0.82022500  1
  Sn  Sn45  1  0.56663200  0.17977500  0.07706100  1
  Sn  Sn46  1  0.57139300  0.57139300  0.57139300  1
  Sn  Sn47  1  0.82022500  0.07706100  0.43336800  1
  Sn  Sn48  1  0.57706100  0.67977500  0.06663200  1
  Sn  Sn49  1  0.67977500  0.93336800  0.42293900  1
  Sn  Sn50  1  0.67977500  0.06663200  0.57706100  1
  Sn  Sn51  1  0.42293900  0.32022500  0.06663200  1
  Sn  Sn52  1  0.82022500  0.92293900  0.56663200  1
  Sn  Sn53  1  0.92860700  0.07139300  0.92860700  1
  Sn  Sn54  1  0.56663200  0.82022500  0.92293900  1
  Sn  Sn55  1  0.42860700  0.42860700  0.57139300  1
  Sn  Sn56  1  0.57706100  0.32022500  0.93336800  1
  Sn  Sn57  1  0.43336800  0.17977500  0.92293900  1
  Sn  Sn58  1  0.93336800  0.57706100  0.32022500  1
  Sn  Sn59  1  0.06663200  0.42293900  0.32022500  1
  Sn  Sn60  1  0.32022500  0.93336800  0.57706100  1
  Sn  Sn61  1  0.92860700  0.92860700  0.07139300  1
  Sn  Sn62  1  0.06663200  0.57706100  0.67977500  1
  Sn  Sn63  1  0.43336800  0.82022500  0.07706100  1
