# generated using pymatgen
data_Ba3Nb2O8
_symmetry_space_group_name_H-M   'P 1'
_cell_length_a   8.02685987
_cell_length_b   8.02685987
_cell_length_c   8.02686004
_cell_angle_alpha   45.21092918
_cell_angle_beta   45.21092918
_cell_angle_gamma   45.21092200
_symmetry_Int_Tables_number   1
_chemical_formula_structural   Ba3Nb2O8
_chemical_formula_sum   'Ba3 Nb2 O8'
_cell_volume   237.19983773
_cell_formula_units_Z   1
loop_
 _symmetry_equiv_pos_site_id
 _symmetry_equiv_pos_as_xyz
  1  'x, y, z'
loop_
 _atom_site_type_symbol
 _atom_site_label
 _atom_site_symmetry_multiplicity
 _atom_site_fract_x
 _atom_site_fract_y
 _atom_site_fract_z
 _atom_site_occupancy
  Ba  Ba0  1  0.00000000  0.00000000  0.00000000  1
  Ba  Ba1  1  0.80081500  0.80081500  0.80081500  1
  Ba  Ba2  1  0.19918500  0.19918500  0.19918500  1
  Nb  Nb3  1  0.40580100  0.40580100  0.40580100  1
  Nb  Nb4  1  0.59419900  0.59419900  0.59419900  1
  O  O5  1  0.26803900  0.26803900  0.76727700  1
  O  O6  1  0.26803900  0.76727700  0.26803900  1
  O  O7  1  0.76727700  0.26803900  0.26803900  1
  O  O8  1  0.73196100  0.73196100  0.23272300  1
  O  O9  1  0.73196100  0.23272300  0.73196100  1
  O  O10  1  0.23272300  0.73196100  0.73196100  1
  O  O11  1  0.31948900  0.31948900  0.31948900  1
  O  O12  1  0.68051100  0.68051100  0.68051100  1
