# generated using pymatgen
data_U8CrS17
_symmetry_space_group_name_H-M   'P 1'
_cell_length_a   7.79103146
_cell_length_b   7.79103146
_cell_length_c   10.34114472
_cell_angle_alpha   80.31455844
_cell_angle_beta   80.31455844
_cell_angle_gamma   64.57463215
_symmetry_Int_Tables_number   1
_chemical_formula_structural   U8CrS17
_chemical_formula_sum   'U8 Cr1 S17'
_cell_volume   555.57299011
_cell_formula_units_Z   1
loop_
 _symmetry_equiv_pos_site_id
 _symmetry_equiv_pos_as_xyz
  1  'x, y, z'
loop_
 _atom_site_type_symbol
 _atom_site_label
 _atom_site_symmetry_multiplicity
 _atom_site_fract_x
 _atom_site_fract_y
 _atom_site_fract_z
 _atom_site_occupancy
  U  U0  1  0.81809900  0.30264400  0.29885700  1
  U  U1  1  0.69735600  0.18190100  0.70114300  1
  U  U2  1  0.18190100  0.69735600  0.70114300  1
  U  U3  1  0.30264400  0.81809900  0.29885700  1
  U  U4  1  0.20412000  0.20412000  0.54412500  1
  U  U5  1  0.79588000  0.79588000  0.45587500  1
  U  U6  1  0.68223700  0.68223700  0.98265500  1
  U  U7  1  0.31776300  0.31776300  0.01734500  1
  Cr  Cr8  1  0.00000000  0.00000000  0.00000000  1
  S  S9  1  0.82046000  0.43271900  0.53506300  1
  S  S10  1  0.56728100  0.17954000  0.46493700  1
  S  S11  1  0.17954000  0.56728100  0.46493700  1
  S  S12  1  0.43271900  0.82046000  0.53506300  1
  S  S13  1  0.94424400  0.32174200  0.02909500  1
  S  S14  1  0.67825700  0.05575600  0.97090500  1
  S  S15  1  0.05575600  0.67825700  0.97090500  1
  S  S16  1  0.32174300  0.94424400  0.02909500  1
  S  S17  1  0.21259500  0.21259500  0.27880900  1
  S  S18  1  0.78740500  0.78740500  0.72119100  1
  S  S19  1  0.05725100  0.05725100  0.77263200  1
  S  S20  1  0.94274900  0.94274900  0.22736800  1
  S  S21  1  0.30074300  0.30074300  0.75631900  1
  S  S22  1  0.69925700  0.69925700  0.24368100  1
  S  S23  1  0.52112500  0.52112500  0.83071400  1
  S  S24  1  0.47887500  0.47887500  0.16928600  1
  S  S25  1  0.00000000  0.00000000  0.50000000  1
