# generated using pymatgen
data_Gd5CuBi3
_symmetry_space_group_name_H-M   'P 1'
_cell_length_a   9.44285787
_cell_length_b   9.44285753
_cell_length_c   6.52101009
_cell_angle_alpha   90.00000000
_cell_angle_beta   90.00000000
_cell_angle_gamma   120.00000116
_symmetry_Int_Tables_number   1
_chemical_formula_structural   Gd5CuBi3
_chemical_formula_sum   'Gd10 Cu2 Bi6'
_cell_volume   503.56134982
_cell_formula_units_Z   2
loop_
 _symmetry_equiv_pos_site_id
 _symmetry_equiv_pos_as_xyz
  1  'x, y, z'
loop_
 _atom_site_type_symbol
 _atom_site_label
 _atom_site_symmetry_multiplicity
 _atom_site_fract_x
 _atom_site_fract_y
 _atom_site_fract_z
 _atom_site_occupancy
  Gd  Gd0  1  0.25355286  0.25355286  0.75000000  1
  Gd  Gd1  1  0.74644714  0.74644714  0.25000000  1
  Gd  Gd2  1  0.33333300  0.66666700  0.50000000  1
  Gd  Gd3  1  0.25355286  0.00000000  0.25000000  1
  Gd  Gd4  1  0.66666700  0.33333300  0.50000000  1
  Gd  Gd5  1  0.00000000  0.74644714  0.75000000  1
  Gd  Gd6  1  0.66666700  0.33333300  0.00000000  1
  Gd  Gd7  1  1.00000000  0.25355286  0.25000000  1
  Gd  Gd8  1  0.74644714  0.00000000  0.75000000  1
  Gd  Gd9  1  0.33333300  0.66666700  0.00000000  1
  Cu  Cu10  1  0.00000000  0.00000000  0.00000000  1
  Cu  Cu11  1  0.00000000  0.00000000  0.50000000  1
  Bi  Bi12  1  0.38642300  0.00000000  0.75000000  1
  Bi  Bi13  1  0.61357700  0.00000000  0.25000000  1
  Bi  Bi14  1  0.61357700  0.61357700  0.75000000  1
  Bi  Bi15  1  0.00000000  0.61357700  0.25000000  1
  Bi  Bi16  1  1.00000000  0.38642300  0.75000000  1
  Bi  Bi17  1  0.38642300  0.38642300  0.25000000  1
