# generated using pymatgen
data_Ni(XeF7)4
_symmetry_space_group_name_H-M   'P 1'
_cell_length_a   12.73416005
_cell_length_b   12.73416005
_cell_length_c   18.03804633
_cell_angle_alpha   58.97507813
_cell_angle_beta   58.97507813
_cell_angle_gamma   25.98040525
_symmetry_Int_Tables_number   1
_chemical_formula_structural   Ni(XeF7)4
_chemical_formula_sum   'Ni2 Xe8 F56'
_cell_volume   1087.42266923
_cell_formula_units_Z   2
loop_
 _symmetry_equiv_pos_site_id
 _symmetry_equiv_pos_as_xyz
  1  'x, y, z'
loop_
 _atom_site_type_symbol
 _atom_site_label
 _atom_site_symmetry_multiplicity
 _atom_site_fract_x
 _atom_site_fract_y
 _atom_site_fract_z
 _atom_site_occupancy
  Ni  Ni0  1  0.00000000  0.00000000  0.50000000  1
  Ni  Ni1  1  0.00000000  0.00000000  0.00000000  1
  Xe  Xe2  1  0.40766800  0.77848600  0.28624900  1
  Xe  Xe3  1  0.77848600  0.40766800  0.78624900  1
  Xe  Xe4  1  0.22151400  0.59233200  0.21375100  1
  Xe  Xe5  1  0.22765400  0.09889600  0.44915200  1
  Xe  Xe6  1  0.09889600  0.22765400  0.94915200  1
  Xe  Xe7  1  0.90110400  0.77234600  0.05084800  1
  Xe  Xe8  1  0.77234600  0.90110400  0.55084800  1
  Xe  Xe9  1  0.59233200  0.22151400  0.71375100  1
  F  F10  1  0.27583400  0.06105500  0.21950700  1
  F  F11  1  0.56588500  0.48103500  0.31631400  1
  F  F12  1  0.93894500  0.72416600  0.28049300  1
  F  F13  1  0.43411500  0.51896500  0.68368600  1
  F  F14  1  0.37690400  0.87786900  0.00110800  1
  F  F15  1  0.01429200  0.90359600  0.21832100  1
  F  F16  1  0.69429800  0.83828700  0.04337400  1
  F  F17  1  0.44610300  0.10352000  0.59610300  1
  F  F18  1  0.48103500  0.56588500  0.81631400  1
  F  F19  1  0.25528700  0.52631600  0.33246400  1
  F  F20  1  0.08603700  0.82063900  0.96120900  1
  F  F21  1  0.45549900  0.81487800  0.37494400  1
  F  F22  1  0.47368400  0.74471300  0.16753600  1
  F  F23  1  0.97599500  0.17063400  0.40608800  1
  F  F24  1  0.16171300  0.30570200  0.45662600  1
  F  F25  1  0.32773800  0.94865200  0.56681900  1
  F  F26  1  0.25875000  0.72880600  0.05867400  1
  F  F27  1  0.52631600  0.25528700  0.83246400  1
  F  F28  1  0.67226200  0.05134800  0.43318100  1
  F  F29  1  0.09640400  0.98570800  0.28167900  1
  F  F30  1  0.44324900  0.25703500  0.24976000  1
  F  F31  1  0.82936600  0.02400500  0.09391200  1
  F  F32  1  0.82063900  0.08603700  0.46120900  1
  F  F33  1  0.90359600  0.01429200  0.71832100  1
  F  F34  1  0.72880600  0.25875000  0.55867400  1
  F  F35  1  0.17063400  0.97599500  0.90608800  1
  F  F36  1  0.83828700  0.69429800  0.54337400  1
  F  F37  1  0.74296500  0.55675100  0.25024000  1
  F  F38  1  0.54450100  0.18512200  0.62505600  1
  F  F39  1  0.25703500  0.44324900  0.74976000  1
  F  F40  1  0.98570800  0.09640400  0.78167900  1
  F  F41  1  0.55675100  0.74296500  0.75024000  1
  F  F42  1  0.89648000  0.55389700  0.90389700  1
  F  F43  1  0.30570200  0.16171300  0.95662600  1
  F  F44  1  0.12543600  0.29628300  0.33162300  1
  F  F45  1  0.70371700  0.87456400  0.16837700  1
  F  F46  1  0.06105500  0.27583400  0.71950700  1
  F  F47  1  0.94865200  0.32773800  0.06681900  1
  F  F48  1  0.62309600  0.12213100  0.99889200  1
  F  F49  1  0.87456400  0.70371700  0.66837700  1
  F  F50  1  0.02400500  0.82936600  0.59391200  1
  F  F51  1  0.74471300  0.47368400  0.66753600  1
  F  F52  1  0.72416600  0.93894500  0.78049300  1
  F  F53  1  0.74125000  0.27119400  0.94132600  1
  F  F54  1  0.27119400  0.74125000  0.44132600  1
  F  F55  1  0.51896500  0.43411500  0.18368600  1
  F  F56  1  0.05134800  0.67226200  0.93318100  1
  F  F57  1  0.10352000  0.44610300  0.09610300  1
  F  F58  1  0.55389700  0.89648000  0.40389700  1
  F  F59  1  0.17936100  0.91396300  0.53879100  1
  F  F60  1  0.18512200  0.54450100  0.12505600  1
  F  F61  1  0.29628300  0.12543600  0.83162300  1
  F  F62  1  0.12213100  0.62309600  0.49889200  1
  F  F63  1  0.91396300  0.17936100  0.03879100  1
  F  F64  1  0.81487800  0.45549900  0.87494400  1
  F  F65  1  0.87786900  0.37690400  0.50110800  1
