# generated using pymatgen
data_Ca5V3O12F
_symmetry_space_group_name_H-M   'P 1'
_cell_length_a   7.02664000
_cell_length_b   9.86008466
_cell_length_c   9.87772237
_cell_angle_alpha   119.86716823
_cell_angle_beta   90.68101854
_cell_angle_gamma   90.20097555
_symmetry_Int_Tables_number   1
_chemical_formula_structural   Ca5V3O12F
_chemical_formula_sum   'Ca10 V6 O24 F2'
_cell_volume   593.38860216
_cell_formula_units_Z   2
loop_
 _symmetry_equiv_pos_site_id
 _symmetry_equiv_pos_as_xyz
  1  'x, y, z'
loop_
 _atom_site_type_symbol
 _atom_site_label
 _atom_site_symmetry_multiplicity
 _atom_site_fract_x
 _atom_site_fract_y
 _atom_site_fract_z
 _atom_site_occupancy
  Ca  Ca0  1  0.75610000  0.76597300  0.00451300  1
  Ca  Ca1  1  0.99730500  0.33545000  0.68498000  1
  Ca  Ca2  1  0.24877200  0.75572800  0.76143200  1
  Ca  Ca3  1  0.50255200  0.33529100  0.65377300  1
  Ca  Ca4  1  0.75122800  0.24427200  0.23856800  1
  Ca  Ca5  1  0.24390000  0.23402700  0.99548700  1
  Ca  Ca6  1  0.25694900  0.00440500  0.24465900  1
  Ca  Ca7  1  0.49744800  0.66470900  0.34622700  1
  Ca  Ca8  1  0.00269500  0.66455000  0.31502000  1
  Ca  Ca9  1  0.74305100  0.99559500  0.75534100  1
  V  V10  1  0.75801100  0.97423700  0.36960500  1
  V  V11  1  0.26367700  0.60109600  0.97274400  1
  V  V12  1  0.75505100  0.62911300  0.60209000  1
  V  V13  1  0.73632300  0.39890400  0.02725600  1
  V  V14  1  0.24494900  0.37088700  0.39791000  1
  V  V15  1  0.24198900  0.02576300  0.63039500  1
  O  O16  1  0.73388000  0.87062600  0.47080000  1
  O  O17  1  0.95662500  0.90044400  0.25227300  1
  O  O18  1  0.22303200  0.47002000  0.60227700  1
  O  O19  1  0.55212000  0.33135900  0.09430000  1
  O  O20  1  0.26493600  0.39542200  0.87071500  1
  O  O21  1  0.23043600  0.82497600  0.50797300  1
  O  O22  1  0.45352400  0.26498800  0.35883200  1
  O  O23  1  0.42676600  0.07072600  0.76362200  1
  O  O24  1  0.27024300  0.68440800  0.17442200  1
  O  O25  1  0.54647600  0.73501200  0.64116800  1
  O  O26  1  0.26612000  0.12937400  0.52920000  1
  O  O27  1  0.24748100  0.49306700  0.31886000  1
  O  O28  1  0.72975700  0.31559200  0.82557800  1
  O  O29  1  0.73506400  0.60457800  0.12928500  1
  O  O30  1  0.93183400  0.77002900  0.69233200  1
  O  O31  1  0.77696800  0.52998000  0.39772300  1
  O  O32  1  0.05962100  0.65762000  0.91519200  1
  O  O33  1  0.06816600  0.22997100  0.30766800  1
  O  O34  1  0.57323400  0.92927400  0.23637800  1
  O  O35  1  0.75251900  0.50693300  0.68114000  1
  O  O36  1  0.04337500  0.09955600  0.74772700  1
  O  O37  1  0.94037900  0.34238000  0.08480800  1
  O  O38  1  0.76956400  0.17502400  0.49202700  1
  O  O39  1  0.44788000  0.66864100  0.90570000  1
  F  F40  1  0.24914000  0.99546600  0.00067500  1
  F  F41  1  0.75086000  0.00453400  0.99932500  1
