# generated using pymatgen
data_GdMoClO4
_symmetry_space_group_name_H-M   'P 1'
_cell_length_a   6.39144895
_cell_length_b   6.39144895
_cell_length_c   6.98552651
_cell_angle_alpha   76.12740122
_cell_angle_beta   76.12740122
_cell_angle_gamma   71.00706290
_symmetry_Int_Tables_number   1
_chemical_formula_structural   GdMoClO4
_chemical_formula_sum   'Gd2 Mo2 Cl2 O8'
_cell_volume   257.85932988
_cell_formula_units_Z   2
loop_
 _symmetry_equiv_pos_site_id
 _symmetry_equiv_pos_as_xyz
  1  'x, y, z'
loop_
 _atom_site_type_symbol
 _atom_site_label
 _atom_site_symmetry_multiplicity
 _atom_site_fract_x
 _atom_site_fract_y
 _atom_site_fract_z
 _atom_site_occupancy
  Gd  Gd0  1  0.77869000  0.77869000  0.11414100  1
  Gd  Gd1  1  0.22131000  0.22131000  0.88585900  1
  Mo  Mo2  1  0.36231100  0.36231100  0.26822600  1
  Mo  Mo3  1  0.63768900  0.63768900  0.73177400  1
  Cl  Cl4  1  0.98922300  0.98922300  0.76672000  1
  Cl  Cl5  1  0.01077700  0.01077700  0.23328000  1
  O  O6  1  0.70619300  0.70619300  0.46764200  1
  O  O7  1  0.49058400  0.11289500  0.15325800  1
  O  O8  1  0.29380700  0.29380700  0.53235800  1
  O  O9  1  0.50941600  0.88710500  0.84674200  1
  O  O10  1  0.88710500  0.50941600  0.84674200  1
  O  O11  1  0.45889300  0.45889300  0.79647000  1
  O  O12  1  0.11289500  0.49058400  0.15325800  1
  O  O13  1  0.54110700  0.54110700  0.20353000  1
