# generated using pymatgen
data_La2CN3Cl
_symmetry_space_group_name_H-M   'P 1'
_cell_length_a   8.29141507
_cell_length_b   8.29141507
_cell_length_c   3.95928800
_cell_angle_alpha   90.00000000
_cell_angle_beta   90.00000000
_cell_angle_gamma   108.69091108
_symmetry_Int_Tables_number   1
_chemical_formula_structural   La2CN3Cl
_chemical_formula_sum   'La4 C2 N6 Cl2'
_cell_volume   257.83633633
_cell_formula_units_Z   2
loop_
 _symmetry_equiv_pos_site_id
 _symmetry_equiv_pos_as_xyz
  1  'x, y, z'
loop_
 _atom_site_type_symbol
 _atom_site_label
 _atom_site_symmetry_multiplicity
 _atom_site_fract_x
 _atom_site_fract_y
 _atom_site_fract_z
 _atom_site_occupancy
  La  La0  1  0.78734000  0.78734000  0.50000000  1
  La  La1  1  0.63781800  0.36218200  0.00000000  1
  La  La2  1  0.21266000  0.21266000  0.50000000  1
  La  La3  1  0.36218200  0.63781800  0.00000000  1
  C  C4  1  0.00000000  0.50000000  0.50000000  1
  C  C5  1  0.50000000  0.00000000  0.50000000  1
  N  N6  1  0.34431300  0.34431300  0.00000000  1
  N  N7  1  0.65568700  0.65568700  0.00000000  1
  N  N8  1  0.15061700  0.50528300  0.50000000  1
  N  N9  1  0.84938300  0.49471700  0.50000000  1
  N  N10  1  0.49471700  0.84938300  0.50000000  1
  N  N11  1  0.50528300  0.15061700  0.50000000  1
  Cl  Cl12  1  0.12187500  0.87812500  0.00000000  1
  Cl  Cl13  1  0.87812500  0.12187500  0.00000000  1
