# generated using pymatgen
data_SrV2(PO5)2
_symmetry_space_group_name_H-M   'P 1'
_cell_length_a   10.09306592
_cell_length_b   8.90573030
_cell_length_c   7.04206910
_cell_angle_alpha   77.55386256
_cell_angle_beta   59.49952162
_cell_angle_gamma   42.94661581
_symmetry_Int_Tables_number   1
_chemical_formula_structural   SrV2(PO5)2
_chemical_formula_sum   'Sr2 V4 P4 O20'
_cell_volume   358.22689744
_cell_formula_units_Z   2
loop_
 _symmetry_equiv_pos_site_id
 _symmetry_equiv_pos_as_xyz
  1  'x, y, z'
loop_
 _atom_site_type_symbol
 _atom_site_label
 _atom_site_symmetry_multiplicity
 _atom_site_fract_x
 _atom_site_fract_y
 _atom_site_fract_z
 _atom_site_occupancy
  Sr  Sr0  1  0.99689400  0.00310600  0.00310600  1
  Sr  Sr1  1  0.24689400  0.25310600  0.25310600  1
  V  V2  1  0.62197300  0.63848700  0.65079900  1
  V  V3  1  0.59920100  0.16125900  0.62802700  1
  V  V4  1  0.08874100  0.65079900  0.63848700  1
  V  V5  1  0.61151300  0.62802700  0.16125900  1
  P  P6  1  0.20129500  0.21749800  0.79811100  1
  P  P7  1  0.45188900  0.46690400  0.04870500  1
  P  P8  1  0.78309600  0.79811100  0.21749800  1
  P  P9  1  0.03250200  0.04870500  0.46690400  1
  O  O10  1  0.23888700  0.56351800  0.28419400  1
  O  O11  1  0.61057800  0.85540600  0.18348400  1
  O  O12  1  0.32792100  0.97810100  0.69899000  1
  O  O13  1  0.82654300  0.84445000  0.67495700  1
  O  O14  1  0.16423900  0.36641300  0.62508400  1
  O  O15  1  0.39459400  0.63942200  0.89946700  1
  O  O16  1  0.40555000  0.42345700  0.59595000  1
  O  O17  1  0.68648200  0.01111300  0.33660000  1
  O  O18  1  0.91340000  0.28419400  0.56351800  1
  O  O19  1  0.35053300  0.18348400  0.85540600  1
  O  O20  1  0.65405000  0.67495700  0.84445000  1
  O  O21  1  0.84426300  0.62508400  0.36641300  1
  O  O22  1  0.62491600  0.40573700  0.08576100  1
  O  O23  1  0.88358700  0.08576100  0.40573700  1
  O  O24  1  0.57504300  0.59595000  0.42345700  1
  O  O25  1  0.06651600  0.89946700  0.63942200  1
  O  O26  1  0.27189900  0.92207900  0.25501300  1
  O  O27  1  0.96580600  0.33660000  0.01111300  1
  O  O28  1  0.99498700  0.69899000  0.97810100  1
  O  O29  1  0.55101000  0.25501300  0.92207900  1
