# generated using pymatgen
data_RbU2SbS8
_symmetry_space_group_name_H-M   'P 1'
_cell_length_a   6.86094968
_cell_length_b   6.86094968
_cell_length_c   7.82768948
_cell_angle_alpha   81.39369564
_cell_angle_beta   81.39369564
_cell_angle_gamma   109.12000699
_symmetry_Int_Tables_number   1
_chemical_formula_structural   RbU2SbS8
_chemical_formula_sum   'Rb1 U2 Sb1 S8'
_cell_volume   336.34985879
_cell_formula_units_Z   1
loop_
 _symmetry_equiv_pos_site_id
 _symmetry_equiv_pos_as_xyz
  1  'x, y, z'
loop_
 _atom_site_type_symbol
 _atom_site_label
 _atom_site_symmetry_multiplicity
 _atom_site_fract_x
 _atom_site_fract_y
 _atom_site_fract_z
 _atom_site_occupancy
  Rb  Rb0  1  0.54143300  0.54143300  0.83982800  1
  U  U1  1  0.42350600  0.92301000  0.30663800  1
  U  U2  1  0.92301000  0.42350600  0.30663800  1
  Sb  Sb3  1  0.99184500  0.99184500  0.03271200  1
  S  S4  1  0.21612300  0.51574600  0.52446400  1
  S  S5  1  0.70260300  0.03226700  0.53319600  1
  S  S6  1  0.74441200  0.22697200  0.06159000  1
  S  S7  1  0.69611000  0.69611000  0.23174400  1
  S  S8  1  0.03226700  0.70260300  0.53319600  1
  S  S9  1  0.18927200  0.18927200  0.22863800  1
  S  S10  1  0.51574600  0.21612300  0.52446400  1
  S  S11  1  0.22697200  0.74441200  0.06159000  1
