# generated using pymatgen
data_K2PbO3
_symmetry_space_group_name_H-M   'P 1'
_cell_length_a   6.11924421
_cell_length_b   6.11924421
_cell_length_c   12.61837900
_cell_angle_alpha   90.00000000
_cell_angle_beta   90.00000000
_cell_angle_gamma   120.00000229
_symmetry_Int_Tables_number   1
_chemical_formula_structural   K2PbO3
_chemical_formula_sum   'K8 Pb4 O12'
_cell_volume   409.19447447
_cell_formula_units_Z   4
loop_
 _symmetry_equiv_pos_site_id
 _symmetry_equiv_pos_as_xyz
  1  'x, y, z'
loop_
 _atom_site_type_symbol
 _atom_site_label
 _atom_site_symmetry_multiplicity
 _atom_site_fract_x
 _atom_site_fract_y
 _atom_site_fract_z
 _atom_site_occupancy
  K  K0  1  0.00000000  0.68287000  0.25000000  1
  K  K1  1  0.31713000  0.31713000  0.25000000  1
  K  K2  1  0.00000000  0.31713000  0.75000000  1
  K  K3  1  0.68287000  0.00000000  0.25000000  1
  K  K4  1  0.00000000  0.00000000  0.00000000  1
  K  K5  1  0.68287000  0.68287000  0.75000000  1
  K  K6  1  0.00000000  0.00000000  0.50000000  1
  K  K7  1  0.31713000  0.00000000  0.75000000  1
  Pb  Pb8  1  0.66666700  0.33333300  0.50000000  1
  Pb  Pb9  1  0.33333300  0.66666700  0.50000000  1
  Pb  Pb10  1  0.66666700  0.33333300  0.00000000  1
  Pb  Pb11  1  0.33333300  0.66666700  0.00000000  1
  O  O12  1  0.00000000  0.61426800  0.90005100  1
  O  O13  1  0.61426800  0.00000000  0.90005100  1
  O  O14  1  0.61426800  0.61426800  0.09994900  1
  O  O15  1  0.00000000  0.38573200  0.40005100  1
  O  O16  1  0.38573200  0.00000000  0.40005100  1
  O  O17  1  0.38573200  0.00000000  0.09994900  1
  O  O18  1  0.61426800  0.00000000  0.59994900  1
  O  O19  1  0.00000000  0.38573200  0.09994900  1
  O  O20  1  0.00000000  0.61426800  0.59994900  1
  O  O21  1  0.61426800  0.61426800  0.40005100  1
  O  O22  1  0.38573200  0.38573200  0.59994900  1
  O  O23  1  0.38573200  0.38573200  0.90005100  1
