# generated using pymatgen
data_Ca3TiBe2Si2(As3O10)2
_symmetry_space_group_name_H-M   'P 1'
_cell_length_a   8.43236808
_cell_length_b   8.43236808
_cell_length_c   15.49999000
_cell_angle_alpha   90.00000000
_cell_angle_beta   90.00000000
_cell_angle_gamma   120.00000067
_symmetry_Int_Tables_number   1
_chemical_formula_structural   Ca3TiBe2Si2(As3O10)2
_chemical_formula_sum   'Ca6 Ti2 Be4 Si4 As12 O40'
_cell_volume   954.46752942
_cell_formula_units_Z   2
loop_
 _symmetry_equiv_pos_site_id
 _symmetry_equiv_pos_as_xyz
  1  'x, y, z'
loop_
 _atom_site_type_symbol
 _atom_site_label
 _atom_site_symmetry_multiplicity
 _atom_site_fract_x
 _atom_site_fract_y
 _atom_site_fract_z
 _atom_site_occupancy
  Ca  Ca0  1  0.59342700  0.00000000  0.25000000  1
  Ca  Ca1  1  0.59342700  0.59342700  0.75000000  1
  Ca  Ca2  1  0.40657300  0.00000000  0.75000000  1
  Ca  Ca3  1  0.00000000  0.59342700  0.25000000  1
  Ca  Ca4  1  0.40657300  0.40657300  0.25000000  1
  Ca  Ca5  1  0.00000000  0.40657300  0.75000000  1
  Ti  Ti6  1  0.00000000  0.00000000  0.25000000  1
  Ti  Ti7  1  0.00000000  0.00000000  0.75000000  1
  Be  Be8  1  0.33333300  0.66666700  0.13070800  1
  Be  Be9  1  0.66666700  0.33333300  0.86929200  1
  Be  Be10  1  0.66666700  0.33333300  0.36929200  1
  Be  Be11  1  0.33333300  0.66666700  0.63070800  1
  Si  Si12  1  0.33333300  0.66666700  0.92712600  1
  Si  Si13  1  0.33333300  0.66666700  0.42712600  1
  Si  Si14  1  0.66666700  0.33333300  0.07287400  1
  Si  Si15  1  0.66666700  0.33333300  0.57287400  1
  As  As16  1  0.29630300  0.01865400  0.39584200  1
  As  As17  1  0.98134600  0.70369700  0.89584200  1
  As  As18  1  0.98134600  0.27764900  0.39584200  1
  As  As19  1  0.01865400  0.72235100  0.60415800  1
  As  As20  1  0.27764900  0.29630300  0.60415800  1
  As  As21  1  0.72235100  0.01865400  0.89584200  1
  As  As22  1  0.29630300  0.27764900  0.89584200  1
  As  As23  1  0.01865400  0.29630300  0.10415800  1
  As  As24  1  0.70369700  0.72235100  0.10415800  1
  As  As25  1  0.70369700  0.98134600  0.60415800  1
  As  As26  1  0.72235100  0.70369700  0.39584200  1
  As  As27  1  0.27764900  0.98134600  0.10415800  1
  O  O28  1  0.88533000  0.77911500  0.67606400  1
  O  O29  1  0.27966400  0.46509400  0.67487500  1
  O  O30  1  0.46509400  0.27966400  0.82512500  1
  O  O31  1  0.12919400  0.59725200  0.88334900  1
  O  O32  1  0.59725200  0.46805800  0.11665100  1
  O  O33  1  0.40274800  0.53194200  0.88334900  1
  O  O34  1  0.22088500  0.10621500  0.67606400  1
  O  O35  1  0.72033600  0.18543000  0.82512500  1
  O  O36  1  0.46805800  0.59725200  0.38334900  1
  O  O37  1  0.87080600  0.46805800  0.61665100  1
  O  O38  1  0.12919400  0.53194200  0.38334900  1
  O  O39  1  0.66666700  0.33333300  0.47064800  1
  O  O40  1  0.89378500  0.11467000  0.67606400  1
  O  O41  1  0.40274800  0.87080600  0.38334900  1
  O  O42  1  0.10621500  0.22088500  0.82393600  1
  O  O43  1  0.66666700  0.33333300  0.97064800  1
  O  O44  1  0.72033600  0.53490600  0.32512500  1
  O  O45  1  0.46509400  0.18543000  0.32512500  1
  O  O46  1  0.11467000  0.89378500  0.82393600  1
  O  O47  1  0.18543000  0.72033600  0.67487500  1
  O  O48  1  0.53490600  0.72033600  0.17487500  1
  O  O49  1  0.22088500  0.11467000  0.17606400  1
  O  O50  1  0.53490600  0.81457000  0.67487500  1
  O  O51  1  0.88533000  0.10621500  0.17606400  1
  O  O52  1  0.33333300  0.66666700  0.02935200  1
  O  O53  1  0.27966400  0.81457000  0.17487500  1
  O  O54  1  0.81457000  0.27966400  0.32512500  1
  O  O55  1  0.10621500  0.88533000  0.32393600  1
  O  O56  1  0.11467000  0.22088500  0.32393600  1
  O  O57  1  0.33333300  0.66666700  0.52935200  1
  O  O58  1  0.46805800  0.87080600  0.88334900  1
  O  O59  1  0.53194200  0.12919400  0.11665100  1
  O  O60  1  0.81457000  0.53490600  0.82512500  1
  O  O61  1  0.18543000  0.46509400  0.17487500  1
  O  O62  1  0.53194200  0.40274800  0.61665100  1
  O  O63  1  0.59725200  0.12919400  0.61665100  1
  O  O64  1  0.77911500  0.88533000  0.82393600  1
  O  O65  1  0.87080600  0.40274800  0.11665100  1
  O  O66  1  0.77911500  0.89378500  0.32393600  1
  O  O67  1  0.89378500  0.77911500  0.17606400  1
