# generated using pymatgen
data_K3VO4
_symmetry_space_group_name_H-M   'P 1'
_cell_length_a   8.46172900
_cell_length_b   8.46172900
_cell_length_c   8.46172900
_cell_angle_alpha   90.00000000
_cell_angle_beta   90.00000000
_cell_angle_gamma   90.00000000
_symmetry_Int_Tables_number   1
_chemical_formula_structural   K3VO4
_chemical_formula_sum   'K12 V4 O16'
_cell_volume   605.86705377
_cell_formula_units_Z   4
loop_
 _symmetry_equiv_pos_site_id
 _symmetry_equiv_pos_as_xyz
  1  'x, y, z'
loop_
 _atom_site_type_symbol
 _atom_site_label
 _atom_site_symmetry_multiplicity
 _atom_site_fract_x
 _atom_site_fract_y
 _atom_site_fract_z
 _atom_site_occupancy
  K  K0  1  0.46686800  0.53313200  0.03313200  1
  K  K1  1  0.50934900  0.99065100  0.00934900  1
  K  K2  1  0.49065100  0.49065100  0.49065100  1
  K  K3  1  0.96686800  0.96686800  0.96686800  1
  K  K4  1  0.53313200  0.03313200  0.46686800  1
  K  K5  1  0.03313200  0.46686800  0.53313200  1
  K  K6  1  0.22458400  0.77541600  0.27541600  1
  K  K7  1  0.27541600  0.22458400  0.77541600  1
  K  K8  1  0.00934900  0.50934900  0.99065100  1
  K  K9  1  0.99065100  0.00934900  0.50934900  1
  K  K10  1  0.77541600  0.27541600  0.22458400  1
  K  K11  1  0.72458400  0.72458400  0.72458400  1
  V  V12  1  0.73736400  0.76263600  0.23736400  1
  V  V13  1  0.76263600  0.23736400  0.73736400  1
  V  V14  1  0.26263600  0.26263600  0.26263600  1
  V  V15  1  0.23736400  0.73736400  0.76263600  1
  O  O16  1  0.53763800  0.74010000  0.28847400  1
  O  O17  1  0.35537800  0.85537800  0.64462200  1
  O  O18  1  0.85537800  0.64462200  0.35537800  1
  O  O19  1  0.74010000  0.28847400  0.53763800  1
  O  O20  1  0.03763800  0.75990000  0.71152600  1
  O  O21  1  0.24010000  0.21152600  0.46236200  1
  O  O22  1  0.21152600  0.46236200  0.24010000  1
  O  O23  1  0.96236200  0.25990000  0.78847400  1
  O  O24  1  0.28847400  0.53763800  0.74010000  1
  O  O25  1  0.46236200  0.24010000  0.21152600  1
  O  O26  1  0.78847400  0.96236200  0.25990000  1
  O  O27  1  0.64462200  0.35537800  0.85537800  1
  O  O28  1  0.75990000  0.71152600  0.03763800  1
  O  O29  1  0.71152600  0.03763800  0.75990000  1
  O  O30  1  0.14462200  0.14462200  0.14462200  1
  O  O31  1  0.25990000  0.78847400  0.96236200  1
