# generated using pymatgen
data_BaGa2(GeO4)2
_symmetry_space_group_name_H-M   'P 1'
_cell_length_a   10.07196600
_cell_length_b   8.91094900
_cell_length_c   9.48059168
_cell_angle_alpha   89.61621793
_cell_angle_beta   90.00000000
_cell_angle_gamma   90.00000000
_symmetry_Int_Tables_number   1
_chemical_formula_structural   BaGa2(GeO4)2
_chemical_formula_sum   'Ba4 Ga8 Ge8 O32'
_cell_volume   850.87136592
_cell_formula_units_Z   4
loop_
 _symmetry_equiv_pos_site_id
 _symmetry_equiv_pos_as_xyz
  1  'x, y, z'
loop_
 _atom_site_type_symbol
 _atom_site_label
 _atom_site_symmetry_multiplicity
 _atom_site_fract_x
 _atom_site_fract_y
 _atom_site_fract_z
 _atom_site_occupancy
  Ba  Ba0  1  0.41257000  0.74940400  0.89119700  1
  Ba  Ba1  1  0.91257000  0.25059600  0.60880300  1
  Ba  Ba2  1  0.58743000  0.25059600  0.10880300  1
  Ba  Ba3  1  0.08743000  0.74940400  0.39119700  1
  Ga  Ga4  1  0.19252700  0.42915100  0.06174000  1
  Ga  Ga5  1  0.69252700  0.57084900  0.43826000  1
  Ga  Ga6  1  0.80747300  0.57084900  0.93826000  1
  Ga  Ga7  1  0.30747300  0.42915100  0.56174000  1
  Ga  Ga8  1  0.92035900  0.06770300  0.22873400  1
  Ga  Ga9  1  0.42035900  0.93229700  0.27126600  1
  Ga  Ga10  1  0.07964100  0.93229700  0.77126600  1
  Ga  Ga11  1  0.57964100  0.06770300  0.72873400  1
  Ge  Ge12  1  0.19683800  0.06268700  0.06427400  1
  Ge  Ge13  1  0.69683800  0.93731300  0.43572600  1
  Ge  Ge14  1  0.80316200  0.93731300  0.93572600  1
  Ge  Ge15  1  0.30316200  0.06268700  0.56427400  1
  Ge  Ge16  1  0.91692400  0.43687600  0.23477200  1
  Ge  Ge17  1  0.41692400  0.56312400  0.26522800  1
  Ge  Ge18  1  0.08307600  0.56312400  0.76522800  1
  Ge  Ge19  1  0.58307600  0.43687600  0.73477200  1
  O  O20  1  0.08951600  0.99263000  0.19938700  1
  O  O21  1  0.58951600  0.00737000  0.30061300  1
  O  O22  1  0.91048400  0.00737000  0.80061300  1
  O  O23  1  0.41048400  0.99263000  0.69938700  1
  O  O24  1  0.07729300  0.50667600  0.19723500  1
  O  O25  1  0.57729300  0.49332400  0.30276500  1
  O  O26  1  0.92270700  0.49332400  0.80276500  1
  O  O27  1  0.42270700  0.50667600  0.69723500  1
  O  O28  1  0.36467100  0.05790200  0.12311800  1
  O  O29  1  0.86467100  0.94209800  0.37688200  1
  O  O30  1  0.63532900  0.94209800  0.87688200  1
  O  O31  1  0.13532900  0.05790200  0.62311800  1
  O  O32  1  0.36733900  0.44238200  0.12560600  1
  O  O33  1  0.86733900  0.55761800  0.37439400  1
  O  O34  1  0.63266100  0.55761800  0.87439400  1
  O  O35  1  0.13266100  0.44238200  0.62560600  1
  O  O36  1  0.19177300  0.93094000  0.92457100  1
  O  O37  1  0.69177300  0.06906000  0.57542900  1
  O  O38  1  0.80822700  0.06906000  0.07542900  1
  O  O39  1  0.30822700  0.93094000  0.42457100  1
  O  O40  1  0.19190400  0.56387100  0.91033700  1
  O  O41  1  0.69190400  0.43612900  0.58966300  1
  O  O42  1  0.80809600  0.43612900  0.08966300  1
  O  O43  1  0.30809600  0.56387100  0.41033700  1
  O  O44  1  0.14568900  0.24003200  0.00513700  1
  O  O45  1  0.64568900  0.75996800  0.49486300  1
  O  O46  1  0.85431100  0.75996800  0.99486300  1
  O  O47  1  0.35431100  0.24003200  0.50513700  1
  O  O48  1  0.91315800  0.25536400  0.31417000  1
  O  O49  1  0.41315800  0.74463600  0.18583000  1
  O  O50  1  0.08684200  0.74463600  0.68583000  1
  O  O51  1  0.58684200  0.25536400  0.81417000  1
