# generated using pymatgen
data_SrBiClO2
_symmetry_space_group_name_H-M   'P 1'
_cell_length_a   6.98754986
_cell_length_b   6.98754986
_cell_length_c   5.68054400
_cell_angle_alpha   90.00000000
_cell_angle_beta   90.00000000
_cell_angle_gamma   131.02014263
_symmetry_Int_Tables_number   1
_chemical_formula_structural   SrBiClO2
_chemical_formula_sum   'Sr2 Bi2 Cl2 O4'
_cell_volume   209.26030887
_cell_formula_units_Z   2
loop_
 _symmetry_equiv_pos_site_id
 _symmetry_equiv_pos_as_xyz
  1  'x, y, z'
loop_
 _atom_site_type_symbol
 _atom_site_label
 _atom_site_symmetry_multiplicity
 _atom_site_fract_x
 _atom_site_fract_y
 _atom_site_fract_z
 _atom_site_occupancy
  Sr  Sr0  1  0.89202200  0.10797800  0.75000000  1
  Sr  Sr1  1  0.10797800  0.89202200  0.25000000  1
  Bi  Bi2  1  0.41928800  0.58071200  0.25000000  1
  Bi  Bi3  1  0.58071200  0.41928800  0.75000000  1
  Cl  Cl4  1  0.75561500  0.24438500  0.25000000  1
  Cl  Cl5  1  0.24438500  0.75561500  0.75000000  1
  O  O6  1  0.73541900  0.73541900  0.00000000  1
  O  O7  1  0.73541900  0.73541900  0.50000000  1
  O  O8  1  0.26458100  0.26458100  0.50000000  1
  O  O9  1  0.26458100  0.26458100  0.00000000  1
