# generated using pymatgen
data_K2Cu(CO3)2
_symmetry_space_group_name_H-M   'P 1'
_cell_length_a   10.66693914
_cell_length_b   9.47593105
_cell_length_c   6.59620426
_cell_angle_alpha   81.01686218
_cell_angle_beta   61.33623515
_cell_angle_gamma   37.64690266
_symmetry_Int_Tables_number   1
_chemical_formula_structural   K2Cu(CO3)2
_chemical_formula_sum   'K4 Cu2 C4 O12'
_cell_volume   324.73104164
_cell_formula_units_Z   2
loop_
 _symmetry_equiv_pos_site_id
 _symmetry_equiv_pos_as_xyz
  1  'x, y, z'
loop_
 _atom_site_type_symbol
 _atom_site_label
 _atom_site_symmetry_multiplicity
 _atom_site_fract_x
 _atom_site_fract_y
 _atom_site_fract_z
 _atom_site_occupancy
  K  K0  1  0.57472900  0.02546000  0.58502800  1
  K  K1  1  0.81478300  0.58502800  0.02546000  1
  K  K2  1  0.66497200  0.43521700  0.67527100  1
  K  K3  1  0.22454000  0.67527100  0.43521700  1
  Cu  Cu4  1  0.00248000  0.99752000  0.99752000  1
  Cu  Cu5  1  0.25248000  0.24752000  0.24752000  1
  C  C6  1  0.15987500  0.58633100  0.00273800  1
  C  C7  1  0.25105600  0.00273800  0.58633100  1
  C  C8  1  0.24726200  0.99894400  0.09012500  1
  C  C9  1  0.66366900  0.09012500  0.99894400  1
  O  O10  1  0.99968500  0.80837700  0.16313800  1
  O  O11  1  0.02879900  0.16313800  0.80837700  1
  O  O12  1  0.08686200  0.22120100  0.25031500  1
  O  O13  1  0.44162300  0.25031500  0.22120100  1
  O  O14  1  0.11116000  0.48952800  0.08988500  1
  O  O15  1  0.30942600  0.08988500  0.48952800  1
  O  O16  1  0.16011500  0.94057400  0.13884000  1
  O  O17  1  0.76047200  0.13884000  0.94057400  1
  O  O18  1  0.34425800  0.47673800  0.77613600  1
  O  O19  1  0.40286800  0.77613600  0.47673800  1
  O  O20  1  0.47386400  0.84713200  0.90574200  1
  O  O21  1  0.77326200  0.90574200  0.84713200  1
