# generated using pymatgen
data_Ba5Al5Pb
_symmetry_space_group_name_H-M   'P 1'
_cell_length_a   6.11798934
_cell_length_b   6.11798934
_cell_length_c   11.22353600
_cell_angle_alpha   90.00000000
_cell_angle_beta   90.00000000
_cell_angle_gamma   119.99999288
_symmetry_Int_Tables_number   1
_chemical_formula_structural   Ba5Al5Pb
_chemical_formula_sum   'Ba5 Al5 Pb1'
_cell_volume   363.81265268
_cell_formula_units_Z   1
loop_
 _symmetry_equiv_pos_site_id
 _symmetry_equiv_pos_as_xyz
  1  'x, y, z'
loop_
 _atom_site_type_symbol
 _atom_site_label
 _atom_site_symmetry_multiplicity
 _atom_site_fract_x
 _atom_site_fract_y
 _atom_site_fract_z
 _atom_site_occupancy
  Ba  Ba0  1  0.66666700  0.33333300  0.20085400  1
  Ba  Ba1  1  0.66666700  0.33333300  0.79914600  1
  Ba  Ba2  1  0.00000000  0.00000000  0.32935800  1
  Ba  Ba3  1  0.00000000  0.00000000  0.67064200  1
  Ba  Ba4  1  0.33333300  0.66666700  0.00000000  1
  Al  Al5  1  0.33333300  0.66666700  0.32326100  1
  Al  Al6  1  0.51176300  0.02352600  0.50000000  1
  Al  Al7  1  0.51176300  0.48823700  0.50000000  1
  Al  Al8  1  0.33333300  0.66666700  0.67673900  1
  Al  Al9  1  0.97647400  0.48823700  0.50000000  1
  Pb  Pb10  1  0.00000000  0.00000000  0.00000000  1
