# generated using pymatgen
data_MoCl5
_symmetry_space_group_name_H-M   'P 1'
_cell_length_a   6.48817800
_cell_length_b   12.35762500
_cell_length_c   18.26761400
_cell_angle_alpha   90.00000000
_cell_angle_beta   90.00000000
_cell_angle_gamma   90.00000000
_symmetry_Int_Tables_number   1
_chemical_formula_structural   MoCl5
_chemical_formula_sum   'Mo8 Cl40'
_cell_volume   1464.66935308
_cell_formula_units_Z   8
loop_
 _symmetry_equiv_pos_site_id
 _symmetry_equiv_pos_as_xyz
  1  'x, y, z'
loop_
 _atom_site_type_symbol
 _atom_site_label
 _atom_site_symmetry_multiplicity
 _atom_site_fract_x
 _atom_site_fract_y
 _atom_site_fract_z
 _atom_site_occupancy
  Mo  Mo0  1  0.90989400  0.87548000  0.85654500  1
  Mo  Mo1  1  0.59010600  0.37548100  0.85654500  1
  Mo  Mo2  1  0.40989400  0.62452000  0.14345500  1
  Mo  Mo3  1  0.09010600  0.12452000  0.14345500  1
  Mo  Mo4  1  0.09010600  0.12452000  0.35654500  1
  Mo  Mo5  1  0.59010600  0.37548100  0.64345500  1
  Mo  Mo6  1  0.90989400  0.87548000  0.64345500  1
  Mo  Mo7  1  0.40989400  0.62452000  0.35654500  1
  Cl  Cl8  1  0.63411600  0.76212900  0.65552200  1
  Cl  Cl9  1  0.92559500  0.23275800  0.06172900  1
  Cl  Cl10  1  0.13411600  0.73787100  0.15552200  1
  Cl  Cl11  1  0.36588400  0.23787100  0.15552200  1
  Cl  Cl12  1  0.18400700  0.99014500  0.84401400  1
  Cl  Cl13  1  0.25249300  0.01640600  0.06096300  1
  Cl  Cl14  1  0.07440500  0.76724200  0.93827100  1
  Cl  Cl15  1  0.81599300  0.00985500  0.34401400  1
  Cl  Cl16  1  0.31599300  0.49014500  0.84401400  1
  Cl  Cl17  1  0.07440500  0.76724200  0.56172900  1
  Cl  Cl18  1  0.93465600  0.22882200  0.25000000  1
  Cl  Cl19  1  0.42559500  0.26724200  0.93827100  1
  Cl  Cl20  1  0.75365600  0.97922400  0.75000000  1
  Cl  Cl21  1  0.75249300  0.48359400  0.56096300  1
  Cl  Cl22  1  0.36588400  0.23787100  0.34447800  1
  Cl  Cl23  1  0.24634400  0.02077600  0.25000000  1
  Cl  Cl24  1  0.74634400  0.47922400  0.75000000  1
  Cl  Cl25  1  0.74750700  0.98359400  0.56096300  1
  Cl  Cl26  1  0.24750700  0.51640600  0.06096300  1
  Cl  Cl27  1  0.43465600  0.27117800  0.75000000  1
  Cl  Cl28  1  0.25365600  0.52077600  0.25000000  1
  Cl  Cl29  1  0.56534400  0.72882200  0.25000000  1
  Cl  Cl30  1  0.86588400  0.26212900  0.84447800  1
  Cl  Cl31  1  0.86588400  0.26212900  0.65552200  1
  Cl  Cl32  1  0.74750700  0.98359400  0.93903700  1
  Cl  Cl33  1  0.25249300  0.01640600  0.43903700  1
  Cl  Cl34  1  0.92559500  0.23275800  0.43827100  1
  Cl  Cl35  1  0.75249300  0.48359400  0.93903700  1
  Cl  Cl36  1  0.81599300  0.00985500  0.15598600  1
  Cl  Cl37  1  0.06534400  0.77117800  0.75000000  1
  Cl  Cl38  1  0.42559500  0.26724200  0.56172900  1
  Cl  Cl39  1  0.13411600  0.73787100  0.34447800  1
  Cl  Cl40  1  0.24750700  0.51640600  0.43903700  1
  Cl  Cl41  1  0.57440500  0.73275800  0.06172900  1
  Cl  Cl42  1  0.57440500  0.73275800  0.43827100  1
  Cl  Cl43  1  0.63411600  0.76212900  0.84447800  1
  Cl  Cl44  1  0.18400700  0.99014500  0.65598600  1
  Cl  Cl45  1  0.68400700  0.50985500  0.34401400  1
  Cl  Cl46  1  0.31599300  0.49014500  0.65598600  1
  Cl  Cl47  1  0.68400700  0.50985500  0.15598600  1
