# generated using pymatgen
data_RbBa4Sb3O
_symmetry_space_group_name_H-M   'P 1'
_cell_length_a   10.55673321
_cell_length_b   10.55673321
_cell_length_c   10.55673321
_cell_angle_alpha   129.12287568
_cell_angle_beta   129.12287568
_cell_angle_gamma   74.81294182
_symmetry_Int_Tables_number   1
_chemical_formula_structural   RbBa4Sb3O
_chemical_formula_sum   'Rb2 Ba8 Sb6 O2'
_cell_volume   689.71817981
_cell_formula_units_Z   2
loop_
 _symmetry_equiv_pos_site_id
 _symmetry_equiv_pos_as_xyz
  1  'x, y, z'
loop_
 _atom_site_type_symbol
 _atom_site_label
 _atom_site_symmetry_multiplicity
 _atom_site_fract_x
 _atom_site_fract_y
 _atom_site_fract_z
 _atom_site_occupancy
  Rb  Rb0  1  0.50000000  0.50000000  0.00000000  1
  Rb  Rb1  1  0.00000000  0.00000000  0.00000000  1
  Ba  Ba2  1  0.18876300  0.00246900  0.50000000  1
  Ba  Ba3  1  0.50246900  0.68876300  0.50000000  1
  Ba  Ba4  1  0.49753100  0.31123700  0.50000000  1
  Ba  Ba5  1  0.00246900  0.50246900  0.81370700  1
  Ba  Ba6  1  0.81123700  0.99753100  0.50000000  1
  Ba  Ba7  1  0.68876300  0.18876300  0.18629300  1
  Ba  Ba8  1  0.99753100  0.49753100  0.18629300  1
  Ba  Ba9  1  0.31123700  0.81123700  0.81370700  1
  Sb  Sb10  1  0.11361400  0.38638600  0.50000000  1
  Sb  Sb11  1  0.61361400  0.11361400  0.72722800  1
  Sb  Sb12  1  0.88638600  0.61361400  0.50000000  1
  Sb  Sb13  1  0.38638600  0.88638600  0.27277200  1
  Sb  Sb14  1  0.75000000  0.75000000  0.00000000  1
  Sb  Sb15  1  0.25000000  0.25000000  0.00000000  1
  O  O16  1  0.75000000  0.25000000  0.50000000  1
  O  O17  1  0.25000000  0.75000000  0.50000000  1
