# generated using pymatgen
data_Ca(B3O5)2
_symmetry_space_group_name_H-M   'P 1'
_cell_length_a   8.81962600
_cell_length_b   9.17810200
_cell_length_c   9.93922404
_cell_angle_alpha   63.11820734
_cell_angle_beta   90.00000000
_cell_angle_gamma   90.00000000
_symmetry_Int_Tables_number   1
_chemical_formula_structural   Ca(B3O5)2
_chemical_formula_sum   'Ca4 B24 O40'
_cell_volume   717.61545389
_cell_formula_units_Z   4
loop_
 _symmetry_equiv_pos_site_id
 _symmetry_equiv_pos_as_xyz
  1  'x, y, z'
loop_
 _atom_site_type_symbol
 _atom_site_label
 _atom_site_symmetry_multiplicity
 _atom_site_fract_x
 _atom_site_fract_y
 _atom_site_fract_z
 _atom_site_occupancy
  Ca  Ca0  1  0.11392800  0.96322000  0.77804400  1
  Ca  Ca1  1  0.38607200  0.46322000  0.77804400  1
  Ca  Ca2  1  0.88607200  0.03678000  0.22195600  1
  Ca  Ca3  1  0.61392800  0.53678000  0.22195600  1
  B  B4  1  0.26709300  0.12376500  0.07896700  1
  B  B5  1  0.76709300  0.37623500  0.92103300  1
  B  B6  1  0.22830600  0.55747300  0.50273000  1
  B  B7  1  0.02607400  0.26381400  0.91728500  1
  B  B8  1  0.11970900  0.77867600  0.55703000  1
  B  B9  1  0.44401200  0.24477200  0.32606700  1
  B  B10  1  0.97051200  0.56079600  0.78269900  1
  B  B11  1  0.72830600  0.94252700  0.49727000  1
  B  B12  1  0.52607400  0.23618600  0.08271500  1
  B  B13  1  0.27169400  0.05747300  0.50273000  1
  B  B14  1  0.23290700  0.62376500  0.07896700  1
  B  B15  1  0.97392600  0.73618600  0.08271500  1
  B  B16  1  0.94401200  0.25522800  0.67393300  1
  B  B17  1  0.73290700  0.87623500  0.92103300  1
  B  B18  1  0.88029100  0.22132400  0.44297000  1
  B  B19  1  0.55598800  0.75522800  0.67393300  1
  B  B20  1  0.47051200  0.93920400  0.21730100  1
  B  B21  1  0.61970900  0.72132400  0.44297000  1
  B  B22  1  0.47392600  0.76381400  0.91728500  1
  B  B23  1  0.38029100  0.27867600  0.55703000  1
  B  B24  1  0.02948800  0.43920400  0.21730100  1
  B  B25  1  0.77169400  0.44252700  0.49727000  1
  B  B26  1  0.52948800  0.06079600  0.78269900  1
  B  B27  1  0.05598800  0.74477200  0.32606700  1
  O  O28  1  0.97022600  0.80105800  0.19687600  1
  O  O29  1  0.31128100  0.41775000  0.57004400  1
  O  O30  1  0.02977400  0.19894200  0.80312400  1
  O  O31  1  0.63076100  0.74850300  0.97924800  1
  O  O32  1  0.38466300  0.64970300  0.04749900  1
  O  O33  1  0.86038400  0.39832400  0.62461200  1
  O  O34  1  0.31924700  0.96766600  0.16888900  1
  O  O35  1  0.13076100  0.75149700  0.02075200  1
  O  O36  1  0.18075300  0.46766600  0.16888900  1
  O  O37  1  0.50648500  0.78317500  0.31974100  1
  O  O38  1  0.11533700  0.14970300  0.04749900  1
  O  O39  1  0.81924700  0.53233400  0.83111100  1
  O  O40  1  0.81128100  0.08225000  0.42995600  1
  O  O41  1  0.04927900  0.83410100  0.40573800  1
  O  O42  1  0.68075300  0.03233400  0.83111100  1
  O  O43  1  0.73053000  0.84919000  0.42109300  1
  O  O44  1  0.26947000  0.15081000  0.57890700  1
  O  O45  1  0.18871900  0.91775000  0.57004400  1
  O  O46  1  0.86923900  0.24850300  0.97924800  1
  O  O47  1  0.52977400  0.30105800  0.19687600  1
  O  O48  1  0.47022600  0.69894200  0.80312400  1
  O  O49  1  0.57705600  0.06461500  0.15516300  1
  O  O50  1  0.23053000  0.65081000  0.57890700  1
  O  O51  1  0.54927900  0.66589900  0.59426200  1
  O  O52  1  0.42294400  0.93538500  0.84483700  1
  O  O53  1  0.36923900  0.25149700  0.02075200  1
  O  O54  1  0.61533700  0.35029700  0.95250100  1
  O  O55  1  0.13961600  0.60167600  0.37538800  1
  O  O56  1  0.63961600  0.89832400  0.62461200  1
  O  O57  1  0.88466300  0.85029700  0.95250100  1
  O  O58  1  0.07705600  0.43538500  0.84483700  1
  O  O59  1  0.76947000  0.34919000  0.42109300  1
  O  O60  1  0.49351500  0.21682500  0.68025900  1
  O  O61  1  0.36038400  0.10167600  0.37538800  1
  O  O62  1  0.92294400  0.56461500  0.15516300  1
  O  O63  1  0.68871900  0.58225000  0.42995600  1
  O  O64  1  0.95072100  0.16589900  0.59426200  1
  O  O65  1  0.00648500  0.71682500  0.68025900  1
  O  O66  1  0.99351500  0.28317500  0.31974100  1
  O  O67  1  0.45072100  0.33410100  0.40573800  1
