# generated using pymatgen
data_Ti4MnBi2
_symmetry_space_group_name_H-M   'P 1'
_cell_length_a   7.86181878
_cell_length_b   7.86181878
_cell_length_c   7.86181878
_cell_angle_alpha   95.74430724
_cell_angle_beta   95.74430724
_cell_angle_gamma   143.11306909
_symmetry_Int_Tables_number   1
_chemical_formula_structural   Ti4MnBi2
_chemical_formula_sum   'Ti8 Mn2 Bi4'
_cell_volume   276.68917053
_cell_formula_units_Z   2
loop_
 _symmetry_equiv_pos_site_id
 _symmetry_equiv_pos_as_xyz
  1  'x, y, z'
loop_
 _atom_site_type_symbol
 _atom_site_label
 _atom_site_symmetry_multiplicity
 _atom_site_fract_x
 _atom_site_fract_y
 _atom_site_fract_z
 _atom_site_occupancy
  Ti  Ti0  1  0.69229000  0.58037700  0.27266700  1
  Ti  Ti1  1  0.30771000  0.41962300  0.72733300  1
  Ti  Ti2  1  0.58037700  0.30771000  0.88808700  1
  Ti  Ti3  1  0.08037700  0.19229000  0.27266700  1
  Ti  Ti4  1  0.80771000  0.08037700  0.88808700  1
  Ti  Ti5  1  0.41962300  0.69229000  0.11191300  1
  Ti  Ti6  1  0.91962300  0.80771000  0.72733300  1
  Ti  Ti7  1  0.19229000  0.91962300  0.11191300  1
  Mn  Mn8  1  0.25000000  0.25000000  0.00000000  1
  Mn  Mn9  1  0.75000000  0.75000000  0.00000000  1
  Bi  Bi10  1  0.13860000  0.63860000  0.77720100  1
  Bi  Bi11  1  0.36140000  0.13860000  0.50000000  1
  Bi  Bi12  1  0.86140000  0.36140000  0.22279900  1
  Bi  Bi13  1  0.63860000  0.86140000  0.50000000  1
