# generated using pymatgen
data_Er2Ni12As7
_symmetry_space_group_name_H-M   'P 1'
_cell_length_a   9.33925964
_cell_length_b   9.33925964
_cell_length_c   3.81687000
_cell_angle_alpha   90.00000000
_cell_angle_beta   90.00000000
_cell_angle_gamma   119.99999747
_symmetry_Int_Tables_number   1
_chemical_formula_structural   Er2Ni12As7
_chemical_formula_sum   'Er2 Ni12 As7'
_cell_volume   288.31212705
_cell_formula_units_Z   1
loop_
 _symmetry_equiv_pos_site_id
 _symmetry_equiv_pos_as_xyz
  1  'x, y, z'
loop_
 _atom_site_type_symbol
 _atom_site_label
 _atom_site_symmetry_multiplicity
 _atom_site_fract_x
 _atom_site_fract_y
 _atom_site_fract_z
 _atom_site_occupancy
  Er  Er0  1  0.66666700  0.33333300  0.50000000  1
  Er  Er1  1  0.33333300  0.66666700  0.00000000  1
  Ni  Ni2  1  0.43799500  0.05594600  0.00000000  1
  Ni  Ni3  1  0.61795100  0.56200500  0.00000000  1
  Ni  Ni4  1  0.94405400  0.38204900  0.00000000  1
  Ni  Ni5  1  0.15312400  0.28038600  0.00000000  1
  Ni  Ni6  1  0.12726100  0.84687600  0.00000000  1
  Ni  Ni7  1  0.71961400  0.87273900  0.00000000  1
  Ni  Ni8  1  0.37925500  0.42668000  0.50000000  1
  Ni  Ni9  1  0.04742500  0.62074500  0.50000000  1
  Ni  Ni10  1  0.57332000  0.95257500  0.50000000  1
  Ni  Ni11  1  0.21178600  0.09563300  0.50000000  1
  Ni  Ni12  1  0.88384700  0.78821400  0.50000000  1
  Ni  Ni13  1  0.90436700  0.11615300  0.50000000  1
  As  As14  1  0.00000000  0.00000000  0.00000000  1
  As  As15  1  0.40520200  0.28631600  0.00000000  1
  As  As16  1  0.88111400  0.59479800  0.00000000  1
  As  As17  1  0.71368400  0.11888600  0.00000000  1
  As  As18  1  0.11136400  0.40776600  0.50000000  1
  As  As19  1  0.29640200  0.88863600  0.50000000  1
  As  As20  1  0.59223400  0.70359800  0.50000000  1
