# generated using pymatgen
data_K3Co2F7
_symmetry_space_group_name_H-M   'P 1'
_cell_length_a   11.35779091
_cell_length_b   11.35779091
_cell_length_c   11.35779091
_cell_angle_alpha   159.33933324
_cell_angle_beta   159.33933324
_cell_angle_gamma   29.38142219
_symmetry_Int_Tables_number   1
_chemical_formula_structural   K3Co2F7
_chemical_formula_sum   'K3 Co2 F7'
_cell_volume   182.29683663
_cell_formula_units_Z   1
loop_
 _symmetry_equiv_pos_site_id
 _symmetry_equiv_pos_as_xyz
  1  'x, y, z'
loop_
 _atom_site_type_symbol
 _atom_site_label
 _atom_site_symmetry_multiplicity
 _atom_site_fract_x
 _atom_site_fract_y
 _atom_site_fract_z
 _atom_site_occupancy
  K  K0  1  0.68640500  0.68640500  0.00000000  1
  K  K1  1  0.50000000  0.50000000  0.00000000  1
  K  K2  1  0.31359500  0.31359500  0.00000000  1
  Co  Co3  1  0.09642500  0.09642500  0.00000000  1
  Co  Co4  1  0.90357500  0.90357500  0.00000000  1
  F  F5  1  0.09519300  0.59519300  0.50000000  1
  F  F6  1  0.80790100  0.80790100  0.00000000  1
  F  F7  1  0.40480700  0.90480700  0.50000000  1
  F  F8  1  0.90480700  0.40480700  0.50000000  1
  F  F9  1  0.00000000  0.00000000  0.00000000  1
  F  F10  1  0.19209900  0.19209900  0.00000000  1
  F  F11  1  0.59519300  0.09519300  0.50000000  1
