# generated using pymatgen
data_V(SeO3)2
_symmetry_space_group_name_H-M   'P 1'
_cell_length_a   11.53507100
_cell_length_b   11.53507100
_cell_length_c   7.92537900
_cell_angle_alpha   90.00000000
_cell_angle_beta   90.00000000
_cell_angle_gamma   90.00000000
_symmetry_Int_Tables_number   1
_chemical_formula_structural   V(SeO3)2
_chemical_formula_sum   'V8 Se16 O48'
_cell_volume   1054.53399301
_cell_formula_units_Z   8
loop_
 _symmetry_equiv_pos_site_id
 _symmetry_equiv_pos_as_xyz
  1  'x, y, z'
loop_
 _atom_site_type_symbol
 _atom_site_label
 _atom_site_symmetry_multiplicity
 _atom_site_fract_x
 _atom_site_fract_y
 _atom_site_fract_z
 _atom_site_occupancy
  V  V0  1  0.00000000  0.50000000  0.09953500  1
  V  V1  1  0.50000000  0.50000000  0.43308300  1
  V  V2  1  0.00000000  0.00000000  0.66409200  1
  V  V3  1  0.50000000  0.50000000  0.93308300  1
  V  V4  1  0.00000000  0.00000000  0.16409200  1
  V  V5  1  0.50000000  0.00000000  0.59953500  1
  V  V6  1  0.00000000  0.50000000  0.59953500  1
  V  V7  1  0.50000000  0.00000000  0.09953500  1
  Se  Se8  1  0.63111300  0.71844300  0.60733500  1
  Se  Se9  1  0.10334000  0.24108200  0.49858700  1
  Se  Se10  1  0.89666000  0.75891800  0.49858700  1
  Se  Se11  1  0.75891800  0.10334000  0.49858700  1
  Se  Se12  1  0.89666000  0.24108200  0.99858700  1
  Se  Se13  1  0.71844300  0.36888700  0.60733500  1
  Se  Se14  1  0.28155700  0.63111300  0.60733500  1
  Se  Se15  1  0.75891800  0.89666000  0.99858700  1
  Se  Se16  1  0.28155700  0.36888700  0.10733500  1
  Se  Se17  1  0.71844300  0.63111300  0.10733500  1
  Se  Se18  1  0.63111300  0.28155700  0.10733500  1
  Se  Se19  1  0.36888700  0.71844300  0.10733500  1
  Se  Se20  1  0.24108200  0.10334000  0.99858700  1
  Se  Se21  1  0.10334000  0.75891800  0.99858700  1
  Se  Se22  1  0.36888700  0.28155700  0.60733500  1
  Se  Se23  1  0.24108200  0.89666000  0.49858700  1
  O  O24  1  0.25587800  0.25610000  0.44024900  1
  O  O25  1  0.50000000  0.50000000  0.21974900  1
  O  O26  1  0.67120300  0.47505700  0.47061300  1
  O  O27  1  0.00000000  0.00000000  0.37673700  1
  O  O28  1  0.12208600  0.87810000  0.62725400  1
  O  O29  1  0.00000000  0.50000000  0.39020600  1
  O  O30  1  0.32879700  0.47505700  0.97061300  1
  O  O31  1  0.59265100  0.85512300  0.65149800  1
  O  O32  1  0.34989400  0.91078000  0.64210200  1
  O  O33  1  0.67120300  0.52494300  0.97061300  1
  O  O34  1  0.25610000  0.25587800  0.94024900  1
  O  O35  1  0.91078000  0.34989400  0.14210200  1
  O  O36  1  0.74390000  0.74412200  0.94024900  1
  O  O37  1  0.47505700  0.32879700  0.47061300  1
  O  O38  1  0.50000000  0.00000000  0.89020600  1
  O  O39  1  0.34989400  0.08922000  0.14210200  1
  O  O40  1  0.08922000  0.34989400  0.64210200  1
  O  O41  1  0.87791400  0.12190000  0.62725400  1
  O  O42  1  0.85512300  0.40734900  0.65149800  1
  O  O43  1  0.12190000  0.12208600  0.62725400  1
  O  O44  1  0.40734900  0.85512300  0.15149800  1
  O  O45  1  0.87810000  0.12208600  0.12725400  1
  O  O46  1  0.52494300  0.67120300  0.47061300  1
  O  O47  1  0.87791400  0.87810000  0.12725400  1
  O  O48  1  0.74412200  0.74390000  0.44024900  1
  O  O49  1  0.50000000  0.50000000  0.71974900  1
  O  O50  1  0.74390000  0.25587800  0.44024900  1
  O  O51  1  0.91078000  0.65010600  0.64210200  1
  O  O52  1  0.87810000  0.87791400  0.62725400  1
  O  O53  1  0.74412200  0.25610000  0.94024900  1
  O  O54  1  0.59265100  0.14487700  0.15149800  1
  O  O55  1  0.00000000  0.00000000  0.87673700  1
  O  O56  1  0.65010600  0.08922000  0.64210200  1
  O  O57  1  0.00000000  0.50000000  0.89020600  1
  O  O58  1  0.32879700  0.52494300  0.47061300  1
  O  O59  1  0.12190000  0.87791400  0.12725400  1
  O  O60  1  0.47505700  0.67120300  0.97061300  1
  O  O61  1  0.40734900  0.14487700  0.65149800  1
  O  O62  1  0.25610000  0.74412200  0.44024900  1
  O  O63  1  0.12208600  0.12190000  0.12725400  1
  O  O64  1  0.85512300  0.59265100  0.15149800  1
  O  O65  1  0.65010600  0.91078000  0.14210200  1
  O  O66  1  0.08922000  0.65010600  0.14210200  1
  O  O67  1  0.50000000  0.00000000  0.39020600  1
  O  O68  1  0.52494300  0.32879700  0.97061300  1
  O  O69  1  0.14487700  0.59265100  0.65149800  1
  O  O70  1  0.14487700  0.40734900  0.15149800  1
  O  O71  1  0.25587800  0.74390000  0.94024900  1
