# generated using pymatgen
data_Sr9Zn4(CuO7)2
_symmetry_space_group_name_H-M   'P 1'
_cell_length_a   11.34001112
_cell_length_b   11.34001112
_cell_length_c   11.43249847
_cell_angle_alpha   81.51830859
_cell_angle_beta   81.51830859
_cell_angle_gamma   18.51500443
_symmetry_Int_Tables_number   1
_chemical_formula_structural   Sr9Zn4(CuO7)2
_chemical_formula_sum   'Sr9 Zn4 Cu2 O14'
_cell_volume   461.61505463
_cell_formula_units_Z   1
loop_
 _symmetry_equiv_pos_site_id
 _symmetry_equiv_pos_as_xyz
  1  'x, y, z'
loop_
 _atom_site_type_symbol
 _atom_site_label
 _atom_site_symmetry_multiplicity
 _atom_site_fract_x
 _atom_site_fract_y
 _atom_site_fract_z
 _atom_site_occupancy
  Sr  Sr0  1  0.69355000  0.69355000  0.42980100  1
  Sr  Sr1  1  0.68724900  0.68724900  0.10220500  1
  Sr  Sr2  1  0.68647100  0.68647100  0.77485300  1
  Sr  Sr3  1  0.31352900  0.31352900  0.22514700  1
  Sr  Sr4  1  0.50946700  0.50946700  0.19242300  1
  Sr  Sr5  1  0.50000000  0.50000000  0.50000000  1
  Sr  Sr6  1  0.30645000  0.30645000  0.57019900  1
  Sr  Sr7  1  0.49053300  0.49053300  0.80757700  1
  Sr  Sr8  1  0.31275100  0.31275100  0.89779500  1
  Zn  Zn9  1  0.88966300  0.88966300  0.70268400  1
  Zn  Zn10  1  0.89746800  0.89746800  0.03898200  1
  Zn  Zn11  1  0.10253200  0.10253200  0.96101800  1
  Zn  Zn12  1  0.11033700  0.11033700  0.29731600  1
  Cu  Cu13  1  0.10647200  0.10647200  0.62404700  1
  Cu  Cu14  1  0.89352800  0.89352800  0.37595300  1
  O  O15  1  0.20303300  0.20303300  0.26889600  1
  O  O16  1  0.80282800  0.80282800  0.07008200  1
  O  O17  1  0.97515800  0.97515800  0.35027200  1
  O  O18  1  0.08803200  0.08803200  0.13553800  1
  O  O19  1  0.80954300  0.80954300  0.40148600  1
  O  O20  1  0.59377000  0.59377000  0.35935500  1
  O  O21  1  0.19717200  0.19717200  0.92991800  1
  O  O22  1  0.79696700  0.79696700  0.73110400  1
  O  O23  1  0.41899500  0.41899500  0.09403100  1
  O  O24  1  0.19045700  0.19045700  0.59851400  1
  O  O25  1  0.02484200  0.02484200  0.64972800  1
  O  O26  1  0.58100500  0.58100500  0.90596900  1
  O  O27  1  0.91196800  0.91196800  0.86446200  1
  O  O28  1  0.40623000  0.40623000  0.64064500  1
