# generated using pymatgen
data_Rb2Na2IrO4
_symmetry_space_group_name_H-M   'P 1'
_cell_length_a   11.25611900
_cell_length_b   6.31147600
_cell_length_c   9.90217732
_cell_angle_alpha   65.08439739
_cell_angle_beta   90.00000000
_cell_angle_gamma   90.00000000
_symmetry_Int_Tables_number   1
_chemical_formula_structural   Rb2Na2IrO4
_chemical_formula_sum   'Rb8 Na8 Ir4 O16'
_cell_volume   638.00451936
_cell_formula_units_Z   4
loop_
 _symmetry_equiv_pos_site_id
 _symmetry_equiv_pos_as_xyz
  1  'x, y, z'
loop_
 _atom_site_type_symbol
 _atom_site_label
 _atom_site_symmetry_multiplicity
 _atom_site_fract_x
 _atom_site_fract_y
 _atom_site_fract_z
 _atom_site_occupancy
  Rb  Rb0  1  0.86676600  0.34219600  0.77798100  1
  Rb  Rb1  1  0.13538900  0.32504900  0.00357800  1
  Rb  Rb2  1  0.63538900  0.67495100  0.49642200  1
  Rb  Rb3  1  0.36461100  0.32504900  0.50357800  1
  Rb  Rb4  1  0.36676600  0.65780400  0.72201900  1
  Rb  Rb5  1  0.13323400  0.65780400  0.22201900  1
  Rb  Rb6  1  0.63323400  0.34219600  0.27798100  1
  Rb  Rb7  1  0.86461100  0.67495100  0.99642200  1
  Na  Na8  1  0.61148500  0.93703500  0.09442500  1
  Na  Na9  1  0.60887800  0.43571800  0.90982400  1
  Na  Na10  1  0.89112200  0.43571800  0.40982400  1
  Na  Na11  1  0.88851500  0.93703500  0.59442500  1
  Na  Na12  1  0.10887800  0.56428200  0.59017600  1
  Na  Na13  1  0.11148500  0.06296500  0.40557500  1
  Na  Na14  1  0.39112200  0.56428200  0.09017600  1
  Na  Na15  1  0.38851500  0.06296500  0.90557500  1
  Ir  Ir16  1  0.86743400  0.00971800  0.23656600  1
  Ir  Ir17  1  0.63256600  0.00971800  0.73656600  1
  Ir  Ir18  1  0.36743400  0.99028200  0.26343400  1
  Ir  Ir19  1  0.13256600  0.99028200  0.76343400  1
  O  O20  1  0.95783000  0.79527900  0.40826800  1
  O  O21  1  0.45526700  0.72897900  0.25978600  1
  O  O22  1  0.27780100  0.25425600  0.26051600  1
  O  O23  1  0.72934700  0.21501100  0.57169000  1
  O  O24  1  0.27065300  0.78498900  0.42831000  1
  O  O25  1  0.54217000  0.79527900  0.90826800  1
  O  O26  1  0.77780100  0.74574400  0.23948400  1
  O  O27  1  0.77065300  0.21501100  0.07169000  1
  O  O28  1  0.95526700  0.27102100  0.24021400  1
  O  O29  1  0.22934700  0.78498900  0.92831000  1
  O  O30  1  0.04217000  0.20472100  0.59173200  1
  O  O31  1  0.22219900  0.25425600  0.76051600  1
  O  O32  1  0.54473300  0.27102100  0.74021400  1
  O  O33  1  0.04473300  0.72897900  0.75978600  1
  O  O34  1  0.72219900  0.74574400  0.73948400  1
  O  O35  1  0.45783000  0.20472100  0.09173200  1
