# generated using pymatgen
data_K3InCl6
_symmetry_space_group_name_H-M   'P 1'
_cell_length_a   7.74913300
_cell_length_b   12.58926000
_cell_length_c   12.99737621
_cell_angle_alpha   71.08553425
_cell_angle_beta   90.00000000
_cell_angle_gamma   90.00000000
_symmetry_Int_Tables_number   1
_chemical_formula_structural   K3InCl6
_chemical_formula_sum   'K12 In4 Cl24'
_cell_volume   1199.50419862
_cell_formula_units_Z   4
loop_
 _symmetry_equiv_pos_site_id
 _symmetry_equiv_pos_as_xyz
  1  'x, y, z'
loop_
 _atom_site_type_symbol
 _atom_site_label
 _atom_site_symmetry_multiplicity
 _atom_site_fract_x
 _atom_site_fract_y
 _atom_site_fract_z
 _atom_site_occupancy
  K  K0  1  0.06767700  0.61148500  0.67904400  1
  K  K1  1  0.97760300  0.13844400  0.09981100  1
  K  K2  1  0.43820700  0.23632200  0.31577800  1
  K  K3  1  0.02239700  0.86155600  0.90018900  1
  K  K4  1  0.43232300  0.11148500  0.67904400  1
  K  K5  1  0.56179300  0.76367800  0.68422200  1
  K  K6  1  0.47760300  0.36155600  0.90018900  1
  K  K7  1  0.56767700  0.88851500  0.32095600  1
  K  K8  1  0.06179300  0.73632200  0.31577800  1
  K  K9  1  0.52239700  0.63844400  0.09981100  1
  K  K10  1  0.93232300  0.38851500  0.32095600  1
  K  K11  1  0.93820700  0.26367800  0.68422200  1
  In  In12  1  0.00000000  0.50000000  0.00000000  1
  In  In13  1  0.00000000  0.00000000  0.50000000  1
  In  In14  1  0.50000000  0.50000000  0.50000000  1
  In  In15  1  0.50000000  0.00000000  0.00000000  1
  Cl  Cl16  1  0.29492100  0.49601600  0.34947500  1
  Cl  Cl17  1  0.98948400  0.37326800  0.88517500  1
  Cl  Cl18  1  0.71873200  0.40889700  0.10146800  1
  Cl  Cl19  1  0.13634600  0.18774700  0.49963700  1
  Cl  Cl20  1  0.29009000  0.39485900  0.65204000  1
  Cl  Cl21  1  0.79009000  0.10514100  0.34796000  1
  Cl  Cl22  1  0.82228600  0.65068600  0.86312800  1
  Cl  Cl23  1  0.01051600  0.62673200  0.11482500  1
  Cl  Cl24  1  0.79492100  0.00398400  0.65052500  1
  Cl  Cl25  1  0.17771400  0.34931400  0.13687200  1
  Cl  Cl26  1  0.86365400  0.81225300  0.50036300  1
  Cl  Cl27  1  0.36365400  0.68774700  0.49963700  1
  Cl  Cl28  1  0.51051600  0.87326800  0.88517500  1
  Cl  Cl29  1  0.48948400  0.12673200  0.11482500  1
  Cl  Cl30  1  0.32228600  0.84931400  0.13687200  1
  Cl  Cl31  1  0.78126800  0.90889700  0.10146800  1
  Cl  Cl32  1  0.20507900  0.99601600  0.34947500  1
  Cl  Cl33  1  0.20991000  0.89485900  0.65204000  1
  Cl  Cl34  1  0.28126800  0.59110300  0.89853200  1
  Cl  Cl35  1  0.70507900  0.50398400  0.65052500  1
  Cl  Cl36  1  0.67771400  0.15068600  0.86312800  1
  Cl  Cl37  1  0.21873200  0.09110300  0.89853200  1
  Cl  Cl38  1  0.63634600  0.31225300  0.50036300  1
  Cl  Cl39  1  0.70991000  0.60514100  0.34796000  1
