# generated using pymatgen
data_Nb3Se4
_symmetry_space_group_name_H-M   'P 1'
_cell_length_a   10.17381008
_cell_length_b   10.17381008
_cell_length_c   3.48323900
_cell_angle_alpha   90.00000000
_cell_angle_beta   90.00000000
_cell_angle_gamma   120.00000049
_symmetry_Int_Tables_number   1
_chemical_formula_structural   Nb3Se4
_chemical_formula_sum   'Nb6 Se8'
_cell_volume   312.23469232
_cell_formula_units_Z   2
loop_
 _symmetry_equiv_pos_site_id
 _symmetry_equiv_pos_as_xyz
  1  'x, y, z'
loop_
 _atom_site_type_symbol
 _atom_site_label
 _atom_site_symmetry_multiplicity
 _atom_site_fract_x
 _atom_site_fract_y
 _atom_site_fract_z
 _atom_site_occupancy
  Nb  Nb0  1  0.51265600  0.89234900  0.75000000  1
  Nb  Nb1  1  0.62030700  0.51265600  0.25000000  1
  Nb  Nb2  1  0.89234900  0.37969300  0.25000000  1
  Nb  Nb3  1  0.10765100  0.62030700  0.75000000  1
  Nb  Nb4  1  0.37969300  0.48734400  0.75000000  1
  Nb  Nb5  1  0.48734400  0.10765100  0.25000000  1
  Se  Se6  1  0.65784700  0.71938300  0.75000000  1
  Se  Se7  1  0.93846500  0.65784700  0.25000000  1
  Se  Se8  1  0.71938300  0.06153500  0.25000000  1
  Se  Se9  1  0.28061700  0.93846500  0.75000000  1
  Se  Se10  1  0.06153500  0.34215300  0.75000000  1
  Se  Se11  1  0.34215300  0.28061700  0.25000000  1
  Se  Se12  1  0.66666700  0.33333300  0.75000000  1
  Se  Se13  1  0.33333300  0.66666700  0.25000000  1
