# generated using pymatgen
data_AsS(ClF2)3
_symmetry_space_group_name_H-M   'P 1'
_cell_length_a   8.07603200
_cell_length_b   8.93232400
_cell_length_c   12.26879800
_cell_angle_alpha   90.00000000
_cell_angle_beta   90.00000000
_cell_angle_gamma   90.00000000
_symmetry_Int_Tables_number   1
_chemical_formula_structural   AsS(ClF2)3
_chemical_formula_sum   'As4 S4 Cl12 F24'
_cell_volume   885.04329225
_cell_formula_units_Z   4
loop_
 _symmetry_equiv_pos_site_id
 _symmetry_equiv_pos_as_xyz
  1  'x, y, z'
loop_
 _atom_site_type_symbol
 _atom_site_label
 _atom_site_symmetry_multiplicity
 _atom_site_fract_x
 _atom_site_fract_y
 _atom_site_fract_z
 _atom_site_occupancy
  As  As0  1  0.29408500  0.53083900  0.68728400  1
  As  As1  1  0.70591500  0.03083900  0.81271600  1
  As  As2  1  0.79408500  0.96916100  0.31271600  1
  As  As3  1  0.20591500  0.46916100  0.18728400  1
  S  S4  1  0.15932400  0.02527300  0.02492900  1
  S  S5  1  0.34067600  0.97472700  0.52492900  1
  S  S6  1  0.84067600  0.52527300  0.47507100  1
  S  S7  1  0.65932400  0.47472700  0.97507100  1
  Cl  Cl8  1  0.16538400  0.83156800  0.94473800  1
  Cl  Cl9  1  0.83461600  0.33156800  0.55526200  1
  Cl  Cl10  1  0.14188000  0.99018400  0.62116300  1
  Cl  Cl11  1  0.35812000  0.00981600  0.12116300  1
  Cl  Cl12  1  0.77809300  0.67298800  0.58882700  1
  Cl  Cl13  1  0.72190700  0.32701200  0.08882700  1
  Cl  Cl14  1  0.64188000  0.50981600  0.37883700  1
  Cl  Cl15  1  0.27809300  0.82701200  0.41117300  1
  Cl  Cl16  1  0.66538400  0.66843200  0.05526200  1
  Cl  Cl17  1  0.85812000  0.49018400  0.87883700  1
  Cl  Cl18  1  0.33461600  0.16843200  0.44473800  1
  Cl  Cl19  1  0.22190700  0.17298800  0.91117300  1
  F  F20  1  0.18152000  0.52851500  0.56235300  1
  F  F21  1  0.79630200  0.85660000  0.77558300  1
  F  F22  1  0.20369800  0.35660000  0.72441700  1
  F  F23  1  0.31848000  0.47148500  0.06235300  1
  F  F24  1  0.53969300  0.93611000  0.87589700  1
  F  F25  1  0.12457500  0.62604200  0.74980700  1
  F  F26  1  0.62457500  0.87395800  0.25019300  1
  F  F27  1  0.37542500  0.37395800  0.24980700  1
  F  F28  1  0.88316600  0.79381100  0.34991300  1
  F  F29  1  0.59723900  0.03711000  0.68732300  1
  F  F30  1  0.38316600  0.70618900  0.65008700  1
  F  F31  1  0.81848000  0.02851500  0.93764700  1
  F  F32  1  0.09723900  0.46289000  0.31267700  1
  F  F33  1  0.70369800  0.14340000  0.27558300  1
  F  F34  1  0.87542500  0.12604200  0.75019300  1
  F  F35  1  0.90276100  0.96289000  0.18732300  1
  F  F36  1  0.40276100  0.53711000  0.81267700  1
  F  F37  1  0.61683400  0.20618900  0.84991300  1
  F  F38  1  0.46030700  0.43611000  0.62410300  1
  F  F39  1  0.29630200  0.64340000  0.22441700  1
  F  F40  1  0.68152000  0.97148500  0.43764700  1
  F  F41  1  0.03969300  0.56389000  0.12410300  1
  F  F42  1  0.96030700  0.06389000  0.37589700  1
  F  F43  1  0.11683400  0.29381100  0.15008700  1
