# generated using pymatgen
data_UAg2(SeO4)2
_symmetry_space_group_name_H-M   'P 1'
_cell_length_a   6.63315700
_cell_length_b   5.99861100
_cell_length_c   21.68985918
_cell_angle_alpha   80.49377908
_cell_angle_beta   90.00000000
_cell_angle_gamma   90.00000000
_symmetry_Int_Tables_number   1
_chemical_formula_structural   UAg2(SeO4)2
_chemical_formula_sum   'U4 Ag8 Se8 O32'
_cell_volume   851.18215156
_cell_formula_units_Z   4
loop_
 _symmetry_equiv_pos_site_id
 _symmetry_equiv_pos_as_xyz
  1  'x, y, z'
loop_
 _atom_site_type_symbol
 _atom_site_label
 _atom_site_symmetry_multiplicity
 _atom_site_fract_x
 _atom_site_fract_y
 _atom_site_fract_z
 _atom_site_occupancy
  U  U0  1  0.58937200  0.27775400  0.14517100  1
  U  U1  1  0.08937200  0.72224600  0.35482900  1
  U  U2  1  0.41062800  0.72224600  0.85482900  1
  U  U3  1  0.91062800  0.27775400  0.64517100  1
  Ag  Ag4  1  0.59638400  0.26939900  0.33950800  1
  Ag  Ag5  1  0.09638400  0.73060100  0.16049200  1
  Ag  Ag6  1  0.60406400  0.76145000  0.45847900  1
  Ag  Ag7  1  0.10406400  0.23855000  0.04152100  1
  Ag  Ag8  1  0.39593600  0.23855000  0.54152100  1
  Ag  Ag9  1  0.40361600  0.73060100  0.66049200  1
  Ag  Ag10  1  0.89593600  0.76145000  0.95847900  1
  Ag  Ag11  1  0.90361600  0.26939900  0.83950800  1
  Se  Se12  1  0.56148600  0.80431100  0.27511000  1
  Se  Se13  1  0.15521300  0.73777700  0.52379500  1
  Se  Se14  1  0.43851400  0.19568900  0.72489000  1
  Se  Se15  1  0.65521300  0.26222300  0.97620500  1
  Se  Se16  1  0.84478700  0.26222300  0.47620500  1
  Se  Se17  1  0.06148600  0.19568900  0.22489000  1
  Se  Se18  1  0.93851400  0.80431100  0.77511000  1
  Se  Se19  1  0.34478700  0.73777700  0.02379500  1
  O  O20  1  0.74837300  0.33285800  0.54506900  1
  O  O21  1  0.80868300  0.54024900  0.66442100  1
  O  O22  1  0.64020500  0.08626700  0.25087400  1
  O  O23  1  0.63968500  0.53285400  0.93226200  1
  O  O24  1  0.30868300  0.45975100  0.83557900  1
  O  O25  1  0.72132400  0.66220800  0.80351500  1
  O  O26  1  0.55846400  0.15126000  0.65677800  1
  O  O27  1  0.05846400  0.84874000  0.84322200  1
  O  O28  1  0.62348500  0.16692600  0.44807600  1
  O  O29  1  0.49233200  0.01217500  0.12700800  1
  O  O30  1  0.99233200  0.98782500  0.37299200  1
  O  O31  1  0.50766800  0.98782500  0.87299200  1
  O  O32  1  0.75162700  0.33285800  0.04506900  1
  O  O33  1  0.87651500  0.16692600  0.94807600  1
  O  O34  1  0.36031500  0.46714600  0.06773800  1
  O  O35  1  0.27867600  0.33779200  0.19648500  1
  O  O36  1  0.22132400  0.33779200  0.69648500  1
  O  O37  1  0.44153600  0.84874000  0.34322200  1
  O  O38  1  0.24837300  0.66714200  0.95493100  1
  O  O39  1  0.69131700  0.54024900  0.16442100  1
  O  O40  1  0.77867600  0.66220800  0.30351500  1
  O  O41  1  0.86031500  0.53285400  0.43226200  1
  O  O42  1  0.25162700  0.66714200  0.45493100  1
  O  O43  1  0.14020500  0.91373300  0.24912600  1
  O  O44  1  0.00766800  0.01217500  0.62700800  1
  O  O45  1  0.35979500  0.91373300  0.74912600  1
  O  O46  1  0.94153600  0.15126000  0.15677800  1
  O  O47  1  0.85979500  0.08626700  0.75087400  1
  O  O48  1  0.13968500  0.46714600  0.56773800  1
  O  O49  1  0.12348500  0.83307400  0.05192400  1
  O  O50  1  0.19131700  0.45975100  0.33557900  1
  O  O51  1  0.37651500  0.83307400  0.55192400  1
