# generated using pymatgen
data_CaNb2P2O11
_symmetry_space_group_name_H-M   'P 1'
_cell_length_a   9.35094155
_cell_length_b   9.35094155
_cell_length_c   5.29637405
_cell_angle_alpha   87.06536278
_cell_angle_beta   87.06536278
_cell_angle_gamma   71.87545322
_symmetry_Int_Tables_number   1
_chemical_formula_structural   CaNb2P2O11
_chemical_formula_sum   'Ca2 Nb4 P4 O22'
_cell_volume   439.25610650
_cell_formula_units_Z   2
loop_
 _symmetry_equiv_pos_site_id
 _symmetry_equiv_pos_as_xyz
  1  'x, y, z'
loop_
 _atom_site_type_symbol
 _atom_site_label
 _atom_site_symmetry_multiplicity
 _atom_site_fract_x
 _atom_site_fract_y
 _atom_site_fract_z
 _atom_site_occupancy
  Ca  Ca0  1  0.60577100  0.39422900  0.25000000  1
  Ca  Ca1  1  0.39422900  0.60577100  0.75000000  1
  Nb  Nb2  1  0.00503300  0.24546600  0.26154100  1
  Nb  Nb3  1  0.24546600  0.00503300  0.76154100  1
  Nb  Nb4  1  0.75453400  0.99496700  0.23845900  1
  Nb  Nb5  1  0.99496700  0.75453400  0.73845900  1
  P  P6  1  0.18587200  0.52020500  0.24523700  1
  P  P7  1  0.81412800  0.47979500  0.75476300  1
  P  P8  1  0.47979500  0.81412800  0.25476300  1
  P  P9  1  0.52020500  0.18587200  0.74523700  1
  O  O10  1  0.62570800  0.07706600  0.55307100  1
  O  O11  1  0.08898900  0.13758300  0.57257900  1
  O  O12  1  0.07706600  0.62570800  0.05307100  1
  O  O13  1  0.83170400  0.40471400  0.49504300  1
  O  O14  1  0.83380500  0.16619500  0.25000000  1
  O  O15  1  0.40471400  0.83170400  0.99504300  1
  O  O16  1  0.59528600  0.16829600  0.00495700  1
  O  O17  1  0.37392200  0.13980100  0.78586700  1
  O  O18  1  0.91101100  0.86241700  0.42742100  1
  O  O19  1  0.13758300  0.08898900  0.07257900  1
  O  O20  1  0.92293400  0.37429200  0.94692900  1
  O  O21  1  0.51512900  0.65333500  0.36528200  1
  O  O22  1  0.34666500  0.48487100  0.13471800  1
  O  O23  1  0.86019900  0.62607800  0.71413300  1
  O  O24  1  0.16619500  0.83380500  0.75000000  1
  O  O25  1  0.86241700  0.91101100  0.92742100  1
  O  O26  1  0.16829600  0.59528600  0.50495700  1
  O  O27  1  0.62607800  0.86019900  0.21413300  1
  O  O28  1  0.65333500  0.51512900  0.86528200  1
  O  O29  1  0.37429200  0.92293400  0.44692900  1
  O  O30  1  0.48487100  0.34666500  0.63471800  1
  O  O31  1  0.13980100  0.37392200  0.28586700  1
