# generated using pymatgen
data_CsYZnSe3
_symmetry_space_group_name_H-M   'P 1'
_cell_length_a   8.37413678
_cell_length_b   8.37413678
_cell_length_c   11.03437800
_cell_angle_alpha   90.00000000
_cell_angle_beta   90.00000000
_cell_angle_gamma   151.08714853
_symmetry_Int_Tables_number   1
_chemical_formula_structural   CsYZnSe3
_chemical_formula_sum   'Cs2 Y2 Zn2 Se6'
_cell_volume   374.11518622
_cell_formula_units_Z   2
loop_
 _symmetry_equiv_pos_site_id
 _symmetry_equiv_pos_as_xyz
  1  'x, y, z'
loop_
 _atom_site_type_symbol
 _atom_site_label
 _atom_site_symmetry_multiplicity
 _atom_site_fract_x
 _atom_site_fract_y
 _atom_site_fract_z
 _atom_site_occupancy
  Cs  Cs0  1  0.74177200  0.25822800  0.25000000  1
  Cs  Cs1  1  0.25822800  0.74177200  0.75000000  1
  Y  Y2  1  0.00000000  0.00000000  0.00000000  1
  Y  Y3  1  0.00000000  0.00000000  0.50000000  1
  Zn  Zn4  1  0.46015400  0.53984600  0.25000000  1
  Zn  Zn5  1  0.53984600  0.46015400  0.75000000  1
  Se  Se6  1  0.38317800  0.61682200  0.05860600  1
  Se  Se7  1  0.94592100  0.05407900  0.75000000  1
  Se  Se8  1  0.38317800  0.61682200  0.44139400  1
  Se  Se9  1  0.05407900  0.94592100  0.25000000  1
  Se  Se10  1  0.61682200  0.38317800  0.94139400  1
  Se  Se11  1  0.61682200  0.38317800  0.55860600  1
