# generated using pymatgen
data_Ba3LuIr2O9
_symmetry_space_group_name_H-M   'P 1'
_cell_length_a   5.91033813
_cell_length_b   5.91033813
_cell_length_c   14.61456200
_cell_angle_alpha   90.00000000
_cell_angle_beta   90.00000000
_cell_angle_gamma   120.00000143
_symmetry_Int_Tables_number   1
_chemical_formula_structural   Ba3LuIr2O9
_chemical_formula_sum   'Ba6 Lu2 Ir4 O18'
_cell_volume   442.12093948
_cell_formula_units_Z   2
loop_
 _symmetry_equiv_pos_site_id
 _symmetry_equiv_pos_as_xyz
  1  'x, y, z'
loop_
 _atom_site_type_symbol
 _atom_site_label
 _atom_site_symmetry_multiplicity
 _atom_site_fract_x
 _atom_site_fract_y
 _atom_site_fract_z
 _atom_site_occupancy
  Ba  Ba0  1  0.66666700  0.33333300  0.09182300  1
  Ba  Ba1  1  0.33333300  0.66666700  0.59182300  1
  Ba  Ba2  1  0.66666700  0.33333300  0.40817700  1
  Ba  Ba3  1  0.00000000  0.00000000  0.25000000  1
  Ba  Ba4  1  0.33333300  0.66666700  0.90817700  1
  Ba  Ba5  1  0.00000000  0.00000000  0.75000000  1
  Lu  Lu6  1  0.00000000  0.00000000  0.00000000  1
  Lu  Lu7  1  0.00000000  0.00000000  0.50000000  1
  Ir  Ir8  1  0.66666700  0.33333300  0.66342700  1
  Ir  Ir9  1  0.33333300  0.66666700  0.33657300  1
  Ir  Ir10  1  0.33333300  0.66666700  0.16342700  1
  Ir  Ir11  1  0.66666700  0.33333300  0.83657300  1
  O  O12  1  0.17361200  0.34722500  0.41441900  1
  O  O13  1  0.17361200  0.34722500  0.08558100  1
  O  O14  1  0.82638800  0.17361200  0.91441900  1
  O  O15  1  0.49153700  0.50846300  0.25000000  1
  O  O16  1  0.17361200  0.82638800  0.41441900  1
  O  O17  1  0.98307500  0.49153700  0.75000000  1
  O  O18  1  0.34722500  0.17361200  0.91441900  1
  O  O19  1  0.82638800  0.65277500  0.58558100  1
  O  O20  1  0.17361200  0.82638800  0.08558100  1
  O  O21  1  0.50846300  0.01692500  0.75000000  1
  O  O22  1  0.82638800  0.65277500  0.91441900  1
  O  O23  1  0.50846300  0.49153700  0.75000000  1
  O  O24  1  0.34722500  0.17361200  0.58558100  1
  O  O25  1  0.65277500  0.82638800  0.41441900  1
  O  O26  1  0.82638800  0.17361200  0.58558100  1
  O  O27  1  0.49153700  0.98307500  0.25000000  1
  O  O28  1  0.65277500  0.82638800  0.08558100  1
  O  O29  1  0.01692500  0.50846300  0.25000000  1
