# generated using pymatgen
data_K4Nb11Al2O20F
_symmetry_space_group_name_H-M   'P 1'
_cell_length_a   8.99270409
_cell_length_b   8.99270409
_cell_length_c   8.99270409
_cell_angle_alpha   120.62408937
_cell_angle_beta   120.62408937
_cell_angle_gamma   88.92240224
_symmetry_Int_Tables_number   1
_chemical_formula_structural   K4Nb11Al2O20F
_chemical_formula_sum   'K4 Nb11 Al2 O20 F1'
_cell_volume   509.27976714
_cell_formula_units_Z   1
loop_
 _symmetry_equiv_pos_site_id
 _symmetry_equiv_pos_as_xyz
  1  'x, y, z'
loop_
 _atom_site_type_symbol
 _atom_site_label
 _atom_site_symmetry_multiplicity
 _atom_site_fract_x
 _atom_site_fract_y
 _atom_site_fract_z
 _atom_site_occupancy
  K  K0  1  0.80750400  0.50000000  0.30750400  1
  K  K1  1  0.50000000  0.19249600  0.69249600  1
  K  K2  1  0.50000000  0.80750400  0.30750400  1
  K  K3  1  0.19249600  0.50000000  0.69249600  1
  Nb  Nb4  1  0.99895500  0.67606300  0.00000000  1
  Nb  Nb5  1  0.67606300  0.99895500  0.00000000  1
  Nb  Nb6  1  0.67606300  0.67606300  0.67710800  1
  Nb  Nb7  1  0.00104500  0.00104500  0.67710800  1
  Nb  Nb8  1  0.99895500  0.99895500  0.32289200  1
  Nb  Nb9  1  0.32393700  0.32393700  0.32289200  1
  Nb  Nb10  1  0.32393700  0.00104500  0.00000000  1
  Nb  Nb11  1  0.00000000  0.00000000  0.00000000  1
  Nb  Nb12  1  0.68473700  0.68473700  0.00000000  1
  Nb  Nb13  1  0.31526300  0.31526300  0.00000000  1
  Nb  Nb14  1  0.00104500  0.32393700  0.00000000  1
  Al  Al15  1  0.75000000  0.25000000  0.50000000  1
  Al  Al16  1  0.25000000  0.75000000  0.50000000  1
  O  O17  1  0.15987300  0.49058000  0.00000000  1
  O  O18  1  0.84012700  0.50942000  0.00000000  1
  O  O19  1  0.16628000  0.82715000  0.66087000  1
  O  O20  1  0.16628000  0.50541000  0.33913000  1
  O  O21  1  0.15987300  0.15987300  0.66929300  1
  O  O22  1  0.50942000  0.50942000  0.66929300  1
  O  O23  1  0.83032900  0.83032900  0.66065700  1
  O  O24  1  0.16967100  0.83032900  0.00000000  1
  O  O25  1  0.50942000  0.84012700  0.00000000  1
  O  O26  1  0.83032900  0.16967100  0.00000000  1
  O  O27  1  0.49058000  0.15987300  0.00000000  1
  O  O28  1  0.16967100  0.16967100  0.33934300  1
  O  O29  1  0.83372000  0.49459000  0.66087000  1
  O  O30  1  0.49058000  0.49058000  0.33070700  1
  O  O31  1  0.84012700  0.84012700  0.33070700  1
  O  O32  1  0.50541000  0.16628000  0.33913000  1
  O  O33  1  0.83372000  0.17285000  0.33913000  1
  O  O34  1  0.82715000  0.16628000  0.66087000  1
  O  O35  1  0.49459000  0.83372000  0.66087000  1
  O  O36  1  0.17285000  0.83372000  0.33913000  1
  F  F37  1  0.50000000  0.50000000  0.00000000  1
