# generated using pymatgen
data_KNa2CuO2
_symmetry_space_group_name_H-M   'P 1'
_cell_length_a   6.29138615
_cell_length_b   6.29138615
_cell_length_c   6.29138615
_cell_angle_alpha   139.15754315
_cell_angle_beta   139.15754315
_cell_angle_gamma   59.13471186
_symmetry_Int_Tables_number   1
_chemical_formula_structural   KNa2CuO2
_chemical_formula_sum   'K1 Na2 Cu1 O2'
_cell_volume   105.47669337
_cell_formula_units_Z   1
loop_
 _symmetry_equiv_pos_site_id
 _symmetry_equiv_pos_as_xyz
  1  'x, y, z'
loop_
 _atom_site_type_symbol
 _atom_site_label
 _atom_site_symmetry_multiplicity
 _atom_site_fract_x
 _atom_site_fract_y
 _atom_site_fract_z
 _atom_site_occupancy
  K  K0  1  0.57252100  0.57252100  0.00000000  1
  Na  Na1  1  0.77279000  0.27279000  0.50000000  1
  Na  Na2  1  0.27279000  0.77279000  0.50000000  1
  Cu  Cu3  1  0.99531100  0.99531100  0.00000000  1
  O  O4  1  0.16151300  0.16151300  0.00000000  1
  O  O5  1  0.83001400  0.83001400  0.00000000  1
