# generated using pymatgen
data_Li3U7(PO7)5
_symmetry_space_group_name_H-M   'P 1'
_cell_length_a   10.05756600
_cell_length_b   10.05756600
_cell_length_c   14.77228800
_cell_angle_alpha   90.00000000
_cell_angle_beta   90.00000000
_cell_angle_gamma   90.00000000
_symmetry_Int_Tables_number   1
_chemical_formula_structural   Li3U7(PO7)5
_chemical_formula_sum   'Li6 U14 P10 O70'
_cell_volume   1494.28538368
_cell_formula_units_Z   2
loop_
 _symmetry_equiv_pos_site_id
 _symmetry_equiv_pos_as_xyz
  1  'x, y, z'
loop_
 _atom_site_type_symbol
 _atom_site_label
 _atom_site_symmetry_multiplicity
 _atom_site_fract_x
 _atom_site_fract_y
 _atom_site_fract_z
 _atom_site_occupancy
  Li  Li0  1  0.50000000  0.00000000  0.70002000  1
  Li  Li1  1  0.20427500  0.70427500  0.86747600  1
  Li  Li2  1  0.29572500  0.20427500  0.13252400  1
  Li  Li3  1  0.70427500  0.79572500  0.13252400  1
  Li  Li4  1  0.79572500  0.29572500  0.86747600  1
  Li  Li5  1  0.00000000  0.50000000  0.29998000  1
  U  U6  1  0.26182900  0.76182900  0.28110800  1
  U  U7  1  0.24816200  0.74816200  0.56881500  1
  U  U8  1  0.00000000  0.00000000  0.14323500  1
  U  U9  1  0.50000000  0.50000000  0.85676500  1
  U  U10  1  0.00000000  0.00000000  0.85676500  1
  U  U11  1  0.50000000  0.50000000  0.14323500  1
  U  U12  1  0.23817100  0.26182900  0.71889200  1
  U  U13  1  0.76182900  0.73817100  0.71889200  1
  U  U14  1  0.50000000  0.00000000  0.98801500  1
  U  U15  1  0.73817100  0.23817100  0.28110800  1
  U  U16  1  0.75183800  0.25183800  0.56881500  1
  U  U17  1  0.74816200  0.75183800  0.43118500  1
  U  U18  1  0.00000000  0.50000000  0.01198500  1
  U  U19  1  0.25183800  0.24816200  0.43118500  1
  P  P20  1  0.50000000  0.50000000  0.36347300  1
  P  P21  1  0.75468000  0.74532000  0.93749200  1
  P  P22  1  0.00000000  0.00000000  0.36347300  1
  P  P23  1  0.00000000  0.50000000  0.48684400  1
  P  P24  1  0.24532000  0.25468000  0.93749200  1
  P  P25  1  0.74532000  0.24532000  0.06250800  1
  P  P26  1  0.25468000  0.75468000  0.06250800  1
  P  P27  1  0.50000000  0.50000000  0.63652700  1
  P  P28  1  0.00000000  0.00000000  0.63652700  1
  P  P29  1  0.50000000  0.00000000  0.51315600  1
  O  O30  1  0.26247200  0.76247200  0.44099500  1
  O  O31  1  0.38731300  0.88731300  0.27939000  1
  O  O32  1  0.16461200  0.66461200  0.00370400  1
  O  O33  1  0.58457700  0.40477300  0.57903200  1
  O  O34  1  0.83930600  0.66069400  0.00172600  1
  O  O35  1  0.13440500  0.63440500  0.28265400  1
  O  O36  1  0.73752800  0.23752800  0.44099500  1
  O  O37  1  0.08809400  0.41190600  0.42278600  1
  O  O38  1  0.62354400  0.36699000  0.85162500  1
  O  O39  1  0.61268700  0.11268700  0.27939000  1
  O  O40  1  0.40477300  0.41542300  0.42096800  1
  O  O41  1  0.91542300  0.90477300  0.42096800  1
  O  O42  1  0.09112500  0.92054400  0.29640900  1
  O  O43  1  0.59522700  0.58457700  0.42096800  1
  O  O44  1  0.86699000  0.12354400  0.85162500  1
  O  O45  1  0.83538800  0.33538800  0.00370400  1
  O  O46  1  0.36699000  0.37645600  0.14837500  1
  O  O47  1  0.26453200  0.23546800  0.30936500  1
  O  O48  1  0.66069400  0.16069400  0.99827400  1
  O  O49  1  0.11268700  0.38731300  0.72061000  1
  O  O50  1  0.37645600  0.63301000  0.85162500  1
  O  O51  1  0.90887500  0.07945600  0.29640900  1
  O  O52  1  0.88731300  0.61268700  0.72061000  1
  O  O53  1  0.86559500  0.36559500  0.28265400  1
  O  O54  1  0.76453200  0.26453200  0.69063500  1
  O  O55  1  0.36559500  0.13440500  0.71734600  1
  O  O56  1  0.00000000  0.50000000  0.13475800  1
  O  O57  1  0.15922300  0.17263300  0.86959500  1
  O  O58  1  0.33930600  0.83930600  0.99827400  1
  O  O59  1  0.50000000  0.50000000  0.00000000  1
  O  O60  1  0.76247200  0.73752800  0.55900500  1
  O  O61  1  0.41190600  0.91190600  0.57721400  1
  O  O62  1  0.23546800  0.73546800  0.69063500  1
  O  O63  1  0.34077700  0.67263300  0.13040500  1
  O  O64  1  0.90965500  0.40965500  0.54558400  1
  O  O65  1  0.92054400  0.90887500  0.70359100  1
  O  O66  1  0.59034500  0.90965500  0.45441600  1
  O  O67  1  0.65922300  0.32736700  0.13040500  1
  O  O68  1  0.16069400  0.33930600  0.00172600  1
  O  O69  1  0.09522700  0.91542300  0.57903200  1
  O  O70  1  0.09034500  0.59034500  0.54558400  1
  O  O71  1  0.67263300  0.65922300  0.86959500  1
  O  O72  1  0.32736700  0.34077700  0.86959500  1
  O  O73  1  0.07945600  0.09112500  0.70359100  1
  O  O74  1  0.08457700  0.09522700  0.42096800  1
  O  O75  1  0.50000000  0.00000000  0.86524200  1
  O  O76  1  0.12354400  0.13301000  0.14837500  1
  O  O77  1  0.40887500  0.42054400  0.70359100  1
  O  O78  1  0.23752800  0.26247200  0.55900500  1
  O  O79  1  0.33538800  0.16461200  0.99629600  1
  O  O80  1  0.84077700  0.82736700  0.86959500  1
  O  O81  1  0.63440500  0.86559500  0.71734600  1
  O  O82  1  0.17263300  0.84077700  0.13040500  1
  O  O83  1  0.73546800  0.76453200  0.30936500  1
  O  O84  1  0.82736700  0.15922300  0.13040500  1
  O  O85  1  0.42054400  0.59112500  0.29640900  1
  O  O86  1  0.00000000  0.50000000  0.88952600  1
  O  O87  1  0.41542300  0.59522700  0.57903200  1
  O  O88  1  0.40965500  0.09034500  0.45441600  1
  O  O89  1  0.57945600  0.40887500  0.29640900  1
  O  O90  1  0.00000000  0.00000000  0.00000000  1
  O  O91  1  0.63301000  0.62354400  0.14837500  1
  O  O92  1  0.90477300  0.08457700  0.57903200  1
  O  O93  1  0.91190600  0.58809400  0.42278600  1
  O  O94  1  0.59112500  0.57945600  0.70359100  1
  O  O95  1  0.58809400  0.08809400  0.57721400  1
  O  O96  1  0.13301000  0.87645600  0.85162500  1
  O  O97  1  0.87645600  0.86699000  0.14837500  1
  O  O98  1  0.50000000  0.00000000  0.11047400  1
  O  O99  1  0.66461200  0.83538800  0.99629600  1
