# generated using pymatgen
data_K8Zr(MoO4)6
_symmetry_space_group_name_H-M   'P 1'
_cell_length_a   12.11706500
_cell_length_b   10.45390500
_cell_length_c   13.36085427
_cell_angle_alpha   60.93863287
_cell_angle_beta   90.00000000
_cell_angle_gamma   90.00000000
_symmetry_Int_Tables_number   1
_chemical_formula_structural   K8Zr(MoO4)6
_chemical_formula_sum   'K16 Zr2 Mo12 O48'
_cell_volume   1479.35126474
_cell_formula_units_Z   2
loop_
 _symmetry_equiv_pos_site_id
 _symmetry_equiv_pos_as_xyz
  1  'x, y, z'
loop_
 _atom_site_type_symbol
 _atom_site_label
 _atom_site_symmetry_multiplicity
 _atom_site_fract_x
 _atom_site_fract_y
 _atom_site_fract_z
 _atom_site_occupancy
  K  K0  1  0.29783200  0.19244100  0.20562100  1
  K  K1  1  0.44369400  0.83284900  0.27992600  1
  K  K2  1  0.05630600  0.83284900  0.77992600  1
  K  K3  1  0.92992600  0.64065000  0.60854500  1
  K  K4  1  0.42992600  0.35935000  0.89145500  1
  K  K5  1  0.77925500  0.39551900  0.92306400  1
  K  K6  1  0.79783200  0.80755900  0.29437900  1
  K  K7  1  0.94369400  0.16715100  0.22007400  1
  K  K8  1  0.20216800  0.19244100  0.70562100  1
  K  K9  1  0.27925500  0.60448100  0.57693600  1
  K  K10  1  0.22074500  0.60448100  0.07693600  1
  K  K11  1  0.55630600  0.16715100  0.72007400  1
  K  K12  1  0.57007400  0.64065000  0.10854500  1
  K  K13  1  0.70216800  0.80755900  0.79437900  1
  K  K14  1  0.07007400  0.35935000  0.39145500  1
  K  K15  1  0.72074500  0.39551900  0.42306400  1
  Zr  Zr16  1  0.00000000  0.00000000  0.00000000  1
  Zr  Zr17  1  0.50000000  0.00000000  0.50000000  1
  Mo  Mo18  1  0.60519700  0.23452500  0.20507100  1
  Mo  Mo19  1  0.10519700  0.76547500  0.29492900  1
  Mo  Mo20  1  0.39480300  0.76547500  0.79492900  1
  Mo  Mo21  1  0.82010600  0.01368100  0.50668800  1
  Mo  Mo22  1  0.60721300  0.61354100  0.59844300  1
  Mo  Mo23  1  0.17989400  0.98631900  0.49331200  1
  Mo  Mo24  1  0.89480300  0.23452500  0.70507100  1
  Mo  Mo25  1  0.89278700  0.61354100  0.09844300  1
  Mo  Mo26  1  0.67989400  0.01368100  0.00668800  1
  Mo  Mo27  1  0.32010600  0.98631900  0.99331200  1
  Mo  Mo28  1  0.39278700  0.38645900  0.40155700  1
  Mo  Mo29  1  0.10721300  0.38645900  0.90155700  1
  O  O30  1  0.65445200  0.92803900  0.92222800  1
  O  O31  1  0.68030600  0.61426900  0.71383800  1
  O  O32  1  0.47498800  0.21413300  0.47898800  1
  O  O33  1  0.02501200  0.21413300  0.97898800  1
  O  O34  1  0.48609000  0.67084100  0.91133100  1
  O  O35  1  0.47477200  0.92013800  0.67771700  1
  O  O36  1  0.11877200  0.09932700  0.35657800  1
  O  O37  1  0.34554800  0.07196100  0.07777200  1
  O  O38  1  0.52522800  0.07986200  0.32228300  1
  O  O39  1  0.83174300  0.02119700  0.02577600  1
  O  O40  1  0.52501200  0.78586700  0.52101200  1
  O  O41  1  0.27477600  0.82313700  0.84017300  1
  O  O42  1  0.01639600  0.53958900  0.84758100  1
  O  O43  1  0.61877200  0.90067300  0.14342200  1
  O  O44  1  0.16825700  0.97880300  0.97422400  1
  O  O45  1  0.02522800  0.92013800  0.17771700  1
  O  O46  1  0.14575300  0.64110100  0.24762400  1
  O  O47  1  0.81969400  0.61426900  0.21383800  1
  O  O48  1  0.77477600  0.17686300  0.65982700  1
  O  O49  1  0.15445200  0.07196100  0.57777200  1
  O  O50  1  0.20395000  0.39799300  0.99762800  1
  O  O51  1  0.01391000  0.67084100  0.41133100  1
  O  O52  1  0.72522400  0.17686300  0.15982700  1
  O  O53  1  0.51639600  0.46041100  0.65241900  1
  O  O54  1  0.98609000  0.32915900  0.58866900  1
  O  O55  1  0.62180200  0.19174000  0.93160700  1
  O  O56  1  0.37819800  0.80826000  0.06839300  1
  O  O57  1  0.48360400  0.53958900  0.34758100  1
  O  O58  1  0.12180200  0.80826000  0.56839300  1
  O  O59  1  0.35424700  0.64110100  0.74762400  1
  O  O60  1  0.88122800  0.90067300  0.64342200  1
  O  O61  1  0.97477200  0.07986200  0.82228300  1
  O  O62  1  0.66825700  0.02119700  0.52577600  1
  O  O63  1  0.22522400  0.82313700  0.34017300  1
  O  O64  1  0.31969400  0.38573100  0.28616200  1
  O  O65  1  0.85424700  0.35889900  0.75237600  1
  O  O66  1  0.98360400  0.46041100  0.15241900  1
  O  O67  1  0.33174300  0.97880300  0.47422400  1
  O  O68  1  0.51391000  0.32915900  0.08866900  1
  O  O69  1  0.84554800  0.92803900  0.42222800  1
  O  O70  1  0.38122800  0.09932700  0.85657800  1
  O  O71  1  0.97498800  0.78586700  0.02101200  1
  O  O72  1  0.79605000  0.60200700  0.00237200  1
  O  O73  1  0.64575300  0.35889900  0.25237600  1
  O  O74  1  0.87819800  0.19174000  0.43160700  1
  O  O75  1  0.18030600  0.38573100  0.78616200  1
  O  O76  1  0.29605000  0.39799300  0.49762800  1
  O  O77  1  0.70395000  0.60200700  0.50237200  1
