# generated using pymatgen
data_Nd3BWO9
_symmetry_space_group_name_H-M   'P 1'
_cell_length_a   8.79891842
_cell_length_b   8.79891842
_cell_length_c   5.59337400
_cell_angle_alpha   90.00000000
_cell_angle_beta   90.00000000
_cell_angle_gamma   120.00000317
_symmetry_Int_Tables_number   1
_chemical_formula_structural   Nd3BWO9
_chemical_formula_sum   'Nd6 B2 W2 O18'
_cell_volume   375.02745223
_cell_formula_units_Z   2
loop_
 _symmetry_equiv_pos_site_id
 _symmetry_equiv_pos_as_xyz
  1  'x, y, z'
loop_
 _atom_site_type_symbol
 _atom_site_label
 _atom_site_symmetry_multiplicity
 _atom_site_fract_x
 _atom_site_fract_y
 _atom_site_fract_z
 _atom_site_occupancy
  Nd  Nd0  1  0.72413700  0.64370400  0.20358300  1
  Nd  Nd1  1  0.08043300  0.72413700  0.70358300  1
  Nd  Nd2  1  0.35629600  0.08043300  0.20358300  1
  Nd  Nd3  1  0.91956700  0.27586300  0.20358300  1
  Nd  Nd4  1  0.64370400  0.91956700  0.70358300  1
  Nd  Nd5  1  0.27586300  0.35629600  0.70358300  1
  B  B6  1  0.00000000  0.00000000  0.36885100  1
  B  B7  1  0.00000000  0.00000000  0.86885100  1
  W  W8  1  0.66666700  0.33333300  0.74711300  1
  W  W9  1  0.33333300  0.66666700  0.24711300  1
  O  O10  1  0.17554900  0.04806100  0.86062000  1
  O  O11  1  0.79396300  0.53374500  0.54446400  1
  O  O12  1  0.12748700  0.17554900  0.36062000  1
  O  O13  1  0.73978300  0.20603700  0.54446400  1
  O  O14  1  0.13522400  0.51978200  0.47077800  1
  O  O15  1  0.61544200  0.13522400  0.97077800  1
  O  O16  1  0.26021700  0.79396300  0.04446400  1
  O  O17  1  0.95193900  0.12748700  0.86062000  1
  O  O18  1  0.20603700  0.46625500  0.04446400  1
  O  O19  1  0.86477600  0.48021800  0.97077800  1
  O  O20  1  0.87251300  0.82445100  0.86062000  1
  O  O21  1  0.53374500  0.73978300  0.04446400  1
  O  O22  1  0.51978200  0.38455800  0.97077800  1
  O  O23  1  0.38455800  0.86477600  0.47077800  1
  O  O24  1  0.04806100  0.87251300  0.36062000  1
  O  O25  1  0.48021800  0.61544200  0.47077800  1
  O  O26  1  0.46625500  0.26021700  0.54446400  1
  O  O27  1  0.82445100  0.95193900  0.36062000  1
