# generated using pymatgen
data_CaS2(ClO3)2
_symmetry_space_group_name_H-M   'P 1'
_cell_length_a   9.38964700
_cell_length_b   10.44626400
_cell_length_c   17.63812600
_cell_angle_alpha   90.00000000
_cell_angle_beta   90.00000000
_cell_angle_gamma   90.00000000
_symmetry_Int_Tables_number   1
_chemical_formula_structural   CaS2(ClO3)2
_chemical_formula_sum   'Ca8 S16 Cl16 O48'
_cell_volume   1730.06612787
_cell_formula_units_Z   8
loop_
 _symmetry_equiv_pos_site_id
 _symmetry_equiv_pos_as_xyz
  1  'x, y, z'
loop_
 _atom_site_type_symbol
 _atom_site_label
 _atom_site_symmetry_multiplicity
 _atom_site_fract_x
 _atom_site_fract_y
 _atom_site_fract_z
 _atom_site_occupancy
  Ca  Ca0  1  0.63901900  0.40194700  0.37161800  1
  Ca  Ca1  1  0.86098100  0.90194700  0.62838200  1
  Ca  Ca2  1  0.63901900  0.90194700  0.12838200  1
  Ca  Ca3  1  0.13901900  0.09805300  0.37161800  1
  Ca  Ca4  1  0.36098100  0.59805300  0.62838200  1
  Ca  Ca5  1  0.13901900  0.59805300  0.12838200  1
  Ca  Ca6  1  0.86098100  0.40194700  0.87161800  1
  Ca  Ca7  1  0.36098100  0.09805300  0.87161800  1
  S  S8  1  0.03191800  0.64960300  0.74641900  1
  S  S9  1  0.22151900  0.38721000  0.96907600  1
  S  S10  1  0.96808200  0.35039700  0.25358100  1
  S  S11  1  0.46808200  0.14960300  0.25358100  1
  S  S12  1  0.27848100  0.38721000  0.46907600  1
  S  S13  1  0.22151900  0.88721000  0.53092400  1
  S  S14  1  0.96808200  0.85039700  0.24641900  1
  S  S15  1  0.46808200  0.64960300  0.24641900  1
  S  S16  1  0.03191800  0.14960300  0.75358100  1
  S  S17  1  0.77848100  0.11279000  0.46907600  1
  S  S18  1  0.72151900  0.61279000  0.53092400  1
  S  S19  1  0.27848100  0.88721000  0.03092400  1
  S  S20  1  0.53191800  0.35039700  0.75358100  1
  S  S21  1  0.53191800  0.85039700  0.74641900  1
  S  S22  1  0.72151900  0.11279000  0.96907600  1
  S  S23  1  0.77848100  0.61279000  0.03092400  1
  Cl  Cl24  1  0.85826200  0.48776600  0.58362500  1
  Cl  Cl25  1  0.38085300  0.25697900  0.16792600  1
  Cl  Cl26  1  0.35826200  0.01223400  0.58362500  1
  Cl  Cl27  1  0.61914700  0.24302100  0.66792600  1
  Cl  Cl28  1  0.88085300  0.74302100  0.33207400  1
  Cl  Cl29  1  0.61914700  0.74302100  0.83207400  1
  Cl  Cl30  1  0.11914700  0.25697900  0.66792600  1
  Cl  Cl31  1  0.11914700  0.75697900  0.83207400  1
  Cl  Cl32  1  0.88085300  0.24302100  0.16792600  1
  Cl  Cl33  1  0.14173800  0.01223400  0.08362500  1
  Cl  Cl34  1  0.64173800  0.98776600  0.41637500  1
  Cl  Cl35  1  0.85826200  0.98776600  0.91637500  1
  Cl  Cl36  1  0.14173800  0.51223400  0.41637500  1
  Cl  Cl37  1  0.35826200  0.51223400  0.91637500  1
  Cl  Cl38  1  0.64173800  0.48776600  0.08362500  1
  Cl  Cl39  1  0.38085300  0.75697900  0.33207400  1
  O  O40  1  0.78533100  0.23886700  0.95867400  1
  O  O41  1  0.56225600  0.23744600  0.29339200  1
  O  O42  1  0.95676000  0.54673400  0.78494100  1
  O  O43  1  0.28001300  0.42984300  0.54800500  1
  O  O44  1  0.08562100  0.90376100  0.56951400  1
  O  O45  1  0.71998700  0.57015700  0.45199500  1
  O  O46  1  0.54324000  0.04673400  0.21505900  1
  O  O47  1  0.91437900  0.59623900  0.06951400  1
  O  O48  1  0.08562100  0.40376100  0.93048600  1
  O  O49  1  0.84782400  0.39422100  0.29892000  1
  O  O50  1  0.28533100  0.76113300  0.54132600  1
  O  O51  1  0.54324000  0.54673400  0.28494100  1
  O  O52  1  0.78001300  0.57015700  0.95199500  1
  O  O53  1  0.41437900  0.40376100  0.43048600  1
  O  O54  1  0.95676000  0.04673400  0.71505900  1
  O  O55  1  0.56225600  0.73744600  0.20660800  1
  O  O56  1  0.58562100  0.09623900  0.93048600  1
  O  O57  1  0.15217600  0.60577900  0.70108000  1
  O  O58  1  0.04324000  0.45326600  0.21505900  1
  O  O59  1  0.71466900  0.73886700  0.04132600  1
  O  O60  1  0.15217600  0.10577900  0.79892000  1
  O  O61  1  0.28533100  0.26113300  0.95867400  1
  O  O62  1  0.34782400  0.60577900  0.20108000  1
  O  O63  1  0.78533100  0.73886700  0.54132600  1
  O  O64  1  0.91437900  0.09623900  0.43048600  1
  O  O65  1  0.43774400  0.76255400  0.70660800  1
  O  O66  1  0.06225600  0.26255400  0.29339200  1
  O  O67  1  0.41437900  0.90376100  0.06951400  1
  O  O68  1  0.21998700  0.92984300  0.45199500  1
  O  O69  1  0.43774400  0.26255400  0.79339200  1
  O  O70  1  0.21998700  0.42984300  0.04800500  1
  O  O71  1  0.58562100  0.59623900  0.56951400  1
  O  O72  1  0.71466900  0.23886700  0.45867400  1
  O  O73  1  0.28001300  0.92984300  0.95199500  1
  O  O74  1  0.45676000  0.95326600  0.78494100  1
  O  O75  1  0.21466900  0.26113300  0.45867400  1
  O  O76  1  0.65217600  0.39422100  0.79892000  1
  O  O77  1  0.06225600  0.76255400  0.20660800  1
  O  O78  1  0.04324000  0.95326600  0.28494100  1
  O  O79  1  0.71998700  0.07015700  0.04800500  1
  O  O80  1  0.21466900  0.76113300  0.04132600  1
  O  O81  1  0.65217600  0.89422100  0.70108000  1
  O  O82  1  0.93774400  0.23744600  0.79339200  1
  O  O83  1  0.93774400  0.73744600  0.70660800  1
  O  O84  1  0.84782400  0.89422100  0.20108000  1
  O  O85  1  0.45676000  0.45326600  0.71505900  1
  O  O86  1  0.78001300  0.07015700  0.54800500  1
  O  O87  1  0.34782400  0.10577900  0.29892000  1
