# generated using pymatgen
data_Cd8Ag5
_symmetry_space_group_name_H-M   'P 1'
_cell_length_a   8.81106717
_cell_length_b   8.81106717
_cell_length_c   8.81106717
_cell_angle_alpha   109.47122063
_cell_angle_beta   109.47122063
_cell_angle_gamma   109.47122063
_symmetry_Int_Tables_number   1
_chemical_formula_structural   Cd8Ag5
_chemical_formula_sum   'Cd16 Ag10'
_cell_volume   526.57913255
_cell_formula_units_Z   2
loop_
 _symmetry_equiv_pos_site_id
 _symmetry_equiv_pos_as_xyz
  1  'x, y, z'
loop_
 _atom_site_type_symbol
 _atom_site_label
 _atom_site_symmetry_multiplicity
 _atom_site_fract_x
 _atom_site_fract_y
 _atom_site_fract_z
 _atom_site_occupancy
  Cd  Cd0  1  0.65141100  0.00000000  0.27669200  1
  Cd  Cd1  1  0.37472000  0.72330800  0.72330800  1
  Cd  Cd2  1  0.00000000  0.65141100  0.27669200  1
  Cd  Cd3  1  0.34858900  0.34858900  0.62528000  1
  Cd  Cd4  1  0.78219800  0.00000000  0.00000000  1
  Cd  Cd5  1  0.21780200  0.21780200  0.21780200  1
  Cd  Cd6  1  0.72330800  0.37472000  0.72330800  1
  Cd  Cd7  1  0.65141100  0.27669200  0.00000000  1
  Cd  Cd8  1  0.27669200  0.00000000  0.65141100  1
  Cd  Cd9  1  0.72330800  0.72330800  0.37472000  1
  Cd  Cd10  1  0.62528000  0.34858900  0.34858900  1
  Cd  Cd11  1  0.27669200  0.65141100  0.00000000  1
  Cd  Cd12  1  0.00000000  0.27669200  0.65141100  1
  Cd  Cd13  1  0.00000000  0.00000000  0.78219800  1
  Cd  Cd14  1  0.00000000  0.78219800  0.00000000  1
  Cd  Cd15  1  0.34858900  0.62528000  0.34858900  1
  Ag  Ag16  1  0.00000000  0.00000000  0.34528700  1
  Ag  Ag17  1  0.00000000  0.35729800  0.35729800  1
  Ag  Ag18  1  0.64270200  0.64270200  0.00000000  1
  Ag  Ag19  1  0.65471300  0.65471300  0.65471300  1
  Ag  Ag20  1  0.34528700  0.00000000  0.00000000  1
  Ag  Ag21  1  0.35729800  0.00000000  0.35729800  1
  Ag  Ag22  1  0.35729800  0.35729800  0.00000000  1
  Ag  Ag23  1  0.00000000  0.64270200  0.64270200  1
  Ag  Ag24  1  0.00000000  0.34528700  0.00000000  1
  Ag  Ag25  1  0.64270200  0.00000000  0.64270200  1
