# generated using pymatgen
data_Yb(GaS2)2
_symmetry_space_group_name_H-M   'P 1'
_cell_length_a   14.24112509
_cell_length_b   11.77823353
_cell_length_c   11.76846148
_cell_angle_alpha   74.42940279
_cell_angle_beta   52.81660848
_cell_angle_gamma   52.75398873
_symmetry_Int_Tables_number   1
_chemical_formula_structural   Yb(GaS2)2
_chemical_formula_sum   'Yb8 Ga16 S32'
_cell_volume   1237.08671968
_cell_formula_units_Z   8
loop_
 _symmetry_equiv_pos_site_id
 _symmetry_equiv_pos_as_xyz
  1  'x, y, z'
loop_
 _atom_site_type_symbol
 _atom_site_label
 _atom_site_symmetry_multiplicity
 _atom_site_fract_x
 _atom_site_fract_y
 _atom_site_fract_z
 _atom_site_occupancy
  Yb  Yb0  1  0.75191600  0.75191600  0.24808400  1
  Yb  Yb1  1  0.49808400  0.49808400  0.00191600  1
  Yb  Yb2  1  0.00191600  0.00191600  0.49808400  1
  Yb  Yb3  1  0.00000000  0.00000000  0.00000000  1
  Yb  Yb4  1  0.75000000  0.75000000  0.75000000  1
  Yb  Yb5  1  0.50000000  0.50000000  0.50000000  1
  Yb  Yb6  1  0.24808400  0.24808400  0.75191600  1
  Yb  Yb7  1  0.25000000  0.25000000  0.25000000  1
  Ga  Ga8  1  0.48899000  0.76127400  0.23772600  1
  Ga  Ga9  1  0.98348300  0.26493700  0.65765000  1
  Ga  Ga10  1  0.76127400  0.48899000  0.51201100  1
  Ga  Ga11  1  0.26651700  0.98506300  0.59235000  1
  Ga  Ga12  1  0.59235000  0.15607000  0.26651700  1
  Ga  Ga13  1  0.01227400  0.73798900  0.76101000  1
  Ga  Ga14  1  0.48872600  0.76101000  0.73798900  1
  Ga  Ga15  1  0.73798900  0.01227400  0.48872600  1
  Ga  Ga16  1  0.26493700  0.98348300  0.09393000  1
  Ga  Ga17  1  0.15607000  0.59235000  0.98506300  1
  Ga  Ga18  1  0.51201100  0.23772600  0.76127400  1
  Ga  Ga19  1  0.09393000  0.65765000  0.26493700  1
  Ga  Ga20  1  0.98506300  0.26651700  0.15607000  1
  Ga  Ga21  1  0.76101000  0.48872600  0.01227400  1
  Ga  Ga22  1  0.23772600  0.51201100  0.48899000  1
  Ga  Ga23  1  0.65765000  0.09393000  0.98348300  1
  S  S24  1  0.70960300  0.21243000  0.53935600  1
  S  S25  1  0.46652200  0.28247300  0.97091000  1
  S  S26  1  0.21387300  0.20933400  0.03690000  1
  S  S27  1  0.97091000  0.28009400  0.46652200  1
  S  S28  1  0.30702000  0.43974000  0.77716300  1
  S  S29  1  0.28247300  0.46652200  0.28009400  1
  S  S30  1  0.71010700  0.21310000  0.04066600  1
  S  S31  1  0.43974000  0.30702000  0.47607700  1
  S  S32  1  0.03757000  0.54039700  0.71138900  1
  S  S33  1  0.54039700  0.03757000  0.71064400  1
  S  S34  1  0.21310000  0.71010700  0.03612700  1
  S  S35  1  0.47283700  0.77392300  0.94298000  1
  S  S36  1  0.71064400  0.71138900  0.54039700  1
  S  S37  1  0.28009400  0.97091000  0.28247300  1
  S  S38  1  0.71138900  0.71064400  0.03757000  1
  S  S39  1  0.04066600  0.03612700  0.71010700  1
  S  S40  1  0.53861100  0.53935600  0.21243000  1
  S  S41  1  0.53935600  0.53861100  0.70960300  1
  S  S42  1  0.27909000  0.96990600  0.78347800  1
  S  S43  1  0.96752700  0.78347800  0.96990600  1
  S  S44  1  0.03690000  0.53989300  0.21387300  1
  S  S45  1  0.21243000  0.70960300  0.53861100  1
  S  S46  1  0.77716300  0.47607700  0.30702000  1
  S  S47  1  0.94298000  0.81026000  0.47283700  1
  S  S48  1  0.77392300  0.47283700  0.81026000  1
  S  S49  1  0.78347800  0.96752700  0.27909000  1
  S  S50  1  0.53989300  0.03690000  0.20933400  1
  S  S51  1  0.96990600  0.27909000  0.96752700  1
  S  S52  1  0.81026000  0.94298000  0.77392300  1
  S  S53  1  0.20933400  0.21387300  0.53989300  1
  S  S54  1  0.03612700  0.04066600  0.21310000  1
  S  S55  1  0.47607700  0.77716300  0.43974000  1
