# generated using pymatgen
data_Tl2BiP2S7
_symmetry_space_group_name_H-M   'P 1'
_cell_length_a   12.27057562
_cell_length_b   12.27057562
_cell_length_c   19.09521750
_cell_angle_alpha   61.41387176
_cell_angle_beta   61.41387176
_cell_angle_gamma   32.25246764
_symmetry_Int_Tables_number   1
_chemical_formula_structural   Tl2BiP2S7
_chemical_formula_sum   'Tl8 Bi4 P8 S28'
_cell_volume   1330.44585970
_cell_formula_units_Z   4
loop_
 _symmetry_equiv_pos_site_id
 _symmetry_equiv_pos_as_xyz
  1  'x, y, z'
loop_
 _atom_site_type_symbol
 _atom_site_label
 _atom_site_symmetry_multiplicity
 _atom_site_fract_x
 _atom_site_fract_y
 _atom_site_fract_z
 _atom_site_occupancy
  Tl  Tl0  1  0.52320100  0.46345900  0.88180800  1
  Tl  Tl1  1  0.46345900  0.52320100  0.38180800  1
  Tl  Tl2  1  0.47679900  0.53654100  0.11819200  1
  Tl  Tl3  1  0.17934600  0.17317900  0.47301500  1
  Tl  Tl4  1  0.53654100  0.47679900  0.61819200  1
  Tl  Tl5  1  0.82065400  0.82682100  0.52698500  1
  Tl  Tl6  1  0.82682100  0.82065400  0.02698500  1
  Tl  Tl7  1  0.17317900  0.17934600  0.97301500  1
  Bi  Bi8  1  0.21355900  0.11313300  0.75343600  1
  Bi  Bi9  1  0.78644100  0.88686700  0.24656400  1
  Bi  Bi10  1  0.88686700  0.78644100  0.74656400  1
  Bi  Bi11  1  0.11313300  0.21355900  0.25343600  1
  P  P12  1  0.97163900  0.93047200  0.80761300  1
  P  P13  1  0.06952800  0.02836100  0.69238700  1
  P  P14  1  0.66484800  0.66598900  0.36164600  1
  P  P15  1  0.02836100  0.06952800  0.19238700  1
  P  P16  1  0.33515200  0.33401100  0.63835400  1
  P  P17  1  0.93047200  0.97163900  0.30761300  1
  P  P18  1  0.66598900  0.66484800  0.86164600  1
  P  P19  1  0.33401200  0.33515200  0.13835400  1
  S  S20  1  0.36007300  0.85943200  0.39306400  1
  S  S21  1  0.14056800  0.63992700  0.10693600  1
  S  S22  1  0.72091100  0.74258600  0.40249400  1
  S  S23  1  0.68442000  0.11624000  0.80195600  1
  S  S24  1  0.31558000  0.88376000  0.19804400  1
  S  S25  1  0.83355300  0.37109300  0.41154000  1
  S  S26  1  0.98752400  0.95413600  0.89813900  1
  S  S27  1  0.01247600  0.04586400  0.10186100  1
  S  S28  1  0.85943200  0.36007300  0.89306400  1
  S  S29  1  0.67294400  0.76247800  0.73758300  1
  S  S30  1  0.11624000  0.68442000  0.30195600  1
  S  S31  1  0.16644700  0.62890700  0.58846000  1
  S  S32  1  0.62890700  0.16644700  0.08846000  1
  S  S33  1  0.63992700  0.14056800  0.60693600  1
  S  S34  1  0.37109300  0.83355300  0.91154000  1
  S  S35  1  0.88376000  0.31558000  0.69804400  1
  S  S36  1  0.95413600  0.98752400  0.39813900  1
  S  S37  1  0.76247800  0.67294400  0.23758300  1
  S  S38  1  0.23752200  0.32705600  0.76241700  1
  S  S39  1  0.25741400  0.27908900  0.09750600  1
  S  S40  1  0.17593500  0.63271500  0.80356300  1
  S  S41  1  0.74258600  0.72091100  0.90249400  1
  S  S42  1  0.63271500  0.17593500  0.30356300  1
  S  S43  1  0.27908900  0.25741400  0.59750600  1
  S  S44  1  0.32705600  0.23752200  0.26241700  1
  S  S45  1  0.82406500  0.36728500  0.19643700  1
  S  S46  1  0.36728500  0.82406500  0.69643700  1
  S  S47  1  0.04586400  0.01247600  0.60186100  1
