# generated using pymatgen
data_Na2CrNiF7
_symmetry_space_group_name_H-M   'P 1'
_cell_length_a   7.38260504
_cell_length_b   7.38260504
_cell_length_c   7.38260504
_cell_angle_alpha   120.90011728
_cell_angle_beta   118.67031175
_cell_angle_gamma   90.38320039
_symmetry_Int_Tables_number   1
_chemical_formula_structural   Na2CrNiF7
_chemical_formula_sum   'Na4 Cr2 Ni2 F14'
_cell_volume   285.30349897
_cell_formula_units_Z   2
loop_
 _symmetry_equiv_pos_site_id
 _symmetry_equiv_pos_as_xyz
  1  'x, y, z'
loop_
 _atom_site_type_symbol
 _atom_site_label
 _atom_site_symmetry_multiplicity
 _atom_site_fract_x
 _atom_site_fract_y
 _atom_site_fract_z
 _atom_site_occupancy
  Na  Na0  1  0.50000000  0.50000000  0.00000000  1
  Na  Na1  1  0.00000000  0.00000000  0.00000000  1
  Na  Na2  1  0.50000000  0.50000000  0.50000000  1
  Na  Na3  1  0.50000000  0.00000000  0.00000000  1
  Cr  Cr4  1  0.00000000  0.50000000  0.50000000  1
  Cr  Cr5  1  0.50000000  0.00000000  0.50000000  1
  Ni  Ni6  1  0.00000000  0.50000000  0.00000000  1
  Ni  Ni7  1  0.00000000  0.00000000  0.50000000  1
  F  F8  1  0.36143600  0.09064200  0.27079400  1
  F  F9  1  0.89416100  0.75000000  0.14416100  1
  F  F10  1  0.32092200  0.08299500  0.63574400  1
  F  F11  1  0.67907800  0.91700500  0.36425600  1
  F  F12  1  0.05274900  0.41700500  0.23792700  1
  F  F13  1  0.94725100  0.58299500  0.76207300  1
  F  F14  1  0.68015200  0.40935800  0.27079400  1
  F  F15  1  0.63856400  0.90935800  0.72920600  1
  F  F16  1  0.10583900  0.25000000  0.85583900  1
  F  F17  1  0.05274900  0.81482200  0.63574400  1
  F  F18  1  0.94725100  0.18517800  0.36425600  1
  F  F19  1  0.32092200  0.68517800  0.23792700  1
  F  F20  1  0.31984800  0.59064200  0.72920600  1
  F  F21  1  0.67907800  0.31482200  0.76207300  1
