# generated using pymatgen
data_Eu3OsO7
_symmetry_space_group_name_H-M   'P 1'
_cell_length_a   6.63457380
_cell_length_b   6.63457380
_cell_length_c   7.54007800
_cell_angle_alpha   90.00000000
_cell_angle_beta   90.00000000
_cell_angle_gamma   110.32159436
_symmetry_Int_Tables_number   1
_chemical_formula_structural   Eu3OsO7
_chemical_formula_sum   'Eu6 Os2 O14'
_cell_volume   311.23807890
_cell_formula_units_Z   2
loop_
 _symmetry_equiv_pos_site_id
 _symmetry_equiv_pos_as_xyz
  1  'x, y, z'
loop_
 _atom_site_type_symbol
 _atom_site_label
 _atom_site_symmetry_multiplicity
 _atom_site_fract_x
 _atom_site_fract_y
 _atom_site_fract_z
 _atom_site_occupancy
  Eu  Eu0  1  0.00000000  0.00000000  0.00000000  1
  Eu  Eu1  1  0.00000000  0.00000000  0.50000000  1
  Eu  Eu2  1  0.04590600  0.51482700  0.25000000  1
  Eu  Eu3  1  0.95409400  0.48517300  0.75000000  1
  Eu  Eu4  1  0.48517300  0.95409400  0.75000000  1
  Eu  Eu5  1  0.51482700  0.04590600  0.25000000  1
  Os  Os6  1  0.50000000  0.50000000  0.00000000  1
  Os  Os7  1  0.50000000  0.50000000  0.50000000  1
  O  O8  1  0.44945500  0.44945500  0.25000000  1
  O  O9  1  0.55054500  0.55054500  0.75000000  1
  O  O10  1  0.88267800  0.14970400  0.25000000  1
  O  O11  1  0.11732200  0.85029600  0.75000000  1
  O  O12  1  0.85029600  0.11732200  0.75000000  1
  O  O13  1  0.14970400  0.88267800  0.25000000  1
  O  O14  1  0.19574100  0.44407000  0.97217700  1
  O  O15  1  0.80425900  0.55593000  0.47217700  1
  O  O16  1  0.55593000  0.80425900  0.02782300  1
  O  O17  1  0.44407000  0.19574100  0.52782300  1
  O  O18  1  0.80425900  0.55593000  0.02782300  1
  O  O19  1  0.19574100  0.44407000  0.52782300  1
  O  O20  1  0.44407000  0.19574100  0.97217700  1
  O  O21  1  0.55593000  0.80425900  0.47217700  1
