# generated using pymatgen
data_Ce3(SiNi3)2
_symmetry_space_group_name_H-M   'P 1'
_cell_length_a   7.63769801
_cell_length_b   7.63769801
_cell_length_c   7.63769801
_cell_angle_alpha   109.47122063
_cell_angle_beta   109.47122063
_cell_angle_gamma   109.47122063
_symmetry_Int_Tables_number   1
_chemical_formula_structural   Ce3(SiNi3)2
_chemical_formula_sum   'Ce6 Si4 Ni12'
_cell_volume   342.97744167
_cell_formula_units_Z   2
loop_
 _symmetry_equiv_pos_site_id
 _symmetry_equiv_pos_as_xyz
  1  'x, y, z'
loop_
 _atom_site_type_symbol
 _atom_site_label
 _atom_site_symmetry_multiplicity
 _atom_site_fract_x
 _atom_site_fract_y
 _atom_site_fract_z
 _atom_site_occupancy
  Ce  Ce0  1  0.72000700  0.72000700  0.00000000  1
  Ce  Ce1  1  0.27999300  0.27999300  0.00000000  1
  Ce  Ce2  1  0.00000000  0.27999300  0.27999300  1
  Ce  Ce3  1  0.00000000  0.72000700  0.72000700  1
  Ce  Ce4  1  0.27999300  0.00000000  0.27999300  1
  Ce  Ce5  1  0.72000700  0.00000000  0.72000700  1
  Si  Si6  1  0.00000000  0.50000000  0.00000000  1
  Si  Si7  1  0.50000000  0.00000000  0.00000000  1
  Si  Si8  1  0.50000000  0.50000000  0.50000000  1
  Si  Si9  1  0.00000000  0.00000000  0.50000000  1
  Ni  Ni10  1  0.33820600  0.66179400  0.00000000  1
  Ni  Ni11  1  0.00000000  0.66179400  0.33820600  1
  Ni  Ni12  1  0.33820600  0.00000000  0.66179400  1
  Ni  Ni13  1  0.66179400  0.00000000  0.33820600  1
  Ni  Ni14  1  0.66179400  0.32358700  0.66179400  1
  Ni  Ni15  1  0.66179400  0.33820600  0.00000000  1
  Ni  Ni16  1  0.32358700  0.66179400  0.66179400  1
  Ni  Ni17  1  0.33820600  0.33820600  0.67641300  1
  Ni  Ni18  1  0.00000000  0.33820600  0.66179400  1
  Ni  Ni19  1  0.67641300  0.33820600  0.33820600  1
  Ni  Ni20  1  0.33820600  0.67641300  0.33820600  1
  Ni  Ni21  1  0.66179400  0.66179400  0.32358700  1
