# generated using pymatgen
data_Pb2CCl2O3
_symmetry_space_group_name_H-M   'P 1'
_cell_length_a   8.26758100
_cell_length_b   8.26758100
_cell_length_c   9.02824200
_cell_angle_alpha   90.00000000
_cell_angle_beta   90.00000000
_cell_angle_gamma   90.00000000
_symmetry_Int_Tables_number   1
_chemical_formula_structural   Pb2CCl2O3
_chemical_formula_sum   'Pb8 C4 Cl8 O12'
_cell_volume   617.10648280
_cell_formula_units_Z   4
loop_
 _symmetry_equiv_pos_site_id
 _symmetry_equiv_pos_as_xyz
  1  'x, y, z'
loop_
 _atom_site_type_symbol
 _atom_site_label
 _atom_site_symmetry_multiplicity
 _atom_site_fract_x
 _atom_site_fract_y
 _atom_site_fract_z
 _atom_site_occupancy
  Pb  Pb0  1  0.16726300  0.66726300  0.25888500  1
  Pb  Pb1  1  0.33273700  0.16726300  0.25888500  1
  Pb  Pb2  1  0.66726300  0.83273700  0.25888500  1
  Pb  Pb3  1  0.66726300  0.83273700  0.74111500  1
  Pb  Pb4  1  0.33273700  0.16726300  0.74111500  1
  Pb  Pb5  1  0.83273700  0.33273700  0.25888500  1
  Pb  Pb6  1  0.16726300  0.66726300  0.74111500  1
  Pb  Pb7  1  0.83273700  0.33273700  0.74111500  1
  C  C8  1  0.32323900  0.82323900  0.00000000  1
  C  C9  1  0.17676100  0.32323900  0.00000000  1
  C  C10  1  0.82323900  0.67676100  0.00000000  1
  C  C11  1  0.67676100  0.17676100  0.00000000  1
  Cl  Cl12  1  0.00000000  0.00000000  0.24489400  1
  Cl  Cl13  1  0.50000000  0.50000000  0.75510600  1
  Cl  Cl14  1  0.00000000  0.00000000  0.75510600  1
  Cl  Cl15  1  0.50000000  0.50000000  0.24489400  1
  Cl  Cl16  1  0.35231500  0.85231500  0.50000000  1
  Cl  Cl17  1  0.14768500  0.35231500  0.50000000  1
  Cl  Cl18  1  0.85231500  0.64768500  0.50000000  1
  Cl  Cl19  1  0.64768500  0.14768500  0.50000000  1
  O  O20  1  0.21072100  0.71072100  0.00000000  1
  O  O21  1  0.28927900  0.21072100  0.00000000  1
  O  O22  1  0.71072100  0.78927900  0.00000000  1
  O  O23  1  0.78927900  0.28927900  0.00000000  1
  O  O24  1  0.37297700  0.87297700  0.12781300  1
  O  O25  1  0.12702300  0.37297700  0.12781300  1
  O  O26  1  0.87297700  0.62702300  0.12781300  1
  O  O27  1  0.87297700  0.62702300  0.87218700  1
  O  O28  1  0.12702300  0.37297700  0.87218700  1
  O  O29  1  0.62702300  0.12702300  0.12781300  1
  O  O30  1  0.37297700  0.87297700  0.87218700  1
  O  O31  1  0.62702300  0.12702300  0.87218700  1
