# generated using pymatgen
data_Li4Zn(PO4)2
_symmetry_space_group_name_H-M   'P 1'
_cell_length_a   10.40428300
_cell_length_b   8.20926700
_cell_length_c   8.22224366
_cell_angle_alpha   75.36017307
_cell_angle_beta   90.00000000
_cell_angle_gamma   90.00000000
_symmetry_Int_Tables_number   1
_chemical_formula_structural   Li4Zn(PO4)2
_chemical_formula_sum   'Li16 Zn4 P8 O32'
_cell_volume   679.47423019
_cell_formula_units_Z   4
loop_
 _symmetry_equiv_pos_site_id
 _symmetry_equiv_pos_as_xyz
  1  'x, y, z'
loop_
 _atom_site_type_symbol
 _atom_site_label
 _atom_site_symmetry_multiplicity
 _atom_site_fract_x
 _atom_site_fract_y
 _atom_site_fract_z
 _atom_site_occupancy
  Li  Li0  1  0.07294300  0.27231300  0.47796700  1
  Li  Li1  1  0.65129400  0.15098700  0.85047100  1
  Li  Li2  1  0.15129400  0.34901300  0.14952900  1
  Li  Li3  1  0.92705700  0.72768700  0.52203300  1
  Li  Li4  1  0.42705700  0.77231300  0.47796700  1
  Li  Li5  1  0.34870600  0.84901300  0.14952900  1
  Li  Li6  1  0.16445900  0.59934300  0.39829000  1
  Li  Li7  1  0.83794500  0.15743400  0.34532500  1
  Li  Li8  1  0.57294300  0.22768700  0.52203300  1
  Li  Li9  1  0.84870600  0.65098700  0.85047100  1
  Li  Li10  1  0.33794500  0.34256600  0.65467500  1
  Li  Li11  1  0.66205500  0.65743400  0.34532500  1
  Li  Li12  1  0.83554100  0.40065700  0.60171000  1
  Li  Li13  1  0.16205500  0.84256600  0.65467500  1
  Li  Li14  1  0.66445900  0.90065700  0.60171000  1
  Li  Li15  1  0.33554100  0.09934300  0.39829000  1
  Zn  Zn16  1  0.84329400  0.90870800  0.09221400  1
  Zn  Zn17  1  0.65670600  0.40870800  0.09221400  1
  Zn  Zn18  1  0.15670600  0.09129200  0.90778600  1
  Zn  Zn19  1  0.34329400  0.59129200  0.90778600  1
  P  P20  1  0.09327100  0.46567800  0.76756800  1
  P  P21  1  0.90672900  0.53432200  0.23243200  1
  P  P22  1  0.90852800  0.02669500  0.71115200  1
  P  P23  1  0.40852800  0.47330500  0.28884800  1
  P  P24  1  0.40672900  0.96567800  0.76756800  1
  P  P25  1  0.59147200  0.52669500  0.71115200  1
  P  P26  1  0.09147200  0.97330500  0.28884800  1
  P  P27  1  0.59327100  0.03432200  0.23243200  1
  O  O28  1  0.65526900  0.08772500  0.38333600  1
  O  O29  1  0.34996400  0.62831300  0.33761600  1
  O  O30  1  0.05354100  0.99119200  0.75565200  1
  O  O31  1  0.94645900  0.00880800  0.24434800  1
  O  O32  1  0.15526900  0.41227500  0.61666400  1
  O  O33  1  0.84996400  0.87168700  0.66238400  1
  O  O34  1  0.33033200  0.11583200  0.80483400  1
  O  O35  1  0.60097100  0.68683900  0.56286300  1
  O  O36  1  0.65003600  0.37168700  0.66238400  1
  O  O37  1  0.89693600  0.68455600  0.07173700  1
  O  O38  1  0.95270900  0.52179900  0.72542400  1
  O  O39  1  0.10306400  0.31544400  0.92826300  1
  O  O40  1  0.54729100  0.02179900  0.72542400  1
  O  O41  1  0.34473100  0.91227500  0.61666400  1
  O  O42  1  0.45270900  0.97820100  0.27457600  1
  O  O43  1  0.84473100  0.58772500  0.38333600  1
  O  O44  1  0.66685300  0.56060000  0.86364800  1
  O  O45  1  0.16966800  0.61583200  0.80483400  1
  O  O46  1  0.66966800  0.88416800  0.19516600  1
  O  O47  1  0.16685300  0.93940000  0.13635200  1
  O  O48  1  0.83033200  0.38416800  0.19516600  1
  O  O49  1  0.44645900  0.49119200  0.75565200  1
  O  O50  1  0.10097100  0.81316100  0.43713700  1
  O  O51  1  0.83314700  0.06060000  0.86364800  1
  O  O52  1  0.04729100  0.47820100  0.27457600  1
  O  O53  1  0.39693600  0.81544400  0.92826300  1
  O  O54  1  0.33314700  0.43940000  0.13635200  1
  O  O55  1  0.55354100  0.50880800  0.24434800  1
  O  O56  1  0.60306400  0.18455600  0.07173700  1
  O  O57  1  0.15003600  0.12831300  0.33761600  1
  O  O58  1  0.89902900  0.18683900  0.56286300  1
  O  O59  1  0.39902900  0.31316100  0.43713700  1
