# generated using pymatgen
data_GaN5O14
_symmetry_space_group_name_H-M   'P 1'
_cell_length_a   7.32411486
_cell_length_b   7.32411486
_cell_length_c   9.17075657
_cell_angle_alpha   52.29235228
_cell_angle_beta   52.29235228
_cell_angle_gamma   49.79236463
_symmetry_Int_Tables_number   1
_chemical_formula_structural   GaN5O14
_chemical_formula_sum   'Ga1 N5 O14'
_cell_volume   277.44253146
_cell_formula_units_Z   1
loop_
 _symmetry_equiv_pos_site_id
 _symmetry_equiv_pos_as_xyz
  1  'x, y, z'
loop_
 _atom_site_type_symbol
 _atom_site_label
 _atom_site_symmetry_multiplicity
 _atom_site_fract_x
 _atom_site_fract_y
 _atom_site_fract_z
 _atom_site_occupancy
  Ga  Ga0  1  0.00608500  0.99391500  0.00000000  1
  N  N1  1  0.87245100  0.45533500  0.68383200  1
  N  N2  1  0.54466500  0.12754900  0.31616800  1
  N  N3  1  0.14328600  0.58901800  0.97630300  1
  N  N4  1  0.41098200  0.85671400  0.02369700  1
  N  N5  1  0.15391300  0.84608700  0.50000000  1
  O  O6  1  0.98674900  0.32923500  0.81240500  1
  O  O7  1  0.67076500  0.01325100  0.18759500  1
  O  O8  1  0.74728900  0.37243000  0.71077700  1
  O  O9  1  0.62757000  0.25271100  0.28922300  1
  O  O10  1  0.90285200  0.64938700  0.54804900  1
  O  O11  1  0.35061300  0.09714800  0.45195100  1
  O  O12  1  0.07635400  0.83176800  0.85062800  1
  O  O13  1  0.16823200  0.92364600  0.14937200  1
  O  O14  1  0.13367000  0.55839800  0.13243600  1
  O  O15  1  0.44160200  0.86633000  0.86756400  1
  O  O16  1  0.20564800  0.42224300  0.93507600  1
  O  O17  1  0.57775700  0.79435200  0.06492400  1
  O  O18  1  0.33898100  0.66101900  0.50000000  1
  O  O19  1  0.96873500  0.03126500  0.50000000  1
