# generated using pymatgen
data_CsTa(CuTe2)2
_symmetry_space_group_name_H-M   'P 1'
_cell_length_a   6.05544100
_cell_length_b   8.36367400
_cell_length_c   21.13015500
_cell_angle_alpha   90.00000000
_cell_angle_beta   90.00000000
_cell_angle_gamma   90.00000000
_symmetry_Int_Tables_number   1
_chemical_formula_structural   CsTa(CuTe2)2
_chemical_formula_sum   'Cs4 Ta4 Cu8 Te16'
_cell_volume   1070.15221902
_cell_formula_units_Z   4
loop_
 _symmetry_equiv_pos_site_id
 _symmetry_equiv_pos_as_xyz
  1  'x, y, z'
loop_
 _atom_site_type_symbol
 _atom_site_label
 _atom_site_symmetry_multiplicity
 _atom_site_fract_x
 _atom_site_fract_y
 _atom_site_fract_z
 _atom_site_occupancy
  Cs  Cs0  1  0.01564300  0.70581800  0.43836900  1
  Cs  Cs1  1  0.51564300  0.29418200  0.56163100  1
  Cs  Cs2  1  0.51564300  0.79418200  0.93836900  1
  Cs  Cs3  1  0.01564300  0.20581800  0.06163100  1
  Ta  Ta4  1  0.25918100  0.70522800  0.14819000  1
  Ta  Ta5  1  0.75918100  0.29477200  0.85181000  1
  Ta  Ta6  1  0.75918100  0.79477200  0.64819000  1
  Ta  Ta7  1  0.25918100  0.20522800  0.35181000  1
  Cu  Cu8  1  0.26667100  0.96268000  0.24711900  1
  Cu  Cu9  1  0.76667100  0.03732000  0.75288100  1
  Cu  Cu10  1  0.76667100  0.53732000  0.74711900  1
  Cu  Cu11  1  0.26667100  0.46268000  0.25288100  1
  Cu  Cu12  1  0.25931800  0.79381000  0.64757200  1
  Cu  Cu13  1  0.75931800  0.20619000  0.35242800  1
  Cu  Cu14  1  0.75931800  0.70619000  0.14757200  1
  Cu  Cu15  1  0.25931800  0.29381000  0.85242800  1
  Te  Te16  1  0.51060500  0.96400900  0.14399100  1
  Te  Te17  1  0.01060500  0.03599100  0.85600900  1
  Te  Te18  1  0.01060500  0.53599100  0.64399100  1
  Te  Te19  1  0.51060500  0.46400900  0.35600900  1
  Te  Te20  1  0.51216900  0.94858600  0.34912300  1
  Te  Te21  1  0.01216900  0.05141400  0.65087700  1
  Te  Te22  1  0.01216900  0.55141400  0.84912300  1
  Te  Te23  1  0.51216900  0.44858600  0.15087700  1
  Te  Te24  1  0.00225400  0.71249300  0.25071500  1
  Te  Te25  1  0.50225400  0.28750700  0.74928500  1
  Te  Te26  1  0.50225400  0.78750700  0.75071500  1
  Te  Te27  1  0.00225400  0.21249300  0.24928500  1
  Te  Te28  1  0.00956000  0.69308900  0.04638200  1
  Te  Te29  1  0.50956000  0.30691100  0.95361800  1
  Te  Te30  1  0.50956000  0.80691100  0.54638200  1
  Te  Te31  1  0.00956000  0.19308900  0.45361800  1
