# generated using pymatgen
data_Cs2IrF6
_symmetry_space_group_name_H-M   'P 1'
_cell_length_a   6.33972037
_cell_length_b   6.33972037
_cell_length_c   5.12955200
_cell_angle_alpha   90.00000000
_cell_angle_beta   90.00000000
_cell_angle_gamma   120.00000386
_symmetry_Int_Tables_number   1
_chemical_formula_structural   Cs2IrF6
_chemical_formula_sum   'Cs2 Ir1 F6'
_cell_volume   178.54605415
_cell_formula_units_Z   1
loop_
 _symmetry_equiv_pos_site_id
 _symmetry_equiv_pos_as_xyz
  1  'x, y, z'
loop_
 _atom_site_type_symbol
 _atom_site_label
 _atom_site_symmetry_multiplicity
 _atom_site_fract_x
 _atom_site_fract_y
 _atom_site_fract_z
 _atom_site_occupancy
  Cs  Cs0  1  0.66666700  0.33333300  0.20241800  1
  Cs  Cs1  1  0.33333300  0.66666700  0.79758200  1
  Ir  Ir2  1  0.00000000  0.00000000  0.50000000  1
  F  F3  1  0.29941700  0.14970800  0.71428300  1
  F  F4  1  0.85029200  0.70058300  0.71428300  1
  F  F5  1  0.70058300  0.85029200  0.28571700  1
  F  F6  1  0.85029200  0.14970800  0.71428300  1
  F  F7  1  0.14970800  0.29941700  0.28571700  1
  F  F8  1  0.14970800  0.85029200  0.28571700  1
