# generated using pymatgen
data_KCoPO4
_symmetry_space_group_name_H-M   'P 1'
_cell_length_a   8.63193005
_cell_length_b   18.44452547
_cell_length_c   18.44436544
_cell_angle_alpha   120.00005185
_cell_angle_beta   90.00000000
_cell_angle_gamma   90.00000000
_symmetry_Int_Tables_number   1
_chemical_formula_structural   KCoPO4
_chemical_formula_sum   'K24 Co24 P24 O96'
_cell_volume   2543.13562637
_cell_formula_units_Z   24
loop_
 _symmetry_equiv_pos_site_id
 _symmetry_equiv_pos_as_xyz
  1  'x, y, z'
loop_
 _atom_site_type_symbol
 _atom_site_label
 _atom_site_symmetry_multiplicity
 _atom_site_fract_x
 _atom_site_fract_y
 _atom_site_fract_z
 _atom_site_occupancy
  K  K0  1  0.48183149  0.52045240  0.52423277  1
  K  K1  1  0.48183314  0.47576809  0.99621965  1
  K  K2  1  0.48183365  0.00378213  0.47954820  1
  K  K3  1  0.98183149  0.47954760  0.47576723  1
  K  K4  1  0.98183314  0.52423191  0.00378035  1
  K  K5  1  0.98183365  0.99621787  0.52045180  1
  K  K6  1  0.48585259  0.13755807  0.33430106  1
  K  K7  1  0.48585466  0.66569961  0.80325258  1
  K  K8  1  0.48585026  0.19674986  0.86244634  1
  K  K9  1  0.98585259  0.86244193  0.66569894  1
  K  K10  1  0.98585466  0.33430039  0.19674742  1
  K  K11  1  0.98585026  0.80325014  0.13755366  1
  K  K12  1  0.47775992  0.84884374  0.18036225  1
  K  K13  1  0.47774867  0.81963170  0.66847925  1
  K  K14  1  0.47775529  0.33151631  0.15115431  1
  K  K15  1  0.97775992  0.15115626  0.81963775  1
  K  K16  1  0.97774867  0.18036830  0.33152075  1
  K  K17  1  0.97775529  0.66848369  0.84884569  1
  K  K18  1  0.45582778  0.33338956  0.66669812  1
  K  K19  1  0.95582778  0.66661044  0.33330188  1
  K  K20  1  0.95512974  0.33339421  0.66669900  1
  K  K21  1  0.45512974  0.66660579  0.33330100  1
  K  K22  1  0.49966759  0.00000063  0.00000237  1
  K  K23  1  0.99966759  -0.00000063  0.99999763  1
  Co  Co24  1  0.29717070  0.32927610  0.33048870  1
  Co  Co25  1  0.29717134  0.66951530  0.99878859  1
  Co  Co26  1  0.29716732  0.00121162  0.67072705  1
  Co  Co27  1  0.79717070  0.67072390  0.66951130  1
  Co  Co28  1  0.79717134  0.33048470  0.00121141  1
  Co  Co29  1  0.79716732  0.99878838  0.32927295  1
  Co  Co30  1  0.16283215  0.99099931  0.16360023  1
  Co  Co31  1  0.16282148  0.83640451  0.82740674  1
  Co  Co32  1  0.16284254  0.17260099  0.00899903  1
  Co  Co33  1  0.66283215  0.00900069  0.83639977  1
  Co  Co34  1  0.66282148  0.16359549  0.17259326  1
  Co  Co35  1  0.66284254  0.82739901  0.99100097  1
  Co  Co36  1  0.17238773  0.16588406  0.51345717  1
  Co  Co37  1  0.17239901  0.48654829  0.65242657  1
  Co  Co38  1  0.17239187  0.34757549  0.83411967  1
  Co  Co39  1  0.67238773  0.83411594  0.48654283  1
  Co  Co40  1  0.67239901  0.51345171  0.34757343  1
  Co  Co41  1  0.67239187  0.65242451  0.16588033  1
  Co  Co42  1  0.17007965  0.82195082  0.32365881  1
  Co  Co43  1  0.17007672  0.67634202  0.49829334  1
  Co  Co44  1  0.17008258  0.50170361  0.17804563  1
  Co  Co45  1  0.67007965  0.17804918  0.67634119  1
  Co  Co46  1  0.67007672  0.32365798  0.50170666  1
  Co  Co47  1  0.67008258  0.49829639  0.82195437  1
  P  P48  1  0.27591538  0.15660768  0.16611667  1
  P  P49  1  0.27596663  0.83387162  0.99047225  1
  P  P50  1  0.27592823  0.00953571  0.84341168  1
  P  P51  1  0.77591538  0.84339232  0.83388333  1
  P  P52  1  0.77596663  0.16612838  0.00952775  1
  P  P53  1  0.77592823  0.99046429  0.15658832  1
  P  P54  1  0.28532749  0.31866911  0.49416435  1
  P  P55  1  0.28530890  0.50583328  0.82447460  1
  P  P56  1  0.28532093  0.17552529  0.68136431  1
  P  P57  1  0.78532749  0.68133089  0.50583565  1
  P  P58  1  0.78530890  0.49416672  0.17552540  1
  P  P59  1  0.78532093  0.82447471  0.31863569  1
  P  P60  1  0.19303391  0.00332150  0.33881625  1
  P  P61  1  0.19304591  0.66116730  0.66450070  1
  P  P62  1  0.19304207  0.33549285  0.99667610  1
  P  P63  1  0.69303391  0.99667850  0.66118375  1
  P  P64  1  0.69304591  0.33883270  0.33549930  1
  P  P65  1  0.69304207  0.66450715  0.00332390  1
  P  P66  1  0.28554793  0.65740877  0.16365634  1
  P  P67  1  0.28554522  0.83633578  0.49375285  1
  P  P68  1  0.28555695  0.50624689  0.34260055  1
  P  P69  1  0.78554793  0.34259123  0.83634366  1
  P  P70  1  0.78554522  0.16366422  0.50624715  1
  P  P71  1  0.78555695  0.49375311  0.65739945  1
  O  O72  1  0.44250794  0.14195849  0.18847483  1
  O  O73  1  0.44248894  0.81150652  0.95346724  1
  O  O74  1  0.44248105  0.04652843  0.85804273  1
  O  O75  1  0.94250794  0.85804151  0.81152517  1
  O  O76  1  0.94248894  0.18849348  0.04653276  1
  O  O77  1  0.94248105  0.95347157  0.14195727  1
  O  O78  1  0.15983468  0.10968857  0.19285757  1
  O  O79  1  0.15985285  0.80712303  0.91680839  1
  O  O80  1  0.15982911  0.08315976  0.89030746  1
  O  O81  1  0.65983468  0.89031143  0.80714243  1
  O  O82  1  0.65985285  0.19287697  0.08319161  1
  O  O83  1  0.65982911  0.91684024  0.10969254  1
  O  O84  1  0.21945870  0.28923611  0.40483009  1
  O  O85  1  0.21945540  0.59516484  0.88441109  1
  O  O86  1  0.21945928  0.11559395  0.71075615  1
  O  O87  1  0.71945870  0.71076389  0.59516991  1
  O  O88  1  0.71945540  0.40483516  0.11558891  1
  O  O89  1  0.71945928  0.88440605  0.28924385  1
  O  O90  1  0.26445357  0.92947906  0.05297085  1
  O  O91  1  0.26445310  0.94702313  0.87652313  1
  O  O92  1  0.26446019  0.12349308  0.07051421  1
  O  O93  1  0.76445357  0.07052094  0.94702915  1
  O  O94  1  0.76445310  0.05297687  0.12347687  1
  O  O95  1  0.76446019  0.87650692  0.92948579  1
  O  O96  1  0.28454084  0.41595289  0.54640702  1
  O  O97  1  0.28454132  0.45357316  0.86955804  1
  O  O98  1  0.28453732  0.13045613  0.58402362  1
  O  O99  1  0.78454084  0.58404711  0.45359298  1
  O  O100  1  0.78454132  0.54642684  0.13044196  1
  O  O101  1  0.78453732  0.86954387  0.41597638  1
  O  O102  1  0.45298342  0.28469936  0.48648989  1
  O  O103  1  0.45297436  0.51350816  0.79821862  1
  O  O104  1  0.45297101  0.20178905  0.71529608  1
  O  O105  1  0.95298342  0.71530064  0.51351011  1
  O  O106  1  0.95297436  0.48649184  0.20178138  1
  O  O107  1  0.95297101  0.79821095  0.28470392  1
  O  O108  1  0.23301228  0.78626933  0.03805383  1
  O  O109  1  0.23301654  0.96193856  0.74821250  1
  O  O110  1  0.23301865  0.25178240  0.21372610  1
  O  O111  1  0.73301228  0.21373067  0.96194617  1
  O  O112  1  0.73301654  0.03806144  0.25178750  1
  O  O113  1  0.73301865  0.74821760  0.78627390  1
  O  O114  1  0.18399647  0.28352402  0.53933987  1
  O  O115  1  0.18401527  0.46065884  0.74420413  1
  O  O116  1  0.18400638  0.25580974  0.71647159  1
  O  O117  1  0.68399647  0.71647598  0.46066013  1
  O  O118  1  0.68401527  0.53934116  0.25579587  1
  O  O119  1  0.68400638  0.74419026  0.28352841  1
  O  O120  1  0.26457210  0.97329768  0.25041883  1
  O  O121  1  0.26456480  0.74961934  0.72287174  1
  O  O122  1  0.26457567  0.27712342  0.02670001  1
  O  O123  1  0.76457210  0.02670232  0.74958117  1
  O  O124  1  0.76456480  0.25038066  0.27712826  1
  O  O125  1  0.76457567  0.72287658  0.97329999  1
  O  O126  1  0.26683862  0.08894758  0.40272718  1
  O  O127  1  0.26684462  0.59730500  0.68623183  1
  O  O128  1  0.26684525  0.31377478  0.91104827  1
  O  O129  1  0.76683862  0.91105242  0.59727282  1
  O  O130  1  0.76684462  0.40269500  0.31376817  1
  O  O131  1  0.76684525  0.68622522  0.08895173  1
  O  O132  1  0.01778641  0.01553089  0.33577049  1
  O  O133  1  0.01778816  0.66423805  0.67976684  1
  O  O134  1  0.01778512  0.32023859  0.98446524  1
  O  O135  1  0.51778641  0.98446911  0.66422951  1
  O  O136  1  0.51778816  0.33576195  0.32023316  1
  O  O137  1  0.51778512  0.67976141  0.01553476  1
  O  O138  1  0.23178157  0.93965211  0.36822242  1
  O  O139  1  0.23178150  0.63177920  0.57143186  1
  O  O140  1  0.23178169  0.42856976  0.06034311  1
  O  O141  1  0.73178157  0.06034789  0.63177758  1
  O  O142  1  0.73178150  0.36822080  0.42856814  1
  O  O143  1  0.73178169  0.57143024  0.93965689  1
  O  O144  1  0.21373169  0.63503171  0.07727129  1
  O  O145  1  0.21373588  0.92272825  0.55775911  1
  O  O146  1  0.21372307  0.44223957  0.36496297  1
  O  O147  1  0.71373169  0.36496829  0.92272871  1
  O  O148  1  0.71373588  0.07727175  0.44224089  1
  O  O149  1  0.71372307  0.55776043  0.63503703  1
  O  O150  1  0.29175399  0.75437489  0.22088615  1
  O  O151  1  0.29175230  0.77911735  0.53348537  1
  O  O152  1  0.29174804  0.46650936  0.24561702  1
  O  O153  1  0.79175399  0.24562511  0.77911385  1
  O  O154  1  0.79175230  0.22088265  0.46651463  1
  O  O155  1  0.79174804  0.53349064  0.75438298  1
  O  O156  1  0.45089734  0.61967057  0.15163567  1
  O  O157  1  0.45090750  0.84836264  0.46802855  1
  O  O158  1  0.45087051  0.53196635  0.38032633  1
  O  O159  1  0.95089734  0.38032943  0.84836433  1
  O  O160  1  0.95090750  0.15163736  0.53197145  1
  O  O161  1  0.95087051  0.46803365  0.61967367  1
  O  O162  1  0.18296566  0.62022554  0.20661814  1
  O  O163  1  0.18296484  0.79337996  0.41360551  1
  O  O164  1  0.18294758  0.58639480  0.37976979  1
  O  O165  1  0.68296566  0.37977446  0.79338186  1
  O  O166  1  0.68296484  0.20662004  0.58639449  1
  O  O167  1  0.68294758  0.41360520  0.62023021  1
