# generated using pymatgen
data_Ca14MnSb11
_symmetry_space_group_name_H-M   'P 1'
_cell_length_a   16.27774215
_cell_length_b   16.27774215
_cell_length_c   16.27774215
_cell_angle_alpha   117.77639748
_cell_angle_beta   117.77639748
_cell_angle_gamma   93.89657146
_symmetry_Int_Tables_number   1
_chemical_formula_structural   Ca14MnSb11
_chemical_formula_sum   'Ca56 Mn4 Sb44'
_cell_volume   3144.40872281
_cell_formula_units_Z   4
loop_
 _symmetry_equiv_pos_site_id
 _symmetry_equiv_pos_as_xyz
  1  'x, y, z'
loop_
 _atom_site_type_symbol
 _atom_site_label
 _atom_site_symmetry_multiplicity
 _atom_site_fract_x
 _atom_site_fract_y
 _atom_site_fract_z
 _atom_site_occupancy
  Ca  Ca0  1  0.74571800  0.52733700  0.86660800  1
  Ca  Ca1  1  0.24571800  0.37911000  0.21838100  1
  Ca  Ca2  1  0.77733700  0.49571800  0.36660800  1
  Ca  Ca3  1  0.27733700  0.91072900  0.28161900  1
  Ca  Ca4  1  0.00428200  0.72266300  0.63339200  1
  Ca  Ca5  1  0.50428200  0.87089000  0.28161900  1
  Ca  Ca6  1  0.97266300  0.75428200  0.13339200  1
  Ca  Ca7  1  0.47266300  0.33927100  0.21838100  1
  Ca  Ca8  1  0.16072900  0.02733700  0.78161900  1
  Ca  Ca9  1  0.66072900  0.87911000  0.13339200  1
  Ca  Ca10  1  0.62911000  0.99571800  0.71838100  1
  Ca  Ca11  1  0.12911000  0.41072900  0.63339200  1
  Ca  Ca12  1  0.58927100  0.22266300  0.71838100  1
  Ca  Ca13  1  0.08927100  0.37089000  0.36660800  1
  Ca  Ca14  1  0.12089000  0.25428200  0.78161900  1
  Ca  Ca15  1  0.62089000  0.83927100  0.86660800  1
  Ca  Ca16  1  0.89439300  0.99827200  0.14956800  1
  Ca  Ca17  1  0.39439300  0.24482500  0.89612000  1
  Ca  Ca18  1  0.24827200  0.64439300  0.64956800  1
  Ca  Ca19  1  0.74827200  0.09870400  0.60388000  1
  Ca  Ca20  1  0.85560700  0.25172800  0.35043200  1
  Ca  Ca21  1  0.35560700  0.00517500  0.60388000  1
  Ca  Ca22  1  0.50172800  0.60560700  0.85043200  1
  Ca  Ca23  1  0.00172800  0.15129600  0.89612000  1
  Ca  Ca24  1  0.34870400  0.49827200  0.10388000  1
  Ca  Ca25  1  0.84870400  0.74482500  0.85043200  1
  Ca  Ca26  1  0.49482500  0.14439300  0.39612000  1
  Ca  Ca27  1  0.99482500  0.59870400  0.35043200  1
  Ca  Ca28  1  0.40129600  0.75172800  0.39612000  1
  Ca  Ca29  1  0.90129600  0.50517500  0.64956800  1
  Ca  Ca30  1  0.25517500  0.10560700  0.10388000  1
  Ca  Ca31  1  0.75517500  0.65129600  0.14956800  1
  Ca  Ca32  1  0.97866700  0.37500000  0.10366700  1
  Ca  Ca33  1  0.47866700  0.37500000  0.60366700  1
  Ca  Ca34  1  0.62500000  0.72866700  0.60366700  1
  Ca  Ca35  1  0.12500000  0.52133300  0.89633300  1
  Ca  Ca36  1  0.77133300  0.87500000  0.39633300  1
  Ca  Ca37  1  0.27133300  0.87500000  0.89633300  1
  Ca  Ca38  1  0.62500000  0.22866700  0.10366700  1
  Ca  Ca39  1  0.12500000  0.02133300  0.39633300  1
  Ca  Ca40  1  0.12313300  0.60311000  0.16222000  1
  Ca  Ca41  1  0.62313300  0.46091200  0.52002300  1
  Ca  Ca42  1  0.85311000  0.87313300  0.66222000  1
  Ca  Ca43  1  0.35311000  0.69089000  0.97997700  1
  Ca  Ca44  1  0.62686700  0.64689000  0.33778000  1
  Ca  Ca45  1  0.12686700  0.78908800  0.97997700  1
  Ca  Ca46  1  0.89689000  0.37686700  0.83778000  1
  Ca  Ca47  1  0.39689000  0.55911000  0.52002300  1
  Ca  Ca48  1  0.94089000  0.10311000  0.47997700  1
  Ca  Ca49  1  0.44089000  0.96091200  0.83778000  1
  Ca  Ca50  1  0.71091200  0.37313300  0.02002300  1
  Ca  Ca51  1  0.21091200  0.19089000  0.33778000  1
  Ca  Ca52  1  0.80911000  0.14689000  0.02002300  1
  Ca  Ca53  1  0.30911000  0.28908800  0.66222000  1
  Ca  Ca54  1  0.03908800  0.87686700  0.47997700  1
  Ca  Ca55  1  0.53908800  0.05911000  0.16222000  1
  Mn  Mn56  1  0.50000000  0.50000000  0.00000000  1
  Mn  Mn57  1  0.00000000  0.00000000  0.00000000  1
  Mn  Mn58  1  0.75000000  0.25000000  0.50000000  1
  Mn  Mn59  1  0.25000000  0.75000000  0.50000000  1
  Sb  Sb60  1  0.88600200  0.88600200  0.27200300  1
  Sb  Sb61  1  0.38600200  0.11399800  0.00000000  1
  Sb  Sb62  1  0.13600200  0.63600200  0.77200300  1
  Sb  Sb63  1  0.63600200  0.86399800  0.50000000  1
  Sb  Sb64  1  0.86399800  0.36399800  0.22799700  1
  Sb  Sb65  1  0.36399800  0.13600200  0.50000000  1
  Sb  Sb66  1  0.61399800  0.61399800  0.72799700  1
  Sb  Sb67  1  0.11399800  0.38600200  0.00000000  1
  Sb  Sb68  1  0.17464700  0.81811100  0.36710400  1
  Sb  Sb69  1  0.67464700  0.30754200  0.35653500  1
  Sb  Sb70  1  0.06811100  0.92464700  0.86710400  1
  Sb  Sb71  1  0.56811100  0.70100700  0.14346500  1
  Sb  Sb72  1  0.57535300  0.43188900  0.13289600  1
  Sb  Sb73  1  0.07535300  0.94245800  0.14346500  1
  Sb  Sb74  1  0.68188900  0.32535300  0.63289600  1
  Sb  Sb75  1  0.18188900  0.54899300  0.35653500  1
  Sb  Sb76  1  0.95100700  0.31811100  0.64346500  1
  Sb  Sb77  1  0.45100700  0.80754200  0.63289600  1
  Sb  Sb78  1  0.55754200  0.42464700  0.85653500  1
  Sb  Sb79  1  0.05754200  0.20100700  0.13289600  1
  Sb  Sb80  1  0.79899300  0.93188900  0.85653500  1
  Sb  Sb81  1  0.29899300  0.44245800  0.86710400  1
  Sb  Sb82  1  0.19245800  0.82535300  0.64346500  1
  Sb  Sb83  1  0.69245800  0.04899300  0.36710400  1
  Sb  Sb84  1  0.95791700  0.60456100  0.90638500  1
  Sb  Sb85  1  0.45791700  0.55153100  0.35335500  1
  Sb  Sb86  1  0.85456100  0.70791700  0.40638500  1
  Sb  Sb87  1  0.35456100  0.94817600  0.14664500  1
  Sb  Sb88  1  0.79208300  0.64543900  0.59361500  1
  Sb  Sb89  1  0.29208300  0.69846900  0.14664500  1
  Sb  Sb90  1  0.89543900  0.54208300  0.09361500  1
  Sb  Sb91  1  0.39543900  0.30182400  0.35335500  1
  Sb  Sb92  1  0.19817600  0.10456100  0.64664500  1
  Sb  Sb93  1  0.69817600  0.05153100  0.09361500  1
  Sb  Sb94  1  0.80153100  0.20791700  0.85335500  1
  Sb  Sb95  1  0.30153100  0.44817600  0.59361500  1
  Sb  Sb96  1  0.55182400  0.14543900  0.85335500  1
  Sb  Sb97  1  0.05182400  0.19846900  0.40638500  1
  Sb  Sb98  1  0.94846900  0.04208300  0.64664500  1
  Sb  Sb99  1  0.44846900  0.80182400  0.90638500  1
  Sb  Sb100  1  0.75000000  0.75000000  0.00000000  1
  Sb  Sb101  1  0.25000000  0.25000000  0.00000000  1
  Sb  Sb102  1  0.00000000  0.50000000  0.50000000  1
  Sb  Sb103  1  0.50000000  0.00000000  0.50000000  1
