# generated using pymatgen
data_Cs3Mn4(PO3)12
_symmetry_space_group_name_H-M   'P 1'
_cell_length_a   9.68411367
_cell_length_b   9.68411367
_cell_length_c   12.62656879
_cell_angle_alpha   59.17604443
_cell_angle_beta   59.17604443
_cell_angle_gamma   63.41165236
_symmetry_Int_Tables_number   1
_chemical_formula_structural   Cs3Mn4(PO3)12
_chemical_formula_sum   'Cs3 Mn4 P12 O36'
_cell_volume   845.30999835
_cell_formula_units_Z   1
loop_
 _symmetry_equiv_pos_site_id
 _symmetry_equiv_pos_as_xyz
  1  'x, y, z'
loop_
 _atom_site_type_symbol
 _atom_site_label
 _atom_site_symmetry_multiplicity
 _atom_site_fract_x
 _atom_site_fract_y
 _atom_site_fract_z
 _atom_site_occupancy
  Cs  Cs0  1  0.00000000  0.00000000  0.50000000  1
  Cs  Cs1  1  0.78421800  0.21578200  0.00000000  1
  Cs  Cs2  1  0.21578200  0.78421800  0.00000000  1
  Mn  Mn3  1  0.20819200  0.20819200  0.58852500  1
  Mn  Mn4  1  0.79180800  0.79180800  0.41147500  1
  Mn  Mn5  1  0.74943800  0.74943800  0.92718600  1
  Mn  Mn6  1  0.25056200  0.25056200  0.07281400  1
  P  P7  1  0.83497400  0.41874500  0.19970600  1
  P  P8  1  0.58125500  0.16502600  0.80029400  1
  P  P9  1  0.16502600  0.58125500  0.80029400  1
  P  P10  1  0.41874500  0.83497400  0.19970600  1
  P  P11  1  0.60649400  0.19783300  0.37160600  1
  P  P12  1  0.80216700  0.39350600  0.62839400  1
  P  P13  1  0.39350600  0.80216700  0.62839400  1
  P  P14  1  0.19783300  0.60649400  0.37160600  1
  P  P15  1  0.33318800  0.33318800  0.27321500  1
  P  P16  1  0.66681200  0.66681200  0.72678500  1
  P  P17  1  0.76203200  0.76203200  0.17521500  1
  P  P18  1  0.23796800  0.23796800  0.82478500  1
  O  O19  1  0.68007100  0.34656400  0.32847900  1
  O  O20  1  0.65343600  0.31992900  0.67152100  1
  O  O21  1  0.31992900  0.65343600  0.67152100  1
  O  O22  1  0.34656400  0.68007100  0.32847900  1
  O  O23  1  0.99499700  0.29403800  0.20980900  1
  O  O24  1  0.70596200  0.00500300  0.79019100  1
  O  O25  1  0.00500300  0.70596200  0.79019100  1
  O  O26  1  0.29403800  0.99499700  0.20980900  1
  O  O27  1  0.81388900  0.56383200  0.23969800  1
  O  O28  1  0.43616800  0.18611100  0.76030200  1
  O  O29  1  0.18611100  0.43616800  0.76030200  1
  O  O30  1  0.56383200  0.81388900  0.23969800  1
  O  O31  1  0.80035200  0.49134700  0.07564800  1
  O  O32  1  0.50865300  0.19964800  0.92435200  1
  O  O33  1  0.19964800  0.50865300  0.92435200  1
  O  O34  1  0.49134700  0.80035200  0.07564800  1
  O  O35  1  0.75065400  0.05468900  0.34400200  1
  O  O36  1  0.94531100  0.24934600  0.65599800  1
  O  O37  1  0.24934600  0.94531100  0.65599800  1
  O  O38  1  0.05468900  0.75065400  0.34400200  1
  O  O39  1  0.47334100  0.17760100  0.50636200  1
  O  O40  1  0.82239900  0.52665900  0.49363800  1
  O  O41  1  0.52665900  0.82239900  0.49363800  1
  O  O42  1  0.17760100  0.47334100  0.50636200  1
  O  O43  1  0.52408800  0.27451900  0.26085900  1
  O  O44  1  0.72548100  0.47591200  0.73914100  1
  O  O45  1  0.47591200  0.72548100  0.73914100  1
  O  O46  1  0.27451900  0.52408800  0.26085900  1
  O  O47  1  0.33894900  0.33894900  0.15040500  1
  O  O48  1  0.66105100  0.66105100  0.84959500  1
  O  O49  1  0.23042200  0.23042200  0.40740200  1
  O  O50  1  0.76957800  0.76957800  0.59259800  1
  O  O51  1  0.82562400  0.82562400  0.22512400  1
  O  O52  1  0.17437600  0.17437600  0.77487600  1
  O  O53  1  0.82276100  0.82276100  0.02652300  1
  O  O54  1  0.17723900  0.17723900  0.97347700  1
