# generated using pymatgen
data_Ba3SiI2
_symmetry_space_group_name_H-M   'P 1'
_cell_length_a   16.54025116
_cell_length_b   15.77708699
_cell_length_c   8.77070413
_cell_angle_alpha   79.11492383
_cell_angle_beta   69.50426674
_cell_angle_gamma   31.38080943
_symmetry_Int_Tables_number   1
_chemical_formula_structural   Ba3SiI2
_chemical_formula_sum   'Ba12 Si4 I8'
_cell_volume   1087.57306959
_cell_formula_units_Z   4
loop_
 _symmetry_equiv_pos_site_id
 _symmetry_equiv_pos_as_xyz
  1  'x, y, z'
loop_
 _atom_site_type_symbol
 _atom_site_label
 _atom_site_symmetry_multiplicity
 _atom_site_fract_x
 _atom_site_fract_y
 _atom_site_fract_z
 _atom_site_occupancy
  Ba  Ba0  1  0.37215000  0.94505200  0.58819600  1
  Ba  Ba1  1  0.58819600  0.09460300  0.37215000  1
  Ba  Ba2  1  0.30494800  0.87785000  0.15539700  1
  Ba  Ba3  1  0.94505200  0.37215000  0.09460300  1
  Ba  Ba4  1  0.45694100  0.04305900  0.04305900  1
  Ba  Ba5  1  0.87785000  0.30494800  0.66180400  1
  Ba  Ba6  1  0.09460300  0.58819600  0.94505200  1
  Ba  Ba7  1  0.66180400  0.15539700  0.87785000  1
  Ba  Ba8  1  0.79305900  0.20694100  0.20694100  1
  Ba  Ba9  1  0.20694100  0.79305900  0.79305900  1
  Ba  Ba10  1  0.15539700  0.66180400  0.30494800  1
  Ba  Ba11  1  0.04305900  0.45694100  0.45694100  1
  Si  Si12  1  0.08417300  0.08417300  0.91582700  1
  Si  Si13  1  0.91582700  0.91582700  0.08417300  1
  Si  Si14  1  0.16582700  0.16582700  0.33417300  1
  Si  Si15  1  0.33417300  0.33417300  0.16582700  1
  I  I16  1  0.67264900  0.67264900  0.82735100  1
  I  I17  1  0.74600700  0.74600700  0.25399300  1
  I  I18  1  0.25399300  0.25399300  0.74600700  1
  I  I19  1  0.57735100  0.57735100  0.42264900  1
  I  I20  1  0.99600700  0.99600700  0.50399300  1
  I  I21  1  0.82735100  0.82735100  0.67264900  1
  I  I22  1  0.42264900  0.42264900  0.57735100  1
  I  I23  1  0.50399300  0.50399300  0.99600700  1
