# generated using pymatgen
data_Rb8Fe2O7
_symmetry_space_group_name_H-M   'P 1'
_cell_length_a   17.74373900
_cell_length_b   7.03468700
_cell_length_c   7.07376824
_cell_angle_alpha   61.00579616
_cell_angle_beta   90.00000000
_cell_angle_gamma   90.00000000
_symmetry_Int_Tables_number   1
_chemical_formula_structural   Rb8Fe2O7
_chemical_formula_sum   'Rb16 Fe4 O14'
_cell_volume   772.29701263
_cell_formula_units_Z   2
loop_
 _symmetry_equiv_pos_site_id
 _symmetry_equiv_pos_as_xyz
  1  'x, y, z'
loop_
 _atom_site_type_symbol
 _atom_site_label
 _atom_site_symmetry_multiplicity
 _atom_site_fract_x
 _atom_site_fract_y
 _atom_site_fract_z
 _atom_site_occupancy
  Rb  Rb0  1  0.71082700  0.55188200  0.23265200  1
  Rb  Rb1  1  0.58142800  0.00372400  0.63926300  1
  Rb  Rb2  1  0.78917300  0.05188200  0.23265200  1
  Rb  Rb3  1  0.28917300  0.44811800  0.76734800  1
  Rb  Rb4  1  0.69027000  0.45305400  0.78175100  1
  Rb  Rb5  1  0.41857200  0.99627600  0.36073700  1
  Rb  Rb6  1  0.30973000  0.54694600  0.21824900  1
  Rb  Rb7  1  0.50563700  0.54327200  0.22819900  1
  Rb  Rb8  1  0.80973000  0.95305400  0.78175100  1
  Rb  Rb9  1  0.99436300  0.04327200  0.22819900  1
  Rb  Rb10  1  0.08142800  0.49627600  0.36073700  1
  Rb  Rb11  1  0.00563700  0.95672800  0.77180100  1
  Rb  Rb12  1  0.49436300  0.45672800  0.77180100  1
  Rb  Rb13  1  0.91857200  0.50372400  0.63926300  1
  Rb  Rb14  1  0.19027000  0.04694600  0.21824900  1
  Rb  Rb15  1  0.21082700  0.94811800  0.76734800  1
  Fe  Fe16  1  0.09713000  0.50033000  0.85793700  1
  Fe  Fe17  1  0.40287000  0.00033000  0.85793700  1
  Fe  Fe18  1  0.59713000  0.99967000  0.14206300  1
  Fe  Fe19  1  0.90287000  0.49967000  0.14206300  1
  O  O20  1  0.32345900  0.00235800  0.04285200  1
  O  O21  1  0.39886200  0.25766800  0.58131700  1
  O  O22  1  0.89886200  0.24233200  0.41868300  1
  O  O23  1  0.10113800  0.75766800  0.58131700  1
  O  O24  1  0.17654100  0.50235800  0.04285200  1
  O  O25  1  0.39565000  0.73965000  0.83535100  1
  O  O26  1  0.89565000  0.76035000  0.16464900  1
  O  O27  1  0.60113800  0.74233200  0.41868300  1
  O  O28  1  0.00000000  0.50000000  0.00000000  1
  O  O29  1  0.60435000  0.26035000  0.16464900  1
  O  O30  1  0.67654100  0.99764200  0.95714800  1
  O  O31  1  0.82345900  0.49764200  0.95714800  1
  O  O32  1  0.50000000  0.00000000  0.00000000  1
  O  O33  1  0.10435000  0.23965000  0.83535100  1
