# generated using pymatgen
data_KInS2
_symmetry_space_group_name_H-M   'P 1'
_cell_length_a   7.92070402
_cell_length_b   7.92070402
_cell_length_c   15.24651869
_cell_angle_alpha   82.51745488
_cell_angle_beta   82.51745488
_cell_angle_gamma   89.98973935
_symmetry_Int_Tables_number   1
_chemical_formula_structural   KInS2
_chemical_formula_sum   'K8 In8 S16'
_cell_volume   940.17113889
_cell_formula_units_Z   8
loop_
 _symmetry_equiv_pos_site_id
 _symmetry_equiv_pos_as_xyz
  1  'x, y, z'
loop_
 _atom_site_type_symbol
 _atom_site_label
 _atom_site_symmetry_multiplicity
 _atom_site_fract_x
 _atom_site_fract_y
 _atom_site_fract_z
 _atom_site_occupancy
  K  K0  1  0.15373600  0.77800200  0.88381500  1
  K  K1  1  0.22199800  0.84626400  0.61618500  1
  K  K2  1  0.84626400  0.22199800  0.11618500  1
  K  K3  1  0.77800200  0.15373600  0.38381500  1
  K  K4  1  0.22147000  0.34484600  0.61763000  1
  K  K5  1  0.65515400  0.77853000  0.88237000  1
  K  K6  1  0.77853000  0.65515400  0.38237000  1
  K  K7  1  0.34484600  0.22147000  0.11763000  1
  In  In8  1  0.91181100  0.28882100  0.84421400  1
  In  In9  1  0.71117900  0.08818900  0.65578600  1
  In  In10  1  0.08818900  0.71117900  0.15578600  1
  In  In11  1  0.28882100  0.91181100  0.34421400  1
  In  In12  1  0.71106800  0.58424200  0.65534600  1
  In  In13  1  0.41575800  0.28893200  0.84465400  1
  In  In14  1  0.28893200  0.41575800  0.34465400  1
  In  In15  1  0.58424200  0.71106800  0.15534600  1
  S  S16  1  0.94675800  0.05324200  0.75000000  1
  S  S17  1  0.05324200  0.94675800  0.25000000  1
  S  S18  1  0.42860200  0.57139800  0.75000000  1
  S  S19  1  0.57139800  0.42860200  0.25000000  1
  S  S20  1  0.13859800  0.26569100  0.94402200  1
  S  S21  1  0.73430900  0.86140200  0.55597800  1
  S  S22  1  0.86140200  0.73430900  0.05597800  1
  S  S23  1  0.26569100  0.13859800  0.44402200  1
  S  S24  1  0.94696000  0.57126800  0.74942400  1
  S  S25  1  0.42873200  0.05304000  0.75057600  1
  S  S26  1  0.05304000  0.42873200  0.25057600  1
  S  S27  1  0.57126800  0.94696000  0.24942400  1
  S  S28  1  0.73576700  0.36132000  0.55400700  1
  S  S29  1  0.63868000  0.26423300  0.94599300  1
  S  S30  1  0.26423300  0.63868000  0.44599300  1
  S  S31  1  0.36132000  0.73576700  0.05400700  1
