# generated using pymatgen
data_Bi2Au5F21
_symmetry_space_group_name_H-M   'P 1'
_cell_length_a   8.40960500
_cell_length_b   8.40960500
_cell_length_c   26.15705500
_cell_angle_alpha   90.00000000
_cell_angle_beta   90.00000000
_cell_angle_gamma   90.00000000
_symmetry_Int_Tables_number   1
_chemical_formula_structural   Bi2Au5F21
_chemical_formula_sum   'Bi8 Au20 F84'
_cell_volume   1849.86502097
_cell_formula_units_Z   4
loop_
 _symmetry_equiv_pos_site_id
 _symmetry_equiv_pos_as_xyz
  1  'x, y, z'
loop_
 _atom_site_type_symbol
 _atom_site_label
 _atom_site_symmetry_multiplicity
 _atom_site_fract_x
 _atom_site_fract_y
 _atom_site_fract_z
 _atom_site_occupancy
  Bi  Bi0  1  0.05710300  0.57125400  0.75209600  1
  Bi  Bi1  1  0.07125400  0.44289700  0.50209600  1
  Bi  Bi2  1  0.42874600  0.94289700  0.74790400  1
  Bi  Bi3  1  0.44289700  0.07125400  0.49790400  1
  Bi  Bi4  1  0.94289700  0.42874600  0.25209600  1
  Bi  Bi5  1  0.92874600  0.55710300  0.00209600  1
  Bi  Bi6  1  0.55710300  0.92874600  0.99790400  1
  Bi  Bi7  1  0.57125400  0.05710300  0.24790400  1
  Au  Au8  1  0.82125400  0.20770300  0.11104100  1
  Au  Au9  1  0.41092100  0.35544600  0.84328000  1
  Au  Au10  1  0.35544600  0.41092100  0.15672000  1
  Au  Au11  1  0.29229700  0.32125400  0.36104100  1
  Au  Au12  1  0.94190500  0.05809500  0.75000000  1
  Au  Au13  1  0.44190500  0.44190500  0.00000000  1
  Au  Au14  1  0.70770300  0.67874600  0.86104100  1
  Au  Au15  1  0.32125400  0.29229700  0.63895900  1
  Au  Au16  1  0.08907900  0.85544600  0.40672000  1
  Au  Au17  1  0.91092100  0.14455400  0.90672000  1
  Au  Au18  1  0.79229700  0.17874600  0.38895900  1
  Au  Au19  1  0.20770300  0.82125400  0.88895900  1
  Au  Au20  1  0.05809500  0.94190500  0.25000000  1
  Au  Au21  1  0.17874600  0.79229700  0.61104100  1
  Au  Au22  1  0.64455400  0.58907900  0.65672000  1
  Au  Au23  1  0.58907900  0.64455400  0.34328000  1
  Au  Au24  1  0.67874600  0.70770300  0.13895900  1
  Au  Au25  1  0.55809500  0.55809500  0.50000000  1
  Au  Au26  1  0.85544600  0.08907900  0.59328000  1
  Au  Au27  1  0.14455400  0.91092100  0.09328000  1
  F  F28  1  0.55896300  0.79107900  0.49815800  1
  F  F29  1  0.90666400  0.80239800  0.36510500  1
  F  F30  1  0.36575700  0.52749700  0.89110900  1
  F  F31  1  0.41332500  0.22473900  0.20022100  1
  F  F32  1  0.94103700  0.29107900  0.75184200  1
  F  F33  1  0.09333600  0.19760200  0.86510500  1
  F  F34  1  0.68410000  0.03225700  0.54480400  1
  F  F35  1  0.30239800  0.59333600  0.11510500  1
  F  F36  1  0.32227700  0.93252800  0.83393100  1
  F  F37  1  0.18410000  0.46774300  0.20519600  1
  F  F38  1  0.81590000  0.53225700  0.70519600  1
  F  F39  1  0.82151000  0.54488500  0.81085200  1
  F  F40  1  0.41009700  0.22272600  0.30376500  1
  F  F41  1  0.93554000  0.82190800  0.75116900  1
  F  F42  1  0.63424300  0.47250300  0.39110900  1
  F  F43  1  0.20892100  0.44103700  0.00184200  1
  F  F44  1  0.91472800  0.30661600  0.33915100  1
  F  F45  1  0.03225700  0.68410000  0.45519600  1
  F  F46  1  0.27526100  0.91332500  0.45022100  1
  F  F47  1  0.71966600  0.28033400  0.25000000  1
  F  F48  1  0.43252800  0.17772300  0.58393100  1
  F  F49  1  0.56747200  0.82227700  0.08393100  1
  F  F50  1  0.96774300  0.31590000  0.95519600  1
  F  F51  1  0.58527200  0.80661600  0.91084900  1
  F  F52  1  0.69760200  0.40666400  0.61510500  1
  F  F53  1  0.47250300  0.63424300  0.60889100  1
  F  F54  1  0.72272600  0.08990300  0.05376500  1
  F  F55  1  0.79107900  0.55896300  0.50184200  1
  F  F56  1  0.80239800  0.90666400  0.63489500  1
  F  F57  1  0.19338400  0.41472800  0.58915100  1
  F  F58  1  0.67809200  0.43554000  0.00116900  1
  F  F59  1  0.91009700  0.27727400  0.44623500  1
  F  F60  1  0.82190800  0.93554000  0.24883100  1
  F  F61  1  0.58990300  0.77727400  0.80376500  1
  F  F62  1  0.30661600  0.91472800  0.66084900  1
  F  F63  1  0.17772300  0.43252800  0.41606900  1
  F  F64  1  0.32151000  0.95511500  0.93914800  1
  F  F65  1  0.22473900  0.41332500  0.79977900  1
  F  F66  1  0.58667500  0.77526100  0.70022100  1
  F  F67  1  0.45511500  0.17849000  0.68914800  1
  F  F68  1  0.02749700  0.13424300  0.64110900  1
  F  F69  1  0.54488500  0.82151000  0.18914800  1
  F  F70  1  0.67849000  0.04488500  0.43914800  1
  F  F71  1  0.04488500  0.67849000  0.56085200  1
  F  F72  1  0.93252800  0.32227700  0.16606900  1
  F  F73  1  0.82227700  0.56747200  0.91606900  1
  F  F74  1  0.08990300  0.72272600  0.94623500  1
  F  F75  1  0.46774300  0.18410000  0.79480400  1
  F  F76  1  0.97250300  0.86575700  0.14110900  1
  F  F77  1  0.91332500  0.27526100  0.54977900  1
  F  F78  1  0.05896300  0.70892100  0.25184200  1
  F  F79  1  0.08667500  0.72473900  0.04977900  1
  F  F80  1  0.13424300  0.02749700  0.35889100  1
  F  F81  1  0.53225700  0.81590000  0.29480400  1
  F  F82  1  0.95511500  0.32151000  0.06085200  1
  F  F83  1  0.52749700  0.36575700  0.10889100  1
  F  F84  1  0.72473900  0.08667500  0.95022100  1
  F  F85  1  0.29107900  0.94103700  0.24815800  1
  F  F86  1  0.59333600  0.30239800  0.88489500  1
  F  F87  1  0.44103700  0.20892100  0.99815800  1
  F  F88  1  0.17809200  0.06446000  0.74883100  1
  F  F89  1  0.43554000  0.67809200  0.99883100  1
  F  F90  1  0.86575700  0.97250300  0.85889100  1
  F  F91  1  0.17849000  0.45511500  0.31085200  1
  F  F92  1  0.28033400  0.71966600  0.75000000  1
  F  F93  1  0.40666400  0.69760200  0.38489500  1
  F  F94  1  0.41472800  0.19338400  0.41084900  1
  F  F95  1  0.21966600  0.21966600  0.50000000  1
  F  F96  1  0.78033400  0.78033400  0.00000000  1
  F  F97  1  0.22272600  0.41009700  0.69623500  1
  F  F98  1  0.67772300  0.06747200  0.33393100  1
  F  F99  1  0.56446000  0.32190800  0.49883100  1
  F  F100  1  0.08527200  0.69338400  0.83915100  1
  F  F101  1  0.80661600  0.58527200  0.08915100  1
  F  F102  1  0.70892100  0.05896300  0.74815800  1
  F  F103  1  0.31590000  0.96774300  0.04480400  1
  F  F104  1  0.06747200  0.67772300  0.66606900  1
  F  F105  1  0.32190800  0.56446000  0.50116900  1
  F  F106  1  0.19760200  0.09333600  0.13489500  1
  F  F107  1  0.69338400  0.08527200  0.16084900  1
  F  F108  1  0.06446000  0.17809200  0.25116900  1
  F  F109  1  0.77526100  0.58667500  0.29977900  1
  F  F110  1  0.77727400  0.58990300  0.19623500  1
  F  F111  1  0.27727400  0.91009700  0.55376500  1
