# generated using pymatgen
data_Na5Li(PO4)2
_symmetry_space_group_name_H-M   'P 1'
_cell_length_a   10.26371000
_cell_length_b   10.27690200
_cell_length_c   14.92099800
_cell_angle_alpha   90.00000000
_cell_angle_beta   90.00000000
_cell_angle_gamma   90.00000000
_symmetry_Int_Tables_number   1
_chemical_formula_structural   Na5Li(PO4)2
_chemical_formula_sum   'Na40 Li8 P16 O64'
_cell_volume   1573.85406423
_cell_formula_units_Z   8
loop_
 _symmetry_equiv_pos_site_id
 _symmetry_equiv_pos_as_xyz
  1  'x, y, z'
loop_
 _atom_site_type_symbol
 _atom_site_label
 _atom_site_symmetry_multiplicity
 _atom_site_fract_x
 _atom_site_fract_y
 _atom_site_fract_z
 _atom_site_occupancy
  Na  Na0  1  0.72241200  0.50316600  0.99775900  1
  Na  Na1  1  0.72241200  0.50316600  0.50224100  1
  Na  Na2  1  0.24303000  0.75757800  0.39511800  1
  Na  Na3  1  0.22241200  0.99683400  0.49775900  1
  Na  Na4  1  0.77758800  0.00316600  0.99775900  1
  Na  Na5  1  0.72507100  0.75368600  0.13676000  1
  Na  Na6  1  0.98426000  0.50962300  0.11274000  1
  Na  Na7  1  0.98426000  0.50962300  0.38726000  1
  Na  Na8  1  0.27758800  0.49683400  0.00224100  1
  Na  Na9  1  0.27492900  0.24631400  0.86324000  1
  Na  Na10  1  0.06623600  0.26771300  0.25000000  1
  Na  Na11  1  0.51574000  0.00962300  0.38726000  1
  Na  Na12  1  0.01678800  0.78618900  0.25000000  1
  Na  Na13  1  0.56623600  0.23228700  0.75000000  1
  Na  Na14  1  0.27492900  0.24631400  0.63676000  1
  Na  Na15  1  0.93376400  0.73228700  0.75000000  1
  Na  Na16  1  0.22507100  0.74631400  0.86324000  1
  Na  Na17  1  0.77492900  0.25368600  0.36324000  1
  Na  Na18  1  0.48426000  0.99037700  0.88726000  1
  Na  Na19  1  0.01574000  0.49037700  0.61274000  1
  Na  Na20  1  0.48321200  0.28618900  0.25000000  1
  Na  Na21  1  0.43376400  0.76771300  0.25000000  1
  Na  Na22  1  0.75697000  0.24242200  0.60488200  1
  Na  Na23  1  0.75697000  0.24242200  0.89511800  1
  Na  Na24  1  0.51678800  0.71381100  0.75000000  1
  Na  Na25  1  0.25697000  0.25757800  0.39511800  1
  Na  Na26  1  0.77492900  0.25368600  0.13676000  1
  Na  Na27  1  0.98321200  0.21381100  0.75000000  1
  Na  Na28  1  0.22241200  0.99683400  0.00224100  1
  Na  Na29  1  0.77758800  0.00316600  0.50224100  1
  Na  Na30  1  0.51574000  0.00962300  0.11274000  1
  Na  Na31  1  0.74303000  0.74242200  0.60488200  1
  Na  Na32  1  0.74303000  0.74242200  0.89511800  1
  Na  Na33  1  0.25697000  0.25757800  0.10488200  1
  Na  Na34  1  0.01574000  0.49037700  0.88726000  1
  Na  Na35  1  0.27758800  0.49683400  0.49775900  1
  Na  Na36  1  0.22507100  0.74631400  0.63676000  1
  Na  Na37  1  0.72507100  0.75368600  0.36324000  1
  Na  Na38  1  0.48426000  0.99037700  0.61274000  1
  Na  Na39  1  0.24303000  0.75757800  0.10488200  1
  Li  Li40  1  0.99573400  0.01000500  0.36015500  1
  Li  Li41  1  0.99573400  0.01000500  0.13984500  1
  Li  Li42  1  0.50426600  0.51000500  0.36015500  1
  Li  Li43  1  0.49573400  0.48999500  0.86015500  1
  Li  Li44  1  0.50426600  0.51000500  0.13984500  1
  Li  Li45  1  0.49573400  0.48999500  0.63984500  1
  Li  Li46  1  0.00426600  0.98999500  0.86015500  1
  Li  Li47  1  0.00426600  0.98999500  0.63984500  1
  P  P48  1  0.74774600  0.97959200  0.75000000  1
  P  P49  1  0.24774600  0.52040800  0.25000000  1
  P  P50  1  0.50526800  0.25118700  0.50075500  1
  P  P51  1  0.49473200  0.74881300  0.49924500  1
  P  P52  1  0.49473200  0.74881300  0.00075500  1
  P  P53  1  0.27496200  0.99717700  0.75000000  1
  P  P54  1  0.75225400  0.47959200  0.75000000  1
  P  P55  1  0.50526800  0.25118700  0.99924500  1
  P  P56  1  0.00526800  0.24881300  0.00075500  1
  P  P57  1  0.99473200  0.75118700  0.50075500  1
  P  P58  1  0.72503800  0.00282300  0.25000000  1
  P  P59  1  0.99473200  0.75118700  0.99924500  1
  P  P60  1  0.22503800  0.49717700  0.75000000  1
  P  P61  1  0.00526800  0.24881300  0.49924500  1
  P  P62  1  0.25225400  0.02040800  0.25000000  1
  P  P63  1  0.77496200  0.50282300  0.25000000  1
  O  O64  1  0.86960800  0.68040200  0.46833200  1
  O  O65  1  0.39443000  0.14768200  0.51100900  1
  O  O66  1  0.12449600  0.61178200  0.75000000  1
  O  O67  1  0.60557000  0.85231800  0.01100900  1
  O  O68  1  0.53456400  0.31820100  0.90744200  1
  O  O69  1  0.04111400  0.85606500  0.43168400  1
  O  O70  1  0.19049900  0.00704400  0.83707100  1
  O  O71  1  0.54111400  0.64393500  0.56831600  1
  O  O72  1  0.89443000  0.35231800  0.01100900  1
  O  O73  1  0.78404400  0.33032500  0.75000000  1
  O  O74  1  0.18835100  0.45480100  0.33390100  1
  O  O75  1  0.95888600  0.14393500  0.56831600  1
  O  O76  1  0.39971700  0.50252700  0.25000000  1
  O  O77  1  0.35142900  0.86566500  0.75000000  1
  O  O78  1  0.87550400  0.38821800  0.25000000  1
  O  O79  1  0.39443000  0.14768200  0.98899100  1
  O  O80  1  0.64857100  0.13433500  0.25000000  1
  O  O81  1  0.19049900  0.00704400  0.66292900  1
  O  O82  1  0.30950100  0.50704400  0.66292900  1
  O  O83  1  0.36960800  0.81959800  0.96833200  1
  O  O84  1  0.60557000  0.85231800  0.48899100  1
  O  O85  1  0.96543600  0.81820100  0.90744200  1
  O  O86  1  0.10557000  0.64768200  0.98899100  1
  O  O87  1  0.45888600  0.35606500  0.06831600  1
  O  O88  1  0.31164900  0.95480100  0.33390100  1
  O  O89  1  0.63039200  0.18040200  0.46833200  1
  O  O90  1  0.69049900  0.49295600  0.33707100  1
  O  O91  1  0.54111400  0.64393500  0.93168400  1
  O  O92  1  0.13039200  0.31959800  0.53166800  1
  O  O93  1  0.69049900  0.49295600  0.16292900  1
  O  O94  1  0.81164900  0.54519900  0.66609900  1
  O  O95  1  0.68835100  0.04519900  0.83390100  1
  O  O96  1  0.46543600  0.68179900  0.09255800  1
  O  O97  1  0.60028300  0.49747300  0.75000000  1
  O  O98  1  0.96543600  0.81820100  0.59255800  1
  O  O99  1  0.45888600  0.35606500  0.43168400  1
  O  O100  1  0.30950100  0.50704400  0.83707100  1
  O  O101  1  0.46543600  0.68179900  0.40744200  1
  O  O102  1  0.28404400  0.16967500  0.25000000  1
  O  O103  1  0.36960800  0.81959800  0.53166800  1
  O  O104  1  0.86960800  0.68040200  0.03166800  1
  O  O105  1  0.10557000  0.64768200  0.51100900  1
  O  O106  1  0.95888600  0.14393500  0.93168400  1
  O  O107  1  0.85142900  0.63433500  0.25000000  1
  O  O108  1  0.53456400  0.31820100  0.59255800  1
  O  O109  1  0.63039200  0.18040200  0.03166800  1
  O  O110  1  0.10028300  0.00252700  0.25000000  1
  O  O111  1  0.37550400  0.11178200  0.75000000  1
  O  O112  1  0.71595600  0.83032500  0.75000000  1
  O  O113  1  0.18835100  0.45480100  0.16609900  1
  O  O114  1  0.14857100  0.36566500  0.75000000  1
  O  O115  1  0.81164900  0.54519900  0.83390100  1
  O  O116  1  0.80950100  0.99295600  0.16292900  1
  O  O117  1  0.68835100  0.04519900  0.66609900  1
  O  O118  1  0.62449600  0.88821800  0.25000000  1
  O  O119  1  0.03456400  0.18179900  0.09255800  1
  O  O120  1  0.89443000  0.35231800  0.48899100  1
  O  O121  1  0.03456400  0.18179900  0.40744200  1
  O  O122  1  0.80950100  0.99295600  0.33707100  1
  O  O123  1  0.13039200  0.31959800  0.96833200  1
  O  O124  1  0.21595600  0.66967500  0.25000000  1
  O  O125  1  0.31164900  0.95480100  0.16609900  1
  O  O126  1  0.89971700  0.99747300  0.75000000  1
  O  O127  1  0.04111400  0.85606500  0.06831600  1
