# generated using pymatgen
data_Na2ZrSiO5
_symmetry_space_group_name_H-M   'P 1'
_cell_length_a   5.53856500
_cell_length_b   13.85916400
_cell_length_c   14.03236137
_cell_angle_alpha   60.67976386
_cell_angle_beta   90.00000000
_cell_angle_gamma   90.00000000
_symmetry_Int_Tables_number   1
_chemical_formula_structural   Na2ZrSiO5
_chemical_formula_sum   'Na16 Zr8 Si8 O40'
_cell_volume   939.13910130
_cell_formula_units_Z   8
loop_
 _symmetry_equiv_pos_site_id
 _symmetry_equiv_pos_as_xyz
  1  'x, y, z'
loop_
 _atom_site_type_symbol
 _atom_site_label
 _atom_site_symmetry_multiplicity
 _atom_site_fract_x
 _atom_site_fract_y
 _atom_site_fract_z
 _atom_site_occupancy
  Na  Na0  1  0.26540600  0.85337600  0.07701300  1
  Na  Na1  1  0.26274900  0.32865600  0.81860700  1
  Na  Na2  1  0.23725100  0.82865600  0.81860700  1
  Na  Na3  1  0.76593600  0.93167000  0.42159900  1
  Na  Na4  1  0.76274900  0.17134400  0.18139300  1
  Na  Na5  1  0.24211300  0.35226500  0.31810000  1
  Na  Na6  1  0.25788700  0.85226500  0.31810000  1
  Na  Na7  1  0.23459400  0.35337600  0.07701300  1
  Na  Na8  1  0.73406400  0.43167000  0.42159900  1
  Na  Na9  1  0.23406400  0.06833000  0.57840100  1
  Na  Na10  1  0.74211300  0.14773500  0.68190000  1
  Na  Na11  1  0.73459400  0.14662400  0.92298700  1
  Na  Na12  1  0.26593600  0.56833000  0.57840100  1
  Na  Na13  1  0.73725100  0.67134400  0.18139300  1
  Na  Na14  1  0.76540600  0.64662400  0.92298700  1
  Na  Na15  1  0.75788700  0.64773500  0.68190000  1
  Zr  Zr16  1  0.26350600  0.12761300  0.06517500  1
  Zr  Zr17  1  0.73649400  0.87238700  0.93482500  1
  Zr  Zr18  1  0.73921900  0.69293900  0.43504800  1
  Zr  Zr19  1  0.23921900  0.80706100  0.56495200  1
  Zr  Zr20  1  0.23649400  0.62761300  0.06517500  1
  Zr  Zr21  1  0.26078100  0.30706100  0.56495200  1
  Zr  Zr22  1  0.76078100  0.19293900  0.43504800  1
  Zr  Zr23  1  0.76350600  0.37238700  0.93482500  1
  Si  Si24  1  0.27870100  0.56704400  0.84092400  1
  Si  Si25  1  0.22455000  0.59141300  0.34065200  1
  Si  Si26  1  0.72455000  0.90858700  0.65934800  1
  Si  Si27  1  0.72129900  0.43295600  0.15907600  1
  Si  Si28  1  0.27545000  0.09141300  0.34065200  1
  Si  Si29  1  0.77545000  0.40858700  0.65934800  1
  Si  Si30  1  0.77870100  0.93295600  0.15907600  1
  Si  Si31  1  0.22129900  0.06704400  0.84092400  1
  O  O32  1  0.74970200  0.34885400  0.29121500  1
  O  O33  1  0.75029800  0.84885400  0.29121500  1
  O  O34  1  0.56421700  0.11029600  0.35878100  1
  O  O35  1  0.71112800  0.54160600  0.58935700  1
  O  O36  1  0.40061800  0.96075900  0.87562600  1
  O  O37  1  0.19955900  0.62915800  0.91081900  1
  O  O38  1  0.78887200  0.04160600  0.58935700  1
  O  O39  1  0.28887200  0.45839400  0.41064300  1
  O  O40  1  0.59744100  0.34180600  0.61834700  1
  O  O41  1  0.90061800  0.53924100  0.12437400  1
  O  O42  1  0.59938200  0.03924100  0.12437400  1
  O  O43  1  0.97324600  0.22978900  0.00247400  1
  O  O44  1  0.25029800  0.65114600  0.70878500  1
  O  O45  1  0.30044100  0.12915800  0.91081900  1
  O  O46  1  0.56651700  0.52933200  0.86509600  1
  O  O47  1  0.02675400  0.77021100  0.99752600  1
  O  O48  1  0.09938200  0.46075900  0.87562600  1
  O  O49  1  0.43348300  0.47066800  0.13490400  1
  O  O50  1  0.52675400  0.72978900  0.00247400  1
  O  O51  1  0.96566900  0.26528000  0.50705000  1
  O  O52  1  0.21112800  0.95839400  0.41064300  1
  O  O53  1  0.24970200  0.15114600  0.70878500  1
  O  O54  1  0.43578300  0.88970400  0.64121900  1
  O  O55  1  0.40255900  0.65819400  0.38165300  1
  O  O56  1  0.03433100  0.73472000  0.49295000  1
  O  O57  1  0.80044100  0.37084200  0.08918100  1
  O  O58  1  0.09744100  0.15819400  0.38165300  1
  O  O59  1  0.22312100  0.13873800  0.20958600  1
  O  O60  1  0.69955900  0.87084200  0.08918100  1
  O  O61  1  0.06651700  0.97066800  0.13490400  1
  O  O62  1  0.53433100  0.76528000  0.50705000  1
  O  O63  1  0.90255900  0.84180600  0.61834700  1
  O  O64  1  0.46566900  0.23472000  0.49295000  1
  O  O65  1  0.06421700  0.38970400  0.64121900  1
  O  O66  1  0.77687900  0.86126200  0.79041400  1
  O  O67  1  0.93578300  0.61029600  0.35878100  1
  O  O68  1  0.47324600  0.27021100  0.99752600  1
  O  O69  1  0.72312100  0.36126200  0.79041400  1
  O  O70  1  0.93348300  0.02933200  0.86509600  1
  O  O71  1  0.27687900  0.63873800  0.20958600  1
