# generated using pymatgen
data_KCuPSe3
_symmetry_space_group_name_H-M   'P 1'
_cell_length_a   10.83389400
_cell_length_b   8.86784200
_cell_length_c   20.22779100
_cell_angle_alpha   87.03322465
_cell_angle_beta   90.00000000
_cell_angle_gamma   90.00000000
_symmetry_Int_Tables_number   1
_chemical_formula_structural   KCuPSe3
_chemical_formula_sum   'K12 Cu12 P12 Se36'
_cell_volume   1940.74518660
_cell_formula_units_Z   12
loop_
 _symmetry_equiv_pos_site_id
 _symmetry_equiv_pos_as_xyz
  1  'x, y, z'
loop_
 _atom_site_type_symbol
 _atom_site_label
 _atom_site_symmetry_multiplicity
 _atom_site_fract_x
 _atom_site_fract_y
 _atom_site_fract_z
 _atom_site_occupancy
  K  K0  1  0.70349700  0.47776800  0.50832700  1
  K  K1  1  0.49150600  0.85332500  0.89774800  1
  K  K2  1  0.20349700  0.52223200  0.99167300  1
  K  K3  1  0.50849400  0.14667500  0.10225200  1
  K  K4  1  0.99150600  0.14667500  0.60225200  1
  K  K5  1  0.00849400  0.85332500  0.39774800  1
  K  K6  1  0.79650300  0.47776800  0.00832700  1
  K  K7  1  0.17474800  0.19435300  0.79301100  1
  K  K8  1  0.29650300  0.52223200  0.49167300  1
  K  K9  1  0.32525200  0.19435300  0.29301100  1
  K  K10  1  0.67474800  0.80564700  0.70698900  1
  K  K11  1  0.82525200  0.80564700  0.20698900  1
  Cu  Cu12  1  0.99282600  0.82447200  0.86333900  1
  Cu  Cu13  1  0.64194700  0.47018800  0.27412000  1
  Cu  Cu14  1  0.35805300  0.52981200  0.72588000  1
  Cu  Cu15  1  0.70668000  0.13526900  0.39203800  1
  Cu  Cu16  1  0.49282600  0.17552800  0.63666100  1
  Cu  Cu17  1  0.00717400  0.17552800  0.13666100  1
  Cu  Cu18  1  0.29332000  0.86473100  0.60796200  1
  Cu  Cu19  1  0.20668000  0.86473100  0.10796200  1
  Cu  Cu20  1  0.85805300  0.47018800  0.77412000  1
  Cu  Cu21  1  0.14194700  0.52981200  0.22588000  1
  Cu  Cu22  1  0.50717400  0.82447200  0.36333900  1
  Cu  Cu23  1  0.79332000  0.13526900  0.89203800  1
  P  P24  1  0.94362600  0.39530100  0.35652000  1
  P  P25  1  0.55637400  0.39530100  0.85652000  1
  P  P26  1  0.05637400  0.60469900  0.64348000  1
  P  P27  1  0.40679400  0.73200700  0.23720400  1
  P  P28  1  0.44362600  0.60469900  0.14348000  1
  P  P29  1  0.58072300  0.93085100  0.52169800  1
  P  P30  1  0.09320600  0.73200700  0.73720400  1
  P  P31  1  0.59320600  0.26799300  0.76279600  1
  P  P32  1  0.90679400  0.26799300  0.26279600  1
  P  P33  1  0.41927700  0.06914900  0.47830200  1
  P  P34  1  0.08072300  0.06914900  0.97830200  1
  P  P35  1  0.91927700  0.93085100  0.02169800  1
  Se  Se36  1  0.80278700  0.57866400  0.34852500  1
  Se  Se37  1  0.45067500  0.56394500  0.32112800  1
  Se  Se38  1  0.31434200  0.13118300  0.56877200  1
  Se  Se39  1  0.13834300  0.47110000  0.34850200  1
  Se  Se40  1  0.53578300  0.92482900  0.24296800  1
  Se  Se41  1  0.19721300  0.42133600  0.65147500  1
  Se  Se42  1  0.03578300  0.07517100  0.25703200  1
  Se  Se43  1  0.59994600  0.22869800  0.93921900  1
  Se  Se44  1  0.29249800  0.79604300  0.72701900  1
  Se  Se45  1  0.70750200  0.20395700  0.27298100  1
  Se  Se46  1  0.30278700  0.42133600  0.15147500  1
  Se  Se47  1  0.09994600  0.77130200  0.56078100  1
  Se  Se48  1  0.95067500  0.43605500  0.17887200  1
  Se  Se49  1  0.40005400  0.77130200  0.06078100  1
  Se  Se50  1  0.31951500  0.91676300  0.41344600  1
  Se  Se51  1  0.96421700  0.92482900  0.74296800  1
  Se  Se52  1  0.36165700  0.47110000  0.84850200  1
  Se  Se53  1  0.20750200  0.79604300  0.22701900  1
  Se  Se54  1  0.68048500  0.08323700  0.58655400  1
  Se  Se55  1  0.46421700  0.07517100  0.75703200  1
  Se  Se56  1  0.18565800  0.13118300  0.06877200  1
  Se  Se57  1  0.99089000  0.26227100  0.92339000  1
  Se  Se58  1  0.63834300  0.52890000  0.15149800  1
  Se  Se59  1  0.18048500  0.91676300  0.91344600  1
  Se  Se60  1  0.04932500  0.56394500  0.82112800  1
  Se  Se61  1  0.90005400  0.22869800  0.43921900  1
  Se  Se62  1  0.50911000  0.26227100  0.42339000  1
  Se  Se63  1  0.81951500  0.08323700  0.08655400  1
  Se  Se64  1  0.79249800  0.20395700  0.77298100  1
  Se  Se65  1  0.00911000  0.73772900  0.07661000  1
  Se  Se66  1  0.68565800  0.86881700  0.43122800  1
  Se  Se67  1  0.86165700  0.52890000  0.65149800  1
  Se  Se68  1  0.81434200  0.86881700  0.93122800  1
  Se  Se69  1  0.54932500  0.43605500  0.67887200  1
  Se  Se70  1  0.49089000  0.73772900  0.57661000  1
  Se  Se71  1  0.69721300  0.57866400  0.84852500  1
