# generated using pymatgen
data_Tb2Zn17
_symmetry_space_group_name_H-M   'P 1'
_cell_length_a   6.80270733
_cell_length_b   6.80270733
_cell_length_c   6.80270813
_cell_angle_alpha   82.55451050
_cell_angle_beta   82.55451050
_cell_angle_gamma   82.55450911
_symmetry_Int_Tables_number   1
_chemical_formula_structural   Tb2Zn17
_chemical_formula_sum   'Tb2 Zn17'
_cell_volume   307.47816984
_cell_formula_units_Z   1
loop_
 _symmetry_equiv_pos_site_id
 _symmetry_equiv_pos_as_xyz
  1  'x, y, z'
loop_
 _atom_site_type_symbol
 _atom_site_label
 _atom_site_symmetry_multiplicity
 _atom_site_fract_x
 _atom_site_fract_y
 _atom_site_fract_z
 _atom_site_occupancy
  Tb  Tb0  1  0.33485700  0.33485700  0.33485700  1
  Tb  Tb1  1  0.66514300  0.66514300  0.66514300  1
  Zn  Zn2  1  0.83840500  0.35168200  0.35168200  1
  Zn  Zn3  1  0.00000000  0.29683400  0.70316600  1
  Zn  Zn4  1  0.29683400  0.70316600  0.00000000  1
  Zn  Zn5  1  0.29683400  0.00000000  0.70316600  1
  Zn  Zn6  1  0.00000000  0.70316600  0.29683400  1
  Zn  Zn7  1  0.64831800  0.64831800  0.16159500  1
  Zn  Zn8  1  0.89990400  0.89990400  0.89990400  1
  Zn  Zn9  1  0.70316600  0.00000000  0.29683400  1
  Zn  Zn10  1  0.00000000  0.00000000  0.50000000  1
  Zn  Zn11  1  0.64831800  0.16159500  0.64831800  1
  Zn  Zn12  1  0.16159500  0.64831800  0.64831800  1
  Zn  Zn13  1  0.10009600  0.10009600  0.10009600  1
  Zn  Zn14  1  0.35168200  0.83840500  0.35168200  1
  Zn  Zn15  1  0.35168200  0.35168200  0.83840500  1
  Zn  Zn16  1  0.70316600  0.29683400  0.00000000  1
  Zn  Zn17  1  0.50000000  0.00000000  0.00000000  1
  Zn  Zn18  1  0.00000000  0.50000000  0.00000000  1
