# generated using pymatgen
data_Na3(CuO2)2
_symmetry_space_group_name_H-M   'P 1'
_cell_length_a   11.14097200
_cell_length_b   5.72407100
_cell_length_c   8.37278082
_cell_angle_alpha   67.77407070
_cell_angle_beta   90.00000000
_cell_angle_gamma   90.00000000
_symmetry_Int_Tables_number   1
_chemical_formula_structural   Na3(CuO2)2
_chemical_formula_sum   'Na12 Cu8 O16'
_cell_volume   494.27409021
_cell_formula_units_Z   4
loop_
 _symmetry_equiv_pos_site_id
 _symmetry_equiv_pos_as_xyz
  1  'x, y, z'
loop_
 _atom_site_type_symbol
 _atom_site_label
 _atom_site_symmetry_multiplicity
 _atom_site_fract_x
 _atom_site_fract_y
 _atom_site_fract_z
 _atom_site_occupancy
  Na  Na0  1  0.10087000  0.86021400  0.94823700  1
  Na  Na1  1  0.20552200  0.11072200  0.61861300  1
  Na  Na2  1  0.60087000  0.13978600  0.55176300  1
  Na  Na3  1  0.39913000  0.86021400  0.44823700  1
  Na  Na4  1  0.29447800  0.11072200  0.11861300  1
  Na  Na5  1  0.79447800  0.88927800  0.38138700  1
  Na  Na6  1  0.92130300  0.10861200  0.61789900  1
  Na  Na7  1  0.89913000  0.13978600  0.05176300  1
  Na  Na8  1  0.42130300  0.89138800  0.88210100  1
  Na  Na9  1  0.70552200  0.88927800  0.88138700  1
  Na  Na10  1  0.07869700  0.89138800  0.38210100  1
  Na  Na11  1  0.57869700  0.10861200  0.11789900  1
  Cu  Cu12  1  0.17335700  0.49963200  0.76072800  1
  Cu  Cu13  1  0.32664300  0.49963200  0.26072800  1
  Cu  Cu14  1  0.42471100  0.47034800  0.76964400  1
  Cu  Cu15  1  0.67335700  0.50036800  0.73927200  1
  Cu  Cu16  1  0.82664300  0.50036800  0.23927200  1
  Cu  Cu17  1  0.92471100  0.52965200  0.73035600  1
  Cu  Cu18  1  0.07528900  0.47034800  0.26964400  1
  Cu  Cu19  1  0.57528900  0.52965200  0.23035600  1
  O  O20  1  0.69677300  0.27838200  0.27755400  1
  O  O21  1  0.54479200  0.72614800  0.70918800  1
  O  O22  1  0.80322700  0.27838200  0.77755400  1
  O  O23  1  0.19677300  0.72161800  0.22244600  1
  O  O24  1  0.79270300  0.75994200  0.67595700  1
  O  O25  1  0.05545800  0.76214100  0.69386400  1
  O  O26  1  0.55545800  0.23785900  0.80613600  1
  O  O27  1  0.30322700  0.72161800  0.72244600  1
  O  O28  1  0.45520800  0.27385200  0.29081200  1
  O  O29  1  0.29270300  0.24005800  0.82404300  1
  O  O30  1  0.94454200  0.23785900  0.30613600  1
  O  O31  1  0.20729700  0.24005800  0.32404300  1
  O  O32  1  0.04479200  0.27385200  0.79081200  1
  O  O33  1  0.95520800  0.72614800  0.20918800  1
  O  O34  1  0.44454200  0.76214100  0.19386400  1
  O  O35  1  0.70729700  0.75994200  0.17595700  1
