# generated using pymatgen
data_KHfCuF7
_symmetry_space_group_name_H-M   'P 1'
_cell_length_a   7.71750923
_cell_length_b   7.71750923
_cell_length_c   10.15720200
_cell_angle_alpha   90.00000000
_cell_angle_beta   90.00000000
_cell_angle_gamma   113.19317363
_symmetry_Int_Tables_number   1
_chemical_formula_structural   KHfCuF7
_chemical_formula_sum   'K4 Hf4 Cu4 F28'
_cell_volume   556.07073871
_cell_formula_units_Z   4
loop_
 _symmetry_equiv_pos_site_id
 _symmetry_equiv_pos_as_xyz
  1  'x, y, z'
loop_
 _atom_site_type_symbol
 _atom_site_label
 _atom_site_symmetry_multiplicity
 _atom_site_fract_x
 _atom_site_fract_y
 _atom_site_fract_z
 _atom_site_occupancy
  K  K0  1  0.15824900  0.36283600  0.25000000  1
  K  K1  1  0.36283600  0.15824900  0.75000000  1
  K  K2  1  0.63716400  0.84175100  0.25000000  1
  K  K3  1  0.84175100  0.63716400  0.75000000  1
  Hf  Hf4  1  0.86719200  0.13280800  0.56997100  1
  Hf  Hf5  1  0.13280800  0.86719200  0.06997100  1
  Hf  Hf6  1  0.13280800  0.86719200  0.43002900  1
  Hf  Hf7  1  0.86719200  0.13280800  0.93002900  1
  Cu  Cu8  1  0.36371100  0.63628900  0.92909100  1
  Cu  Cu9  1  0.63628900  0.36371100  0.07090900  1
  Cu  Cu10  1  0.63628900  0.36371100  0.42909100  1
  Cu  Cu11  1  0.36371100  0.63628900  0.57090900  1
  F  F12  1  0.29245300  0.70754700  0.11004700  1
  F  F13  1  0.00170600  0.27214200  0.75000000  1
  F  F14  1  0.72785800  0.99829400  0.75000000  1
  F  F15  1  0.90055200  0.64699000  0.48564100  1
  F  F16  1  0.35301000  0.09944800  0.48564100  1
  F  F17  1  0.22028400  0.77971600  0.88648500  1
  F  F18  1  0.02447800  0.97552200  0.88715100  1
  F  F19  1  0.90055200  0.64699000  0.01435900  1
  F  F20  1  0.09944800  0.35301000  0.51435900  1
  F  F21  1  0.35301000  0.09944800  0.01435900  1
  F  F22  1  0.42004000  0.57996000  0.75000000  1
  F  F23  1  0.09944800  0.35301000  0.98564100  1
  F  F24  1  0.64699000  0.90055200  0.51435900  1
  F  F25  1  0.70754700  0.29245300  0.61004700  1
  F  F26  1  0.99829400  0.72785800  0.25000000  1
  F  F27  1  0.97552200  0.02447800  0.11284900  1
  F  F28  1  0.29245300  0.70754700  0.38995300  1
  F  F29  1  0.27214200  0.00170600  0.25000000  1
  F  F30  1  0.70754700  0.29245300  0.88995300  1
  F  F31  1  0.77971600  0.22028400  0.38648500  1
  F  F32  1  0.50000000  0.50000000  0.00000000  1
  F  F33  1  0.97552200  0.02447800  0.38715100  1
  F  F34  1  0.64699000  0.90055200  0.98564100  1
  F  F35  1  0.77971600  0.22028400  0.11351500  1
  F  F36  1  0.57996000  0.42004000  0.25000000  1
  F  F37  1  0.02447800  0.97552200  0.61284900  1
  F  F38  1  0.22028400  0.77971600  0.61351500  1
  F  F39  1  0.50000000  0.50000000  0.50000000  1
