# generated using pymatgen
data_Si(PbS2)2
_symmetry_space_group_name_H-M   'P 1'
_cell_length_a   6.81475700
_cell_length_b   6.69942900
_cell_length_c   16.97966161
_cell_angle_alpha   71.86760156
_cell_angle_beta   90.00000000
_cell_angle_gamma   90.00000000
_symmetry_Int_Tables_number   1
_chemical_formula_structural   Si(PbS2)2
_chemical_formula_sum   'Si4 Pb8 S16'
_cell_volume   736.70931289
_cell_formula_units_Z   4
loop_
 _symmetry_equiv_pos_site_id
 _symmetry_equiv_pos_as_xyz
  1  'x, y, z'
loop_
 _atom_site_type_symbol
 _atom_site_label
 _atom_site_symmetry_multiplicity
 _atom_site_fract_x
 _atom_site_fract_y
 _atom_site_fract_z
 _atom_site_occupancy
  Si  Si0  1  0.75431300  0.21404900  0.10228900  1
  Si  Si1  1  0.24568700  0.78595100  0.89771100  1
  Si  Si2  1  0.25431300  0.78595100  0.39771100  1
  Si  Si3  1  0.74568700  0.21404900  0.60228900  1
  Pb  Pb4  1  0.73556900  0.75661000  0.01978500  1
  Pb  Pb5  1  0.76443100  0.75661000  0.51978500  1
  Pb  Pb6  1  0.32847300  0.25634800  0.71591500  1
  Pb  Pb7  1  0.67152700  0.74365200  0.28408500  1
  Pb  Pb8  1  0.17152700  0.25634800  0.21591500  1
  Pb  Pb9  1  0.26443100  0.24339000  0.98021500  1
  Pb  Pb10  1  0.82847300  0.74365200  0.78408500  1
  Pb  Pb11  1  0.23556900  0.24339000  0.48021500  1
  S  S12  1  0.50336900  0.98938500  0.37258700  1
  S  S13  1  0.26639800  0.61668700  0.02648600  1
  S  S14  1  0.71659600  0.42047300  0.67632000  1
  S  S15  1  0.49569000  0.98762700  0.86389000  1
  S  S16  1  0.78340400  0.42047300  0.17632000  1
  S  S17  1  0.73360200  0.38331300  0.97351400  1
  S  S18  1  0.99569000  0.01237300  0.63611000  1
  S  S19  1  0.49663100  0.01061500  0.62741300  1
  S  S20  1  0.23360200  0.61668700  0.52648600  1
  S  S21  1  0.00431000  0.98762700  0.36389000  1
  S  S22  1  0.00336900  0.01061500  0.12741300  1
  S  S23  1  0.21659600  0.57952700  0.82368000  1
  S  S24  1  0.99663100  0.98938500  0.87258700  1
  S  S25  1  0.76639800  0.38331300  0.47351400  1
  S  S26  1  0.28340400  0.57952700  0.32368000  1
  S  S27  1  0.50431000  0.01237300  0.13611000  1
