# generated using pymatgen
data_Ca3Ta4(O6F)2
_symmetry_space_group_name_H-M   'P 1'
_cell_length_a   10.53827700
_cell_length_b   10.53827700
_cell_length_c   10.53827700
_cell_angle_alpha   90.00000000
_cell_angle_beta   90.00000000
_cell_angle_gamma   90.00000000
_symmetry_Int_Tables_number   1
_chemical_formula_structural   Ca3Ta4(O6F)2
_chemical_formula_sum   'Ca12 Ta16 O48 F8'
_cell_volume   1170.33132539
_cell_formula_units_Z   4
loop_
 _symmetry_equiv_pos_site_id
 _symmetry_equiv_pos_as_xyz
  1  'x, y, z'
loop_
 _atom_site_type_symbol
 _atom_site_label
 _atom_site_symmetry_multiplicity
 _atom_site_fract_x
 _atom_site_fract_y
 _atom_site_fract_z
 _atom_site_occupancy
  Ca  Ca0  1  0.38702900  0.37500000  0.63702900  1
  Ca  Ca1  1  0.63702900  0.38702900  0.37500000  1
  Ca  Ca2  1  0.61297100  0.87500000  0.86297100  1
  Ca  Ca3  1  0.37500000  0.63702900  0.38702900  1
  Ca  Ca4  1  0.87500000  0.86297100  0.61297100  1
  Ca  Ca5  1  0.12500000  0.36297100  0.88702900  1
  Ca  Ca6  1  0.86297100  0.61297100  0.87500000  1
  Ca  Ca7  1  0.88702900  0.12500000  0.36297100  1
  Ca  Ca8  1  0.62500000  0.13702900  0.11297100  1
  Ca  Ca9  1  0.13702900  0.11297100  0.62500000  1
  Ca  Ca10  1  0.11297100  0.62500000  0.13702900  1
  Ca  Ca11  1  0.36297100  0.88702900  0.12500000  1
  Ta  Ta12  1  0.87630600  0.37369400  0.62500000  1
  Ta  Ta13  1  0.37369400  0.62500000  0.87630600  1
  Ta  Ta14  1  0.12500000  0.12500000  0.12500000  1
  Ta  Ta15  1  0.12369400  0.87369400  0.87500000  1
  Ta  Ta16  1  0.87369400  0.87500000  0.12369400  1
  Ta  Ta17  1  0.87500000  0.12369400  0.87369400  1
  Ta  Ta18  1  0.12500000  0.62369400  0.62630600  1
  Ta  Ta19  1  0.37500000  0.87500000  0.62500000  1
  Ta  Ta20  1  0.12630600  0.37500000  0.37630600  1
  Ta  Ta21  1  0.37630600  0.12630600  0.37500000  1
  Ta  Ta22  1  0.62369400  0.62630600  0.12500000  1
  Ta  Ta23  1  0.62630600  0.12500000  0.62369400  1
  Ta  Ta24  1  0.37500000  0.37630600  0.12630600  1
  Ta  Ta25  1  0.62500000  0.37500000  0.87500000  1
  Ta  Ta26  1  0.62500000  0.87630600  0.37369400  1
  Ta  Ta27  1  0.87500000  0.62500000  0.37500000  1
  O  O28  1  0.24212700  0.25967100  0.06261400  1
  O  O29  1  0.75787200  0.75967100  0.43738600  1
  O  O30  1  0.30385100  0.50161000  0.00429900  1
  O  O31  1  0.99032900  0.00787300  0.18738600  1
  O  O32  1  0.74212800  0.24032900  0.93738600  1
  O  O33  1  0.49570100  0.69614900  0.00161000  1
  O  O34  1  0.49839000  0.50429900  0.19614900  1
  O  O35  1  0.81261400  0.49032900  0.49212700  1
  O  O36  1  0.50967100  0.99212800  0.68738600  1
  O  O37  1  0.49032900  0.49212700  0.81261400  1
  O  O38  1  0.25787300  0.74032900  0.56261400  1
  O  O39  1  0.31261400  0.00967100  0.50787200  1
  O  O40  1  0.69614900  0.00161000  0.49570100  1
  O  O41  1  0.99212800  0.68738600  0.50967100  1
  O  O42  1  0.00161000  0.49570100  0.69614900  1
  O  O43  1  0.24032900  0.93738600  0.74212800  1
  O  O44  1  0.80385100  0.99839000  0.99570100  1
  O  O45  1  0.50429900  0.19614900  0.49839000  1
  O  O46  1  0.24839000  0.55385100  0.75429900  1
  O  O47  1  0.00429900  0.30385100  0.50161000  1
  O  O48  1  0.19614900  0.49839000  0.50429900  1
  O  O49  1  0.50161000  0.00429900  0.30385100  1
  O  O50  1  0.24570100  0.74839000  0.94614900  1
  O  O51  1  0.93738600  0.74212800  0.24032900  1
  O  O52  1  0.43738600  0.75787200  0.75967100  1
  O  O53  1  0.05385100  0.74570100  0.75161000  1
  O  O54  1  0.75161000  0.05385100  0.74570100  1
  O  O55  1  0.49212700  0.81261400  0.49032900  1
  O  O56  1  0.75967100  0.43738600  0.75787200  1
  O  O57  1  0.74032900  0.56261400  0.25787300  1
  O  O58  1  0.99570100  0.80385100  0.99839000  1
  O  O59  1  0.55385100  0.75429900  0.24839000  1
  O  O60  1  0.68738600  0.50967100  0.99212800  1
  O  O61  1  0.25429900  0.25161000  0.44614900  1
  O  O62  1  0.18738600  0.99032900  0.00787300  1
  O  O63  1  0.75429900  0.24839000  0.55385100  1
  O  O64  1  0.00967100  0.50787200  0.31261400  1
  O  O65  1  0.56261400  0.25787300  0.74032900  1
  O  O66  1  0.50787200  0.31261400  0.00967100  1
  O  O67  1  0.25967100  0.06261400  0.24212700  1
  O  O68  1  0.25161000  0.44614900  0.25429900  1
  O  O69  1  0.44614900  0.25429900  0.25161000  1
  O  O70  1  0.74570100  0.75161000  0.05385100  1
  O  O71  1  0.74839000  0.94614900  0.24570100  1
  O  O72  1  0.94614900  0.24570100  0.74839000  1
  O  O73  1  0.06261400  0.24212700  0.25967100  1
  O  O74  1  0.00787300  0.18738600  0.99032900  1
  O  O75  1  0.99839000  0.99570100  0.80385100  1
  F  F76  1  0.98810400  0.01189600  0.51189600  1
  F  F77  1  0.01189600  0.51189600  0.98810400  1
  F  F78  1  0.23810400  0.26189600  0.73810400  1
  F  F79  1  0.51189600  0.98810400  0.01189600  1
  F  F80  1  0.73810400  0.23810400  0.26189600  1
  F  F81  1  0.48810400  0.48810400  0.48810400  1
  F  F82  1  0.26189600  0.73810400  0.23810400  1
  F  F83  1  0.76189600  0.76189600  0.76189600  1
