# generated using pymatgen
data_HgPb2(ClO)2
_symmetry_space_group_name_H-M   'P 1'
_cell_length_a   6.31572917
_cell_length_b   6.31572917
_cell_length_c   7.91108455
_cell_angle_alpha   59.38930912
_cell_angle_beta   59.38930912
_cell_angle_gamma   36.85180704
_symmetry_Int_Tables_number   1
_chemical_formula_structural   HgPb2(ClO)2
_chemical_formula_sum   'Hg1 Pb2 Cl2 O2'
_cell_volume   159.68761824
_cell_formula_units_Z   1
loop_
 _symmetry_equiv_pos_site_id
 _symmetry_equiv_pos_as_xyz
  1  'x, y, z'
loop_
 _atom_site_type_symbol
 _atom_site_label
 _atom_site_symmetry_multiplicity
 _atom_site_fract_x
 _atom_site_fract_y
 _atom_site_fract_z
 _atom_site_occupancy
  Hg  Hg0  1  0.00000000  0.00000000  0.50000000  1
  Pb  Pb1  1  0.18272500  0.18272500  0.74517600  1
  Pb  Pb2  1  0.81727500  0.81727500  0.25482400  1
  Cl  Cl3  1  0.56668200  0.56668200  0.16590000  1
  Cl  Cl4  1  0.43331800  0.43331800  0.83410000  1
  O  O5  1  0.80658800  0.80658800  0.56671300  1
  O  O6  1  0.19341200  0.19341200  0.43328700  1
