# generated using pymatgen
data_Rb2BeH4(SO5)2
_symmetry_space_group_name_H-M   'P 1'
_cell_length_a   12.04303200
_cell_length_b   7.53370500
_cell_length_c   11.50453884
_cell_angle_alpha   83.57104098
_cell_angle_beta   90.00000000
_cell_angle_gamma   90.00000000
_symmetry_Int_Tables_number   1
_chemical_formula_structural   Rb2BeH4(SO5)2
_chemical_formula_sum   'Rb8 Be4 H16 S8 O40'
_cell_volume   1037.22735120
_cell_formula_units_Z   4
loop_
 _symmetry_equiv_pos_site_id
 _symmetry_equiv_pos_as_xyz
  1  'x, y, z'
loop_
 _atom_site_type_symbol
 _atom_site_label
 _atom_site_symmetry_multiplicity
 _atom_site_fract_x
 _atom_site_fract_y
 _atom_site_fract_z
 _atom_site_occupancy
  Rb  Rb0  1  0.76168100  0.98864900  0.90832400  1
  Rb  Rb1  1  0.26168100  0.51135100  0.09167600  1
  Rb  Rb2  1  0.23831900  0.01135100  0.09167600  1
  Rb  Rb3  1  0.73831900  0.48864900  0.90832400  1
  Rb  Rb4  1  0.89799700  0.33431200  0.60551600  1
  Rb  Rb5  1  0.39799700  0.16568800  0.39448400  1
  Rb  Rb6  1  0.10200300  0.66568800  0.39448400  1
  Rb  Rb7  1  0.60200300  0.83431200  0.60551600  1
  Be  Be8  1  0.91965900  0.07546400  0.23226300  1
  Be  Be9  1  0.41965900  0.42453600  0.76773700  1
  Be  Be10  1  0.08034100  0.92453600  0.76773700  1
  Be  Be11  1  0.58034100  0.57546400  0.23226300  1
  H  H12  1  0.81946700  0.02782200  0.40454800  1
  H  H13  1  0.31946700  0.47217800  0.59545200  1
  H  H14  1  0.18053300  0.97217800  0.59545200  1
  H  H15  1  0.68053300  0.52782200  0.40454800  1
  H  H16  1  0.73671800  0.09293900  0.29160600  1
  H  H17  1  0.23671800  0.40706100  0.70839400  1
  H  H18  1  0.26328200  0.90706100  0.70839400  1
  H  H19  1  0.76328200  0.59293900  0.29160600  1
  H  H20  1  0.91021000  0.38469200  0.18162100  1
  H  H21  1  0.41021000  0.11530800  0.81837900  1
  H  H22  1  0.08979000  0.61530800  0.81837900  1
  H  H23  1  0.58979000  0.88469200  0.18162100  1
  H  H24  1  0.97990000  0.28541100  0.08745300  1
  H  H25  1  0.47990000  0.21458900  0.91254700  1
  H  H26  1  0.02010000  0.71458900  0.91254700  1
  H  H27  1  0.52010000  0.78541100  0.08745300  1
  S  S28  1  0.94527900  0.73992600  0.12731800  1
  S  S29  1  0.44527900  0.76007400  0.87268200  1
  S  S30  1  0.05472100  0.26007400  0.87268200  1
  S  S31  1  0.55472100  0.23992600  0.12731800  1
  S  S32  1  0.89270200  0.83945900  0.63407800  1
  S  S33  1  0.39270200  0.66054100  0.36592200  1
  S  S34  1  0.10729800  0.16054100  0.36592200  1
  S  S35  1  0.60729800  0.33945900  0.63407800  1
  O  O36  1  0.06678700  0.73761100  0.14063000  1
  O  O37  1  0.56678700  0.76238900  0.85937000  1
  O  O38  1  0.93321300  0.26238900  0.85937000  1
  O  O39  1  0.43321300  0.23761100  0.14063000  1
  O  O40  1  0.91305300  0.70159000  0.00750100  1
  O  O41  1  0.41305300  0.79841000  0.99249900  1
  O  O42  1  0.08694700  0.29841000  0.99249900  1
  O  O43  1  0.58694700  0.20159000  0.00750100  1
  O  O44  1  0.89261700  0.60658500  0.21692300  1
  O  O45  1  0.39261700  0.89341500  0.78307700  1
  O  O46  1  0.10738300  0.39341500  0.78307700  1
  O  O47  1  0.60738300  0.10658500  0.21692300  1
  O  O48  1  0.89936500  0.92404600  0.14170000  1
  O  O49  1  0.39936500  0.57595400  0.85830000  1
  O  O50  1  0.10063500  0.07595400  0.85830000  1
  O  O51  1  0.60063500  0.42404600  0.14170000  1
  O  O52  1  0.96086900  0.70866900  0.58073800  1
  O  O53  1  0.46086900  0.79133100  0.41926200  1
  O  O54  1  0.03913100  0.29133100  0.41926200  1
  O  O55  1  0.53913100  0.20866900  0.58073800  1
  O  O56  1  0.81671200  0.75169200  0.72396900  1
  O  O57  1  0.31671200  0.74830800  0.27603100  1
  O  O58  1  0.18328800  0.24830800  0.27603100  1
  O  O59  1  0.68328800  0.25169200  0.72396900  1
  O  O60  1  0.82795800  0.95663400  0.54576700  1
  O  O61  1  0.32795800  0.54336600  0.45423300  1
  O  O62  1  0.17204200  0.04336600  0.45423300  1
  O  O63  1  0.67204200  0.45663400  0.54576700  1
  O  O64  1  0.96860900  0.96610700  0.69371000  1
  O  O65  1  0.46860900  0.53389300  0.30629000  1
  O  O66  1  0.03139100  0.03389300  0.30629000  1
  O  O67  1  0.53139100  0.46610700  0.69371000  1
  O  O68  1  0.81409100  0.08497600  0.32163200  1
  O  O69  1  0.31409100  0.41502400  0.67836800  1
  O  O70  1  0.18590900  0.91502400  0.67836800  1
  O  O71  1  0.68590900  0.58497600  0.32163200  1
  O  O72  1  0.91889500  0.26932300  0.14741700  1
  O  O73  1  0.41889500  0.23067700  0.85258300  1
  O  O74  1  0.08110500  0.73067700  0.85258300  1
  O  O75  1  0.58110500  0.76932300  0.14741700  1
