# generated using pymatgen
data_NaP2H5O8
_symmetry_space_group_name_H-M   'P 1'
_cell_length_a   7.82523000
_cell_length_b   8.68703400
_cell_length_c   10.50566622
_cell_angle_alpha   89.80122503
_cell_angle_beta   90.00000000
_cell_angle_gamma   90.00000000
_symmetry_Int_Tables_number   1
_chemical_formula_structural   NaP2H5O8
_chemical_formula_sum   'Na4 P8 H20 O32'
_cell_volume   714.15029117
_cell_formula_units_Z   4
loop_
 _symmetry_equiv_pos_site_id
 _symmetry_equiv_pos_as_xyz
  1  'x, y, z'
loop_
 _atom_site_type_symbol
 _atom_site_label
 _atom_site_symmetry_multiplicity
 _atom_site_fract_x
 _atom_site_fract_y
 _atom_site_fract_z
 _atom_site_occupancy
  Na  Na0  1  0.58784200  0.22107600  0.66224500  1
  Na  Na1  1  0.08784200  0.77892400  0.83775500  1
  Na  Na2  1  0.41215800  0.77892400  0.33775500  1
  Na  Na3  1  0.91215800  0.22107600  0.16224500  1
  P  P4  1  0.01285600  0.41415700  0.69239700  1
  P  P5  1  0.51285600  0.58584300  0.80760300  1
  P  P6  1  0.98714400  0.58584300  0.30760300  1
  P  P7  1  0.48714400  0.41415700  0.19239700  1
  P  P8  1  0.74013000  0.03912700  0.92876300  1
  P  P9  1  0.24013000  0.96087300  0.57123700  1
  P  P10  1  0.25987000  0.96087300  0.07123700  1
  P  P11  1  0.75987000  0.03912700  0.42876300  1
  H  H12  1  0.84734600  0.44013500  0.52107400  1
  H  H13  1  0.34734600  0.55986500  0.97892600  1
  H  H14  1  0.15265400  0.55986500  0.47892600  1
  H  H15  1  0.65265400  0.44013500  0.02107400  1
  H  H16  1  0.83677100  0.52271900  0.83479400  1
  H  H17  1  0.33677100  0.47728100  0.66520600  1
  H  H18  1  0.16322900  0.47728100  0.16520600  1
  H  H19  1  0.66322900  0.52271900  0.33479400  1
  H  H20  1  0.96357200  0.19128000  0.85681600  1
  H  H21  1  0.46357200  0.80872000  0.64318400  1
  H  H22  1  0.03642800  0.80872000  0.14318400  1
  H  H23  1  0.53642800  0.19128000  0.35681600  1
  H  H24  1  0.70681600  0.83206900  0.81042800  1
  H  H25  1  0.20681600  0.16793100  0.68957200  1
  H  H26  1  0.29318400  0.16793100  0.18957200  1
  H  H27  1  0.79318400  0.83206900  0.31042800  1
  H  H28  1  0.59639500  0.95953000  0.09984300  1
  H  H29  1  0.09639500  0.04047000  0.40015700  1
  H  H30  1  0.40360500  0.04047000  0.90015700  1
  H  H31  1  0.90360500  0.95953000  0.59984300  1
  O  O32  1  0.15692500  0.48529700  0.61402300  1
  O  O33  1  0.65692500  0.51470300  0.88597700  1
  O  O34  1  0.84307500  0.51470300  0.38597700  1
  O  O35  1  0.34307500  0.48529700  0.11402300  1
  O  O36  1  0.06206000  0.26018300  0.75400800  1
  O  O37  1  0.56206000  0.73981700  0.74599200  1
  O  O38  1  0.93794000  0.73981700  0.24599200  1
  O  O39  1  0.43794000  0.26018300  0.25400800  1
  O  O40  1  0.84765600  0.38612400  0.60808000  1
  O  O41  1  0.34765600  0.61387600  0.89192000  1
  O  O42  1  0.15234400  0.61387600  0.39192000  1
  O  O43  1  0.65234400  0.38612400  0.10808000  1
  O  O44  1  0.95997400  0.53338400  0.79938300  1
  O  O45  1  0.45997400  0.46661600  0.70061700  1
  O  O46  1  0.04002600  0.46661600  0.20061700  1
  O  O47  1  0.54002600  0.53338400  0.29938300  1
  O  O48  1  0.58280800  0.10378700  0.86469400  1
  O  O49  1  0.08280800  0.89621300  0.63530600  1
  O  O50  1  0.41719200  0.89621300  0.13530600  1
  O  O51  1  0.91719200  0.10378700  0.36469400  1
  O  O52  1  0.89668700  0.15011900  0.93712600  1
  O  O53  1  0.39668700  0.84988100  0.56287400  1
  O  O54  1  0.10331300  0.84988100  0.06287400  1
  O  O55  1  0.60331300  0.15011900  0.43712600  1
  O  O56  1  0.80357400  0.88907800  0.85798100  1
  O  O57  1  0.30357400  0.11092200  0.64201900  1
  O  O58  1  0.19642600  0.11092200  0.14201900  1
  O  O59  1  0.69642600  0.88907800  0.35798100  1
  O  O60  1  0.71396900  0.00344600  0.07454500  1
  O  O61  1  0.21396900  0.99655400  0.42545500  1
  O  O62  1  0.28603100  0.99655400  0.92545500  1
  O  O63  1  0.78603100  0.00344600  0.57454500  1
