# generated using pymatgen
data_MgVBiO5
_symmetry_space_group_name_H-M   'P 1'
_cell_length_a   11.71094400
_cell_length_b   5.40159300
_cell_length_c   8.00452749
_cell_angle_alpha   67.25344249
_cell_angle_beta   90.00000000
_cell_angle_gamma   90.00000000
_symmetry_Int_Tables_number   1
_chemical_formula_structural   MgVBiO5
_chemical_formula_sum   'Mg4 V4 Bi4 O20'
_cell_volume   466.96677264
_cell_formula_units_Z   4
loop_
 _symmetry_equiv_pos_site_id
 _symmetry_equiv_pos_as_xyz
  1  'x, y, z'
loop_
 _atom_site_type_symbol
 _atom_site_label
 _atom_site_symmetry_multiplicity
 _atom_site_fract_x
 _atom_site_fract_y
 _atom_site_fract_z
 _atom_site_occupancy
  Mg  Mg0  1  0.07858300  0.55038300  0.82331800  1
  Mg  Mg1  1  0.92141700  0.44961700  0.17668200  1
  Mg  Mg2  1  0.57858300  0.44961700  0.67668200  1
  Mg  Mg3  1  0.42141700  0.55038300  0.32331800  1
  V  V4  1  0.35163500  0.18655100  0.02888300  1
  V  V5  1  0.64836500  0.81344900  0.97111700  1
  V  V6  1  0.85163500  0.81344900  0.47111700  1
  V  V7  1  0.14836500  0.18655100  0.52888300  1
  Bi  Bi8  1  0.90452900  0.05856900  0.82441200  1
  Bi  Bi9  1  0.09547100  0.94143100  0.17558800  1
  Bi  Bi10  1  0.59547100  0.05856900  0.32441200  1
  Bi  Bi11  1  0.40452900  0.94143100  0.67558800  1
  O  O12  1  0.92798900  0.75227400  0.67169400  1
  O  O13  1  0.06818900  0.29665400  0.67392000  1
  O  O14  1  0.82500000  0.15131300  0.36293400  1
  O  O15  1  0.47312500  0.75881400  0.48550600  1
  O  O16  1  0.71422900  0.67534100  0.51564600  1
  O  O17  1  0.78577100  0.67534100  0.01564600  1
  O  O18  1  0.43181100  0.29665400  0.17392000  1
  O  O19  1  0.56818900  0.70334600  0.82608000  1
  O  O20  1  0.52687500  0.24118600  0.51449400  1
  O  O21  1  0.42798900  0.24772600  0.82830600  1
  O  O22  1  0.28577100  0.32465900  0.48435400  1
  O  O23  1  0.07201100  0.24772600  0.32830600  1
  O  O24  1  0.57201100  0.75227400  0.17169400  1
  O  O25  1  0.21422900  0.32465900  0.98435400  1
  O  O26  1  0.97312500  0.24118600  0.01449400  1
  O  O27  1  0.02687500  0.75881400  0.98550600  1
  O  O28  1  0.17500000  0.84868700  0.63706600  1
  O  O29  1  0.93181100  0.70334600  0.32608000  1
  O  O30  1  0.32500000  0.84868700  0.13706600  1
  O  O31  1  0.67500000  0.15131300  0.86293400  1
