# generated using pymatgen
data_Na2CaVP2O9
_symmetry_space_group_name_H-M   'P 1'
_cell_length_a   6.65540500
_cell_length_b   10.17962100
_cell_length_c   10.67729900
_cell_angle_alpha   90.00000000
_cell_angle_beta   90.00000000
_cell_angle_gamma   90.00000000
_symmetry_Int_Tables_number   1
_chemical_formula_structural   Na2CaVP2O9
_chemical_formula_sum   'Na8 Ca4 V4 P8 O36'
_cell_volume   723.38167396
_cell_formula_units_Z   4
loop_
 _symmetry_equiv_pos_site_id
 _symmetry_equiv_pos_as_xyz
  1  'x, y, z'
loop_
 _atom_site_type_symbol
 _atom_site_label
 _atom_site_symmetry_multiplicity
 _atom_site_fract_x
 _atom_site_fract_y
 _atom_site_fract_z
 _atom_site_occupancy
  Na  Na0  1  0.50301000  0.13382200  0.28595300  1
  Na  Na1  1  0.00301000  0.86617800  0.71404700  1
  Na  Na2  1  0.99699000  0.13382200  0.28595300  1
  Na  Na3  1  0.99699000  0.36617800  0.78595300  1
  Na  Na4  1  0.00301000  0.63382200  0.21404700  1
  Na  Na5  1  0.50301000  0.36617800  0.78595300  1
  Na  Na6  1  0.49699000  0.63382200  0.21404700  1
  Na  Na7  1  0.49699000  0.86617800  0.71404700  1
  Ca  Ca8  1  0.25000000  0.91244000  0.06046200  1
  Ca  Ca9  1  0.75000000  0.08756000  0.93953800  1
  Ca  Ca10  1  0.75000000  0.41244000  0.43953800  1
  Ca  Ca11  1  0.25000000  0.58756000  0.56046200  1
  V  V12  1  0.75000000  0.69151400  0.96674500  1
  V  V13  1  0.25000000  0.19151400  0.53325500  1
  V  V14  1  0.25000000  0.30848600  0.03325500  1
  V  V15  1  0.75000000  0.80848600  0.46674500  1
  P  P16  1  0.25000000  0.63577400  0.90985900  1
  P  P17  1  0.75000000  0.91684500  0.17777300  1
  P  P18  1  0.75000000  0.36422600  0.09014100  1
  P  P19  1  0.25000000  0.86422600  0.40985900  1
  P  P20  1  0.25000000  0.41684500  0.32222700  1
  P  P21  1  0.25000000  0.08315500  0.82222700  1
  P  P22  1  0.75000000  0.58315500  0.67777300  1
  P  P23  1  0.75000000  0.13577400  0.59014100  1
  O  O24  1  0.25000000  0.01628700  0.40914100  1
  O  O25  1  0.43444900  0.69093800  0.98714700  1
  O  O26  1  0.56555100  0.19093800  0.51285300  1
  O  O27  1  0.56555100  0.30906200  0.01285300  1
  O  O28  1  0.93444900  0.30906200  0.01285300  1
  O  O29  1  0.93527300  0.51313100  0.62337800  1
  O  O30  1  0.75000000  0.73104600  0.64331800  1
  O  O31  1  0.75000000  0.19210100  0.72493200  1
  O  O32  1  0.25000000  0.80789900  0.27506800  1
  O  O33  1  0.56472700  0.98686900  0.12337800  1
  O  O34  1  0.25000000  0.43457200  0.17695500  1
  O  O35  1  0.75000000  0.98371300  0.59085900  1
  O  O36  1  0.06472700  0.48686900  0.37662200  1
  O  O37  1  0.75000000  0.30789900  0.22493200  1
  O  O38  1  0.75000000  0.76895400  0.14331800  1
  O  O39  1  0.93527300  0.98686900  0.12337800  1
  O  O40  1  0.75000000  0.56542800  0.82304500  1
  O  O41  1  0.25000000  0.48371300  0.90914100  1
  O  O42  1  0.25000000  0.16722500  0.11121100  1
  O  O43  1  0.06472700  0.01313100  0.87662200  1
  O  O44  1  0.25000000  0.33277500  0.61121100  1
  O  O45  1  0.06555100  0.69093800  0.98714700  1
  O  O46  1  0.93444900  0.19093800  0.51285300  1
  O  O47  1  0.43527300  0.01313100  0.87662200  1
  O  O48  1  0.25000000  0.26895400  0.35668200  1
  O  O49  1  0.56472700  0.51313100  0.62337800  1
  O  O50  1  0.75000000  0.66722500  0.38878900  1
  O  O51  1  0.25000000  0.06542800  0.67695500  1
  O  O52  1  0.75000000  0.83277500  0.88878900  1
  O  O53  1  0.25000000  0.69210100  0.77506800  1
  O  O54  1  0.43444900  0.80906200  0.48714700  1
  O  O55  1  0.25000000  0.23104600  0.85668200  1
  O  O56  1  0.43527300  0.48686900  0.37662200  1
  O  O57  1  0.75000000  0.51628700  0.09085900  1
  O  O58  1  0.06555100  0.80906200  0.48714700  1
  O  O59  1  0.75000000  0.93457200  0.32304500  1
