# generated using pymatgen
data_SbI3(BrCl3)2
_symmetry_space_group_name_H-M   'P 1'
_cell_length_a   7.66820100
_cell_length_b   8.03914264
_cell_length_c   8.08847047
_cell_angle_alpha   93.24143177
_cell_angle_beta   92.41912864
_cell_angle_gamma   102.05418117
_symmetry_Int_Tables_number   1
_chemical_formula_structural   SbI3(BrCl3)2
_chemical_formula_sum   'Sb1 I3 Br2 Cl6'
_cell_volume   486.09987034
_cell_formula_units_Z   1
loop_
 _symmetry_equiv_pos_site_id
 _symmetry_equiv_pos_as_xyz
  1  'x, y, z'
loop_
 _atom_site_type_symbol
 _atom_site_label
 _atom_site_symmetry_multiplicity
 _atom_site_fract_x
 _atom_site_fract_y
 _atom_site_fract_z
 _atom_site_occupancy
  Sb  Sb0  1  0.00000000  0.50000000  0.50000000  1
  I  I1  1  0.31541800  0.23477100  0.15962300  1
  I  I2  1  0.00000000  0.00000000  0.00000000  1
  I  I3  1  0.68458200  0.76522900  0.84037700  1
  Br  Br4  1  0.50756800  0.24550400  0.91038900  1
  Br  Br5  1  0.49243200  0.75449600  0.08961100  1
  Cl  Cl6  1  0.86177500  0.75292700  0.53058800  1
  Cl  Cl7  1  0.90936600  0.47187500  0.21286400  1
  Cl  Cl8  1  0.13822500  0.24707300  0.46941200  1
  Cl  Cl9  1  0.27683000  0.68522000  0.44257300  1
  Cl  Cl10  1  0.72317000  0.31478000  0.55742700  1
  Cl  Cl11  1  0.09063400  0.52812500  0.78713600  1
