# generated using pymatgen
data_TlIn3S5
_symmetry_space_group_name_H-M   'P 1'
_cell_length_a   10.49577474
_cell_length_b   10.49577474
_cell_length_c   13.03788646
_cell_angle_alpha   59.35301873
_cell_angle_beta   59.35301873
_cell_angle_gamma   21.37573422
_symmetry_Int_Tables_number   1
_chemical_formula_structural   TlIn3S5
_chemical_formula_sum   'Tl2 In6 S10'
_cell_volume   447.55095517
_cell_formula_units_Z   2
loop_
 _symmetry_equiv_pos_site_id
 _symmetry_equiv_pos_as_xyz
  1  'x, y, z'
loop_
 _atom_site_type_symbol
 _atom_site_label
 _atom_site_symmetry_multiplicity
 _atom_site_fract_x
 _atom_site_fract_y
 _atom_site_fract_z
 _atom_site_occupancy
  Tl  Tl0  1  0.23901200  0.23901200  0.19553800  1
  Tl  Tl1  1  0.76098800  0.76098800  0.80446200  1
  In  In2  1  0.33712700  0.33712700  0.40166400  1
  In  In3  1  0.54724500  0.54724500  0.19449300  1
  In  In4  1  0.45275500  0.45275500  0.80550700  1
  In  In5  1  0.66287300  0.66287300  0.59833600  1
  In  In6  1  0.00000000  0.00000000  0.50000000  1
  In  In7  1  0.00000000  0.00000000  0.00000000  1
  S  S8  1  0.56378800  0.56378800  0.84419600  1
  S  S9  1  0.07126800  0.07126800  0.61361500  1
  S  S10  1  0.76058500  0.76058500  0.37085500  1
  S  S11  1  0.58842100  0.58842100  0.34427900  1
  S  S12  1  0.23941500  0.23941500  0.62914500  1
  S  S13  1  0.41157900  0.41157900  0.65572100  1
  S  S14  1  0.92873200  0.92873200  0.38638500  1
  S  S15  1  0.88543700  0.88543700  0.94966800  1
  S  S16  1  0.43621200  0.43621200  0.15580400  1
  S  S17  1  0.11456300  0.11456300  0.05033200  1
