# generated using pymatgen
data_Hf2P2O9
_symmetry_space_group_name_H-M   'P 1'
_cell_length_a   7.65650116
_cell_length_b   7.65650116
_cell_length_c   10.16019728
_cell_angle_alpha   53.07175210
_cell_angle_beta   53.07175210
_cell_angle_gamma   51.25375900
_symmetry_Int_Tables_number   1
_chemical_formula_structural   Hf2P2O9
_chemical_formula_sum   'Hf4 P4 O18'
_cell_volume   346.36731736
_cell_formula_units_Z   2
loop_
 _symmetry_equiv_pos_site_id
 _symmetry_equiv_pos_as_xyz
  1  'x, y, z'
loop_
 _atom_site_type_symbol
 _atom_site_label
 _atom_site_symmetry_multiplicity
 _atom_site_fract_x
 _atom_site_fract_y
 _atom_site_fract_z
 _atom_site_occupancy
  Hf  Hf0  1  0.31548800  0.31548800  0.63573500  1
  Hf  Hf1  1  0.68451200  0.68451200  0.36426500  1
  Hf  Hf2  1  0.05681100  0.05681100  0.09674900  1
  Hf  Hf3  1  0.94318900  0.94318900  0.90325100  1
  P  P4  1  0.40715100  0.40715100  0.83624800  1
  P  P5  1  0.82947100  0.82947100  0.54165500  1
  P  P6  1  0.59284900  0.59284900  0.16375200  1
  P  P7  1  0.17052900  0.17052900  0.45834500  1
  O  O8  1  0.48388000  0.48388000  0.63318000  1
  O  O9  1  0.72620800  0.72620800  0.52404100  1
  O  O10  1  0.26608500  0.26608500  0.90430900  1
  O  O11  1  0.27379200  0.27379200  0.47595900  1
  O  O12  1  0.99517500  0.37587700  0.35886900  1
  O  O13  1  0.38017200  0.75931900  0.10346500  1
  O  O14  1  0.24068100  0.61982800  0.89653500  1
  O  O15  1  0.88584700  0.88584700  0.15588200  1
  O  O16  1  0.00482500  0.62412300  0.64113100  1
  O  O17  1  0.96667500  0.96667500  0.35515200  1
  O  O18  1  0.51612000  0.51612000  0.36682000  1
  O  O19  1  0.73391500  0.73391500  0.09569100  1
  O  O20  1  0.75931900  0.38017200  0.10346500  1
  O  O21  1  0.03332500  0.03332500  0.64484800  1
  O  O22  1  0.61982800  0.24068100  0.89653500  1
  O  O23  1  0.62412300  0.00482500  0.64113100  1
  O  O24  1  0.11415300  0.11415300  0.84411800  1
  O  O25  1  0.37587700  0.99517500  0.35886900  1
