# generated using pymatgen
data_PrZn11
_symmetry_space_group_name_H-M   'P 1'
_cell_length_a   8.28966938
_cell_length_b   8.28966938
_cell_length_c   8.28966938
_cell_angle_alpha   99.84294839
_cell_angle_beta   99.84294839
_cell_angle_gamma   131.15541704
_symmetry_Int_Tables_number   1
_chemical_formula_structural   PrZn11
_chemical_formula_sum   'Pr2 Zn22'
_cell_volume   390.53097559
_cell_formula_units_Z   2
loop_
 _symmetry_equiv_pos_site_id
 _symmetry_equiv_pos_as_xyz
  1  'x, y, z'
loop_
 _atom_site_type_symbol
 _atom_site_label
 _atom_site_symmetry_multiplicity
 _atom_site_fract_x
 _atom_site_fract_y
 _atom_site_fract_z
 _atom_site_occupancy
  Pr  Pr0  1  0.50000000  0.50000000  0.00000000  1
  Pr  Pr1  1  0.75000000  0.25000000  0.50000000  1
  Zn  Zn2  1  0.84639300  0.43070700  0.17240600  1
  Zn  Zn3  1  0.12500000  0.87500000  0.75000000  1
  Zn  Zn4  1  0.32601300  0.15360700  0.58431400  1
  Zn  Zn5  1  0.25830100  0.43070700  0.58431400  1
  Zn  Zn6  1  0.32601300  0.74169900  0.17240600  1
  Zn  Zn7  1  0.99169900  0.31929300  0.91568600  1
  Zn  Zn8  1  0.25830100  0.67398700  0.82759400  1
  Zn  Zn9  1  0.25000000  0.75000000  0.50000000  1
  Zn  Zn10  1  0.99169900  0.07601300  0.67240600  1
  Zn  Zn11  1  0.00000000  0.00000000  0.00000000  1
  Zn  Zn12  1  0.68070700  0.00830100  0.08431400  1
  Zn  Zn13  1  0.62500000  0.87500000  0.75000000  1
  Zn  Zn14  1  0.40360700  0.31929300  0.32759400  1
  Zn  Zn15  1  0.92398700  0.00830100  0.32759400  1
  Zn  Zn16  1  0.84639300  0.67398700  0.41568600  1
  Zn  Zn17  1  0.56929300  0.74169900  0.41568600  1
  Zn  Zn18  1  0.68070700  0.59639300  0.67240600  1
  Zn  Zn19  1  0.40360700  0.07601300  0.08431400  1
  Zn  Zn20  1  0.92398700  0.59639300  0.91568600  1
  Zn  Zn21  1  0.56929300  0.15360700  0.82759400  1
  Zn  Zn22  1  0.12500000  0.87500000  0.25000000  1
  Zn  Zn23  1  0.12500000  0.37500000  0.25000000  1
