# generated using pymatgen
data_NaZr2AgF11
_symmetry_space_group_name_H-M   'P 1'
_cell_length_a   5.81095132
_cell_length_b   5.97303517
_cell_length_c   7.98243363
_cell_angle_alpha   111.71505673
_cell_angle_beta   95.91647668
_cell_angle_gamma   105.88261486
_symmetry_Int_Tables_number   1
_chemical_formula_structural   NaZr2AgF11
_chemical_formula_sum   'Na1 Zr2 Ag1 F11'
_cell_volume   241.01458685
_cell_formula_units_Z   1
loop_
 _symmetry_equiv_pos_site_id
 _symmetry_equiv_pos_as_xyz
  1  'x, y, z'
loop_
 _atom_site_type_symbol
 _atom_site_label
 _atom_site_symmetry_multiplicity
 _atom_site_fract_x
 _atom_site_fract_y
 _atom_site_fract_z
 _atom_site_occupancy
  Na  Na0  1  0.00000000  0.00000000  0.00000000  1
  Zr  Zr1  1  0.50617200  0.73723900  0.23023200  1
  Zr  Zr2  1  0.49382800  0.26276100  0.76976800  1
  Ag  Ag3  1  0.00000000  0.50000000  0.50000000  1
  F  F4  1  0.25895300  0.84060400  0.11390800  1
  F  F5  1  0.34038500  0.34549000  0.01519200  1
  F  F6  1  0.65961500  0.65451000  0.98480800  1
  F  F7  1  0.77338800  0.48408500  0.68532500  1
  F  F8  1  0.79258300  0.05361100  0.27636800  1
  F  F9  1  0.20741700  0.94638900  0.72363200  1
  F  F10  1  0.74104700  0.15939600  0.88609200  1
  F  F11  1  0.22661200  0.51591500  0.31467500  1
  F  F12  1  0.74069400  0.60613000  0.34718600  1
  F  F13  1  0.25930600  0.39387000  0.65281400  1
  F  F14  1  0.50000000  0.00000000  0.50000000  1
