# generated using pymatgen
data_K3AgO2
_symmetry_space_group_name_H-M   'P 1'
_cell_length_a   12.51215900
_cell_length_b   12.54168200
_cell_length_c   13.92162500
_cell_angle_alpha   90.00000000
_cell_angle_beta   90.00000000
_cell_angle_gamma   90.00000000
_symmetry_Int_Tables_number   1
_chemical_formula_structural   K3AgO2
_chemical_formula_sum   'K48 Ag16 O32'
_cell_volume   2184.63038953
_cell_formula_units_Z   16
loop_
 _symmetry_equiv_pos_site_id
 _symmetry_equiv_pos_as_xyz
  1  'x, y, z'
loop_
 _atom_site_type_symbol
 _atom_site_label
 _atom_site_symmetry_multiplicity
 _atom_site_fract_x
 _atom_site_fract_y
 _atom_site_fract_z
 _atom_site_occupancy
  K  K0  1  0.48700700  0.50138900  0.92979100  1
  K  K1  1  0.98700700  0.99861100  0.07020900  1
  K  K2  1  0.69420700  0.69622800  0.86381600  1
  K  K3  1  0.49914400  0.21123500  0.27277100  1
  K  K4  1  0.50085600  0.71123500  0.22722900  1
  K  K5  1  0.28084900  0.47957800  0.50755700  1
  K  K6  1  0.21915100  0.52042200  0.00755700  1
  K  K7  1  0.19420700  0.80377200  0.13618400  1
  K  K8  1  0.78084900  0.02042200  0.49244300  1
  K  K9  1  0.29462900  0.29920400  0.85137200  1
  K  K10  1  0.54938000  0.24736500  0.75583800  1
  K  K11  1  0.26503800  0.46184900  0.24470600  1
  K  K12  1  0.52488200  0.27702700  0.50244800  1
  K  K13  1  0.97511800  0.72297300  0.00244800  1
  K  K14  1  0.01299300  0.49861100  0.42979100  1
  K  K15  1  0.02488200  0.22297300  0.49755200  1
  K  K16  1  0.98626900  0.79470700  0.49478100  1
  K  K17  1  0.73496200  0.96184900  0.25529400  1
  K  K18  1  0.75830300  0.53960800  0.26335200  1
  K  K19  1  0.30579300  0.19622800  0.63618400  1
  K  K20  1  0.25830300  0.96039200  0.73664800  1
  K  K21  1  0.76503800  0.03815100  0.75529400  1
  K  K22  1  0.20537100  0.70079600  0.35137200  1
  K  K23  1  0.06571600  0.07699500  0.86774300  1
  K  K24  1  0.51299300  0.00138900  0.57020900  1
  K  K25  1  0.48626900  0.70529300  0.50521900  1
  K  K26  1  0.93428400  0.57699500  0.63225700  1
  K  K27  1  0.79013700  0.48825100  0.01017100  1
  K  K28  1  0.70986300  0.51174900  0.51017100  1
  K  K29  1  0.95062000  0.75263500  0.25583800  1
  K  K30  1  0.99914400  0.28876500  0.72722900  1
  K  K31  1  0.47511800  0.77702700  0.99755200  1
  K  K32  1  0.04938000  0.25263500  0.24416200  1
  K  K33  1  0.45062000  0.74736500  0.74416200  1
  K  K34  1  0.79462900  0.20079600  0.14862800  1
  K  K35  1  0.24169700  0.03960800  0.23664800  1
  K  K36  1  0.51373100  0.20529300  0.99478100  1
  K  K37  1  0.29013700  0.01174900  0.98982900  1
  K  K38  1  0.71915100  0.97957800  0.99244300  1
  K  K39  1  0.23496200  0.53815100  0.74470600  1
  K  K40  1  0.80579300  0.30377200  0.36381600  1
  K  K41  1  0.74169700  0.46039200  0.76335200  1
  K  K42  1  0.01373100  0.29470700  0.00521900  1
  K  K43  1  0.43428400  0.92300500  0.36774300  1
  K  K44  1  0.20986300  0.98825100  0.48982900  1
  K  K45  1  0.70537100  0.79920400  0.64862800  1
  K  K46  1  0.00085600  0.78876500  0.77277100  1
  K  K47  1  0.56571600  0.42300500  0.13225700  1
  Ag  Ag48  1  0.00060200  0.01028300  0.64716900  1
  Ag  Ag49  1  0.99779300  0.00474200  0.32878200  1
  Ag  Ag50  1  0.49939800  0.98971700  0.14716900  1
  Ag  Ag51  1  0.27144700  0.23578400  0.40327500  1
  Ag  Ag52  1  0.22855300  0.76421600  0.90327500  1
  Ag  Ag53  1  0.49779300  0.49525800  0.67121800  1
  Ag  Ag54  1  0.77144700  0.26421600  0.59672500  1
  Ag  Ag55  1  0.76584900  0.24355600  0.91707300  1
  Ag  Ag56  1  0.00220700  0.50474200  0.17121800  1
  Ag  Ag57  1  0.99939800  0.51028300  0.85283100  1
  Ag  Ag58  1  0.50220700  0.99525800  0.82878200  1
  Ag  Ag59  1  0.73415100  0.75644400  0.41707300  1
  Ag  Ag60  1  0.72855300  0.73578400  0.09672500  1
  Ag  Ag61  1  0.50060200  0.48971700  0.35283100  1
  Ag  Ag62  1  0.23415100  0.74355600  0.58292700  1
  Ag  Ag63  1  0.26584900  0.25644400  0.08292700  1
  O  O64  1  0.87937400  0.12745900  0.93698200  1
  O  O65  1  0.38057700  0.87938200  0.16253400  1
  O  O66  1  0.34382800  0.64995700  0.88921500  1
  O  O67  1  0.85189100  0.64146700  0.41325300  1
  O  O68  1  0.11942300  0.12061800  0.66253400  1
  O  O69  1  0.11610900  0.39748700  0.85949100  1
  O  O70  1  0.12062600  0.62745900  0.56301800  1
  O  O71  1  0.11400100  0.88850200  0.32768100  1
  O  O72  1  0.62062600  0.87254100  0.43698200  1
  O  O73  1  0.14810900  0.14146700  0.08674700  1
  O  O74  1  0.65617200  0.14995700  0.61078500  1
  O  O75  1  0.11616600  0.88125500  0.92958800  1
  O  O76  1  0.64810900  0.35853300  0.91325300  1
  O  O77  1  0.84382800  0.85004300  0.11078500  1
  O  O78  1  0.15617200  0.35004300  0.38921500  1
  O  O79  1  0.35189100  0.85853300  0.58674700  1
  O  O80  1  0.38342700  0.37907100  0.67377500  1
  O  O81  1  0.88057700  0.62061800  0.83746600  1
  O  O82  1  0.61610900  0.10251300  0.14050900  1
  O  O83  1  0.11657300  0.62092900  0.17377500  1
  O  O84  1  0.37937400  0.37254100  0.06301800  1
  O  O85  1  0.38389100  0.60251300  0.35949100  1
  O  O86  1  0.61400100  0.61149800  0.67231900  1
  O  O87  1  0.88599900  0.38850200  0.17231900  1
  O  O88  1  0.61616600  0.61874500  0.07041200  1
  O  O89  1  0.88383400  0.38125500  0.57041200  1
  O  O90  1  0.61942300  0.37938200  0.33746600  1
  O  O91  1  0.38599900  0.11149800  0.82768100  1
  O  O92  1  0.61657300  0.87907100  0.82622500  1
  O  O93  1  0.38383400  0.11874500  0.42958800  1
  O  O94  1  0.88389100  0.89748700  0.64050900  1
  O  O95  1  0.88342700  0.12092900  0.32622500  1
