# generated using pymatgen
data_Yb2Co12P7
_symmetry_space_group_name_H-M   'P 1'
_cell_length_a   8.99756041
_cell_length_b   8.99756041
_cell_length_c   3.55247500
_cell_angle_alpha   90.00000000
_cell_angle_beta   90.00000000
_cell_angle_gamma   120.00000298
_symmetry_Int_Tables_number   1
_chemical_formula_structural   Yb2Co12P7
_chemical_formula_sum   'Yb2 Co12 P7'
_cell_volume   249.06413322
_cell_formula_units_Z   1
loop_
 _symmetry_equiv_pos_site_id
 _symmetry_equiv_pos_as_xyz
  1  'x, y, z'
loop_
 _atom_site_type_symbol
 _atom_site_label
 _atom_site_symmetry_multiplicity
 _atom_site_fract_x
 _atom_site_fract_y
 _atom_site_fract_z
 _atom_site_occupancy
  Yb  Yb0  1  0.66666700  0.33333300  0.50000000  1
  Yb  Yb1  1  0.33333300  0.66666700  0.00000000  1
  Co  Co2  1  0.72721400  0.88021500  0.00000000  1
  Co  Co3  1  0.94095600  0.37624500  0.00000000  1
  Co  Co4  1  0.23566700  0.10354100  0.50000000  1
  Co  Co5  1  0.89645900  0.13212600  0.50000000  1
  Co  Co6  1  0.15300100  0.27278600  0.00000000  1
  Co  Co7  1  0.38268500  0.43545800  0.50000000  1
  Co  Co8  1  0.11978500  0.84699900  0.00000000  1
  Co  Co9  1  0.43528900  0.05904400  0.00000000  1
  Co  Co10  1  0.05277300  0.61731500  0.50000000  1
  Co  Co11  1  0.56454200  0.94722700  0.50000000  1
  Co  Co12  1  0.62375500  0.56471100  0.00000000  1
  Co  Co13  1  0.86787400  0.76433300  0.50000000  1
  P  P14  1  0.40581500  0.29254000  0.00000000  1
  P  P15  1  0.29175300  0.88931900  0.50000000  1
  P  P16  1  0.70746000  0.11327500  0.00000000  1
  P  P17  1  0.59756700  0.70824700  0.50000000  1
  P  P18  1  0.88672500  0.59418500  0.00000000  1
  P  P19  1  0.11068100  0.40243300  0.50000000  1
  P  P20  1  0.00000000  0.00000000  0.00000000  1
