# generated using pymatgen
data_BaCeI4
_symmetry_space_group_name_H-M   'P 1'
_cell_length_a   9.26117433
_cell_length_b   9.26117433
_cell_length_c   7.51540575
_cell_angle_alpha   72.23717821
_cell_angle_beta   72.23717821
_cell_angle_gamma   111.03244036
_symmetry_Int_Tables_number   1
_chemical_formula_structural   BaCeI4
_chemical_formula_sum   'Ba2 Ce2 I8'
_cell_volume   506.83184617
_cell_formula_units_Z   2
loop_
 _symmetry_equiv_pos_site_id
 _symmetry_equiv_pos_as_xyz
  1  'x, y, z'
loop_
 _atom_site_type_symbol
 _atom_site_label
 _atom_site_symmetry_multiplicity
 _atom_site_fract_x
 _atom_site_fract_y
 _atom_site_fract_z
 _atom_site_occupancy
  Ba  Ba0  1  0.63479200  0.36520800  0.75000000  1
  Ba  Ba1  1  0.36520800  0.63479200  0.25000000  1
  Ce  Ce2  1  0.99999600  0.00000400  0.75000000  1
  Ce  Ce3  1  0.00000400  0.99999600  0.25000000  1
  I  I4  1  0.23107400  0.35682800  0.78221400  1
  I  I5  1  0.76892600  0.64317200  0.21778600  1
  I  I6  1  0.35682800  0.23107400  0.28221400  1
  I  I7  1  0.28824900  0.94239800  0.91563900  1
  I  I8  1  0.94239800  0.28824900  0.41563900  1
  I  I9  1  0.05760200  0.71175100  0.58436100  1
  I  I10  1  0.71175100  0.05760200  0.08436100  1
  I  I11  1  0.64317200  0.76892600  0.71778600  1
