# generated using pymatgen
data_Ba4AgAuO6
_symmetry_space_group_name_H-M   'P 1'
_cell_length_a   7.32453392
_cell_length_b   7.32453392
_cell_length_c   11.63172500
_cell_angle_alpha   90.00000000
_cell_angle_beta   90.00000000
_cell_angle_gamma   132.49996222
_symmetry_Int_Tables_number   1
_chemical_formula_structural   Ba4AgAuO6
_chemical_formula_sum   'Ba8 Ag2 Au2 O12'
_cell_volume   460.08201999
_cell_formula_units_Z   2
loop_
 _symmetry_equiv_pos_site_id
 _symmetry_equiv_pos_as_xyz
  1  'x, y, z'
loop_
 _atom_site_type_symbol
 _atom_site_label
 _atom_site_symmetry_multiplicity
 _atom_site_fract_x
 _atom_site_fract_y
 _atom_site_fract_z
 _atom_site_occupancy
  Ba  Ba0  1  0.21283400  0.92137500  0.75000000  1
  Ba  Ba1  1  0.64625000  0.35375000  0.50000000  1
  Ba  Ba2  1  0.78716600  0.07862500  0.25000000  1
  Ba  Ba3  1  0.92137500  0.21283400  0.75000000  1
  Ba  Ba4  1  0.07862500  0.78716600  0.25000000  1
  Ba  Ba5  1  0.35375000  0.64625000  0.00000000  1
  Ba  Ba6  1  0.35375000  0.64625000  0.50000000  1
  Ba  Ba7  1  0.64625000  0.35375000  0.00000000  1
  Ag  Ag8  1  0.40310700  0.40310700  0.25000000  1
  Ag  Ag9  1  0.59689300  0.59689300  0.75000000  1
  Au  Au10  1  0.00000000  0.00000000  0.00000000  1
  Au  Au11  1  0.00000000  0.00000000  0.50000000  1
  O  O12  1  0.23932000  0.55934800  0.25000000  1
  O  O13  1  0.15468000  0.84532000  0.50000000  1
  O  O14  1  0.55934800  0.23932000  0.25000000  1
  O  O15  1  0.72960800  0.72960800  0.39100000  1
  O  O16  1  0.15468000  0.84532000  0.00000000  1
  O  O17  1  0.84532000  0.15468000  0.00000000  1
  O  O18  1  0.44065200  0.76068000  0.75000000  1
  O  O19  1  0.76068000  0.44065200  0.75000000  1
  O  O20  1  0.72960800  0.72960800  0.10900000  1
  O  O21  1  0.84532000  0.15468000  0.50000000  1
  O  O22  1  0.27039200  0.27039200  0.60900000  1
  O  O23  1  0.27039200  0.27039200  0.89100000  1
