# generated using pymatgen
data_Ba2Cu(PO3)6
_symmetry_space_group_name_H-M   'P 1'
_cell_length_a   7.44073300
_cell_length_b   9.68960600
_cell_length_c   21.70218261
_cell_angle_alpha   81.96689992
_cell_angle_beta   90.00000000
_cell_angle_gamma   90.00000000
_symmetry_Int_Tables_number   1
_chemical_formula_structural   Ba2Cu(PO3)6
_chemical_formula_sum   'Ba8 Cu4 P24 O72'
_cell_volume   1549.32558611
_cell_formula_units_Z   4
loop_
 _symmetry_equiv_pos_site_id
 _symmetry_equiv_pos_as_xyz
  1  'x, y, z'
loop_
 _atom_site_type_symbol
 _atom_site_label
 _atom_site_symmetry_multiplicity
 _atom_site_fract_x
 _atom_site_fract_y
 _atom_site_fract_z
 _atom_site_occupancy
  Ba  Ba0  1  0.85172100  0.27811200  0.98888000  1
  Ba  Ba1  1  0.64827900  0.27811200  0.48888000  1
  Ba  Ba2  1  0.35172100  0.72188800  0.51112000  1
  Ba  Ba3  1  0.61314600  0.87540700  0.11565500  1
  Ba  Ba4  1  0.11314600  0.12459300  0.38434500  1
  Ba  Ba5  1  0.14827900  0.72188800  0.01112000  1
  Ba  Ba6  1  0.38685400  0.12459300  0.88434500  1
  Ba  Ba7  1  0.88685400  0.87540700  0.61565500  1
  Cu  Cu8  1  0.66953500  0.62226800  0.74618000  1
  Cu  Cu9  1  0.16953500  0.37773200  0.75382000  1
  Cu  Cu10  1  0.83046500  0.62226800  0.24618000  1
  Cu  Cu11  1  0.33046500  0.37773200  0.25382000  1
  P  P12  1  0.54146700  0.53909600  0.89405800  1
  P  P13  1  0.38974600  0.02607000  0.61303600  1
  P  P14  1  0.44301100  0.89929300  0.74264200  1
  P  P15  1  0.45853300  0.46090400  0.10594200  1
  P  P16  1  0.55698900  0.10070700  0.25735800  1
  P  P17  1  0.88974600  0.97393000  0.88696400  1
  P  P18  1  0.64264200  0.31950000  0.74695800  1
  P  P19  1  0.64572400  0.47722500  0.62134600  1
  P  P20  1  0.85427600  0.47722500  0.12134600  1
  P  P21  1  0.61025400  0.97393000  0.38696400  1
  P  P22  1  0.14572400  0.52277500  0.87865400  1
  P  P23  1  0.94301100  0.10070700  0.75735800  1
  P  P24  1  0.85735800  0.31950000  0.24695800  1
  P  P25  1  0.95853300  0.53909600  0.39405800  1
  P  P26  1  0.35735800  0.68050000  0.25304200  1
  P  P27  1  0.65897000  0.77373700  0.96062500  1
  P  P28  1  0.15897000  0.22626300  0.53937500  1
  P  P29  1  0.05698900  0.89929300  0.24264200  1
  P  P30  1  0.34103000  0.22626300  0.03937500  1
  P  P31  1  0.11025400  0.02607000  0.11303600  1
  P  P32  1  0.84103000  0.77373700  0.46062500  1
  P  P33  1  0.35427600  0.52277500  0.37865400  1
  P  P34  1  0.14264200  0.68050000  0.75304200  1
  P  P35  1  0.04146700  0.46090400  0.60594200  1
  O  O36  1  0.42829400  0.95053500  0.41736600  1
  O  O37  1  0.92021700  0.62175700  0.33172000  1
  O  O38  1  0.63006200  0.61411100  0.94886200  1
  O  O39  1  0.96331100  0.70531100  0.72273600  1
  O  O40  1  0.23669700  0.56487500  0.23601000  1
  O  O41  1  0.83106900  0.43505200  0.58912200  1
  O  O42  1  0.08972400  0.02564800  0.18719200  1
  O  O43  1  0.61096200  0.34245400  0.67225000  1
  O  O44  1  0.72148000  0.09462300  0.40277700  1
  O  O45  1  0.42021700  0.37824300  0.16828000  1
  O  O46  1  0.74894500  0.17805200  0.25837500  1
  O  O47  1  0.07978300  0.37824300  0.66828000  1
  O  O48  1  0.73669700  0.43512500  0.26399000  1
  O  O49  1  0.01907000  0.84705500  0.46303300  1
  O  O50  1  0.59101300  0.81199500  0.71902000  1
  O  O51  1  0.76330300  0.43512500  0.76399000  1
  O  O52  1  0.88903800  0.34245400  0.17225000  1
  O  O53  1  0.53869000  0.04476000  0.19763500  1
  O  O54  1  0.72796000  0.83219200  0.39916000  1
  O  O55  1  0.46131000  0.95524000  0.80236500  1
  O  O56  1  0.49145300  0.52323600  0.42901700  1
  O  O57  1  0.21913100  0.22991300  0.98363400  1
  O  O58  1  0.53668900  0.70531100  0.22273600  1
  O  O59  1  0.07170600  0.95053500  0.91736600  1
  O  O60  1  0.96131000  0.04476000  0.69763500  1
  O  O61  1  0.17026800  0.39338300  0.84783300  1
  O  O62  1  0.82973200  0.60661700  0.15216700  1
  O  O63  1  0.00854700  0.52323600  0.92901700  1
  O  O64  1  0.86993800  0.61411100  0.44886200  1
  O  O65  1  0.33106900  0.56494800  0.91087800  1
  O  O66  1  0.57978300  0.62175700  0.83172000  1
  O  O67  1  0.77852000  0.09462300  0.90277700  1
  O  O68  1  0.24894500  0.82194800  0.24162500  1
  O  O69  1  0.46331100  0.29468900  0.77726400  1
  O  O70  1  0.08452100  0.61290500  0.59075600  1
  O  O71  1  0.09101300  0.18800500  0.78098000  1
  O  O72  1  0.58452100  0.38709500  0.90924400  1
  O  O73  1  0.38903800  0.65754600  0.32775000  1
  O  O74  1  0.03869000  0.95524000  0.30236500  1
  O  O75  1  0.51907000  0.15294500  0.03696700  1
  O  O76  1  0.90898700  0.81199500  0.21901900  1
  O  O77  1  0.13006200  0.38588900  0.55113800  1
  O  O78  1  0.25105500  0.82194800  0.74162500  1
  O  O79  1  0.40898700  0.18800500  0.28098000  1
  O  O80  1  0.41027600  0.02564800  0.68719200  1
  O  O81  1  0.32973200  0.39338300  0.34783300  1
  O  O82  1  0.16893100  0.56494800  0.41087800  1
  O  O83  1  0.58972400  0.97435200  0.31280800  1
  O  O84  1  0.48093000  0.84705500  0.96303300  1
  O  O85  1  0.26330300  0.56487500  0.73601000  1
  O  O86  1  0.03668900  0.29468900  0.27726400  1
  O  O87  1  0.11096200  0.65754600  0.82775000  1
  O  O88  1  0.27204000  0.16780800  0.60084000  1
  O  O89  1  0.71913100  0.77008700  0.51636600  1
  O  O90  1  0.91547900  0.38709500  0.40924400  1
  O  O91  1  0.91027600  0.97435200  0.81280800  1
  O  O92  1  0.92829400  0.04946500  0.08263400  1
  O  O93  1  0.57170600  0.04946500  0.58263400  1
  O  O94  1  0.27852000  0.90537700  0.59722300  1
  O  O95  1  0.99145300  0.47676400  0.07098300  1
  O  O96  1  0.36993800  0.38588900  0.05113800  1
  O  O97  1  0.66893100  0.43505200  0.08912200  1
  O  O98  1  0.28086900  0.22991300  0.48363400  1
  O  O99  1  0.67026800  0.60661700  0.65216700  1
  O  O100  1  0.22796000  0.16780800  0.10084000  1
  O  O101  1  0.22148000  0.90537700  0.09722300  1
  O  O102  1  0.75105500  0.17805200  0.75837500  1
  O  O103  1  0.78086900  0.77008700  0.01636600  1
  O  O104  1  0.41547900  0.61290500  0.09075600  1
  O  O105  1  0.50854700  0.47676400  0.57098300  1
  O  O106  1  0.98093000  0.15294500  0.53696700  1
  O  O107  1  0.77204000  0.83219200  0.89916000  1
