# generated using pymatgen
data_PrGe
_symmetry_space_group_name_H-M   'P 1'
_cell_length_a   6.04243100
_cell_length_b   6.04243100
_cell_length_c   4.09958100
_cell_angle_alpha   90.00000000
_cell_angle_beta   90.00000000
_cell_angle_gamma   135.89878635
_symmetry_Int_Tables_number   1
_chemical_formula_structural   PrGe
_chemical_formula_sum   'Pr2 Ge2'
_cell_volume   104.16628755
_cell_formula_units_Z   2
loop_
 _symmetry_equiv_pos_site_id
 _symmetry_equiv_pos_as_xyz
  1  'x, y, z'
loop_
 _atom_site_type_symbol
 _atom_site_label
 _atom_site_symmetry_multiplicity
 _atom_site_fract_x
 _atom_site_fract_y
 _atom_site_fract_z
 _atom_site_occupancy
  Pr  Pr0  1  0.63807600  0.36192400  0.75000000  1
  Pr  Pr1  1  0.36192400  0.63807600  0.25000000  1
  Ge  Ge2  1  0.91972100  0.08027900  0.75000000  1
  Ge  Ge3  1  0.08027900  0.91972100  0.25000000  1
