# generated using pymatgen
data_LaBC
_symmetry_space_group_name_H-M   'P 1'
_cell_length_a   8.68002600
_cell_length_b   8.70715800
_cell_length_c   12.39356400
_cell_angle_alpha   90.00000000
_cell_angle_beta   90.00000000
_cell_angle_gamma   90.00000000
_symmetry_Int_Tables_number   1
_chemical_formula_structural   LaBC
_chemical_formula_sum   'La20 B20 C20'
_cell_volume   936.68521473
_cell_formula_units_Z   20
loop_
 _symmetry_equiv_pos_site_id
 _symmetry_equiv_pos_as_xyz
  1  'x, y, z'
loop_
 _atom_site_type_symbol
 _atom_site_label
 _atom_site_symmetry_multiplicity
 _atom_site_fract_x
 _atom_site_fract_y
 _atom_site_fract_z
 _atom_site_occupancy
  La  La0  1  0.15974600  0.59142500  0.40292400  1
  La  La1  1  0.75435800  0.78905800  0.32648700  1
  La  La2  1  0.84031600  0.49421400  0.57968400  1
  La  La3  1  0.44931900  0.90195400  0.14155800  1
  La  La4  1  0.34031600  0.00578600  0.42031600  1
  La  La5  1  0.25435800  0.71094200  0.67351300  1
  La  La6  1  0.74564200  0.21094200  0.82648700  1
  La  La7  1  0.55068100  0.40195400  0.35844200  1
  La  La8  1  0.93903500  0.19714700  0.36847600  1
  La  La9  1  0.94931900  0.59804600  0.85844200  1
  La  La10  1  0.34025400  0.40857500  0.90292400  1
  La  La11  1  0.65968400  0.50578600  0.07968400  1
  La  La12  1  0.24564200  0.28905800  0.17351300  1
  La  La13  1  0.15968400  0.99421400  0.92031600  1
  La  La14  1  0.05068100  0.09804600  0.64155800  1
  La  La15  1  0.65974600  0.90857500  0.59707600  1
  La  La16  1  0.43903500  0.30285300  0.63152400  1
  La  La17  1  0.84025400  0.09142500  0.09707600  1
  La  La18  1  0.06096500  0.69714700  0.13152400  1
  La  La19  1  0.56096500  0.80285300  0.86847600  1
  B  B20  1  0.56203200  0.19844200  0.17874000  1
  B  B21  1  0.48068200  0.11347900  0.96021300  1
  B  B22  1  0.81493400  0.81002800  0.00657900  1
  B  B23  1  0.61699800  0.10324300  0.28649300  1
  B  B24  1  0.51931800  0.61347900  0.53978700  1
  B  B25  1  0.90179200  0.47016700  0.25751500  1
  B  B26  1  0.88300200  0.89675700  0.78649300  1
  B  B27  1  0.40179200  0.02983300  0.74248500  1
  B  B28  1  0.01931800  0.88652100  0.46021300  1
  B  B29  1  0.18506600  0.31002800  0.49342100  1
  B  B30  1  0.98068200  0.38652100  0.03978700  1
  B  B31  1  0.93796800  0.80155800  0.67874000  1
  B  B32  1  0.43796800  0.69844200  0.32126000  1
  B  B33  1  0.59820800  0.52983300  0.75751500  1
  B  B34  1  0.06203200  0.30155800  0.82126000  1
  B  B35  1  0.68506600  0.18997200  0.50657900  1
  B  B36  1  0.31493400  0.68997200  0.99342100  1
  B  B37  1  0.11699800  0.39675700  0.71350700  1
  B  B38  1  0.38300200  0.60324300  0.21350700  1
  B  B39  1  0.09820800  0.97016700  0.24248500  1
  C  C40  1  0.02590400  0.30866700  0.93825700  1
  C  C41  1  0.05542200  0.88987100  0.34345000  1
  C  C42  1  0.55542200  0.61012900  0.65655000  1
  C  C43  1  0.14118600  0.99842700  0.12997400  1
  C  C44  1  0.94457800  0.38987100  0.15655000  1
  C  C45  1  0.24598200  0.29712100  0.38345800  1
  C  C46  1  0.35406200  0.60717100  0.09453200  1
  C  C47  1  0.25401800  0.70287900  0.88345800  1
  C  C48  1  0.97409600  0.80866700  0.56174300  1
  C  C49  1  0.44457800  0.11012900  0.84345000  1
  C  C50  1  0.47409600  0.69133300  0.43825700  1
  C  C51  1  0.85406200  0.89282900  0.90546800  1
  C  C52  1  0.35881400  0.00157300  0.62997400  1
  C  C53  1  0.52590400  0.19133300  0.06174300  1
  C  C54  1  0.74598200  0.20287900  0.61654200  1
  C  C55  1  0.75401800  0.79712100  0.11654200  1
  C  C56  1  0.64118600  0.50157300  0.87002600  1
  C  C57  1  0.14593800  0.39282900  0.59453200  1
  C  C58  1  0.64593800  0.10717100  0.40546800  1
  C  C59  1  0.85881400  0.49842700  0.37002600  1
