# generated using pymatgen
data_Bi(W2Cl5)3
_symmetry_space_group_name_H-M   'P 1'
_cell_length_a   9.37243069
_cell_length_b   9.37243069
_cell_length_c   26.74116334
_cell_angle_alpha   88.69560467
_cell_angle_beta   88.69560467
_cell_angle_gamma   91.40874387
_symmetry_Int_Tables_number   1
_chemical_formula_structural   Bi(W2Cl5)3
_chemical_formula_sum   'Bi4 W24 Cl60'
_cell_volume   2347.05160784
_cell_formula_units_Z   4
loop_
 _symmetry_equiv_pos_site_id
 _symmetry_equiv_pos_as_xyz
  1  'x, y, z'
loop_
 _atom_site_type_symbol
 _atom_site_label
 _atom_site_symmetry_multiplicity
 _atom_site_fract_x
 _atom_site_fract_y
 _atom_site_fract_z
 _atom_site_occupancy
  Bi  Bi0  1  0.24101500  0.33064600  0.60855500  1
  Bi  Bi1  1  0.33064500  0.24101500  0.10855500  1
  Bi  Bi2  1  0.75898500  0.66935400  0.39144500  1
  Bi  Bi3  1  0.66935400  0.75898500  0.89144500  1
  W  W4  1  0.23199200  0.18281200  0.30181500  1
  W  W5  1  0.32382600  0.20403500  0.43631200  1
  W  W6  1  0.55983300  0.69706900  0.64825400  1
  W  W7  1  0.91585800  0.88516300  0.11299100  1
  W  W8  1  0.81718800  0.76800800  0.19818500  1
  W  W9  1  0.11483700  0.08414200  0.38700900  1
  W  W10  1  0.20403500  0.32382600  0.93631200  1
  W  W11  1  0.76800800  0.81718800  0.69818500  1
  W  W12  1  0.69706900  0.55983300  0.14825400  1
  W  W13  1  0.17311200  0.35959300  0.37408400  1
  W  W14  1  0.67617400  0.79596500  0.56368800  1
  W  W15  1  0.08414200  0.11483700  0.88700900  1
  W  W16  1  0.97358700  0.61931100  0.13607000  1
  W  W17  1  0.38068900  0.02641300  0.36393000  1
  W  W18  1  0.44016700  0.30293100  0.35174600  1
  W  W19  1  0.02641300  0.38068900  0.86393000  1
  W  W20  1  0.35959300  0.17311200  0.87408400  1
  W  W21  1  0.18281200  0.23199200  0.80181500  1
  W  W22  1  0.79596500  0.67617400  0.06368800  1
  W  W23  1  0.30293100  0.44016700  0.85174600  1
  W  W24  1  0.61931100  0.97358700  0.63607000  1
  W  W25  1  0.82688800  0.64040700  0.62591600  1
  W  W26  1  0.88516300  0.91585800  0.61299100  1
  W  W27  1  0.64040700  0.82688800  0.12591600  1
  Cl  Cl28  1  0.79000000  0.60288500  0.97517700  1
  Cl  Cl29  1  0.97870500  0.23609600  0.32715900  1
  Cl  Cl30  1  0.39711500  0.21000000  0.52482300  1
  Cl  Cl31  1  0.02129500  0.76390400  0.67284100  1
  Cl  Cl32  1  0.05817800  0.73517100  0.05485600  1
  Cl  Cl33  1  0.16917900  0.17186500  0.71350800  1
  Cl  Cl34  1  0.21000000  0.39711500  0.02482300  1
  Cl  Cl35  1  0.37586700  0.46487700  0.42143600  1
  Cl  Cl36  1  0.90174200  0.93991500  0.41610700  1
  Cl  Cl37  1  0.50345300  0.20680600  0.64710900  1
  Cl  Cl38  1  0.75948000  0.46700600  0.45533100  1
  Cl  Cl39  1  0.12790600  0.48949100  0.78401200  1
  Cl  Cl40  1  0.57563600  0.14784600  0.41034600  1
  Cl  Cl41  1  0.92297500  0.17611200  0.81694200  1
  Cl  Cl42  1  0.83082100  0.82813500  0.28649200  1
  Cl  Cl43  1  0.42436400  0.85215400  0.58965400  1
  Cl  Cl44  1  0.17611200  0.92297500  0.31694200  1
  Cl  Cl45  1  0.65622800  0.45635000  0.32706900  1
  Cl  Cl46  1  0.20680600  0.50345300  0.14710900  1
  Cl  Cl47  1  0.62413300  0.53512300  0.57856400  1
  Cl  Cl48  1  0.44530800  0.29071200  0.79311900  1
  Cl  Cl49  1  0.14784600  0.57563600  0.91034600  1
  Cl  Cl50  1  0.23609600  0.97870500  0.82715900  1
  Cl  Cl51  1  0.82388800  0.07702500  0.68305800  1
  Cl  Cl52  1  0.17186500  0.16917900  0.21350800  1
  Cl  Cl53  1  0.55469200  0.70928800  0.20688100  1
  Cl  Cl54  1  0.45635000  0.65622800  0.82706900  1
  Cl  Cl55  1  0.94182200  0.26482900  0.94514400  1
  Cl  Cl56  1  0.93094100  0.74011400  0.54509300  1
  Cl  Cl57  1  0.79319400  0.49654700  0.85289100  1
  Cl  Cl58  1  0.60288500  0.79000000  0.47517700  1
  Cl  Cl59  1  0.53512300  0.62413300  0.07856400  1
  Cl  Cl60  1  0.04486200  0.59272900  0.37520700  1
  Cl  Cl61  1  0.29071200  0.44530800  0.29311900  1
  Cl  Cl62  1  0.59272900  0.04486200  0.87520700  1
  Cl  Cl63  1  0.24052000  0.53299400  0.54466900  1
  Cl  Cl64  1  0.70928800  0.55469200  0.70688100  1
  Cl  Cl65  1  0.49654700  0.79319400  0.35289100  1
  Cl  Cl66  1  0.09825800  0.06008500  0.58389300  1
  Cl  Cl67  1  0.46487700  0.37586700  0.92143600  1
  Cl  Cl68  1  0.93991500  0.90174200  0.91610700  1
  Cl  Cl69  1  0.73517100  0.05817800  0.55485600  1
  Cl  Cl70  1  0.76390400  0.02129500  0.17284100  1
  Cl  Cl71  1  0.53299400  0.24052000  0.04466900  1
  Cl  Cl72  1  0.85215400  0.42436400  0.08965400  1
  Cl  Cl73  1  0.40727100  0.95513800  0.12479300  1
  Cl  Cl74  1  0.26482900  0.94182200  0.44514400  1
  Cl  Cl75  1  0.07702500  0.82388800  0.18305800  1
  Cl  Cl76  1  0.06905900  0.25988600  0.45490700  1
  Cl  Cl77  1  0.06008500  0.09825800  0.08389300  1
  Cl  Cl78  1  0.51050900  0.87209400  0.71598800  1
  Cl  Cl79  1  0.82813500  0.83082100  0.78649200  1
  Cl  Cl80  1  0.48949100  0.12790600  0.28401200  1
  Cl  Cl81  1  0.34377200  0.54365000  0.67293100  1
  Cl  Cl82  1  0.95513800  0.40727100  0.62479300  1
  Cl  Cl83  1  0.54365000  0.34377200  0.17293100  1
  Cl  Cl84  1  0.87209400  0.51050900  0.21598800  1
  Cl  Cl85  1  0.25988600  0.06905900  0.95490700  1
  Cl  Cl86  1  0.74011400  0.93094100  0.04509300  1
  Cl  Cl87  1  0.46700600  0.75948000  0.95533100  1
