# generated using pymatgen
data_YbAg2
_symmetry_space_group_name_H-M   'P 1'
_cell_length_a   5.94179106
_cell_length_b   5.94179106
_cell_length_c   5.94179106
_cell_angle_alpha   133.35816275
_cell_angle_beta   105.46378442
_cell_angle_gamma   92.68322447
_symmetry_Int_Tables_number   1
_chemical_formula_structural   YbAg2
_chemical_formula_sum   'Yb2 Ag4'
_cell_volume   138.86640507
_cell_formula_units_Z   2
loop_
 _symmetry_equiv_pos_site_id
 _symmetry_equiv_pos_as_xyz
  1  'x, y, z'
loop_
 _atom_site_type_symbol
 _atom_site_label
 _atom_site_symmetry_multiplicity
 _atom_site_fract_x
 _atom_site_fract_y
 _atom_site_fract_z
 _atom_site_occupancy
  Yb  Yb0  1  0.20698500  0.45698500  0.75000000  1
  Yb  Yb1  1  0.79301500  0.54301500  0.25000000  1
  Ag  Ag2  1  0.61517900  0.16247400  0.45270500  1
  Ag  Ag3  1  0.79023200  0.83752600  0.95270500  1
  Ag  Ag4  1  0.38482100  0.83752600  0.54729500  1
  Ag  Ag5  1  0.20976800  0.16247400  0.04729500  1
