# generated using pymatgen
data_Pr2Te4MoO14
_symmetry_space_group_name_H-M   'P 1'
_cell_length_a   7.08446800
_cell_length_b   10.19584035
_cell_length_c   10.32877487
_cell_angle_alpha   90.09841365
_cell_angle_beta   107.24417322
_cell_angle_gamma   93.27085628
_symmetry_Int_Tables_number   1
_chemical_formula_structural   Pr2Te4MoO14
_chemical_formula_sum   'Pr4 Te8 Mo2 O28'
_cell_volume   711.23684890
_cell_formula_units_Z   2
loop_
 _symmetry_equiv_pos_site_id
 _symmetry_equiv_pos_as_xyz
  1  'x, y, z'
loop_
 _atom_site_type_symbol
 _atom_site_label
 _atom_site_symmetry_multiplicity
 _atom_site_fract_x
 _atom_site_fract_y
 _atom_site_fract_z
 _atom_site_occupancy
  Pr  Pr0  1  0.64404300  0.30768700  0.08601000  1
  Pr  Pr1  1  0.22015900  0.46501200  0.21492700  1
  Pr  Pr2  1  0.77984100  0.53498800  0.78507300  1
  Pr  Pr3  1  0.35595700  0.69231300  0.91399000  1
  Te  Te4  1  0.74214700  0.60862400  0.27932400  1
  Te  Te5  1  0.94297500  0.78905600  0.04286500  1
  Te  Te6  1  0.05702500  0.21094400  0.95713500  1
  Te  Te7  1  0.07528500  0.16632800  0.36872900  1
  Te  Te8  1  0.36199800  0.72747600  0.54182900  1
  Te  Te9  1  0.63800200  0.27252400  0.45817100  1
  Te  Te10  1  0.92471500  0.83367200  0.63127100  1
  Te  Te11  1  0.25785300  0.39137600  0.72067600  1
  Mo  Mo12  1  0.52314400  0.03771700  0.76777400  1
  Mo  Mo13  1  0.47685600  0.96228300  0.23222600  1
  O  O14  1  0.70690900  0.70461400  0.93127700  1
  O  O15  1  0.97513100  0.22597900  0.18777900  1
  O  O16  1  0.59399900  0.12062700  0.93087600  1
  O  O17  1  0.74604400  0.00029700  0.73036500  1
  O  O18  1  0.92891400  0.27707900  0.45909200  1
  O  O19  1  0.25395600  0.99970300  0.26963500  1
  O  O20  1  0.30625500  0.60876900  0.39697000  1
  O  O21  1  0.37641400  0.88457700  0.76650000  1
  O  O22  1  0.12074600  0.50902900  0.79642700  1
  O  O23  1  0.38759800  0.14079300  0.63929000  1
  O  O24  1  0.40600100  0.87937300  0.06912400  1
  O  O25  1  0.41479100  0.60501400  0.68783900  1
  O  O26  1  0.61240200  0.85920700  0.36071000  1
  O  O27  1  0.87925400  0.49097100  0.20357300  1
  O  O28  1  0.86889800  0.76452400  0.20913300  1
  O  O29  1  0.10310700  0.64577100  0.04886200  1
  O  O30  1  0.58520900  0.39498600  0.31216100  1
  O  O31  1  0.49894600  0.41677900  0.86524200  1
  O  O32  1  0.89689300  0.35422900  0.95113800  1
  O  O33  1  0.71266300  0.70446500  0.60029900  1
  O  O34  1  0.69374500  0.39123100  0.60303000  1
  O  O35  1  0.02486900  0.77402100  0.81222100  1
  O  O36  1  0.07108600  0.72292100  0.54090800  1
  O  O37  1  0.13110200  0.23547600  0.79086700  1
  O  O38  1  0.50105400  0.58322100  0.13475800  1
  O  O39  1  0.62358600  0.11542300  0.23350000  1
  O  O40  1  0.28733700  0.29553500  0.39970100  1
  O  O41  1  0.29309100  0.29538600  0.06872300  1
