# generated using pymatgen
data_KMo3Br7
_symmetry_space_group_name_H-M   'P 1'
_cell_length_a   14.12848200
_cell_length_b   14.35291600
_cell_length_c   14.39333700
_cell_angle_alpha   90.00000000
_cell_angle_beta   90.00000000
_cell_angle_gamma   90.00000000
_symmetry_Int_Tables_number   1
_chemical_formula_structural   KMo3Br7
_chemical_formula_sum   'K8 Mo24 Br56'
_cell_volume   2918.75162520
_cell_formula_units_Z   8
loop_
 _symmetry_equiv_pos_site_id
 _symmetry_equiv_pos_as_xyz
  1  'x, y, z'
loop_
 _atom_site_type_symbol
 _atom_site_label
 _atom_site_symmetry_multiplicity
 _atom_site_fract_x
 _atom_site_fract_y
 _atom_site_fract_z
 _atom_site_occupancy
  K  K0  1  0.50000000  0.00000000  0.00000000  1
  K  K1  1  0.00000000  0.50000000  0.00000000  1
  K  K2  1  0.75000000  0.25000000  0.25000000  1
  K  K3  1  0.25000000  0.75000000  0.25000000  1
  K  K4  1  0.50000000  0.50000000  0.50000000  1
  K  K5  1  0.00000000  0.00000000  0.50000000  1
  K  K6  1  0.75000000  0.25000000  0.75000000  1
  K  K7  1  0.25000000  0.75000000  0.75000000  1
  Mo  Mo8  1  0.62259000  0.54083200  0.02996300  1
  Mo  Mo9  1  0.87741000  0.95916800  0.02996300  1
  Mo  Mo10  1  0.53058000  0.37951000  0.04123000  1
  Mo  Mo11  1  0.96942000  0.12049000  0.04123000  1
  Mo  Mo12  1  0.45862500  0.53154200  0.11995100  1
  Mo  Mo13  1  0.04137500  0.96845800  0.11995100  1
  Mo  Mo14  1  0.45862500  0.96845800  0.38004900  1
  Mo  Mo15  1  0.04137500  0.53154200  0.38004900  1
  Mo  Mo16  1  0.53058000  0.12049000  0.45877000  1
  Mo  Mo17  1  0.96942000  0.37951000  0.45877000  1
  Mo  Mo18  1  0.87741000  0.54083200  0.47003700  1
  Mo  Mo19  1  0.62259000  0.95916800  0.47003700  1
  Mo  Mo20  1  0.37741000  0.04083200  0.52996300  1
  Mo  Mo21  1  0.12259000  0.45916800  0.52996300  1
  Mo  Mo22  1  0.03058000  0.62049000  0.54123000  1
  Mo  Mo23  1  0.46942000  0.87951000  0.54123000  1
  Mo  Mo24  1  0.95862500  0.46845800  0.61995100  1
  Mo  Mo25  1  0.54137500  0.03154200  0.61995100  1
  Mo  Mo26  1  0.95862500  0.03154200  0.88004900  1
  Mo  Mo27  1  0.54137500  0.46845800  0.88004900  1
  Mo  Mo28  1  0.46942000  0.62049000  0.95877000  1
  Mo  Mo29  1  0.03058000  0.87951000  0.95877000  1
  Mo  Mo30  1  0.12259000  0.04083200  0.97003700  1
  Mo  Mo31  1  0.37741000  0.45916800  0.97003700  1
  Br  Br32  1  0.19258200  0.88967000  0.04753500  1
  Br  Br33  1  0.30741800  0.61033000  0.04753500  1
  Br  Br34  1  0.79358500  0.59435400  0.07297600  1
  Br  Br35  1  0.70641500  0.90564600  0.07297600  1
  Br  Br36  1  0.57693000  0.20904900  0.09685000  1
  Br  Br37  1  0.92307000  0.29095100  0.09685000  1
  Br  Br38  1  0.55049900  0.68997200  0.10744800  1
  Br  Br39  1  0.94950100  0.81002800  0.10744800  1
  Br  Br40  1  0.36861800  0.37133000  0.13013900  1
  Br  Br41  1  0.13138200  0.12867000  0.13013900  1
  Br  Br42  1  0.88964300  0.04672600  0.19008000  1
  Br  Br43  1  0.61035700  0.45327400  0.19008000  1
  Br  Br44  1  0.09732900  0.57710900  0.21000600  1
  Br  Br45  1  0.40267100  0.92289100  0.21000600  1
  Br  Br46  1  0.40267100  0.57710900  0.28999400  1
  Br  Br47  1  0.09732900  0.92289100  0.28999400  1
  Br  Br48  1  0.61035700  0.04672600  0.30992000  1
  Br  Br49  1  0.88964300  0.45327400  0.30992000  1
  Br  Br50  1  0.36861800  0.12867000  0.36986100  1
  Br  Br51  1  0.13138200  0.37133000  0.36986100  1
  Br  Br52  1  0.94950100  0.68997200  0.39255200  1
  Br  Br53  1  0.55049900  0.81002800  0.39255200  1
  Br  Br54  1  0.92307000  0.20904900  0.40315000  1
  Br  Br55  1  0.57693000  0.29095100  0.40315000  1
  Br  Br56  1  0.70641500  0.59435400  0.42702400  1
  Br  Br57  1  0.79358500  0.90564600  0.42702400  1
  Br  Br58  1  0.30741800  0.88967000  0.45246500  1
  Br  Br59  1  0.19258200  0.61033000  0.45246500  1
  Br  Br60  1  0.80741800  0.38967000  0.54753500  1
  Br  Br61  1  0.69258200  0.11033000  0.54753500  1
  Br  Br62  1  0.20641500  0.09435400  0.57297600  1
  Br  Br63  1  0.29358500  0.40564600  0.57297600  1
  Br  Br64  1  0.42307000  0.70904900  0.59685000  1
  Br  Br65  1  0.07693000  0.79095100  0.59685000  1
  Br  Br66  1  0.44950100  0.18997200  0.60744800  1
  Br  Br67  1  0.05049900  0.31002800  0.60744800  1
  Br  Br68  1  0.86861800  0.62867000  0.63013900  1
  Br  Br69  1  0.63138200  0.87133000  0.63013900  1
  Br  Br70  1  0.11035700  0.54672600  0.69008000  1
  Br  Br71  1  0.38964300  0.95327400  0.69008000  1
  Br  Br72  1  0.90267100  0.07710900  0.71000600  1
  Br  Br73  1  0.59732900  0.42289100  0.71000600  1
  Br  Br74  1  0.59732900  0.07710900  0.78999400  1
  Br  Br75  1  0.90267100  0.42289100  0.78999400  1
  Br  Br76  1  0.38964300  0.54672600  0.80992000  1
  Br  Br77  1  0.11035700  0.95327400  0.80992000  1
  Br  Br78  1  0.86861800  0.87133000  0.86986100  1
  Br  Br79  1  0.63138200  0.62867000  0.86986100  1
  Br  Br80  1  0.05049900  0.18997200  0.89255200  1
  Br  Br81  1  0.44950100  0.31002800  0.89255200  1
  Br  Br82  1  0.07693000  0.70904900  0.90315000  1
  Br  Br83  1  0.42307000  0.79095100  0.90315000  1
  Br  Br84  1  0.29358500  0.09435400  0.92702400  1
  Br  Br85  1  0.20641500  0.40564600  0.92702400  1
  Br  Br86  1  0.69258200  0.38967000  0.95246500  1
  Br  Br87  1  0.80741800  0.11033000  0.95246500  1
