# generated using pymatgen
data_USb2Au
_symmetry_space_group_name_H-M   'P 1'
_cell_length_a   4.41374700
_cell_length_b   4.41374700
_cell_length_c   9.89038800
_cell_angle_alpha   90.00000000
_cell_angle_beta   90.00000000
_cell_angle_gamma   90.00000000
_symmetry_Int_Tables_number   1
_chemical_formula_structural   USb2Au
_chemical_formula_sum   'U2 Sb4 Au2'
_cell_volume   192.67625661
_cell_formula_units_Z   2
loop_
 _symmetry_equiv_pos_site_id
 _symmetry_equiv_pos_as_xyz
  1  'x, y, z'
loop_
 _atom_site_type_symbol
 _atom_site_label
 _atom_site_symmetry_multiplicity
 _atom_site_fract_x
 _atom_site_fract_y
 _atom_site_fract_z
 _atom_site_occupancy
  U  U0  1  0.50000000  0.00000000  0.24520200  1
  U  U1  1  0.00000000  0.50000000  0.75479800  1
  Sb  Sb2  1  0.50000000  0.00000000  0.69631700  1
  Sb  Sb3  1  0.00000000  0.50000000  0.30368300  1
  Sb  Sb4  1  0.00000000  0.00000000  0.00000000  1
  Sb  Sb5  1  0.50000000  0.50000000  0.00000000  1
  Au  Au6  1  0.00000000  0.00000000  0.50000000  1
  Au  Au7  1  0.50000000  0.50000000  0.50000000  1
