# generated using pymatgen
data_Ba6Ti5S15O
_symmetry_space_group_name_H-M   'P 1'
_cell_length_a   8.60278143
_cell_length_b   8.60278143
_cell_length_c   24.01205600
_cell_angle_alpha   90.00000000
_cell_angle_beta   90.00000000
_cell_angle_gamma   133.63996858
_symmetry_Int_Tables_number   1
_chemical_formula_structural   Ba6Ti5S15O
_chemical_formula_sum   'Ba12 Ti10 S30 O2'
_cell_volume   1286.05655662
_cell_formula_units_Z   2
loop_
 _symmetry_equiv_pos_site_id
 _symmetry_equiv_pos_as_xyz
  1  'x, y, z'
loop_
 _atom_site_type_symbol
 _atom_site_label
 _atom_site_symmetry_multiplicity
 _atom_site_fract_x
 _atom_site_fract_y
 _atom_site_fract_z
 _atom_site_occupancy
  Ba  Ba0  1  0.37943100  0.18109700  0.32212700  1
  Ba  Ba1  1  0.62056900  0.81890300  0.82212700  1
  Ba  Ba2  1  0.09788500  0.31475400  0.16384300  1
  Ba  Ba3  1  0.15534700  0.44460800  0.48288600  1
  Ba  Ba4  1  0.81890300  0.62056900  0.17787300  1
  Ba  Ba5  1  0.84465300  0.55539200  0.98288600  1
  Ba  Ba6  1  0.55539200  0.84465300  0.01711400  1
  Ba  Ba7  1  0.18109700  0.37943100  0.67787300  1
  Ba  Ba8  1  0.90211500  0.68524600  0.66384300  1
  Ba  Ba9  1  0.31475400  0.09788500  0.83615700  1
  Ba  Ba10  1  0.44460800  0.15534700  0.51711400  1
  Ba  Ba11  1  0.68524600  0.90211500  0.33615700  1
  Ti  Ti12  1  0.36764400  0.11100100  0.09462000  1
  Ti  Ti13  1  0.93525300  0.44890200  0.80497900  1
  Ti  Ti14  1  0.55109800  0.06474700  0.69502100  1
  Ti  Ti15  1  0.17392800  0.17392800  0.00000000  1
  Ti  Ti16  1  0.11100100  0.36764400  0.90538000  1
  Ti  Ti17  1  0.63235600  0.88899900  0.59462000  1
  Ti  Ti18  1  0.88899900  0.63235600  0.40538000  1
  Ti  Ti19  1  0.82607200  0.82607200  0.50000000  1
  Ti  Ti20  1  0.44890200  0.93525300  0.19502100  1
  Ti  Ti21  1  0.06474700  0.55109800  0.30497900  1
  S  S22  1  0.64401500  0.94928100  0.49360300  1
  S  S23  1  0.21783200  0.69227900  0.89018300  1
  S  S24  1  0.73896000  0.21522900  0.88433500  1
  S  S25  1  0.35598500  0.05071900  0.99360300  1
  S  S26  1  0.21522900  0.73896000  0.11566500  1
  S  S27  1  0.80812200  0.60930600  0.80384800  1
  S  S28  1  0.02902000  0.06377300  0.57362800  1
  S  S29  1  0.60930600  0.80812200  0.19615200  1
  S  S30  1  0.46763600  0.43949400  0.07255200  1
  S  S31  1  0.05071900  0.35598500  0.00639700  1
  S  S32  1  0.78216800  0.30772100  0.39018300  1
  S  S33  1  0.30772100  0.78216800  0.60981700  1
  S  S34  1  0.25572700  0.74427300  0.75000000  1
  S  S35  1  0.93622700  0.97098000  0.92637200  1
  S  S36  1  0.87355900  0.69694600  0.30922200  1
  S  S37  1  0.69694600  0.87355900  0.69077800  1
  S  S38  1  0.26104000  0.78477100  0.38433500  1
  S  S39  1  0.97098000  0.93622700  0.07362800  1
  S  S40  1  0.19187800  0.39069400  0.30384800  1
  S  S41  1  0.56050600  0.53236400  0.42744800  1
  S  S42  1  0.74427300  0.25572700  0.25000000  1
  S  S43  1  0.39069400  0.19187800  0.69615200  1
  S  S44  1  0.94928100  0.64401500  0.50639700  1
  S  S45  1  0.06377300  0.02902000  0.42637200  1
  S  S46  1  0.69227900  0.21783200  0.10981700  1
  S  S47  1  0.12644100  0.30305400  0.80922200  1
  S  S48  1  0.43949400  0.46763600  0.92744800  1
  S  S49  1  0.53236400  0.56050600  0.57255200  1
  S  S50  1  0.78477100  0.26104000  0.61566500  1
  S  S51  1  0.30305400  0.12644100  0.19077800  1
  O  O52  1  0.75622000  0.24378000  0.75000000  1
  O  O53  1  0.24378000  0.75622000  0.25000000  1
