# generated using pymatgen
data_Zn2GeO4
_symmetry_space_group_name_H-M   'P 1'
_cell_length_a   8.95509588
_cell_length_b   8.95509588
_cell_length_c   8.95509601
_cell_angle_alpha   107.81594503
_cell_angle_beta   107.81594503
_cell_angle_gamma   107.81594518
_symmetry_Int_Tables_number   1
_chemical_formula_structural   Zn2GeO4
_chemical_formula_sum   'Zn12 Ge6 O24'
_cell_volume   584.25309879
_cell_formula_units_Z   6
loop_
 _symmetry_equiv_pos_site_id
 _symmetry_equiv_pos_as_xyz
  1  'x, y, z'
loop_
 _atom_site_type_symbol
 _atom_site_label
 _atom_site_symmetry_multiplicity
 _atom_site_fract_x
 _atom_site_fract_y
 _atom_site_fract_z
 _atom_site_occupancy
  Zn  Zn0  1  0.27571200  0.10334300  0.87350900  1
  Zn  Zn1  1  0.87350900  0.27571200  0.10334300  1
  Zn  Zn2  1  0.10334300  0.87350900  0.27571200  1
  Zn  Zn3  1  0.72428800  0.89665700  0.12649100  1
  Zn  Zn4  1  0.12649100  0.72428800  0.89665700  1
  Zn  Zn5  1  0.89665700  0.12649100  0.72428800  1
  Zn  Zn6  1  0.60826400  0.44051200  0.20287600  1
  Zn  Zn7  1  0.20287600  0.60826400  0.44051200  1
  Zn  Zn8  1  0.44051200  0.20287600  0.60826400  1
  Zn  Zn9  1  0.39173600  0.55948800  0.79712400  1
  Zn  Zn10  1  0.79712400  0.39173600  0.55948800  1
  Zn  Zn11  1  0.55948800  0.79712400  0.39173600  1
  Ge  Ge12  1  0.94506000  0.76793500  0.53705100  1
  Ge  Ge13  1  0.53705100  0.94506000  0.76793500  1
  Ge  Ge14  1  0.76793500  0.53705100  0.94506000  1
  Ge  Ge15  1  0.05494000  0.23206500  0.46294900  1
  Ge  Ge16  1  0.46294900  0.05494000  0.23206500  1
  Ge  Ge17  1  0.23206500  0.46294900  0.05494000  1
  O  O18  1  0.07333000  0.75074600  0.42153000  1
  O  O19  1  0.42153000  0.07333000  0.75074600  1
  O  O20  1  0.75074600  0.42153000  0.07333000  1
  O  O21  1  0.92667000  0.24925400  0.57847000  1
  O  O22  1  0.57847000  0.92667000  0.24925400  1
  O  O23  1  0.24925400  0.57847000  0.92667000  1
  O  O24  1  0.36335900  0.35000500  0.03517100  1
  O  O25  1  0.03517100  0.36335900  0.35000500  1
  O  O26  1  0.35000500  0.03517100  0.36335900  1
  O  O27  1  0.63664100  0.64999500  0.96482900  1
  O  O28  1  0.96482900  0.63664100  0.64999500  1
  O  O29  1  0.64999500  0.96482900  0.63664100  1
  O  O30  1  0.72144500  0.68386300  0.38930700  1
  O  O31  1  0.38930700  0.72144500  0.68386300  1
  O  O32  1  0.68386300  0.38930700  0.72144500  1
  O  O33  1  0.27855500  0.31613700  0.61069300  1
  O  O34  1  0.61069300  0.27855500  0.31613700  1
  O  O35  1  0.31613700  0.61069300  0.27855500  1
  O  O36  1  0.01399900  0.30425900  0.97065900  1
  O  O37  1  0.30425900  0.97065900  0.01399900  1
  O  O38  1  0.97065900  0.01399900  0.30425900  1
  O  O39  1  0.98600100  0.69574100  0.02934100  1
  O  O40  1  0.69574100  0.02934100  0.98600100  1
  O  O41  1  0.02934100  0.98600100  0.69574100  1
