# generated using pymatgen
data_Lu2WO6
_symmetry_space_group_name_H-M   'P 1'
_cell_length_a   5.29621100
_cell_length_b   7.58302400
_cell_length_c   11.28936150
_cell_angle_alpha   75.17757098
_cell_angle_beta   90.00000000
_cell_angle_gamma   90.00000000
_symmetry_Int_Tables_number   1
_chemical_formula_structural   Lu2WO6
_chemical_formula_sum   'Lu8 W4 O24'
_cell_volume   438.30788480
_cell_formula_units_Z   4
loop_
 _symmetry_equiv_pos_site_id
 _symmetry_equiv_pos_as_xyz
  1  'x, y, z'
loop_
 _atom_site_type_symbol
 _atom_site_label
 _atom_site_symmetry_multiplicity
 _atom_site_fract_x
 _atom_site_fract_y
 _atom_site_fract_z
 _atom_site_occupancy
  Lu  Lu0  1  0.26005800  0.00000000  0.75000000  1
  Lu  Lu1  1  0.18350300  0.79495900  0.07910900  1
  Lu  Lu2  1  0.18350300  0.20504100  0.42089100  1
  Lu  Lu3  1  0.73994200  0.00000000  0.25000000  1
  Lu  Lu4  1  0.31495900  0.50000000  0.75000000  1
  Lu  Lu5  1  0.81649700  0.20504100  0.92089100  1
  Lu  Lu6  1  0.81649700  0.79495900  0.57910900  1
  Lu  Lu7  1  0.68504100  0.50000000  0.25000000  1
  W  W8  1  0.74391400  0.72294700  0.88574000  1
  W  W9  1  0.25608600  0.72294700  0.38574000  1
  W  W10  1  0.74391400  0.27705300  0.61426000  1
  W  W11  1  0.25608600  0.27705300  0.11426000  1
  O  O12  1  0.53974300  0.15226600  0.06891800  1
  O  O13  1  0.04132800  0.05768200  0.10485500  1
  O  O14  1  0.02309700  0.71014600  0.77010200  1
  O  O15  1  0.46025700  0.15226600  0.56891800  1
  O  O16  1  0.36343200  0.48633600  0.38498300  1
  O  O17  1  0.95867200  0.05768200  0.60485500  1
  O  O18  1  0.53946900  0.79334500  0.72493100  1
  O  O19  1  0.46053100  0.79334500  0.22493100  1
  O  O20  1  0.14861300  0.63327100  0.55112900  1
  O  O21  1  0.04132800  0.94231800  0.39514500  1
  O  O22  1  0.46025700  0.84773400  0.93108200  1
  O  O23  1  0.46053100  0.20665500  0.27506900  1
  O  O24  1  0.85138700  0.36672900  0.44887100  1
  O  O25  1  0.63656800  0.48633600  0.88498300  1
  O  O26  1  0.36343200  0.51366400  0.11501700  1
  O  O27  1  0.95867200  0.94231800  0.89514500  1
  O  O28  1  0.53974300  0.84773400  0.43108200  1
  O  O29  1  0.97690300  0.28985400  0.22989800  1
  O  O30  1  0.53946900  0.20665500  0.77506900  1
  O  O31  1  0.85138700  0.63327100  0.05112900  1
  O  O32  1  0.02309700  0.28985400  0.72989800  1
  O  O33  1  0.14861300  0.36672900  0.94887100  1
  O  O34  1  0.97690300  0.71014600  0.27010200  1
  O  O35  1  0.63656800  0.51366400  0.61501700  1
