# generated using pymatgen
data_TlPb8Br9O4
_symmetry_space_group_name_H-M   'P 1'
_cell_length_a   12.60143900
_cell_length_b   12.60143900
_cell_length_c   8.40530200
_cell_angle_alpha   90.00000000
_cell_angle_beta   90.00000000
_cell_angle_gamma   90.00000000
_symmetry_Int_Tables_number   1
_chemical_formula_structural   TlPb8Br9O4
_chemical_formula_sum   'Tl2 Pb16 Br18 O8'
_cell_volume   1334.73056271
_cell_formula_units_Z   2
loop_
 _symmetry_equiv_pos_site_id
 _symmetry_equiv_pos_as_xyz
  1  'x, y, z'
loop_
 _atom_site_type_symbol
 _atom_site_label
 _atom_site_symmetry_multiplicity
 _atom_site_fract_x
 _atom_site_fract_y
 _atom_site_fract_z
 _atom_site_occupancy
  Tl  Tl0  1  0.50000000  0.00000000  0.66819800  1
  Tl  Tl1  1  0.00000000  0.50000000  0.33180200  1
  Pb  Pb2  1  0.73156700  0.58370600  0.82272900  1
  Pb  Pb3  1  0.36287500  0.44480600  0.35430100  1
  Pb  Pb4  1  0.76843300  0.91629400  0.17727100  1
  Pb  Pb5  1  0.44480600  0.63712500  0.64569900  1
  Pb  Pb6  1  0.55519400  0.36287500  0.64569900  1
  Pb  Pb7  1  0.13712500  0.05519400  0.64569900  1
  Pb  Pb8  1  0.23156700  0.08370600  0.17727100  1
  Pb  Pb9  1  0.91629400  0.23156700  0.82272900  1
  Pb  Pb10  1  0.05519400  0.86287500  0.35430100  1
  Pb  Pb11  1  0.41629400  0.73156700  0.17727100  1
  Pb  Pb12  1  0.26843300  0.41629400  0.82272900  1
  Pb  Pb13  1  0.94480600  0.13712500  0.35430100  1
  Pb  Pb14  1  0.63712500  0.55519400  0.35430100  1
  Pb  Pb15  1  0.58370600  0.26843300  0.17727100  1
  Pb  Pb16  1  0.86287500  0.94480600  0.64569900  1
  Pb  Pb17  1  0.08370600  0.76843300  0.82272900  1
  Br  Br18  1  0.71182500  0.11754500  0.88562000  1
  Br  Br19  1  0.78817500  0.38245500  0.11438000  1
  Br  Br20  1  0.88245500  0.71182500  0.11438000  1
  Br  Br21  1  0.88024200  0.68198400  0.59854600  1
  Br  Br22  1  0.61975800  0.81801600  0.40145400  1
  Br  Br23  1  0.31801600  0.88024200  0.40145400  1
  Br  Br24  1  0.21182500  0.61754500  0.11438000  1
  Br  Br25  1  0.11754500  0.28817500  0.11438000  1
  Br  Br26  1  0.11975800  0.31801600  0.59854600  1
  Br  Br27  1  0.00000000  0.00000000  0.00000000  1
  Br  Br28  1  0.38245500  0.21182500  0.88562000  1
  Br  Br29  1  0.38024200  0.18198400  0.40145400  1
  Br  Br30  1  0.61754500  0.78817500  0.88562000  1
  Br  Br31  1  0.18198400  0.61975800  0.59854600  1
  Br  Br32  1  0.68198400  0.11975800  0.40145400  1
  Br  Br33  1  0.28817500  0.88245500  0.88562000  1
  Br  Br34  1  0.81801600  0.38024200  0.59854600  1
  Br  Br35  1  0.50000000  0.50000000  0.00000000  1
  O  O36  1  0.39176500  0.45428500  0.62824600  1
  O  O37  1  0.54571500  0.39176500  0.37175400  1
  O  O38  1  0.89176500  0.95428500  0.37175400  1
  O  O39  1  0.04571500  0.89176500  0.62824600  1
  O  O40  1  0.95428500  0.10823500  0.62824600  1
  O  O41  1  0.45428500  0.60823500  0.37175400  1
  O  O42  1  0.60823500  0.54571500  0.62824600  1
  O  O43  1  0.10823500  0.04571500  0.37175400  1
