# generated using pymatgen
data_Ba2VP2O9
_symmetry_space_group_name_H-M   'P 1'
_cell_length_a   9.35394809
_cell_length_b   11.11896400
_cell_length_c   9.59976542
_cell_angle_alpha   90.00000000
_cell_angle_beta   108.87551012
_cell_angle_gamma   107.28788699
_symmetry_Int_Tables_number   1
_chemical_formula_structural   Ba2VP2O9
_chemical_formula_sum   'Ba8 V4 P8 O36'
_cell_volume   896.94141232
_cell_formula_units_Z   4
loop_
 _symmetry_equiv_pos_site_id
 _symmetry_equiv_pos_as_xyz
  1  'x, y, z'
loop_
 _atom_site_type_symbol
 _atom_site_label
 _atom_site_symmetry_multiplicity
 _atom_site_fract_x
 _atom_site_fract_y
 _atom_site_fract_z
 _atom_site_occupancy
  Ba  Ba0  1  0.32653900  0.30899400  0.57817900  1
  Ba  Ba1  1  0.32653900  0.80899400  0.57817900  1
  Ba  Ba2  1  0.67361900  0.66299500  0.92204500  1
  Ba  Ba3  1  0.67361900  0.16299500  0.92204500  1
  Ba  Ba4  1  0.32638100  0.32618500  0.07795500  1
  Ba  Ba5  1  0.32638100  0.82618500  0.07795500  1
  Ba  Ba6  1  0.67346100  0.64572400  0.42182100  1
  Ba  Ba7  1  0.67346100  0.14572400  0.42182100  1
  V  V8  1  0.00000000  0.01755500  0.00000000  1
  V  V9  1  0.00000000  0.95382700  0.50000000  1
  V  V10  1  0.00000000  0.51755500  0.00000000  1
  V  V11  1  0.00000000  0.45382700  0.50000000  1
  P  P12  1  0.26152600  0.56588300  0.82371000  1
  P  P13  1  0.26152600  0.06588300  0.82371000  1
  P  P14  1  0.73945400  0.40628800  0.67685700  1
  P  P15  1  0.73945400  0.90628800  0.67685700  1
  P  P16  1  0.73847400  0.43512000  0.17629000  1
  P  P17  1  0.73847400  0.93512000  0.17629000  1
  P  P18  1  0.26054600  0.53656100  0.32314300  1
  P  P19  1  0.26054600  0.03656100  0.32314300  1
  O  O20  1  0.00000000  0.16801200  0.00000000  1
  O  O21  1  0.00000000  0.66801200  0.00000000  1
  O  O22  1  0.00000000  0.30330200  0.50000000  1
  O  O23  1  0.00000000  0.80330200  0.50000000  1
  O  O24  1  0.88629700  0.90827700  0.81500300  1
  O  O25  1  0.88629700  0.40827700  0.81500300  1
  O  O26  1  0.88616200  0.50486900  0.31431900  1
  O  O27  1  0.88616200  0.00486900  0.31431900  1
  O  O28  1  0.11383800  0.06178800  0.68568100  1
  O  O29  1  0.11383800  0.56178800  0.68568100  1
  O  O30  1  0.11370300  0.46512800  0.18499700  1
  O  O31  1  0.11370300  0.96512800  0.18499700  1
  O  O32  1  0.38034200  0.20158300  0.85087200  1
  O  O33  1  0.38034200  0.70158300  0.85087200  1
  O  O34  1  0.38039500  0.46106800  0.35249500  1
  O  O35  1  0.38039500  0.96106800  0.35249500  1
  O  O36  1  0.61960500  0.77087000  0.64750500  1
  O  O37  1  0.61960500  0.27087000  0.64750500  1
  O  O38  1  0.61965700  0.51141200  0.14912800  1
  O  O39  1  0.61965700  0.01141200  0.14912800  1
  O  O40  1  0.79368400  0.43944100  0.03718500  1
  O  O41  1  0.79368400  0.93944100  0.03718500  1
  O  O42  1  0.20631600  0.54259900  0.96281500  1
  O  O43  1  0.20631600  0.04259900  0.96281500  1
  O  O44  1  0.20496100  0.53336300  0.46193400  1
  O  O45  1  0.20496100  0.03336300  0.46193400  1
  O  O46  1  0.79503900  0.43088200  0.53806600  1
  O  O47  1  0.79503900  0.93088200  0.53806600  1
  O  O48  1  0.65942700  0.79580100  0.19112900  1
  O  O49  1  0.65942700  0.29580100  0.19112900  1
  O  O50  1  0.66163700  0.50649400  0.69325000  1
  O  O51  1  0.66163700  0.00649400  0.69325000  1
  O  O52  1  0.33836300  0.17567500  0.30675000  1
  O  O53  1  0.33836300  0.67567500  0.30675000  1
  O  O54  1  0.34057300  0.46608700  0.80887100  1
  O  O55  1  0.34057300  0.96608700  0.80887100  1
