# generated using pymatgen
data_Rh4Pb5
_symmetry_space_group_name_H-M   'P 1'
_cell_length_a   14.43455166
_cell_length_b   13.85229618
_cell_length_c   5.78620603
_cell_angle_alpha   83.90884199
_cell_angle_beta   72.60078828
_cell_angle_gamma   23.49036973
_symmetry_Int_Tables_number   1
_chemical_formula_structural   Rh4Pb5
_chemical_formula_sum   'Rh8 Pb10'
_cell_volume   394.72881446
_cell_formula_units_Z   2
loop_
 _symmetry_equiv_pos_site_id
 _symmetry_equiv_pos_as_xyz
  1  'x, y, z'
loop_
 _atom_site_type_symbol
 _atom_site_label
 _atom_site_symmetry_multiplicity
 _atom_site_fract_x
 _atom_site_fract_y
 _atom_site_fract_z
 _atom_site_occupancy
  Rh  Rh0  1  0.91603300  0.91603300  0.08396700  1
  Rh  Rh1  1  0.08396700  0.08396700  0.91603300  1
  Rh  Rh2  1  0.75000000  0.75000000  0.75000000  1
  Rh  Rh3  1  0.91823700  0.91823700  0.58176300  1
  Rh  Rh4  1  0.08176300  0.08176300  0.41823700  1
  Rh  Rh5  1  0.41823700  0.41823700  0.08176300  1
  Rh  Rh6  1  0.58176300  0.58176300  0.91823700  1
  Rh  Rh7  1  0.25000000  0.25000000  0.25000000  1
  Pb  Pb8  1  0.16405700  0.83594300  0.16405700  1
  Pb  Pb9  1  0.33317300  0.99922500  0.00077500  1
  Pb  Pb10  1  0.41200500  0.41200500  0.58799500  1
  Pb  Pb11  1  0.83594300  0.16405700  0.83594300  1
  Pb  Pb12  1  0.58799500  0.58799500  0.41200500  1
  Pb  Pb13  1  0.00077500  0.66682700  0.33317300  1
  Pb  Pb14  1  0.99922500  0.33317300  0.66682700  1
  Pb  Pb15  1  0.66682700  0.00077500  0.99922500  1
  Pb  Pb16  1  0.28665600  0.28665600  0.71334400  1
  Pb  Pb17  1  0.71334400  0.71334400  0.28665600  1
