# generated using pymatgen
data_K6U2Mo4O21
_symmetry_space_group_name_H-M   'P 1'
_cell_length_a   7.97543700
_cell_length_b   8.09593158
_cell_length_c   10.58581339
_cell_angle_alpha   71.42570299
_cell_angle_beta   84.16289067
_cell_angle_gamma   80.25290819
_symmetry_Int_Tables_number   1
_chemical_formula_structural   K6U2Mo4O21
_chemical_formula_sum   'K6 U2 Mo4 O21'
_cell_volume   637.71972589
_cell_formula_units_Z   1
loop_
 _symmetry_equiv_pos_site_id
 _symmetry_equiv_pos_as_xyz
  1  'x, y, z'
loop_
 _atom_site_type_symbol
 _atom_site_label
 _atom_site_symmetry_multiplicity
 _atom_site_fract_x
 _atom_site_fract_y
 _atom_site_fract_z
 _atom_site_occupancy
  K  K0  1  0.93047000  0.39038800  0.27716300  1
  K  K1  1  0.70556500  0.84084000  0.02592600  1
  K  K2  1  0.59886900  0.27528500  0.65863200  1
  K  K3  1  0.06953000  0.60961200  0.72283700  1
  K  K4  1  0.29443500  0.15916000  0.97407400  1
  K  K5  1  0.40113100  0.72471500  0.34136800  1
  U  U6  1  0.48399700  0.21574500  0.31532000  1
  U  U7  1  0.51600300  0.78425500  0.68468000  1
  Mo  Mo8  1  0.25596600  0.63708900  0.03237600  1
  Mo  Mo9  1  0.84679100  0.84675300  0.39314300  1
  Mo  Mo10  1  0.15320900  0.15324700  0.60685700  1
  Mo  Mo11  1  0.74403400  0.36291100  0.96762400  1
  O  O12  1  0.20784600  0.23157200  0.42759800  1
  O  O13  1  0.53558000  0.37238100  0.39519900  1
  O  O14  1  0.03386200  0.70155000  0.01289300  1
  O  O15  1  0.46442000  0.62761900  0.60480100  1
  O  O16  1  0.93010100  0.20138300  0.62319800  1
  O  O17  1  0.71782100  0.56736600  0.82990000  1
  O  O18  1  0.65228200  0.19901800  0.93009000  1
  O  O19  1  0.34771800  0.80098200  0.06991000  1
  O  O20  1  0.64491400  0.39875400  0.12149600  1
  O  O21  1  0.28217900  0.43263400  0.17010000  1
  O  O22  1  0.24233000  0.27217400  0.69323200  1
  O  O23  1  0.06989900  0.79861700  0.37680200  1
  O  O24  1  0.96613800  0.29845000  0.98710700  1
  O  O25  1  0.79215400  0.76842800  0.57240200  1
  O  O26  1  0.77909200  0.08408500  0.32003300  1
  O  O27  1  0.44177400  0.07111000  0.22119900  1
  O  O28  1  0.55822600  0.92889000  0.77880100  1
  O  O29  1  0.35508600  0.60124600  0.87850400  1
  O  O30  1  0.22090800  0.91591500  0.67996700  1
  O  O31  1  0.75767000  0.72782600  0.30676800  1
  O  O32  1  0.50000000  0.00000000  0.50000000  1
