# generated using pymatgen
data_La10Os2I15
_symmetry_space_group_name_H-M   'P 1'
_cell_length_a   10.16415500
_cell_length_b   11.17852266
_cell_length_c   11.94944913
_cell_angle_alpha   92.20148596
_cell_angle_beta   113.89226043
_cell_angle_gamma   110.16525960
_symmetry_Int_Tables_number   1
_chemical_formula_structural   La10Os2I15
_chemical_formula_sum   'La10 Os2 I15'
_cell_volume   1139.91754264
_cell_formula_units_Z   1
loop_
 _symmetry_equiv_pos_site_id
 _symmetry_equiv_pos_as_xyz
  1  'x, y, z'
loop_
 _atom_site_type_symbol
 _atom_site_label
 _atom_site_symmetry_multiplicity
 _atom_site_fract_x
 _atom_site_fract_y
 _atom_site_fract_z
 _atom_site_occupancy
  La  La0  1  0.22509200  0.58134100  0.05324200  1
  La  La1  1  0.77490800  0.41865900  0.94675800  1
  La  La2  1  0.29910100  0.90490000  0.27638400  1
  La  La3  1  0.70089900  0.09510000  0.72361600  1
  La  La4  1  0.08785400  0.54568100  0.33041100  1
  La  La5  1  0.91214600  0.45431900  0.66958900  1
  La  La6  1  0.83575500  0.75063200  0.17678000  1
  La  La7  1  0.16424500  0.24936800  0.82322000  1
  La  La8  1  0.97514500  0.79369600  0.90308700  1
  La  La9  1  0.02485500  0.20630400  0.09691300  1
  Os  Os10  1  0.03207400  0.67483100  0.12018400  1
  Os  Os11  1  0.96792600  0.32516900  0.87981600  1
  I  I12  1  0.34084900  0.44359200  0.30217400  1
  I  I13  1  0.65915100  0.55640800  0.69782600  1
  I  I14  1  0.21443300  0.73851600  0.81681900  1
  I  I15  1  0.78556700  0.26148400  0.18318100  1
  I  I16  1  0.14484700  0.38655700  0.58247400  1
  I  I17  1  0.85515300  0.61344300  0.41752600  1
  I  I18  1  0.38888000  0.79990600  0.53376500  1
  I  I19  1  0.61112000  0.20009400  0.46623500  1
  I  I20  1  0.26519000  0.08790500  0.05556100  1
  I  I21  1  0.73481000  0.91209500  0.94443900  1
  I  I22  1  0.56637400  0.84620400  0.22849300  1
  I  I23  1  0.43362600  0.15379600  0.77150700  1
  I  I24  1  0.09254700  0.04068400  0.34016400  1
  I  I25  1  0.90745300  0.95931600  0.65983600  1
  I  I26  1  0.50000000  0.50000000  0.00000000  1
