# generated using pymatgen
data_Cs2Cu2Si8O19
_symmetry_space_group_name_H-M   'P 1'
_cell_length_a   8.65341600
_cell_length_b   10.13748918
_cell_length_c   11.84531179
_cell_angle_alpha   94.53544557
_cell_angle_beta   90.00023705
_cell_angle_gamma   89.99997335
_symmetry_Int_Tables_number   1
_chemical_formula_structural   Cs2Cu2Si8O19
_chemical_formula_sum   'Cs4 Cu4 Si16 O38'
_cell_volume   1035.86319166
_cell_formula_units_Z   2
loop_
 _symmetry_equiv_pos_site_id
 _symmetry_equiv_pos_as_xyz
  1  'x, y, z'
loop_
 _atom_site_type_symbol
 _atom_site_label
 _atom_site_symmetry_multiplicity
 _atom_site_fract_x
 _atom_site_fract_y
 _atom_site_fract_z
 _atom_site_occupancy
  Cs  Cs0  1  0.24999600  0.49139500  0.45424600  1
  Cs  Cs1  1  0.75000400  0.50861200  0.54575900  1
  Cs  Cs2  1  0.75000400  0.89910600  0.01921600  1
  Cs  Cs3  1  0.24999900  0.10088900  0.98078100  1
  Cu  Cu4  1  0.50791000  0.84927600  0.51487200  1
  Cu  Cu5  1  0.49207300  0.15079700  0.48510400  1
  Cu  Cu6  1  0.99213600  0.84919600  0.51486400  1
  Cu  Cu7  1  0.00783100  0.15074900  0.48517200  1
  Si  Si8  1  0.56966400  0.67685300  0.27962600  1
  Si  Si9  1  0.93418100  0.55226300  0.88396700  1
  Si  Si10  1  0.06582400  0.44773500  0.11603700  1
  Si  Si11  1  0.43033600  0.32315300  0.72038100  1
  Si  Si12  1  0.43584200  0.79226200  0.76590300  1
  Si  Si13  1  0.56416400  0.20774400  0.23407900  1
  Si  Si14  1  0.43344900  0.94230900  0.26396100  1
  Si  Si15  1  0.06416100  0.79225900  0.76591300  1
  Si  Si16  1  0.93033600  0.67684100  0.27961400  1
  Si  Si17  1  0.93584500  0.20773400  0.23409500  1
  Si  Si18  1  0.06654500  0.94230500  0.26396800  1
  Si  Si19  1  0.56655300  0.05769500  0.73603000  1
  Si  Si20  1  0.56582500  0.55226400  0.88396400  1
  Si  Si21  1  0.06966600  0.32314900  0.72038600  1
  Si  Si22  1  0.43417900  0.44774600  0.11603800  1
  Si  Si23  1  0.93345200  0.05768800  0.73603900  1
  O  O24  1  0.53187300  0.69485100  0.41214700  1
  O  O25  1  0.02413200  0.97708300  0.39697300  1
  O  O26  1  0.25001000  0.81638700  0.77955200  1
  O  O27  1  0.01504500  0.69321800  0.86396800  1
  O  O28  1  0.53808800  0.44458000  0.77759600  1
  O  O29  1  0.48625600  0.06275600  0.18653200  1
  O  O30  1  0.02902000  0.18944700  0.78728500  1
  O  O31  1  0.96813000  0.69480000  0.41213500  1
  O  O32  1  0.25000700  0.91485400  0.23885900  1
  O  O33  1  0.97098700  0.81054300  0.21271300  1
  O  O34  1  0.99572200  0.25780800  0.35794400  1
  O  O35  1  0.97585100  0.02288400  0.60303500  1
  O  O36  1  0.98626600  0.93724800  0.81347100  1
  O  O37  1  0.50426900  0.25786300  0.35791200  1
  O  O38  1  0.75000000  0.58136300  0.89948500  1
  O  O39  1  0.03808200  0.55540000  0.22241000  1
  O  O40  1  0.47098600  0.18945000  0.78728100  1
  O  O41  1  0.74999600  0.08513800  0.76114000  1
  O  O42  1  0.25000500  0.36231100  0.75208700  1
  O  O43  1  0.03187900  0.30516100  0.58786800  1
  O  O44  1  0.98496600  0.30677300  0.13603200  1
  O  O45  1  0.01374000  0.06274400  0.18652900  1
  O  O46  1  0.51373700  0.93725000  0.81345700  1
  O  O47  1  0.52415500  0.02293200  0.60301900  1
  O  O48  1  0.46811800  0.30518200  0.58786100  1
  O  O49  1  0.25000600  0.41864500  0.10051800  1
  O  O50  1  0.52902400  0.81055700  0.21271900  1
  O  O51  1  0.00425000  0.74214500  0.64207900  1
  O  O52  1  0.96192000  0.44458400  0.77759800  1
  O  O53  1  0.74999200  0.18360500  0.22042500  1
  O  O54  1  0.49574200  0.74217400  0.64206000  1
  O  O55  1  0.51504600  0.30678300  0.13602700  1
  O  O56  1  0.48495900  0.69321900  0.86395400  1
  O  O57  1  0.50000100  0.50001300  0.00000400  1
  O  O58  1  0.46191900  0.55541800  0.22241300  1
  O  O59  1  0.47584900  0.97711600  0.39696700  1
  O  O60  1  0.00000100  0.50000800  0.00000500  1
  O  O61  1  0.74999200  0.63768500  0.24792500  1
