# generated using pymatgen
data_Cs2LaTa6(Br5O)3
_symmetry_space_group_name_H-M   'P 1'
_cell_length_a   9.66052606
_cell_length_b   9.66052606
_cell_length_c   18.71689300
_cell_angle_alpha   90.00000000
_cell_angle_beta   90.00000000
_cell_angle_gamma   120.00000042
_symmetry_Int_Tables_number   1
_chemical_formula_structural   Cs2LaTa6(Br5O)3
_chemical_formula_sum   'Cs4 La2 Ta12 Br30 O6'
_cell_volume   1512.74574597
_cell_formula_units_Z   2
loop_
 _symmetry_equiv_pos_site_id
 _symmetry_equiv_pos_as_xyz
  1  'x, y, z'
loop_
 _atom_site_type_symbol
 _atom_site_label
 _atom_site_symmetry_multiplicity
 _atom_site_fract_x
 _atom_site_fract_y
 _atom_site_fract_z
 _atom_site_occupancy
  Cs  Cs0  1  0.66666700  0.33333300  0.04483200  1
  Cs  Cs1  1  0.33333300  0.66666700  0.95516800  1
  Cs  Cs2  1  0.66666700  0.33333300  0.45516800  1
  Cs  Cs3  1  0.33333300  0.66666700  0.54483200  1
  La  La4  1  0.66666700  0.33333300  0.75000000  1
  La  La5  1  0.33333300  0.66666700  0.25000000  1
  Ta  Ta6  1  0.18829700  0.01655000  0.81194100  1
  Ta  Ta7  1  0.98345000  0.17174700  0.81194100  1
  Ta  Ta8  1  0.81170300  0.82825300  0.31194100  1
  Ta  Ta9  1  0.98345000  0.81170300  0.68805900  1
  Ta  Ta10  1  0.01655000  0.18829700  0.31194100  1
  Ta  Ta11  1  0.17174700  0.98345000  0.31194100  1
  Ta  Ta12  1  0.18829700  0.17174700  0.68805900  1
  Ta  Ta13  1  0.82825300  0.81170300  0.81194100  1
  Ta  Ta14  1  0.01655000  0.82825300  0.18805900  1
  Ta  Ta15  1  0.82825300  0.01655000  0.68805900  1
  Ta  Ta16  1  0.81170300  0.98345000  0.18805900  1
  Ta  Ta17  1  0.17174700  0.18829700  0.18805900  1
  Br  Br18  1  0.53107500  0.92487200  0.12051600  1
  Br  Br19  1  0.39379700  0.92487200  0.37948400  1
  Br  Br20  1  0.20233300  0.22085200  0.90947600  1
  Br  Br21  1  0.46892500  0.39379700  0.62051600  1
  Br  Br22  1  0.78717200  0.21282800  0.25000000  1
  Br  Br23  1  0.07512800  0.46892500  0.37948400  1
  Br  Br24  1  0.53107500  0.60620300  0.37948400  1
  Br  Br25  1  0.20233300  0.98148100  0.59052400  1
  Br  Br26  1  0.01851900  0.22085200  0.59052400  1
  Br  Br27  1  0.98148100  0.20233300  0.09052400  1
  Br  Br28  1  0.22085200  0.20233300  0.40947600  1
  Br  Br29  1  0.46892500  0.07512800  0.87948400  1
  Br  Br30  1  0.79766700  0.77914800  0.09052400  1
  Br  Br31  1  0.42565600  0.21282800  0.25000000  1
  Br  Br32  1  0.57434400  0.78717200  0.75000000  1
  Br  Br33  1  0.60620300  0.07512800  0.62051600  1
  Br  Br34  1  0.78717200  0.57434400  0.25000000  1
  Br  Br35  1  0.77914800  0.79766700  0.59052400  1
  Br  Br36  1  0.07512800  0.60620300  0.12051600  1
  Br  Br37  1  0.21282800  0.42565600  0.75000000  1
  Br  Br38  1  0.92487200  0.53107500  0.62051600  1
  Br  Br39  1  0.01851900  0.79766700  0.90947600  1
  Br  Br40  1  0.22085200  0.01851900  0.09052400  1
  Br  Br41  1  0.60620300  0.53107500  0.87948400  1
  Br  Br42  1  0.39379700  0.46892500  0.12051600  1
  Br  Br43  1  0.98148100  0.77914800  0.40947600  1
  Br  Br44  1  0.79766700  0.01851900  0.40947600  1
  Br  Br45  1  0.21282800  0.78717200  0.75000000  1
  Br  Br46  1  0.92487200  0.39379700  0.87948400  1
  Br  Br47  1  0.77914800  0.98148100  0.90947600  1
  O  O48  1  0.17988800  0.35977500  0.25000000  1
  O  O49  1  0.64022500  0.82011200  0.25000000  1
  O  O50  1  0.17988800  0.82011200  0.25000000  1
  O  O51  1  0.82011200  0.17988800  0.75000000  1
  O  O52  1  0.82011200  0.64022500  0.75000000  1
  O  O53  1  0.35977500  0.17988800  0.75000000  1
