# generated using pymatgen
data_Lu2Te5O13
_symmetry_space_group_name_H-M   'P 1'
_cell_length_a   6.89789700
_cell_length_b   8.74477408
_cell_length_c   10.70256263
_cell_angle_alpha   88.57737487
_cell_angle_beta   86.94368778
_cell_angle_gamma   74.58339161
_symmetry_Int_Tables_number   1
_chemical_formula_structural   Lu2Te5O13
_chemical_formula_sum   'Lu4 Te10 O26'
_cell_volume   621.43201677
_cell_formula_units_Z   2
loop_
 _symmetry_equiv_pos_site_id
 _symmetry_equiv_pos_as_xyz
  1  'x, y, z'
loop_
 _atom_site_type_symbol
 _atom_site_label
 _atom_site_symmetry_multiplicity
 _atom_site_fract_x
 _atom_site_fract_y
 _atom_site_fract_z
 _atom_site_occupancy
  Lu  Lu0  1  0.99826300  0.25695500  0.75890800  1
  Lu  Lu1  1  0.55141300  0.53110100  0.18071000  1
  Lu  Lu2  1  0.00173700  0.74304500  0.24109200  1
  Lu  Lu3  1  0.44858700  0.46889900  0.81929000  1
  Te  Te4  1  0.87337500  0.64619800  0.89477600  1
  Te  Te5  1  0.55779900  0.09755700  0.70040200  1
  Te  Te6  1  0.12662500  0.35380200  0.10522400  1
  Te  Te7  1  0.70965200  0.12507200  0.02307700  1
  Te  Te8  1  0.44220100  0.90244300  0.29959800  1
  Te  Te9  1  0.72875700  0.60380600  0.51217800  1
  Te  Te10  1  0.84100400  0.19773300  0.35710000  1
  Te  Te11  1  0.29034800  0.87492800  0.97692300  1
  Te  Te12  1  0.15899600  0.80226700  0.64290000  1
  Te  Te13  1  0.27124300  0.39619400  0.48782200  1
  O  O14  1  0.52908900  0.33108900  0.99680500  1
  O  O15  1  0.67907900  0.77027300  0.22263200  1
  O  O16  1  0.92890400  0.98311800  0.30803600  1
  O  O17  1  0.66023400  0.48767000  0.38023300  1
  O  O18  1  0.23235800  0.50253300  0.18686200  1
  O  O19  1  0.03903200  0.35211700  0.56894900  1
  O  O20  1  0.05453900  0.81993200  0.04342300  1
  O  O21  1  0.66294400  0.26571300  0.22474800  1
  O  O22  1  0.93224900  0.73485400  0.72388200  1
  O  O23  1  0.86848800  0.50712100  0.10077000  1
  O  O24  1  0.47091100  0.66891100  0.00319500  1
  O  O25  1  0.94546100  0.18006800  0.95657700  1
  O  O26  1  0.07109600  0.01688200  0.69196400  1
  O  O27  1  0.96096800  0.64788300  0.43105100  1
  O  O28  1  0.32092100  0.22972700  0.77736800  1
  O  O29  1  0.35135000  0.98440300  0.12245400  1
  O  O30  1  0.76764200  0.49746700  0.81313800  1
  O  O31  1  0.31466600  0.73692800  0.28418800  1
  O  O32  1  0.33976600  0.51233000  0.61976700  1
  O  O33  1  0.33705600  0.73428700  0.77525200  1
  O  O34  1  0.46184200  0.19358200  0.52012300  1
  O  O35  1  0.06775100  0.26514600  0.27611800  1
  O  O36  1  0.13151200  0.49287900  0.89923000  1
  O  O37  1  0.68533400  0.26307200  0.71581200  1
  O  O38  1  0.53815800  0.80641800  0.47987700  1
  O  O39  1  0.64865000  0.01559700  0.87754600  1
