# generated using pymatgen
data_Ba5Mg18Si13
_symmetry_space_group_name_H-M   'P 1'
_cell_length_a   14.55980251
_cell_length_b   14.55980251
_cell_length_c   4.50301300
_cell_angle_alpha   90.00000000
_cell_angle_beta   90.00000000
_cell_angle_gamma   120.00000234
_symmetry_Int_Tables_number   1
_chemical_formula_structural   Ba5Mg18Si13
_chemical_formula_sum   'Ba5 Mg18 Si13'
_cell_volume   826.69401012
_cell_formula_units_Z   1
loop_
 _symmetry_equiv_pos_site_id
 _symmetry_equiv_pos_as_xyz
  1  'x, y, z'
loop_
 _atom_site_type_symbol
 _atom_site_label
 _atom_site_symmetry_multiplicity
 _atom_site_fract_x
 _atom_site_fract_y
 _atom_site_fract_z
 _atom_site_occupancy
  Ba  Ba0  1  0.00000000  0.81991400  0.50000000  1
  Ba  Ba1  1  0.18008600  0.18008600  0.50000000  1
  Ba  Ba2  1  0.81991400  0.00000000  0.50000000  1
  Ba  Ba3  1  0.66666700  0.33333300  0.00000000  1
  Ba  Ba4  1  0.33333300  0.66666700  0.00000000  1
  Mg  Mg5  1  0.17731700  0.37271500  0.00000000  1
  Mg  Mg6  1  0.80460300  0.62728500  0.00000000  1
  Mg  Mg7  1  0.37271500  0.17731700  0.00000000  1
  Mg  Mg8  1  0.82268300  0.19539700  0.00000000  1
  Mg  Mg9  1  0.19539700  0.82268300  0.00000000  1
  Mg  Mg10  1  0.27763500  0.00000000  0.50000000  1
  Mg  Mg11  1  0.72236500  0.72236500  0.50000000  1
  Mg  Mg12  1  0.00000000  0.27763500  0.50000000  1
  Mg  Mg13  1  0.87808800  0.51698600  0.50000000  1
  Mg  Mg14  1  0.63889800  0.12191200  0.50000000  1
  Mg  Mg15  1  0.48301400  0.36110200  0.50000000  1
  Mg  Mg16  1  0.36110200  0.48301400  0.50000000  1
  Mg  Mg17  1  0.12191200  0.63889800  0.50000000  1
  Mg  Mg18  1  0.51698600  0.87808800  0.50000000  1
  Mg  Mg19  1  0.44188700  0.00000000  0.00000000  1
  Mg  Mg20  1  0.55811300  0.55811300  0.00000000  1
  Mg  Mg21  1  0.00000000  0.44188700  0.00000000  1
  Mg  Mg22  1  0.62728500  0.80460300  0.00000000  1
  Si  Si23  1  0.30869100  0.83355400  0.50000000  1
  Si  Si24  1  0.47513700  0.16644600  0.50000000  1
  Si  Si25  1  0.69130900  0.52486300  0.50000000  1
  Si  Si26  1  0.52486300  0.69130900  0.50000000  1
  Si  Si27  1  0.16644600  0.47513700  0.50000000  1
  Si  Si28  1  0.00000000  0.00000000  0.00000000  1
  Si  Si29  1  0.16595800  0.00000000  0.00000000  1
  Si  Si30  1  0.83404200  0.83404200  0.00000000  1
  Si  Si31  1  0.00000000  0.16595800  0.00000000  1
  Si  Si32  1  0.62953200  0.00000000  0.00000000  1
  Si  Si33  1  0.37046800  0.37046800  0.00000000  1
  Si  Si34  1  0.00000000  0.62953200  0.00000000  1
  Si  Si35  1  0.83355400  0.30869100  0.50000000  1
