# generated using pymatgen
data_Ta6Fe16Si7
_symmetry_space_group_name_H-M   'P 1'
_cell_length_a   7.92545504
_cell_length_b   7.92545504
_cell_length_c   7.92545504
_cell_angle_alpha   60.00000000
_cell_angle_beta   60.00000000
_cell_angle_gamma   60.00000000
_symmetry_Int_Tables_number   1
_chemical_formula_structural   Ta6Fe16Si7
_chemical_formula_sum   'Ta6 Fe16 Si7'
_cell_volume   352.01212375
_cell_formula_units_Z   1
loop_
 _symmetry_equiv_pos_site_id
 _symmetry_equiv_pos_as_xyz
  1  'x, y, z'
loop_
 _atom_site_type_symbol
 _atom_site_label
 _atom_site_symmetry_multiplicity
 _atom_site_fract_x
 _atom_site_fract_y
 _atom_site_fract_z
 _atom_site_occupancy
  Ta  Ta0  1  0.20359300  0.79640700  0.20359300  1
  Ta  Ta1  1  0.20359300  0.79640700  0.79640700  1
  Ta  Ta2  1  0.79640700  0.20359300  0.20359300  1
  Ta  Ta3  1  0.79640700  0.79640700  0.20359300  1
  Ta  Ta4  1  0.20359300  0.20359300  0.79640700  1
  Ta  Ta5  1  0.79640700  0.20359300  0.79640700  1
  Fe  Fe6  1  0.17324100  0.17324100  0.17324100  1
  Fe  Fe7  1  0.51972200  0.82675900  0.82675900  1
  Fe  Fe8  1  0.82675900  0.51972200  0.82675900  1
  Fe  Fe9  1  0.82675900  0.82675900  0.51972200  1
  Fe  Fe10  1  0.17324100  0.48027800  0.17324100  1
  Fe  Fe11  1  0.17324100  0.17324100  0.48027800  1
  Fe  Fe12  1  0.48027800  0.17324100  0.17324100  1
  Fe  Fe13  1  0.82675900  0.82675900  0.82675900  1
  Fe  Fe14  1  0.38025100  0.38025100  0.38025100  1
  Fe  Fe15  1  0.14075400  0.61974900  0.61974900  1
  Fe  Fe16  1  0.61974900  0.14075400  0.61974900  1
  Fe  Fe17  1  0.61974900  0.61974900  0.14075400  1
  Fe  Fe18  1  0.38025100  0.85924600  0.38025100  1
  Fe  Fe19  1  0.38025100  0.38025100  0.85924600  1
  Fe  Fe20  1  0.85924600  0.38025100  0.38025100  1
  Fe  Fe21  1  0.61974900  0.61974900  0.61974900  1
  Si  Si22  1  0.50000000  0.50000000  0.50000000  1
  Si  Si23  1  0.00000000  0.50000000  0.00000000  1
  Si  Si24  1  0.50000000  0.00000000  0.00000000  1
  Si  Si25  1  0.00000000  0.50000000  0.50000000  1
  Si  Si26  1  0.50000000  0.00000000  0.50000000  1
  Si  Si27  1  0.00000000  0.00000000  0.50000000  1
  Si  Si28  1  0.50000000  0.50000000  0.00000000  1
