# generated using pymatgen
data_K2RbMn2F7
_symmetry_space_group_name_H-M   'P 1'
_cell_length_a   11.40713072
_cell_length_b   11.40713072
_cell_length_c   11.40713072
_cell_angle_alpha   158.35611694
_cell_angle_beta   158.35611694
_cell_angle_gamma   30.79679587
_symmetry_Int_Tables_number   1
_chemical_formula_structural   K2RbMn2F7
_chemical_formula_sum   'K2 Rb1 Mn2 F7'
_cell_volume   201.79344346
_cell_formula_units_Z   1
loop_
 _symmetry_equiv_pos_site_id
 _symmetry_equiv_pos_as_xyz
  1  'x, y, z'
loop_
 _atom_site_type_symbol
 _atom_site_label
 _atom_site_symmetry_multiplicity
 _atom_site_fract_x
 _atom_site_fract_y
 _atom_site_fract_z
 _atom_site_occupancy
  K  K0  1  0.31379500  0.31379500  0.00000000  1
  K  K1  1  0.68620500  0.68620500  0.00000000  1
  Rb  Rb2  1  0.50000000  0.50000000  0.00000000  1
  Mn  Mn3  1  0.90083000  0.90083000  0.00000000  1
  Mn  Mn4  1  0.09917000  0.09917000  0.00000000  1
  F  F5  1  0.40127300  0.90127300  0.50000000  1
  F  F6  1  0.90127300  0.40127300  0.50000000  1
  F  F7  1  0.19534300  0.19534300  0.00000000  1
  F  F8  1  0.80465700  0.80465700  0.00000000  1
  F  F9  1  0.00000000  0.00000000  0.00000000  1
  F  F10  1  0.09872700  0.59872700  0.50000000  1
  F  F11  1  0.59872700  0.09872700  0.50000000  1
