# generated using pymatgen
data_Rb2MoSeO6
_symmetry_space_group_name_H-M   'P 1'
_cell_length_a   6.35614300
_cell_length_b   7.93264100
_cell_length_c   14.83649700
_cell_angle_alpha   90.00000000
_cell_angle_beta   90.00000000
_cell_angle_gamma   90.00000000
_symmetry_Int_Tables_number   1
_chemical_formula_structural   Rb2MoSeO6
_chemical_formula_sum   'Rb8 Mo4 Se4 O24'
_cell_volume   748.07102360
_cell_formula_units_Z   4
loop_
 _symmetry_equiv_pos_site_id
 _symmetry_equiv_pos_as_xyz
  1  'x, y, z'
loop_
 _atom_site_type_symbol
 _atom_site_label
 _atom_site_symmetry_multiplicity
 _atom_site_fract_x
 _atom_site_fract_y
 _atom_site_fract_z
 _atom_site_occupancy
  Rb  Rb0  1  0.25000000  0.87725100  0.46411300  1
  Rb  Rb1  1  0.25000000  0.37725100  0.03588700  1
  Rb  Rb2  1  0.75000000  0.15572900  0.80273300  1
  Rb  Rb3  1  0.75000000  0.12274900  0.53588700  1
  Rb  Rb4  1  0.25000000  0.34427100  0.30273300  1
  Rb  Rb5  1  0.75000000  0.62274900  0.96411300  1
  Rb  Rb6  1  0.75000000  0.65572900  0.69726700  1
  Rb  Rb7  1  0.25000000  0.84427100  0.19726700  1
  Mo  Mo8  1  0.25000000  0.89884200  0.73258700  1
  Mo  Mo9  1  0.75000000  0.60115800  0.23258700  1
  Mo  Mo10  1  0.25000000  0.39884200  0.76741300  1
  Mo  Mo11  1  0.75000000  0.10115800  0.26741300  1
  Se  Se12  1  0.75000000  0.08216200  0.06338300  1
  Se  Se13  1  0.25000000  0.91783800  0.93661700  1
  Se  Se14  1  0.75000000  0.58216200  0.43661700  1
  Se  Se15  1  0.25000000  0.41783800  0.56338300  1
  O  O16  1  0.97352400  0.05032900  0.33362300  1
  O  O17  1  0.95038200  0.11072900  0.14383200  1
  O  O18  1  0.04961800  0.38927100  0.64383200  1
  O  O19  1  0.75000000  0.25604200  0.99865500  1
  O  O20  1  0.25000000  0.66982500  0.72371400  1
  O  O21  1  0.04961800  0.88927100  0.85616800  1
  O  O22  1  0.52647600  0.55032900  0.16637700  1
  O  O23  1  0.02647600  0.44967100  0.83362300  1
  O  O24  1  0.54961800  0.61072900  0.35616800  1
  O  O25  1  0.52647600  0.05032900  0.33362300  1
  O  O26  1  0.25000000  0.16982500  0.77628600  1
  O  O27  1  0.25000000  0.74395800  0.00134500  1
  O  O28  1  0.02647600  0.94967100  0.66637700  1
  O  O29  1  0.45038200  0.38927100  0.64383200  1
  O  O30  1  0.25000000  0.24395800  0.49865500  1
  O  O31  1  0.47352400  0.94967100  0.66637700  1
  O  O32  1  0.75000000  0.33017500  0.27628600  1
  O  O33  1  0.75000000  0.75604200  0.50134500  1
  O  O34  1  0.47352400  0.44967100  0.83362300  1
  O  O35  1  0.95038200  0.61072900  0.35616800  1
  O  O36  1  0.97352400  0.55032900  0.16637700  1
  O  O37  1  0.54961800  0.11072900  0.14383200  1
  O  O38  1  0.45038200  0.88927100  0.85616800  1
  O  O39  1  0.75000000  0.83017500  0.22371400  1
