# generated using pymatgen
data_Na4Ti5O12
_symmetry_space_group_name_H-M   'P 1'
_cell_length_a   5.37207215
_cell_length_b   5.37207215
_cell_length_c   9.65303000
_cell_angle_alpha   90.00000000
_cell_angle_beta   90.00000000
_cell_angle_gamma   120.00000189
_symmetry_Int_Tables_number   1
_chemical_formula_structural   Na4Ti5O12
_chemical_formula_sum   'Na4 Ti5 O12'
_cell_volume   241.25590590
_cell_formula_units_Z   1
loop_
 _symmetry_equiv_pos_site_id
 _symmetry_equiv_pos_as_xyz
  1  'x, y, z'
loop_
 _atom_site_type_symbol
 _atom_site_label
 _atom_site_symmetry_multiplicity
 _atom_site_fract_x
 _atom_site_fract_y
 _atom_site_fract_z
 _atom_site_occupancy
  Na  Na0  1  0.66666700  0.33333300  0.90029800  1
  Na  Na1  1  0.33333300  0.66666700  0.09970200  1
  Na  Na2  1  0.00000000  0.00000000  0.31169100  1
  Na  Na3  1  0.00000000  0.00000000  0.68830900  1
  Ti  Ti4  1  0.33333300  0.66666700  0.47298200  1
  Ti  Ti5  1  0.00000000  0.00000000  0.00000000  1
  Ti  Ti6  1  0.33333300  0.66666700  0.78341000  1
  Ti  Ti7  1  0.66666700  0.33333300  0.52701800  1
  Ti  Ti8  1  0.66666700  0.33333300  0.21659000  1
  O  O9  1  0.42954500  0.01580100  0.37968900  1
  O  O10  1  0.58625600  0.57045500  0.37968900  1
  O  O11  1  0.98419900  0.41374400  0.37968900  1
  O  O12  1  0.76765700  0.10030400  0.12223700  1
  O  O13  1  0.89969600  0.66735300  0.12223700  1
  O  O14  1  0.01580100  0.58625600  0.62031100  1
  O  O15  1  0.66735300  0.76765700  0.87776300  1
  O  O16  1  0.10030400  0.33264700  0.87776300  1
  O  O17  1  0.57045500  0.98419900  0.62031100  1
  O  O18  1  0.33264700  0.23234300  0.12223700  1
  O  O19  1  0.41374400  0.42954500  0.62031100  1
  O  O20  1  0.23234300  0.89969600  0.87776300  1
