# generated using pymatgen
data_Mg3Si8Ir3
_symmetry_space_group_name_H-M   'P 1'
_cell_length_a   8.68085297
_cell_length_b   8.68085297
_cell_length_c   8.68085297
_cell_angle_alpha   60.00000000
_cell_angle_beta   60.00000000
_cell_angle_gamma   60.00000000
_symmetry_Int_Tables_number   1
_chemical_formula_structural   Mg3Si8Ir3
_chemical_formula_sum   'Mg6 Si16 Ir6'
_cell_volume   462.56439782
_cell_formula_units_Z   2
loop_
 _symmetry_equiv_pos_site_id
 _symmetry_equiv_pos_as_xyz
  1  'x, y, z'
loop_
 _atom_site_type_symbol
 _atom_site_label
 _atom_site_symmetry_multiplicity
 _atom_site_fract_x
 _atom_site_fract_y
 _atom_site_fract_z
 _atom_site_occupancy
  Mg  Mg0  1  0.85034100  0.85034100  0.85034100  1
  Mg  Mg1  1  0.85034100  0.85034100  0.44897600  1
  Mg  Mg2  1  0.85034100  0.44897600  0.85034100  1
  Mg  Mg3  1  0.50000000  0.50000000  0.50000000  1
  Mg  Mg4  1  0.44897600  0.85034100  0.85034100  1
  Mg  Mg5  1  0.25000000  0.25000000  0.25000000  1
  Si  Si6  1  0.89014700  0.47052000  0.47052000  1
  Si  Si7  1  0.77774000  0.07408700  0.07408700  1
  Si  Si8  1  0.47052000  0.89014700  0.16881300  1
  Si  Si9  1  0.47052000  0.47052000  0.89014700  1
  Si  Si10  1  0.47052000  0.16881300  0.47052000  1
  Si  Si11  1  0.89014700  0.16881300  0.47052000  1
  Si  Si12  1  0.16881300  0.47052000  0.47052000  1
  Si  Si13  1  0.16881300  0.47052000  0.89014700  1
  Si  Si14  1  0.07408700  0.77774000  0.07408700  1
  Si  Si15  1  0.47052000  0.47052000  0.16881300  1
  Si  Si16  1  0.89014700  0.47052000  0.16881300  1
  Si  Si17  1  0.16881300  0.89014700  0.47052000  1
  Si  Si18  1  0.47052000  0.89014700  0.47052000  1
  Si  Si19  1  0.07408700  0.07408700  0.77774000  1
  Si  Si20  1  0.47052000  0.16881300  0.89014700  1
  Si  Si21  1  0.07408700  0.07408700  0.07408700  1
  Ir  Ir22  1  0.24498800  0.75501200  0.24498800  1
  Ir  Ir23  1  0.75501200  0.75501200  0.24498800  1
  Ir  Ir24  1  0.75501200  0.24498800  0.24498800  1
  Ir  Ir25  1  0.24498800  0.75501200  0.75501200  1
  Ir  Ir26  1  0.24498800  0.24498800  0.75501200  1
  Ir  Ir27  1  0.75501200  0.24498800  0.75501200  1
