# generated using pymatgen
data_HgNO3
_symmetry_space_group_name_H-M   'P 1'
_cell_length_a   8.71823200
_cell_length_b   6.37441500
_cell_length_c   12.28751821
_cell_angle_alpha   85.84552702
_cell_angle_beta   90.00000000
_cell_angle_gamma   90.00000000
_symmetry_Int_Tables_number   1
_chemical_formula_structural   HgNO3
_chemical_formula_sum   'Hg8 N8 O24'
_cell_volume   681.06765887
_cell_formula_units_Z   8
loop_
 _symmetry_equiv_pos_site_id
 _symmetry_equiv_pos_as_xyz
  1  'x, y, z'
loop_
 _atom_site_type_symbol
 _atom_site_label
 _atom_site_symmetry_multiplicity
 _atom_site_fract_x
 _atom_site_fract_y
 _atom_site_fract_z
 _atom_site_occupancy
  Hg  Hg0  1  0.33819200  0.81988600  0.35931500  1
  Hg  Hg1  1  0.83819200  0.18011400  0.64068500  1
  Hg  Hg2  1  0.95318700  0.80770900  0.67718000  1
  Hg  Hg3  1  0.45318700  0.19229100  0.32282000  1
  Hg  Hg4  1  0.97479900  0.65338600  0.08708100  1
  Hg  Hg5  1  0.47479900  0.34661400  0.91291900  1
  Hg  Hg6  1  0.99260500  0.28022800  0.18310000  1
  Hg  Hg7  1  0.49260500  0.71977200  0.81690000  1
  N  N8  1  0.83687800  0.99703500  0.94013000  1
  N  N9  1  0.33687800  0.00296500  0.05987000  1
  N  N10  1  0.86886600  0.93624400  0.32720900  1
  N  N11  1  0.36886600  0.06375600  0.67279100  1
  N  N12  1  0.60138400  0.53917000  0.17843200  1
  N  N13  1  0.10138400  0.46083000  0.82156800  1
  N  N14  1  0.62133000  0.50149000  0.55329400  1
  N  N15  1  0.12133000  0.49851000  0.44670600  1
  O  O16  1  0.29433100  0.82492000  0.09508100  1
  O  O17  1  0.79433100  0.17508000  0.90491900  1
  O  O18  1  0.79344600  0.82899800  0.90260100  1
  O  O19  1  0.29344600  0.17100200  0.09739900  1
  O  O20  1  0.93637800  0.98482200  0.02163600  1
  O  O21  1  0.43637800  0.01517800  0.97836400  1
  O  O22  1  0.84621300  0.76406800  0.37643100  1
  O  O23  1  0.34621300  0.23593200  0.62356900  1
  O  O24  1  0.28290100  0.90674600  0.67070500  1
  O  O25  1  0.78290100  0.09325400  0.32929500  1
  O  O26  1  0.99678500  0.95803300  0.26618200  1
  O  O27  1  0.49678500  0.04196700  0.73381800  1
  O  O28  1  0.65068500  0.71635900  0.14801600  1
  O  O29  1  0.15068500  0.28364100  0.85198400  1
  O  O30  1  0.62337400  0.37686700  0.12867000  1
  O  O31  1  0.12337400  0.62313300  0.87133000  1
  O  O32  1  0.52251900  0.52124600  0.27074700  1
  O  O33  1  0.02251900  0.47875400  0.72925300  1
  O  O34  1  0.62660500  0.35272700  0.49226200  1
  O  O35  1  0.12660500  0.64727300  0.50773800  1
  O  O36  1  0.53489600  0.65525300  0.54181500  1
  O  O37  1  0.03489600  0.34474700  0.45818500  1
  O  O38  1  0.71653500  0.49187300  0.63837600  1
  O  O39  1  0.21653500  0.50812700  0.36162400  1
