# generated using pymatgen
data_NaPO3
_symmetry_space_group_name_H-M   'P 1'
_cell_length_a   7.80655300
_cell_length_b   8.03149200
_cell_length_c   13.42037200
_cell_angle_alpha   90.00000000
_cell_angle_beta   90.00000000
_cell_angle_gamma   90.00000000
_symmetry_Int_Tables_number   1
_chemical_formula_structural   NaPO3
_chemical_formula_sum   'Na12 P12 O36'
_cell_volume   841.43407987
_cell_formula_units_Z   12
loop_
 _symmetry_equiv_pos_site_id
 _symmetry_equiv_pos_as_xyz
  1  'x, y, z'
loop_
 _atom_site_type_symbol
 _atom_site_label
 _atom_site_symmetry_multiplicity
 _atom_site_fract_x
 _atom_site_fract_y
 _atom_site_fract_z
 _atom_site_occupancy
  Na  Na0  1  0.81660500  0.00559300  0.42654500  1
  Na  Na1  1  0.03651400  0.75000000  0.22278500  1
  Na  Na2  1  0.46348600  0.25000000  0.72278500  1
  Na  Na3  1  0.31660500  0.49440700  0.07345500  1
  Na  Na4  1  0.18339500  0.50559300  0.57345500  1
  Na  Na5  1  0.68339500  0.50559300  0.92654500  1
  Na  Na6  1  0.96348600  0.25000000  0.77721500  1
  Na  Na7  1  0.31660500  0.00559300  0.07345500  1
  Na  Na8  1  0.18339500  0.99440700  0.57345500  1
  Na  Na9  1  0.68339500  0.99440700  0.92654500  1
  Na  Na10  1  0.53651400  0.75000000  0.27721500  1
  Na  Na11  1  0.81660500  0.49440700  0.42654500  1
  P  P12  1  0.75352500  0.93214600  0.67062800  1
  P  P13  1  0.02354700  0.75000000  0.96163000  1
  P  P14  1  0.52354700  0.75000000  0.53837000  1
  P  P15  1  0.25352500  0.56785400  0.82937200  1
  P  P16  1  0.47645300  0.25000000  0.46163000  1
  P  P17  1  0.24647500  0.43214600  0.32937200  1
  P  P18  1  0.24647500  0.06785400  0.32937200  1
  P  P19  1  0.74647500  0.06785400  0.17062800  1
  P  P20  1  0.75352500  0.56785400  0.67062800  1
  P  P21  1  0.74647500  0.43214600  0.17062800  1
  P  P22  1  0.97645300  0.25000000  0.03837000  1
  P  P23  1  0.25352500  0.93214600  0.82937200  1
  O  O24  1  0.13735500  0.75000000  0.05233400  1
  O  O25  1  0.36264500  0.25000000  0.55233400  1
  O  O26  1  0.57326200  0.59266300  0.60992700  1
  O  O27  1  0.57326200  0.90733700  0.60992700  1
  O  O28  1  0.78127000  0.94362600  0.25175600  1
  O  O29  1  0.07326200  0.90733700  0.89007300  1
  O  O30  1  0.78127000  0.55637400  0.25175600  1
  O  O31  1  0.63735500  0.75000000  0.44766600  1
  O  O32  1  0.42673800  0.09266300  0.39007300  1
  O  O33  1  0.71873000  0.05637400  0.75175600  1
  O  O34  1  0.92673800  0.40733700  0.10992700  1
  O  O35  1  0.83324500  0.75000000  0.97222700  1
  O  O36  1  0.60466500  0.03661400  0.09819500  1
  O  O37  1  0.72637600  0.25000000  0.22342500  1
  O  O38  1  0.42673800  0.40733700  0.39007300  1
  O  O39  1  0.16675500  0.25000000  0.02777300  1
  O  O40  1  0.21873000  0.44362600  0.74824400  1
  O  O41  1  0.66675500  0.25000000  0.47222700  1
  O  O42  1  0.28127000  0.55637400  0.24824400  1
  O  O43  1  0.86264500  0.25000000  0.94766600  1
  O  O44  1  0.71873000  0.44362600  0.75175600  1
  O  O45  1  0.10466500  0.03661400  0.40180500  1
  O  O46  1  0.77362400  0.75000000  0.72342500  1
  O  O47  1  0.89533500  0.96338600  0.59819500  1
  O  O48  1  0.21873000  0.05637400  0.74824400  1
  O  O49  1  0.28127000  0.94362600  0.24824400  1
  O  O50  1  0.92673800  0.09266300  0.10992700  1
  O  O51  1  0.27362400  0.75000000  0.77657500  1
  O  O52  1  0.60466500  0.46338600  0.09819500  1
  O  O53  1  0.33324500  0.75000000  0.52777300  1
  O  O54  1  0.89533500  0.53661400  0.59819500  1
  O  O55  1  0.10466500  0.46338600  0.40180500  1
  O  O56  1  0.07326200  0.59266300  0.89007300  1
  O  O57  1  0.39533500  0.96338600  0.90180500  1
  O  O58  1  0.22637600  0.25000000  0.27657500  1
  O  O59  1  0.39533500  0.53661400  0.90180500  1
