# generated using pymatgen
data_La10C4I15
_symmetry_space_group_name_H-M   'P 1'
_cell_length_a   9.93486900
_cell_length_b   10.82496443
_cell_length_c   11.95064723
_cell_angle_alpha   93.70362852
_cell_angle_beta   114.45716886
_cell_angle_gamma   109.23739448
_symmetry_Int_Tables_number   1
_chemical_formula_structural   La10C4I15
_chemical_formula_sum   'La10 C4 I15'
_cell_volume   1073.94497767
_cell_formula_units_Z   1
loop_
 _symmetry_equiv_pos_site_id
 _symmetry_equiv_pos_as_xyz
  1  'x, y, z'
loop_
 _atom_site_type_symbol
 _atom_site_label
 _atom_site_symmetry_multiplicity
 _atom_site_fract_x
 _atom_site_fract_y
 _atom_site_fract_z
 _atom_site_occupancy
  La  La0  1  0.59780600  0.54054500  0.34234000  1
  La  La1  1  0.34332300  0.74657400  0.16505700  1
  La  La2  1  0.77934500  0.88543900  0.25902900  1
  La  La3  1  0.52884900  0.18699400  0.10349200  1
  La  La4  1  0.22065500  0.11456100  0.74097100  1
  La  La5  1  0.40219400  0.45945500  0.65766000  1
  La  La6  1  0.47115100  0.81300600  0.89650800  1
  La  La7  1  0.70518000  0.56759800  0.04446600  1
  La  La8  1  0.29482000  0.43240200  0.95553400  1
  La  La9  1  0.65667700  0.25342600  0.83494300  1
  C  C10  1  0.48182000  0.29909100  0.93655500  1
  C  C11  1  0.51818000  0.70090900  0.06344500  1
  C  C12  1  0.45268700  0.36109600  0.83353800  1
  C  C13  1  0.54731300  0.63890400  0.16646200  1
  I  I14  1  0.20591200  0.90627500  0.93718100  1
  I  I15  1  0.10327400  0.18772600  0.46552200  1
  I  I16  1  0.14950900  0.55442700  0.70347400  1
  I  I17  1  0.40492500  0.96828300  0.64554400  1
  I  I18  1  0.71519300  0.73380800  0.82204600  1
  I  I19  1  0.28480700  0.26619200  0.17795400  1
  I  I20  1  0.85049100  0.44557300  0.29652600  1
  I  I21  1  0.89672600  0.81227400  0.53447800  1
  I  I22  1  0.35830400  0.63006400  0.41299900  1
  I  I23  1  0.05570100  0.83368800  0.22092400  1
  I  I24  1  0.79408800  0.09372500  0.06281900  1
  I  I25  1  0.64169600  0.36993600  0.58700100  1
  I  I26  1  0.94429900  0.16631200  0.77907600  1
  I  I27  1  0.59507500  0.03171700  0.35445600  1
  I  I28  1  0.00000000  0.50000000  0.00000000  1
