# generated using pymatgen
data_CuAsS
_symmetry_space_group_name_H-M   'P 1'
_cell_length_a   3.82419800
_cell_length_b   5.46621700
_cell_length_c   11.40406700
_cell_angle_alpha   90.00000000
_cell_angle_beta   90.00000000
_cell_angle_gamma   90.00000000
_symmetry_Int_Tables_number   1
_chemical_formula_structural   CuAsS
_chemical_formula_sum   'Cu4 As4 S4'
_cell_volume   238.38943190
_cell_formula_units_Z   4
loop_
 _symmetry_equiv_pos_site_id
 _symmetry_equiv_pos_as_xyz
  1  'x, y, z'
loop_
 _atom_site_type_symbol
 _atom_site_label
 _atom_site_symmetry_multiplicity
 _atom_site_fract_x
 _atom_site_fract_y
 _atom_site_fract_z
 _atom_site_occupancy
  Cu  Cu0  1  0.25000000  0.43802400  0.32518300  1
  Cu  Cu1  1  0.75000000  0.93802400  0.17481700  1
  Cu  Cu2  1  0.75000000  0.56197600  0.67481700  1
  Cu  Cu3  1  0.25000000  0.06197600  0.82518300  1
  As  As4  1  0.75000000  0.65165000  0.01375200  1
  As  As5  1  0.25000000  0.15165000  0.48624800  1
  As  As6  1  0.75000000  0.84835000  0.51375200  1
  As  As7  1  0.25000000  0.34835000  0.98624800  1
  S  S8  1  0.75000000  0.82822900  0.83094300  1
  S  S9  1  0.75000000  0.67177100  0.33094300  1
  S  S10  1  0.25000000  0.17177100  0.16905700  1
  S  S11  1  0.25000000  0.32822900  0.66905700  1
