# generated using pymatgen
data_OsCl4O
_symmetry_space_group_name_H-M   'P 1'
_cell_length_a   6.00873200
_cell_length_b   10.20948200
_cell_length_c   12.73120735
_cell_angle_alpha   69.48299422
_cell_angle_beta   90.00000000
_cell_angle_gamma   90.00000000
_symmetry_Int_Tables_number   1
_chemical_formula_structural   OsCl4O
_chemical_formula_sum   'Os4 Cl16 O4'
_cell_volume   731.46835604
_cell_formula_units_Z   4
loop_
 _symmetry_equiv_pos_site_id
 _symmetry_equiv_pos_as_xyz
  1  'x, y, z'
loop_
 _atom_site_type_symbol
 _atom_site_label
 _atom_site_symmetry_multiplicity
 _atom_site_fract_x
 _atom_site_fract_y
 _atom_site_fract_z
 _atom_site_occupancy
  Os  Os0  1  0.61072000  0.22925900  0.02977500  1
  Os  Os1  1  0.38928000  0.77074100  0.97022500  1
  Os  Os2  1  0.11072000  0.77074100  0.47022500  1
  Os  Os3  1  0.88928000  0.22925900  0.52977500  1
  Cl  Cl4  1  0.33650200  0.26938000  0.89931000  1
  Cl  Cl5  1  0.26168200  0.70655900  0.82756000  1
  Cl  Cl6  1  0.73831800  0.29344100  0.17244000  1
  Cl  Cl7  1  0.83650200  0.73062000  0.60069000  1
  Cl  Cl8  1  0.24157600  0.55858100  0.58167200  1
  Cl  Cl9  1  0.34033400  0.11524600  0.15327000  1
  Cl  Cl10  1  0.15966600  0.11524600  0.65327000  1
  Cl  Cl11  1  0.23831800  0.70655900  0.32756000  1
  Cl  Cl12  1  0.16349800  0.26938000  0.39931000  1
  Cl  Cl13  1  0.76168200  0.29344100  0.67244000  1
  Cl  Cl14  1  0.74157600  0.44141900  0.91832800  1
  Cl  Cl15  1  0.25842400  0.55858100  0.08167200  1
  Cl  Cl16  1  0.66349800  0.73062000  0.10069000  1
  Cl  Cl17  1  0.84033400  0.88475400  0.34673000  1
  Cl  Cl18  1  0.75842400  0.44141900  0.41832800  1
  Cl  Cl19  1  0.65966600  0.88475400  0.84673000  1
  O  O20  1  0.28320900  0.89238000  0.48505500  1
  O  O21  1  0.21679100  0.89238000  0.98505500  1
  O  O22  1  0.78320900  0.10762000  0.01494500  1
  O  O23  1  0.71679100  0.10762000  0.51494500  1
