# generated using pymatgen
data_Ba3NaNd3(Si3O10)2
_symmetry_space_group_name_H-M   'P 1'
_cell_length_a   12.54874307
_cell_length_b   12.54874307
_cell_length_c   15.00677400
_cell_angle_alpha   90.00000000
_cell_angle_beta   90.00000000
_cell_angle_gamma   153.96310124
_symmetry_Int_Tables_number   1
_chemical_formula_structural   Ba3NaNd3(Si3O10)2
_chemical_formula_sum   'Ba6 Na2 Nd6 Si12 O40'
_cell_volume   1037.29607643
_cell_formula_units_Z   2
loop_
 _symmetry_equiv_pos_site_id
 _symmetry_equiv_pos_as_xyz
  1  'x, y, z'
loop_
 _atom_site_type_symbol
 _atom_site_label
 _atom_site_symmetry_multiplicity
 _atom_site_fract_x
 _atom_site_fract_y
 _atom_site_fract_z
 _atom_site_occupancy
  Ba  Ba0  1  0.68784500  0.17440300  0.38672100  1
  Ba  Ba1  1  0.17440300  0.68784500  0.61327900  1
  Ba  Ba2  1  0.17440300  0.68784500  0.88672100  1
  Ba  Ba3  1  0.84756400  0.01394200  0.25000000  1
  Ba  Ba4  1  0.01394200  0.84756400  0.75000000  1
  Ba  Ba5  1  0.68784500  0.17440300  0.11327900  1
  Na  Na6  1  0.46775000  0.24386100  0.25000000  1
  Na  Na7  1  0.24386100  0.46775000  0.75000000  1
  Nd  Nd8  1  0.61297700  0.39112000  0.53120100  1
  Nd  Nd9  1  0.39112000  0.61297700  0.03120100  1
  Nd  Nd10  1  0.61297700  0.39112000  0.96879900  1
  Nd  Nd11  1  0.39112000  0.61297700  0.46879900  1
  Nd  Nd12  1  0.00857000  0.00857000  0.50000000  1
  Nd  Nd13  1  0.00857000  0.00857000  0.00000000  1
  Si  Si14  1  0.81032700  0.11481600  0.94221200  1
  Si  Si15  1  0.11481600  0.81032700  0.44221200  1
  Si  Si16  1  0.44143900  0.44293000  0.35880300  1
  Si  Si17  1  0.09297300  0.71440000  0.25000000  1
  Si  Si18  1  0.81032700  0.11481600  0.55778800  1
  Si  Si19  1  0.71440000  0.09297300  0.75000000  1
  Si  Si20  1  0.44293000  0.44143900  0.64119700  1
  Si  Si21  1  0.44143900  0.44293000  0.14119700  1
  Si  Si22  1  0.11481600  0.81032700  0.05778800  1
  Si  Si23  1  0.28119800  0.64425900  0.25000000  1
  Si  Si24  1  0.44293000  0.44143900  0.85880300  1
  Si  Si25  1  0.64425900  0.28119800  0.75000000  1
  O  O26  1  0.79063800  0.97132400  0.53167700  1
  O  O27  1  0.66935100  0.72308800  0.11033200  1
  O  O28  1  0.18851600  0.87442000  0.33419000  1
  O  O29  1  0.54191600  0.92151600  0.96716300  1
  O  O30  1  0.81077300  0.43025300  0.25000000  1
  O  O31  1  0.97132400  0.79063800  0.46832300  1
  O  O32  1  0.19328100  0.29034900  0.12023600  1
  O  O33  1  0.78392200  0.28499300  0.75000000  1
  O  O34  1  0.40952500  0.30366700  0.08564800  1
  O  O35  1  0.99894000  0.35333000  0.25000000  1
  O  O36  1  0.29034900  0.19328100  0.62023600  1
  O  O37  1  0.92151600  0.54191600  0.03283700  1
  O  O38  1  0.44512800  0.75887400  0.33724700  1
  O  O39  1  0.36971500  0.02137400  0.00411900  1
  O  O40  1  0.87442000  0.18851600  0.83419000  1
  O  O41  1  0.30366700  0.40952500  0.58564800  1
  O  O42  1  0.30366700  0.40952500  0.91435200  1
  O  O43  1  0.72308800  0.66935100  0.88966800  1
  O  O44  1  0.35333000  0.99894000  0.75000000  1
  O  O45  1  0.43025300  0.81077300  0.75000000  1
  O  O46  1  0.19328100  0.29034900  0.37976400  1
  O  O47  1  0.18851600  0.87442000  0.16581000  1
  O  O48  1  0.72308800  0.66935100  0.61033200  1
  O  O49  1  0.75887400  0.44512800  0.83724700  1
  O  O50  1  0.79063800  0.97132400  0.96832300  1
  O  O51  1  0.46215600  0.43187100  0.25000000  1
  O  O52  1  0.54191600  0.92151600  0.53283700  1
  O  O53  1  0.28499300  0.78392200  0.25000000  1
  O  O54  1  0.36971500  0.02137400  0.49588100  1
  O  O55  1  0.44512800  0.75887400  0.16275300  1
  O  O56  1  0.92151600  0.54191600  0.46716300  1
  O  O57  1  0.02137500  0.36971500  0.99588100  1
  O  O58  1  0.66935100  0.72308800  0.38966800  1
  O  O59  1  0.40952500  0.30366700  0.41435200  1
  O  O60  1  0.87442000  0.18851600  0.66581000  1
  O  O61  1  0.29034900  0.19328100  0.87976400  1
  O  O62  1  0.97132400  0.79063800  0.03167700  1
  O  O63  1  0.75887400  0.44512800  0.66275300  1
  O  O64  1  0.43187100  0.46215600  0.75000000  1
  O  O65  1  0.02137500  0.36971500  0.50411900  1
