# generated using pymatgen
data_TmB4
_symmetry_space_group_name_H-M   'P 1'
_cell_length_a   7.05320900
_cell_length_b   7.05320900
_cell_length_c   3.98404500
_cell_angle_alpha   90.00000000
_cell_angle_beta   90.00000000
_cell_angle_gamma   90.00000000
_symmetry_Int_Tables_number   1
_chemical_formula_structural   TmB4
_chemical_formula_sum   'Tm4 B16'
_cell_volume   198.19730332
_cell_formula_units_Z   4
loop_
 _symmetry_equiv_pos_site_id
 _symmetry_equiv_pos_as_xyz
  1  'x, y, z'
loop_
 _atom_site_type_symbol
 _atom_site_label
 _atom_site_symmetry_multiplicity
 _atom_site_fract_x
 _atom_site_fract_y
 _atom_site_fract_z
 _atom_site_occupancy
  Tm  Tm0  1  0.81637500  0.31637500  0.00000000  1
  Tm  Tm1  1  0.18362500  0.68362500  0.00000000  1
  Tm  Tm2  1  0.31637500  0.18362500  0.00000000  1
  Tm  Tm3  1  0.68362500  0.81637500  0.00000000  1
  B  B4  1  0.50000000  0.50000000  0.79731800  1
  B  B5  1  0.00000000  0.00000000  0.79731800  1
  B  B6  1  0.50000000  0.50000000  0.20268200  1
  B  B7  1  0.00000000  0.00000000  0.20268200  1
  B  B8  1  0.58658500  0.08658500  0.50000000  1
  B  B9  1  0.41341500  0.91341500  0.50000000  1
  B  B10  1  0.08658500  0.41341500  0.50000000  1
  B  B11  1  0.91341500  0.58658500  0.50000000  1
  B  B12  1  0.67683900  0.53850200  0.50000000  1
  B  B13  1  0.32316100  0.46149800  0.50000000  1
  B  B14  1  0.17683900  0.96149800  0.50000000  1
  B  B15  1  0.82316100  0.03850200  0.50000000  1
  B  B16  1  0.46149800  0.67683900  0.50000000  1
  B  B17  1  0.53850200  0.32316100  0.50000000  1
  B  B18  1  0.03850200  0.17683900  0.50000000  1
  B  B19  1  0.96149800  0.82316100  0.50000000  1
