# generated using pymatgen
data_NaY(IO3)4
_symmetry_space_group_name_H-M   'P 1'
_cell_length_a   16.12048710
_cell_length_b   16.12048710
_cell_length_c   12.64819269
_cell_angle_alpha   89.18699540
_cell_angle_beta   89.18699540
_cell_angle_gamma   20.19715486
_symmetry_Int_Tables_number   1
_chemical_formula_structural   NaY(IO3)4
_chemical_formula_sum   'Na4 Y4 I16 O48'
_cell_volume   1134.68517041
_cell_formula_units_Z   4
loop_
 _symmetry_equiv_pos_site_id
 _symmetry_equiv_pos_as_xyz
  1  'x, y, z'
loop_
 _atom_site_type_symbol
 _atom_site_label
 _atom_site_symmetry_multiplicity
 _atom_site_fract_x
 _atom_site_fract_y
 _atom_site_fract_z
 _atom_site_occupancy
  Na  Na0  1  0.03439700  0.59353400  0.97068600  1
  Na  Na1  1  0.61594200  0.16188300  0.06507500  1
  Na  Na2  1  0.59353400  0.03439700  0.47068600  1
  Na  Na3  1  0.16188300  0.61594200  0.56507500  1
  Y  Y4  1  0.98407600  0.56213900  0.67620700  1
  Y  Y5  1  0.56213900  0.98407600  0.17620700  1
  Y  Y6  1  0.16727300  0.78775600  0.17048700  1
  Y  Y7  1  0.78775600  0.16727300  0.67048700  1
  I  I8  1  0.71654100  0.11450000  0.37554900  1
  I  I9  1  0.69702800  0.29477400  0.96450800  1
  I  I10  1  0.29477400  0.69702800  0.46450800  1
  I  I11  1  0.32004300  0.78942500  0.76895700  1
  I  I12  1  0.11552700  0.59942400  0.21699400  1
  I  I13  1  0.95588300  0.43801300  0.08431800  1
  I  I14  1  0.44543500  0.06089700  0.88036500  1
  I  I15  1  0.78942500  0.32004300  0.26895700  1
  I  I16  1  0.59942400  0.11552700  0.71699400  1
  I  I17  1  0.47310700  0.84196700  0.31250300  1
  I  I18  1  0.26746800  0.92087900  0.03816900  1
  I  I19  1  0.92087900  0.26746800  0.53816900  1
  I  I20  1  0.06089700  0.44543500  0.38036500  1
  I  I21  1  0.84196700  0.47310700  0.81250300  1
  I  I22  1  0.11450000  0.71654100  0.87554900  1
  I  I23  1  0.43801300  0.95588300  0.58431800  1
  O  O24  1  0.85822300  0.89601500  0.92029400  1
  O  O25  1  0.33148500  0.32592300  0.65095000  1
  O  O26  1  0.36205800  0.19104600  0.33315000  1
  O  O27  1  0.09732800  0.09705500  0.91608500  1
  O  O28  1  0.59597000  0.64406600  0.23056800  1
  O  O29  1  0.81668600  0.02433300  0.23585200  1
  O  O30  1  0.13186800  0.12738000  0.12227700  1
  O  O31  1  0.65398800  0.65923900  0.43227200  1
  O  O32  1  0.29443300  0.63585200  0.34281600  1
  O  O33  1  0.99094800  0.09713200  0.59309000  1
  O  O34  1  0.04572100  0.87615700  0.53450100  1
  O  O35  1  0.09713200  0.99094800  0.09309000  1
  O  O36  1  0.40972700  0.53573500  0.02415500  1
  O  O37  1  0.53573500  0.40972700  0.52415500  1
  O  O38  1  0.10555500  0.46193200  0.50142500  1
  O  O39  1  0.87615700  0.04572100  0.03450100  1
  O  O40  1  0.14300400  0.25720800  0.96393300  1
  O  O41  1  0.64406600  0.59597000  0.73056800  1
  O  O42  1  0.50061600  0.55537600  0.68031300  1
  O  O43  1  0.23082300  0.58277500  0.14210000  1
  O  O44  1  0.89601500  0.85822300  0.42029400  1
  O  O45  1  0.69260800  0.88344900  0.80794800  1
  O  O46  1  0.82061000  0.85138700  0.63370900  1
  O  O47  1  0.64524300  0.76724400  0.25002000  1
  O  O48  1  0.25720800  0.14300400  0.46393300  1
  O  O49  1  0.46193200  0.10555500  0.00142500  1
  O  O50  1  0.63585200  0.29443300  0.84281600  1
  O  O51  1  0.61783700  0.48327200  0.39393300  1
  O  O52  1  0.81653900  0.67134300  0.05666100  1
  O  O53  1  0.88344900  0.69260800  0.30794800  1
  O  O54  1  0.12738000  0.13186800  0.62227700  1
  O  O55  1  0.32592300  0.33148500  0.15095000  1
  O  O56  1  0.67134300  0.81653900  0.55666100  1
  O  O57  1  0.06839700  0.95236100  0.79505100  1
  O  O58  1  0.18740100  0.25610500  0.17778300  1
  O  O59  1  0.02433300  0.81668600  0.73585200  1
  O  O60  1  0.43426500  0.32145400  0.36955000  1
  O  O61  1  0.55537600  0.50061600  0.18031300  1
  O  O62  1  0.95236100  0.06839700  0.29505100  1
  O  O63  1  0.25610500  0.18740100  0.67778300  1
  O  O64  1  0.58277500  0.23082300  0.64210000  1
  O  O65  1  0.32145400  0.43426500  0.86955000  1
  O  O66  1  0.76724400  0.64524300  0.75002000  1
  O  O67  1  0.48327200  0.61783700  0.89393300  1
  O  O68  1  0.19104600  0.36205800  0.83315000  1
  O  O69  1  0.65923900  0.65398800  0.93227200  1
  O  O70  1  0.85138700  0.82061000  0.13370900  1
  O  O71  1  0.09705500  0.09732800  0.41608500  1
