# generated using pymatgen
data_Cs3P7Pb2O21
_symmetry_space_group_name_H-M   'P 1'
_cell_length_a   6.91083000
_cell_length_b   8.03324541
_cell_length_c   22.53471015
_cell_angle_alpha   86.50681569
_cell_angle_beta   83.04106999
_cell_angle_gamma   65.90064692
_symmetry_Int_Tables_number   1
_chemical_formula_structural   Cs3P7Pb2O21
_chemical_formula_sum   'Cs6 P14 Pb4 O42'
_cell_volume   1133.49966935
_cell_formula_units_Z   2
loop_
 _symmetry_equiv_pos_site_id
 _symmetry_equiv_pos_as_xyz
  1  'x, y, z'
loop_
 _atom_site_type_symbol
 _atom_site_label
 _atom_site_symmetry_multiplicity
 _atom_site_fract_x
 _atom_site_fract_y
 _atom_site_fract_z
 _atom_site_occupancy
  Cs  Cs0  1  0.30240400  0.79398900  0.42096400  1
  Cs  Cs1  1  0.87325100  0.68602900  0.76372400  1
  Cs  Cs2  1  0.24612100  0.79277500  0.88945900  1
  Cs  Cs3  1  0.69759600  0.20601100  0.57903600  1
  Cs  Cs4  1  0.12674900  0.31397100  0.23627600  1
  Cs  Cs5  1  0.75387900  0.20722500  0.11054100  1
  P  P6  1  0.95819600  0.12108700  0.73495700  1
  P  P7  1  0.19725100  0.25407600  0.51809800  1
  P  P8  1  0.04180400  0.87891300  0.26504300  1
  P  P9  1  0.01238300  0.33656600  0.93468500  1
  P  P10  1  0.36491600  0.15075400  0.74523400  1
  P  P11  1  0.80274900  0.74592400  0.48190200  1
  P  P12  1  0.98761700  0.66343400  0.06531500  1
  P  P13  1  0.72608100  0.72667300  0.96292300  1
  P  P14  1  0.96237100  0.40244000  0.41213300  1
  P  P15  1  0.63508400  0.84924600  0.25476600  1
  P  P16  1  0.53559600  0.43805900  0.75100300  1
  P  P17  1  0.03762900  0.59756000  0.58786700  1
  P  P18  1  0.27391900  0.27332700  0.03707700  1
  P  P19  1  0.46440400  0.56194100  0.24899700  1
  Pb  Pb20  1  0.41083700  0.81321200  0.62462200  1
  Pb  Pb21  1  0.58916300  0.18678800  0.37537800  1
  Pb  Pb22  1  0.60536200  0.16935600  0.88497900  1
  Pb  Pb23  1  0.39463800  0.83064400  0.11502100  1
  O  O24  1  0.47413600  0.05090300  0.68821800  1
  O  O25  1  0.75360100  0.29808100  0.71427500  1
  O  O26  1  0.53384000  0.38007000  0.28000000  1
  O  O27  1  0.79100100  0.51123700  0.95274900  1
  O  O28  1  0.20899900  0.48876300  0.04725100  1
  O  O29  1  0.95236100  0.99928300  0.31869100  1
  O  O30  1  0.09979700  0.95869500  0.20715000  1
  O  O31  1  0.74756600  0.81658600  0.90306600  1
  O  O32  1  0.00302200  0.29683600  0.47662000  1
  O  O33  1  0.48723500  0.20631100  0.00073300  1
  O  O34  1  0.84029700  0.67559500  0.63081200  1
  O  O35  1  0.08729500  0.26627000  0.00148700  1
  O  O36  1  0.51276500  0.79368900  0.99926700  1
  O  O37  1  0.75478400  0.93491600  0.45744500  1
  O  O38  1  0.17401900  0.39327100  0.89908800  1
  O  O39  1  0.63342800  0.69285900  0.51422600  1
  O  O40  1  0.46616000  0.61993000  0.72000000  1
  O  O41  1  0.04763900  0.00071700  0.68130900  1
  O  O42  1  0.15970300  0.32440500  0.36918800  1
  O  O43  1  0.24531000  0.59390100  0.60303700  1
  O  O44  1  0.56434600  0.93977300  0.19620400  1
  O  O45  1  0.75469000  0.40609900  0.39696300  1
  O  O46  1  0.91270500  0.73373000  0.99851300  1
  O  O47  1  0.93100200  0.60903000  0.42640800  1
  O  O48  1  0.90020300  0.04130500  0.79285000  1
  O  O49  1  0.43565400  0.06022700  0.80379600  1
  O  O50  1  0.06899800  0.39097000  0.57359200  1
  O  O51  1  0.10765300  0.22540400  0.74634900  1
  O  O52  1  0.89234700  0.77459600  0.25365100  1
  O  O53  1  0.05186500  0.80425700  0.08707400  1
  O  O54  1  0.63388900  0.64569200  0.25930700  1
  O  O55  1  0.99697800  0.70316400  0.52338000  1
  O  O56  1  0.82598100  0.60672900  0.10091200  1
  O  O57  1  0.56517100  0.43575600  0.81625200  1
  O  O58  1  0.36657200  0.30714100  0.48577400  1
  O  O59  1  0.94813500  0.19574300  0.91292600  1
  O  O60  1  0.52586400  0.94909700  0.31178200  1
  O  O61  1  0.24639900  0.70191900  0.28572500  1
  O  O62  1  0.24521600  0.06508400  0.54255500  1
  O  O63  1  0.25243400  0.18341400  0.09693400  1
  O  O64  1  0.36611100  0.35430800  0.74069300  1
  O  O65  1  0.43482900  0.56424400  0.18374800  1
