# generated using pymatgen
data_Li5ReO6
_symmetry_space_group_name_H-M   'P 1'
_cell_length_a   5.09908755
_cell_length_b   5.09908755
_cell_length_c   5.08413575
_cell_angle_alpha   80.04898731
_cell_angle_beta   80.04898731
_cell_angle_gamma   119.75194306
_symmetry_Int_Tables_number   1
_chemical_formula_structural   Li5ReO6
_chemical_formula_sum   'Li5 Re1 O6'
_cell_volume   107.74814394
_cell_formula_units_Z   1
loop_
 _symmetry_equiv_pos_site_id
 _symmetry_equiv_pos_as_xyz
  1  'x, y, z'
loop_
 _atom_site_type_symbol
 _atom_site_label
 _atom_site_symmetry_multiplicity
 _atom_site_fract_x
 _atom_site_fract_y
 _atom_site_fract_z
 _atom_site_occupancy
  Li  Li0  1  0.33362100  0.66637900  0.00000000  1
  Li  Li1  1  0.66637900  0.33362100  0.00000000  1
  Li  Li2  1  0.50000000  0.50000000  0.50000000  1
  Li  Li3  1  0.17629500  0.82370500  0.50000000  1
  Li  Li4  1  0.82370500  0.17629500  0.50000000  1
  Re  Re5  1  0.00000000  0.00000000  0.00000000  1
  O  O6  1  0.92286500  0.61692900  0.23396100  1
  O  O7  1  0.61692900  0.92286500  0.23396100  1
  O  O8  1  0.38307100  0.07713500  0.76603900  1
  O  O9  1  0.07713500  0.38307100  0.76603900  1
  O  O10  1  0.77229000  0.77229000  0.77404400  1
  O  O11  1  0.22771000  0.22771000  0.22595600  1
