# generated using pymatgen
data_Li3BS3
_symmetry_space_group_name_H-M   'P 1'
_cell_length_a   6.20235200
_cell_length_b   8.18923200
_cell_length_c   10.15187700
_cell_angle_alpha   90.00000000
_cell_angle_beta   90.00000000
_cell_angle_gamma   90.00000000
_symmetry_Int_Tables_number   1
_chemical_formula_structural   Li3BS3
_chemical_formula_sum   'Li12 B4 S12'
_cell_volume   515.63920718
_cell_formula_units_Z   4
loop_
 _symmetry_equiv_pos_site_id
 _symmetry_equiv_pos_as_xyz
  1  'x, y, z'
loop_
 _atom_site_type_symbol
 _atom_site_label
 _atom_site_symmetry_multiplicity
 _atom_site_fract_x
 _atom_site_fract_y
 _atom_site_fract_z
 _atom_site_occupancy
  Li  Li0  1  0.60621400  0.66854300  0.99067200  1
  Li  Li1  1  0.10621400  0.83145700  0.00932800  1
  Li  Li2  1  0.89378600  0.16854300  0.50932800  1
  Li  Li3  1  0.39378600  0.33145700  0.49067200  1
  Li  Li4  1  0.39378600  0.33145700  0.00932800  1
  Li  Li5  1  0.89378600  0.16854300  0.99067200  1
  Li  Li6  1  0.10621400  0.83145700  0.49067200  1
  Li  Li7  1  0.60621400  0.66854300  0.50932800  1
  Li  Li8  1  0.54690100  0.99532700  0.75000000  1
  Li  Li9  1  0.04690100  0.50467300  0.25000000  1
  Li  Li10  1  0.95309900  0.49532700  0.75000000  1
  Li  Li11  1  0.45309900  0.00467300  0.25000000  1
  B  B12  1  0.88316300  0.87960400  0.25000000  1
  B  B13  1  0.38316300  0.62039600  0.75000000  1
  B  B14  1  0.61683700  0.37960400  0.25000000  1
  B  B15  1  0.11683700  0.12039600  0.75000000  1
  S  S16  1  0.74299800  0.91999000  0.09425200  1
  S  S17  1  0.24299800  0.58001000  0.90574800  1
  S  S18  1  0.75700200  0.41999000  0.40574800  1
  S  S19  1  0.25700200  0.08001000  0.59425200  1
  S  S20  1  0.25700200  0.08001000  0.90574800  1
  S  S21  1  0.75700200  0.41999000  0.09425200  1
  S  S22  1  0.24299800  0.58001000  0.59425200  1
  S  S23  1  0.74299800  0.91999000  0.40574800  1
  S  S24  1  0.84164000  0.20251500  0.75000000  1
  S  S25  1  0.34164000  0.29748500  0.25000000  1
  S  S26  1  0.65836000  0.70251500  0.75000000  1
  S  S27  1  0.15836000  0.79748500  0.25000000  1
