# generated using pymatgen
data_Pr2SbO5F
_symmetry_space_group_name_H-M   'P 1'
_cell_length_a   6.69231400
_cell_length_b   7.10535000
_cell_length_c   10.23653795
_cell_angle_alpha   86.38892104
_cell_angle_beta   90.00000000
_cell_angle_gamma   90.00000000
_symmetry_Int_Tables_number   1
_chemical_formula_structural   Pr2SbO5F
_chemical_formula_sum   'Pr8 Sb4 O20 F4'
_cell_volume   485.79357515
_cell_formula_units_Z   4
loop_
 _symmetry_equiv_pos_site_id
 _symmetry_equiv_pos_as_xyz
  1  'x, y, z'
loop_
 _atom_site_type_symbol
 _atom_site_label
 _atom_site_symmetry_multiplicity
 _atom_site_fract_x
 _atom_site_fract_y
 _atom_site_fract_z
 _atom_site_occupancy
  Pr  Pr0  1  0.74949000  0.37230100  0.53500700  1
  Pr  Pr1  1  0.56897500  0.12280700  0.96544400  1
  Pr  Pr2  1  0.06897500  0.87719300  0.03455600  1
  Pr  Pr3  1  0.37859500  0.13051200  0.33862700  1
  Pr  Pr4  1  0.43903000  0.62732800  0.83916600  1
  Pr  Pr5  1  0.93903000  0.37267200  0.16083400  1
  Pr  Pr6  1  0.87859500  0.86948800  0.66137300  1
  Pr  Pr7  1  0.24949000  0.62769900  0.46499300  1
  Sb  Sb8  1  0.80957500  0.88720400  0.32257100  1
  Sb  Sb9  1  0.30957500  0.11279600  0.67742900  1
  Sb  Sb10  1  0.01284200  0.39039700  0.82157800  1
  Sb  Sb11  1  0.51284200  0.60960300  0.17842200  1
  O  O12  1  0.31160300  0.30024500  0.82502100  1
  O  O13  1  0.72929900  0.04824200  0.46439200  1
  O  O14  1  0.58713300  0.05580000  0.72758100  1
  O  O15  1  0.01025400  0.19945600  0.67639400  1
  O  O16  1  0.09114700  0.55229800  0.96389100  1
  O  O17  1  0.89370500  0.69047200  0.46144700  1
  O  O18  1  0.08713300  0.94420000  0.27241900  1
  O  O19  1  0.22929900  0.95175800  0.53560800  1
  O  O20  1  0.11584100  0.58462500  0.68799100  1
  O  O21  1  0.71706200  0.08278900  0.18640700  1
  O  O22  1  0.74218000  0.46508100  0.76701700  1
  O  O23  1  0.42392300  0.80600000  0.04161000  1
  O  O24  1  0.59114700  0.44770200  0.03610900  1
  O  O25  1  0.81160300  0.69975500  0.17497900  1
  O  O26  1  0.61584100  0.41537500  0.31200900  1
  O  O27  1  0.21706200  0.91721100  0.81359300  1
  O  O28  1  0.51025400  0.80054400  0.32360600  1
  O  O29  1  0.39370500  0.30952800  0.53855300  1
  O  O30  1  0.92392300  0.19400000  0.95839000  1
  O  O31  1  0.24218000  0.53491900  0.23298300  1
  F  F32  1  0.03792700  0.32426800  0.39217000  1
  F  F33  1  0.53792700  0.67573200  0.60783000  1
  F  F34  1  0.77692100  0.83138800  0.89307900  1
  F  F35  1  0.27692100  0.16861200  0.10692100  1
