# generated using pymatgen
data_Ti4AlN3
_symmetry_space_group_name_H-M   'P 1'
_cell_length_a   2.99490268
_cell_length_b   2.99490268
_cell_length_c   23.49606900
_cell_angle_alpha   90.00000000
_cell_angle_beta   90.00000000
_cell_angle_gamma   120.00001504
_symmetry_Int_Tables_number   1
_chemical_formula_structural   Ti4AlN3
_chemical_formula_sum   'Ti8 Al2 N6'
_cell_volume   182.51190743
_cell_formula_units_Z   2
loop_
 _symmetry_equiv_pos_site_id
 _symmetry_equiv_pos_as_xyz
  1  'x, y, z'
loop_
 _atom_site_type_symbol
 _atom_site_label
 _atom_site_symmetry_multiplicity
 _atom_site_fract_x
 _atom_site_fract_y
 _atom_site_fract_z
 _atom_site_occupancy
  Ti  Ti0  1  0.33333300  0.66666700  0.44602200  1
  Ti  Ti1  1  0.66666700  0.33333300  0.55397800  1
  Ti  Ti2  1  0.00000000  0.00000000  0.65446200  1
  Ti  Ti3  1  0.00000000  0.00000000  0.15446200  1
  Ti  Ti4  1  0.00000000  0.00000000  0.84553800  1
  Ti  Ti5  1  0.66666700  0.33333300  0.94602200  1
  Ti  Ti6  1  0.00000000  0.00000000  0.34553800  1
  Ti  Ti7  1  0.33333300  0.66666700  0.05397800  1
  Al  Al8  1  0.66666700  0.33333300  0.75000000  1
  Al  Al9  1  0.33333300  0.66666700  0.25000000  1
  N  N10  1  0.66666700  0.33333300  0.10566600  1
  N  N11  1  0.33333300  0.66666700  0.60566600  1
  N  N12  1  0.00000000  0.00000000  0.50000000  1
  N  N13  1  0.66666700  0.33333300  0.39433400  1
  N  N14  1  0.33333300  0.66666700  0.89433400  1
  N  N15  1  0.00000000  0.00000000  0.00000000  1
