# generated using pymatgen
data_Nd4Os6O19
_symmetry_space_group_name_H-M   'P 1'
_cell_length_a   7.88083983
_cell_length_b   7.88083983
_cell_length_c   7.88083983
_cell_angle_alpha   109.47122063
_cell_angle_beta   109.47122063
_cell_angle_gamma   109.47122063
_symmetry_Int_Tables_number   1
_chemical_formula_structural   Nd4Os6O19
_chemical_formula_sum   'Nd4 Os6 O19'
_cell_volume   376.78674215
_cell_formula_units_Z   1
loop_
 _symmetry_equiv_pos_site_id
 _symmetry_equiv_pos_as_xyz
  1  'x, y, z'
loop_
 _atom_site_type_symbol
 _atom_site_label
 _atom_site_symmetry_multiplicity
 _atom_site_fract_x
 _atom_site_fract_y
 _atom_site_fract_z
 _atom_site_occupancy
  Nd  Nd0  1  0.00000000  0.00000000  0.30801700  1
  Nd  Nd1  1  0.00000000  0.30801700  0.00000000  1
  Nd  Nd2  1  0.69198300  0.69198300  0.69198300  1
  Nd  Nd3  1  0.30801700  0.00000000  0.00000000  1
  Os  Os4  1  0.36232900  0.50000000  0.86232900  1
  Os  Os5  1  0.86232900  0.36232900  0.50000000  1
  Os  Os6  1  0.50000000  0.13767100  0.63767100  1
  Os  Os7  1  0.13767100  0.63767100  0.50000000  1
  Os  Os8  1  0.50000000  0.86232900  0.36232900  1
  Os  Os9  1  0.63767100  0.50000000  0.13767100  1
  O  O10  1  0.32162200  0.00000000  0.32162200  1
  O  O11  1  0.32162200  0.32162200  0.00000000  1
  O  O12  1  0.00000000  0.67837800  0.67837800  1
  O  O13  1  0.67837800  0.67837800  0.00000000  1
  O  O14  1  0.00000000  0.32162200  0.32162200  1
  O  O15  1  0.67837800  0.00000000  0.67837800  1
  O  O16  1  0.00000000  0.00000000  0.00000000  1
  O  O17  1  0.34741100  0.28894700  0.62420800  1
  O  O18  1  0.05846400  0.33526100  0.71105300  1
  O  O19  1  0.72320300  0.37579200  0.66473900  1
  O  O20  1  0.37579200  0.66473900  0.72320300  1
  O  O21  1  0.27679700  0.94153600  0.65258900  1
  O  O22  1  0.62420800  0.34741100  0.28894700  1
  O  O23  1  0.28894700  0.62420800  0.34741100  1
  O  O24  1  0.71105300  0.05846400  0.33526100  1
  O  O25  1  0.94153600  0.65258900  0.27679700  1
  O  O26  1  0.66473900  0.72320300  0.37579200  1
  O  O27  1  0.65258900  0.27679700  0.94153600  1
  O  O28  1  0.33526100  0.71105300  0.05846400  1
