# generated using pymatgen
data_NdNiSb3
_symmetry_space_group_name_H-M   'P 1'
_cell_length_a   6.26861500
_cell_length_b   12.60610600
_cell_length_c   18.53485500
_cell_angle_alpha   90.00000000
_cell_angle_beta   90.00000000
_cell_angle_gamma   90.00000000
_symmetry_Int_Tables_number   1
_chemical_formula_structural   NdNiSb3
_chemical_formula_sum   'Nd12 Ni12 Sb36'
_cell_volume   1464.67660609
_cell_formula_units_Z   12
loop_
 _symmetry_equiv_pos_site_id
 _symmetry_equiv_pos_as_xyz
  1  'x, y, z'
loop_
 _atom_site_type_symbol
 _atom_site_label
 _atom_site_symmetry_multiplicity
 _atom_site_fract_x
 _atom_site_fract_y
 _atom_site_fract_z
 _atom_site_occupancy
  Nd  Nd0  1  0.44034600  0.69432300  0.75000000  1
  Nd  Nd1  1  0.97243100  0.70049600  0.91639300  1
  Nd  Nd2  1  0.52756900  0.70049600  0.08360700  1
  Nd  Nd3  1  0.52756900  0.70049600  0.41639300  1
  Nd  Nd4  1  0.47243100  0.29950400  0.58360700  1
  Nd  Nd5  1  0.47243100  0.29950400  0.91639300  1
  Nd  Nd6  1  0.55965400  0.30567700  0.25000000  1
  Nd  Nd7  1  0.05965400  0.69432300  0.25000000  1
  Nd  Nd8  1  0.94034600  0.30567700  0.75000000  1
  Nd  Nd9  1  0.02756900  0.29950400  0.41639300  1
  Nd  Nd10  1  0.97243100  0.70049600  0.58360700  1
  Nd  Nd11  1  0.02756900  0.29950400  0.08360700  1
  Ni  Ni12  1  0.75000000  0.10347000  0.00000000  1
  Ni  Ni13  1  0.25000000  0.89653000  0.50000000  1
  Ni  Ni14  1  0.75000000  0.10347000  0.50000000  1
  Ni  Ni15  1  0.25000000  0.89653000  0.00000000  1
  Ni  Ni16  1  0.32665300  0.10019200  0.17593700  1
  Ni  Ni17  1  0.67334700  0.89980800  0.82406300  1
  Ni  Ni18  1  0.17334700  0.10019200  0.67593700  1
  Ni  Ni19  1  0.32665300  0.10019200  0.32406300  1
  Ni  Ni20  1  0.82665300  0.89980800  0.32406300  1
  Ni  Ni21  1  0.17334700  0.10019200  0.82406300  1
  Ni  Ni22  1  0.67334700  0.89980800  0.67593700  1
  Ni  Ni23  1  0.82665300  0.89980800  0.17593700  1
  Sb  Sb24  1  0.04097200  0.02586300  0.08673200  1
  Sb  Sb25  1  0.79561700  0.50369400  0.16600800  1
  Sb  Sb26  1  0.68430700  0.05731400  0.25000000  1
  Sb  Sb27  1  0.75000000  0.49634300  0.00000000  1
  Sb  Sb28  1  0.94486900  0.77729900  0.75000000  1
  Sb  Sb29  1  0.29561700  0.49630600  0.16600800  1
  Sb  Sb30  1  0.25000000  0.50365700  0.00000000  1
  Sb  Sb31  1  0.20438300  0.49630600  0.83399200  1
  Sb  Sb32  1  0.70438300  0.50369400  0.66600800  1
  Sb  Sb33  1  0.79561700  0.50369400  0.33399200  1
  Sb  Sb34  1  0.05513100  0.22270100  0.25000000  1
  Sb  Sb35  1  0.54097200  0.97413700  0.08673200  1
  Sb  Sb36  1  0.97365000  0.22648500  0.58414100  1
  Sb  Sb37  1  0.95902800  0.97413700  0.58673200  1
  Sb  Sb38  1  0.47365000  0.77351500  0.91585900  1
  Sb  Sb39  1  0.52635000  0.22648500  0.08414100  1
  Sb  Sb40  1  0.97365000  0.22648500  0.91585900  1
  Sb  Sb41  1  0.45902800  0.02586300  0.58673200  1
  Sb  Sb42  1  0.54097200  0.97413700  0.41326800  1
  Sb  Sb43  1  0.44486900  0.22270100  0.75000000  1
  Sb  Sb44  1  0.02635000  0.77351500  0.41585900  1
  Sb  Sb45  1  0.55513100  0.77729900  0.25000000  1
  Sb  Sb46  1  0.81569300  0.05731400  0.75000000  1
  Sb  Sb47  1  0.04097200  0.02586300  0.41326800  1
  Sb  Sb48  1  0.52635000  0.22648500  0.41585900  1
  Sb  Sb49  1  0.25000000  0.50365700  0.50000000  1
  Sb  Sb50  1  0.75000000  0.49634300  0.50000000  1
  Sb  Sb51  1  0.45902800  0.02586300  0.91326800  1
  Sb  Sb52  1  0.47365000  0.77351500  0.58414100  1
  Sb  Sb53  1  0.20438300  0.49630600  0.66600800  1
  Sb  Sb54  1  0.31569300  0.94268600  0.75000000  1
  Sb  Sb55  1  0.70438300  0.50369400  0.83399200  1
  Sb  Sb56  1  0.29561700  0.49630600  0.33399200  1
  Sb  Sb57  1  0.02635000  0.77351500  0.08414100  1
  Sb  Sb58  1  0.95902800  0.97413700  0.91326800  1
  Sb  Sb59  1  0.18430700  0.94268600  0.25000000  1
