# generated using pymatgen
data_SrMn5(SO4)6
_symmetry_space_group_name_H-M   'P 1'
_cell_length_a   14.83613046
_cell_length_b   14.83613046
_cell_length_c   7.59654000
_cell_angle_alpha   90.00000000
_cell_angle_beta   90.00000000
_cell_angle_gamma   120.00000203
_symmetry_Int_Tables_number   1
_chemical_formula_structural   SrMn5(SO4)6
_chemical_formula_sum   'Sr3 Mn15 S18 O72'
_cell_volume   1448.06393983
_cell_formula_units_Z   3
loop_
 _symmetry_equiv_pos_site_id
 _symmetry_equiv_pos_as_xyz
  1  'x, y, z'
loop_
 _atom_site_type_symbol
 _atom_site_label
 _atom_site_symmetry_multiplicity
 _atom_site_fract_x
 _atom_site_fract_y
 _atom_site_fract_z
 _atom_site_occupancy
  Sr  Sr0  1  0.66666700  0.33333300  0.00102800  1
  Sr  Sr1  1  0.33333300  0.66666700  0.99897200  1
  Sr  Sr2  1  0.00000000  0.00000000  0.50000000  1
  Mn  Mn3  1  0.00161600  0.34693900  0.96490300  1
  Mn  Mn4  1  0.65467700  0.00161600  0.03509700  1
  Mn  Mn5  1  0.32314400  0.00496400  0.54555900  1
  Mn  Mn6  1  0.66666700  0.33333300  0.50163900  1
  Mn  Mn7  1  0.34693900  0.34532300  0.03509700  1
  Mn  Mn8  1  0.65306100  0.65467700  0.96490300  1
  Mn  Mn9  1  0.99838400  0.65306100  0.03509700  1
  Mn  Mn10  1  0.99503600  0.31818000  0.54555900  1
  Mn  Mn11  1  0.33333300  0.66666700  0.49836100  1
  Mn  Mn12  1  0.00496400  0.68182000  0.45444100  1
  Mn  Mn13  1  0.67685600  0.99503600  0.45444100  1
  Mn  Mn14  1  0.00000000  0.00000000  0.00000000  1
  Mn  Mn15  1  0.68182000  0.67685600  0.54555900  1
  Mn  Mn16  1  0.31818000  0.32314400  0.45444100  1
  Mn  Mn17  1  0.34532300  0.99838400  0.96490300  1
  S  S18  1  0.77397300  0.90233100  0.75704400  1
  S  S19  1  0.44091300  0.23621500  0.74430200  1
  S  S20  1  0.56991100  0.46084700  0.25916900  1
  S  S21  1  0.43008900  0.53915300  0.74083100  1
  S  S22  1  0.20469800  0.44091300  0.25569800  1
  S  S23  1  0.55908700  0.76378500  0.25569800  1
  S  S24  1  0.76378500  0.20469800  0.74430200  1
  S  S25  1  0.46084700  0.89093600  0.74083100  1
  S  S26  1  0.89093600  0.43008900  0.25916900  1
  S  S27  1  0.10906400  0.56991100  0.74083100  1
  S  S28  1  0.87164200  0.77397300  0.24295600  1
  S  S29  1  0.09766900  0.87164200  0.75704400  1
  S  S30  1  0.90233100  0.12835800  0.24295600  1
  S  S31  1  0.22602700  0.09766900  0.24295600  1
  S  S32  1  0.12835800  0.22602700  0.75704400  1
  S  S33  1  0.23621500  0.79530200  0.25569800  1
  S  S34  1  0.79530200  0.55908700  0.74430200  1
  S  S35  1  0.53915300  0.10906400  0.25916900  1
  O  O36  1  0.42449800  0.96894600  0.74479400  1
  O  O37  1  0.24478900  0.36604100  0.23934300  1
  O  O38  1  0.41029500  0.27753100  0.59495200  1
  O  O39  1  0.49522800  0.11024800  0.08245700  1
  O  O40  1  0.25531200  0.04441900  0.11149500  1
  O  O41  1  0.86723600  0.58970500  0.59495200  1
  O  O42  1  0.41594700  0.63070500  0.70999600  1
  O  O43  1  0.25261100  0.70507300  0.28613400  1
  O  O44  1  0.84558000  0.55664800  0.91274400  1
  O  O45  1  0.91934400  0.03930100  0.20545200  1
  O  O46  1  0.08391100  0.62180000  0.60087600  1
  O  O47  1  0.15442000  0.44335200  0.08725600  1
  O  O48  1  0.74738900  0.29492700  0.71386600  1
  O  O49  1  0.08065600  0.96069900  0.79454800  1
  O  O50  1  0.21089300  0.25531200  0.88850500  1
  O  O51  1  0.94402200  0.16668100  0.42354900  1
  O  O52  1  0.88975200  0.38498000  0.08245700  1
  O  O53  1  0.08957400  0.30206900  0.75881100  1
  O  O54  1  0.57550200  0.03105400  0.25520600  1
  O  O55  1  0.27753100  0.86723600  0.40504800  1
  O  O56  1  0.37820000  0.46211100  0.60087600  1
  O  O57  1  0.61502000  0.50477200  0.08245700  1
  O  O58  1  0.91608900  0.37820000  0.39912400  1
  O  O59  1  0.63070500  0.21475800  0.29000400  1
  O  O60  1  0.54753800  0.25261100  0.71386600  1
  O  O61  1  0.03930100  0.11995700  0.79454800  1
  O  O62  1  0.22266000  0.05597800  0.42354900  1
  O  O63  1  0.13276400  0.41029500  0.40504800  1
  O  O64  1  0.87874800  0.24478900  0.76065700  1
  O  O65  1  0.44335200  0.28893200  0.91274400  1
  O  O66  1  0.69793100  0.78750500  0.75881100  1
  O  O67  1  0.53788900  0.91608900  0.60087600  1
  O  O68  1  0.78524200  0.41594700  0.29000400  1
  O  O69  1  0.63395900  0.87874800  0.23934300  1
  O  O70  1  0.29492700  0.54753800  0.28613400  1
  O  O71  1  0.55664800  0.71106800  0.08725600  1
  O  O72  1  0.70507300  0.45246200  0.71386600  1
  O  O73  1  0.36604100  0.12125200  0.76065700  1
  O  O74  1  0.96069900  0.88004300  0.20545200  1
  O  O75  1  0.45246200  0.74738900  0.28613400  1
  O  O76  1  0.58405300  0.36929500  0.29000400  1
  O  O77  1  0.11024800  0.61502000  0.91754300  1
  O  O78  1  0.88004300  0.91934400  0.79454800  1
  O  O79  1  0.72246900  0.13276400  0.59495200  1
  O  O80  1  0.30206900  0.21249500  0.24118900  1
  O  O81  1  0.71106800  0.15442000  0.91274400  1
  O  O82  1  0.58970500  0.72246900  0.40504800  1
  O  O83  1  0.03105400  0.45555200  0.74479400  1
  O  O84  1  0.96894600  0.54444800  0.25520600  1
  O  O85  1  0.95558100  0.21089300  0.11149500  1
  O  O86  1  0.28893200  0.84558000  0.08725600  1
  O  O87  1  0.45555200  0.42449800  0.25520600  1
  O  O88  1  0.50477200  0.88975200  0.91754300  1
  O  O89  1  0.75521100  0.63395900  0.76065700  1
  O  O90  1  0.62180000  0.53788900  0.39912400  1
  O  O91  1  0.04441900  0.78910700  0.88850500  1
  O  O92  1  0.36929500  0.78524200  0.70999600  1
  O  O93  1  0.78750500  0.08957400  0.24118900  1
  O  O94  1  0.54444800  0.57550200  0.74479400  1
  O  O95  1  0.74468800  0.95558100  0.88850500  1
  O  O96  1  0.78910700  0.74468800  0.11149500  1
  O  O97  1  0.12125200  0.75521100  0.23934300  1
  O  O98  1  0.46211100  0.08391100  0.39912400  1
  O  O99  1  0.11995700  0.08065600  0.20545200  1
  O  O100  1  0.21249500  0.91042600  0.75881100  1
  O  O101  1  0.05597800  0.83331900  0.57645100  1
  O  O102  1  0.38498000  0.49522800  0.91754300  1
  O  O103  1  0.91042600  0.69793100  0.24118900  1
  O  O104  1  0.21475800  0.58405300  0.70999600  1
  O  O105  1  0.83331900  0.77734000  0.42354900  1
  O  O106  1  0.77734000  0.94402200  0.57645100  1
  O  O107  1  0.16668100  0.22266000  0.57645100  1
