# generated using pymatgen
data_Na3P(SO)2
_symmetry_space_group_name_H-M   'P 1'
_cell_length_a   5.89903900
_cell_length_b   11.42641400
_cell_length_c   17.74190500
_cell_angle_alpha   90.00000000
_cell_angle_beta   90.00000000
_cell_angle_gamma   90.00000000
_symmetry_Int_Tables_number   1
_chemical_formula_structural   Na3P(SO)2
_chemical_formula_sum   'Na24 P8 S16 O16'
_cell_volume   1195.89065488
_cell_formula_units_Z   8
loop_
 _symmetry_equiv_pos_site_id
 _symmetry_equiv_pos_as_xyz
  1  'x, y, z'
loop_
 _atom_site_type_symbol
 _atom_site_label
 _atom_site_symmetry_multiplicity
 _atom_site_fract_x
 _atom_site_fract_y
 _atom_site_fract_z
 _atom_site_occupancy
  Na  Na0  1  0.34767300  0.17149000  0.94652400  1
  Na  Na1  1  0.19225300  0.61927800  0.73644100  1
  Na  Na2  1  0.19225300  0.11927800  0.76355900  1
  Na  Na3  1  0.30774700  0.61927800  0.23644100  1
  Na  Na4  1  0.23729600  0.37901300  0.59112800  1
  Na  Na5  1  0.84767300  0.32851000  0.94652400  1
  Na  Na6  1  0.23729600  0.87901300  0.90887200  1
  Na  Na7  1  0.80774700  0.38072200  0.26355900  1
  Na  Na8  1  0.26270400  0.87901300  0.40887200  1
  Na  Na9  1  0.69225300  0.38072200  0.76355900  1
  Na  Na10  1  0.65232700  0.82851000  0.05347600  1
  Na  Na11  1  0.76270400  0.62098700  0.40887200  1
  Na  Na12  1  0.15232700  0.67149000  0.05347600  1
  Na  Na13  1  0.73729600  0.12098700  0.59112800  1
  Na  Na14  1  0.80774700  0.88072200  0.23644100  1
  Na  Na15  1  0.26270400  0.37901300  0.09112800  1
  Na  Na16  1  0.69225300  0.88072200  0.73644100  1
  Na  Na17  1  0.73729600  0.62098700  0.90887200  1
  Na  Na18  1  0.15232700  0.17149000  0.44652400  1
  Na  Na19  1  0.30774700  0.11927800  0.26355900  1
  Na  Na20  1  0.76270400  0.12098700  0.09112800  1
  Na  Na21  1  0.34767300  0.67149000  0.55347600  1
  Na  Na22  1  0.84767300  0.82851000  0.55347600  1
  Na  Na23  1  0.65232700  0.32851000  0.44652400  1
  P  P24  1  0.82385400  0.05856200  0.88971800  1
  P  P25  1  0.32385400  0.94143800  0.61028200  1
  P  P26  1  0.32385400  0.44143800  0.88971800  1
  P  P27  1  0.67614600  0.05856200  0.38971800  1
  P  P28  1  0.17614600  0.94143800  0.11028200  1
  P  P29  1  0.67614600  0.55856200  0.11028200  1
  P  P30  1  0.82385400  0.55856200  0.61028200  1
  P  P31  1  0.17614600  0.44143800  0.38971800  1
  S  S32  1  0.22608400  0.11712400  0.60207500  1
  S  S33  1  0.31185400  0.37591900  0.29086900  1
  S  S34  1  0.81185400  0.12408100  0.29086900  1
  S  S35  1  0.72608400  0.88287600  0.89792500  1
  S  S36  1  0.72608400  0.38287600  0.60207500  1
  S  S37  1  0.77391600  0.88287600  0.39792500  1
  S  S38  1  0.81185400  0.62408100  0.20913100  1
  S  S39  1  0.22608400  0.61712400  0.89792500  1
  S  S40  1  0.31185400  0.87591900  0.20913100  1
  S  S41  1  0.68814600  0.12408100  0.79086900  1
  S  S42  1  0.18814600  0.87591900  0.70913100  1
  S  S43  1  0.27391600  0.11712400  0.10207500  1
  S  S44  1  0.27391600  0.61712400  0.39792500  1
  S  S45  1  0.68814600  0.62408100  0.70913100  1
  S  S46  1  0.77391600  0.38287600  0.10207500  1
  S  S47  1  0.18814600  0.37591900  0.79086900  1
  O  O48  1  0.58520700  0.93816400  0.61479200  1
  O  O49  1  0.23252900  0.86991300  0.54280800  1
  O  O50  1  0.26747100  0.36991300  0.45719200  1
  O  O51  1  0.26747100  0.86991300  0.04280800  1
  O  O52  1  0.08520700  0.06183600  0.88520800  1
  O  O53  1  0.23252900  0.36991300  0.95719200  1
  O  O54  1  0.58520700  0.43816400  0.88520800  1
  O  O55  1  0.41479300  0.06183600  0.38520800  1
  O  O56  1  0.91479300  0.93816400  0.11479200  1
  O  O57  1  0.41479300  0.56183600  0.11479200  1
  O  O58  1  0.73252900  0.13008700  0.95719200  1
  O  O59  1  0.08520700  0.56183600  0.61479200  1
  O  O60  1  0.91479300  0.43816400  0.38520800  1
  O  O61  1  0.76747100  0.13008700  0.45719200  1
  O  O62  1  0.73252900  0.63008700  0.54280800  1
  O  O63  1  0.76747100  0.63008700  0.04280800  1
