# generated using pymatgen
data_Ba2CaUO6
_symmetry_space_group_name_H-M   'P 1'
_cell_length_a   6.19140100
_cell_length_b   6.22773100
_cell_length_c   10.72007410
_cell_angle_alpha   54.65312031
_cell_angle_beta   90.00000000
_cell_angle_gamma   90.00000000
_symmetry_Int_Tables_number   1
_chemical_formula_structural   Ba2CaUO6
_chemical_formula_sum   'Ba4 Ca2 U2 O12'
_cell_volume   337.15385727
_cell_formula_units_Z   2
loop_
 _symmetry_equiv_pos_site_id
 _symmetry_equiv_pos_as_xyz
  1  'x, y, z'
loop_
 _atom_site_type_symbol
 _atom_site_label
 _atom_site_symmetry_multiplicity
 _atom_site_fract_x
 _atom_site_fract_y
 _atom_site_fract_z
 _atom_site_occupancy
  Ba  Ba0  1  0.01534900  0.24490700  0.74989900  1
  Ba  Ba1  1  0.51534900  0.75509300  0.75010100  1
  Ba  Ba2  1  0.98465100  0.75509300  0.25010100  1
  Ba  Ba3  1  0.48465100  0.24490700  0.24989900  1
  Ca  Ca4  1  0.00000000  0.50000000  0.00000000  1
  Ca  Ca5  1  0.50000000  0.50000000  0.50000000  1
  U  U6  1  0.00000000  0.00000000  0.50000000  1
  U  U7  1  0.50000000  0.00000000  0.00000000  1
  O  O8  1  0.78367400  0.21896900  0.53571200  1
  O  O9  1  0.51206900  0.69572000  0.23485300  1
  O  O10  1  0.25683100  0.17516600  0.53913800  1
  O  O11  1  0.21632600  0.78103100  0.46428800  1
  O  O12  1  0.98793100  0.69572000  0.73485300  1
  O  O13  1  0.75683100  0.82483400  0.96086200  1
  O  O14  1  0.71632600  0.21896900  0.03571200  1
  O  O15  1  0.28367400  0.78103100  0.96428800  1
  O  O16  1  0.01206900  0.30428000  0.26514700  1
  O  O17  1  0.48793100  0.30428000  0.76514700  1
  O  O18  1  0.24316900  0.17516600  0.03913800  1
  O  O19  1  0.74316900  0.82483400  0.46086200  1
