# generated using pymatgen
data_Pr2Al19Co6
_symmetry_space_group_name_H-M   'P 1'
_cell_length_a   10.68696210
_cell_length_b   10.68696210
_cell_length_c   8.22714488
_cell_angle_alpha   78.52722153
_cell_angle_beta   78.52722153
_cell_angle_gamma   68.87938140
_symmetry_Int_Tables_number   1
_chemical_formula_structural   Pr2Al19Co6
_chemical_formula_sum   'Pr4 Al38 Co12'
_cell_volume   850.63780668
_cell_formula_units_Z   2
loop_
 _symmetry_equiv_pos_site_id
 _symmetry_equiv_pos_as_xyz
  1  'x, y, z'
loop_
 _atom_site_type_symbol
 _atom_site_label
 _atom_site_symmetry_multiplicity
 _atom_site_fract_x
 _atom_site_fract_y
 _atom_site_fract_z
 _atom_site_occupancy
  Pr  Pr0  1  0.72077600  0.72077600  0.25748100  1
  Pr  Pr1  1  0.27922400  0.27922400  0.74251900  1
  Pr  Pr2  1  0.71998600  0.71998600  0.77162400  1
  Pr  Pr3  1  0.28001400  0.28001400  0.22837600  1
  Al  Al4  1  0.16946600  0.83053400  0.00000000  1
  Al  Al5  1  0.18525700  0.52146700  0.44795000  1
  Al  Al6  1  0.91839600  0.91839600  0.64756000  1
  Al  Al7  1  0.27574300  0.04996900  0.04719800  1
  Al  Al8  1  0.53780600  0.18791100  0.94379500  1
  Al  Al9  1  0.43508100  0.66933600  0.84536100  1
  Al  Al10  1  0.33005300  0.56239700  0.64869000  1
  Al  Al11  1  0.00113200  0.50232300  0.76160300  1
  Al  Al12  1  0.52146700  0.18525700  0.44795000  1
  Al  Al13  1  0.70380700  0.93703400  0.46511000  1
  Al  Al14  1  0.06296600  0.29619300  0.53489000  1
  Al  Al15  1  0.47853300  0.81474300  0.55205000  1
  Al  Al16  1  0.29619300  0.06296600  0.53489000  1
  Al  Al17  1  0.99886800  0.49767700  0.23839700  1
  Al  Al18  1  0.81208900  0.46219400  0.05620500  1
  Al  Al19  1  0.93703400  0.70380700  0.46511000  1
  Al  Al20  1  0.43760300  0.66994700  0.35131000  1
  Al  Al21  1  0.66933600  0.43508100  0.84536100  1
  Al  Al22  1  0.49767700  0.99886800  0.23839700  1
  Al  Al23  1  0.50232300  0.00113200  0.76160300  1
  Al  Al24  1  0.95003100  0.72425700  0.95280200  1
  Al  Al25  1  0.14845100  0.79973300  0.36386700  1
  Al  Al26  1  0.79973300  0.14845100  0.36386700  1
  Al  Al27  1  0.08649100  0.08649100  0.81763900  1
  Al  Al28  1  0.56491900  0.33066400  0.15463900  1
  Al  Al29  1  0.91350900  0.91350900  0.18236100  1
  Al  Al30  1  0.04996900  0.27574300  0.04719800  1
  Al  Al31  1  0.85154900  0.20026700  0.63613300  1
  Al  Al32  1  0.72425700  0.95003100  0.95280200  1
  Al  Al33  1  0.83053400  0.16946600  0.00000000  1
  Al  Al34  1  0.46219400  0.81208900  0.05620500  1
  Al  Al35  1  0.33066400  0.56491900  0.15463900  1
  Al  Al36  1  0.18791100  0.53780600  0.94379500  1
  Al  Al37  1  0.81474300  0.47853300  0.55205000  1
  Al  Al38  1  0.56239700  0.33005300  0.64869000  1
  Al  Al39  1  0.66994700  0.43760300  0.35131000  1
  Al  Al40  1  0.08160400  0.08160400  0.35244000  1
  Al  Al41  1  0.20026700  0.85154900  0.63613300  1
  Co  Co42  1  0.56134200  0.56134200  0.59462800  1
  Co  Co43  1  0.43846600  0.43846600  0.90587700  1
  Co  Co44  1  0.07946000  0.68092000  0.18906200  1
  Co  Co45  1  0.43865800  0.43865800  0.40537200  1
  Co  Co46  1  0.08244400  0.68544800  0.67276100  1
  Co  Co47  1  0.92054000  0.31908000  0.81093800  1
  Co  Co48  1  0.56153400  0.56153400  0.09412300  1
  Co  Co49  1  0.68092000  0.07946000  0.18906200  1
  Co  Co50  1  0.68544800  0.08244400  0.67276100  1
  Co  Co51  1  0.91755600  0.31455200  0.32723900  1
  Co  Co52  1  0.31908000  0.92054000  0.81093800  1
  Co  Co53  1  0.31455200  0.91755600  0.32723900  1
