# generated using pymatgen
data_K3GaSe3
_symmetry_space_group_name_H-M   'P 1'
_cell_length_a   13.19288200
_cell_length_b   8.17748400
_cell_length_c   10.66190891
_cell_angle_alpha   52.30567507
_cell_angle_beta   90.00000000
_cell_angle_gamma   90.00000000
_symmetry_Int_Tables_number   1
_chemical_formula_structural   K3GaSe3
_chemical_formula_sum   'K12 Ga4 Se12'
_cell_volume   910.17895214
_cell_formula_units_Z   4
loop_
 _symmetry_equiv_pos_site_id
 _symmetry_equiv_pos_as_xyz
  1  'x, y, z'
loop_
 _atom_site_type_symbol
 _atom_site_label
 _atom_site_symmetry_multiplicity
 _atom_site_fract_x
 _atom_site_fract_y
 _atom_site_fract_z
 _atom_site_occupancy
  K  K0  1  0.90919400  0.33921400  0.39565900  1
  K  K1  1  0.40919400  0.66078600  0.10434100  1
  K  K2  1  0.09080600  0.66078600  0.60434100  1
  K  K3  1  0.59080600  0.33921400  0.89565900  1
  K  K4  1  0.18977200  0.13144400  0.58331400  1
  K  K5  1  0.68977200  0.86855600  0.91668600  1
  K  K6  1  0.81022800  0.86855600  0.41668600  1
  K  K7  1  0.31022800  0.13144400  0.08331400  1
  K  K8  1  0.62287900  0.37517100  0.47419900  1
  K  K9  1  0.12287900  0.62482900  0.02580100  1
  K  K10  1  0.37712100  0.62482900  0.52580100  1
  K  K11  1  0.87712100  0.37517100  0.97419900  1
  Ga  Ga12  1  0.93889300  0.06656200  0.83516500  1
  Ga  Ga13  1  0.43889300  0.93343800  0.66483500  1
  Ga  Ga14  1  0.06110700  0.93343800  0.16483500  1
  Ga  Ga15  1  0.56110700  0.06656200  0.33516500  1
  Se  Se16  1  0.39135100  0.15949800  0.37531500  1
  Se  Se17  1  0.89135100  0.84050200  0.12468500  1
  Se  Se18  1  0.60864900  0.84050200  0.62468500  1
  Se  Se19  1  0.10864900  0.15949800  0.87531500  1
  Se  Se20  1  0.67955000  0.35120300  0.18698500  1
  Se  Se21  1  0.17955000  0.64879700  0.31301500  1
  Se  Se22  1  0.32045000  0.64879700  0.81301500  1
  Se  Se23  1  0.82045000  0.35120300  0.68698500  1
  Se  Se24  1  0.54803500  0.87173900  0.23486900  1
  Se  Se25  1  0.04803500  0.12826100  0.26513100  1
  Se  Se26  1  0.45196500  0.12826100  0.76513100  1
  Se  Se27  1  0.95196500  0.87173900  0.73486900  1
