# generated using pymatgen
data_RbV2I3O13
_symmetry_space_group_name_H-M   'P 1'
_cell_length_a   9.69127550
_cell_length_b   9.69127550
_cell_length_c   9.69127550
_cell_angle_alpha   130.14332698
_cell_angle_beta   113.78081075
_cell_angle_gamma   87.25214597
_symmetry_Int_Tables_number   1
_chemical_formula_structural   RbV2I3O13
_chemical_formula_sum   'Rb2 V4 I6 O26'
_cell_volume   606.76833163
_cell_formula_units_Z   2
loop_
 _symmetry_equiv_pos_site_id
 _symmetry_equiv_pos_as_xyz
  1  'x, y, z'
loop_
 _atom_site_type_symbol
 _atom_site_label
 _atom_site_symmetry_multiplicity
 _atom_site_fract_x
 _atom_site_fract_y
 _atom_site_fract_z
 _atom_site_occupancy
  Rb  Rb0  1  0.14084300  0.05594900  0.69679100  1
  Rb  Rb1  1  0.85915700  0.55594900  0.91510600  1
  V  V2  1  0.88870400  0.15768300  0.30359400  1
  V  V3  1  0.35408900  0.65768300  0.26897900  1
  V  V4  1  0.11129600  0.41489000  0.26897900  1
  V  V5  1  0.64591100  0.91489000  0.30359400  1
  I  I6  1  0.23466400  0.04646900  0.29952600  1
  I  I7  1  0.24694300  0.54646900  0.81180500  1
  I  I8  1  0.52771700  0.28130200  0.30901900  1
  I  I9  1  0.47228300  0.78130200  0.75358600  1
  I  I10  1  0.75305700  0.56486200  0.29952600  1
  I  I11  1  0.76533600  0.06486200  0.81180500  1
  O  O12  1  0.44612500  0.71167500  0.95980700  1
  O  O13  1  0.73495600  0.95669100  0.19164800  1
  O  O14  1  0.59027800  0.48745600  0.57773400  1
  O  O15  1  0.47288400  0.80399200  0.57404400  1
  O  O16  1  0.28300900  0.48435200  0.97108000  1
  O  O17  1  0.72994700  0.30399200  0.33110700  1
  O  O18  1  0.69466400  0.26915700  0.90219200  1
  O  O19  1  0.50000000  0.82915200  0.32915200  1
  O  O20  1  0.98672800  0.18807100  0.97108000  1
  O  O21  1  0.55387500  0.51368200  0.26555000  1
  O  O22  1  0.26504400  0.45669100  0.22173500  1
  O  O23  1  0.21246700  0.76070700  0.27565900  1
  O  O24  1  0.30533600  0.20752800  0.57449300  1
  O  O25  1  0.78753300  0.06319200  0.54824100  1
  O  O26  1  0.00000000  0.32915200  0.32915200  1
  O  O27  1  0.01495100  0.56319200  0.27565900  1
  O  O28  1  0.25186800  0.21167500  0.26555000  1
  O  O29  1  0.01327200  0.98435200  0.20134300  1
  O  O30  1  0.86696500  0.76915700  0.57449300  1
  O  O31  1  0.13303500  0.70752800  0.90219200  1
  O  O32  1  0.74813200  0.01368200  0.95980700  1
  O  O33  1  0.40972200  0.98745600  0.89717800  1
  O  O34  1  0.52711600  0.10116000  0.33110700  1
  O  O35  1  0.98504900  0.26070700  0.54824100  1
  O  O36  1  0.27005300  0.60116000  0.57404400  1
  O  O37  1  0.71699100  0.68807100  0.20134300  1
