# generated using pymatgen
data_Bi8AsAuCl9
_symmetry_space_group_name_H-M   'P 1'
_cell_length_a   15.13707200
_cell_length_b   10.52038000
_cell_length_c   14.49625970
_cell_angle_alpha   86.47026305
_cell_angle_beta   90.00000000
_cell_angle_gamma   90.00000000
_symmetry_Int_Tables_number   1
_chemical_formula_structural   Bi8AsAuCl9
_chemical_formula_sum   'Bi32 As4 Au4 Cl36'
_cell_volume   2304.11746845
_cell_formula_units_Z   4
loop_
 _symmetry_equiv_pos_site_id
 _symmetry_equiv_pos_as_xyz
  1  'x, y, z'
loop_
 _atom_site_type_symbol
 _atom_site_label
 _atom_site_symmetry_multiplicity
 _atom_site_fract_x
 _atom_site_fract_y
 _atom_site_fract_z
 _atom_site_occupancy
  Bi  Bi0  1  0.07010400  0.61895000  0.67677300  1
  Bi  Bi1  1  0.57010400  0.38105000  0.82322700  1
  Bi  Bi2  1  0.68712900  0.58497600  0.93214200  1
  Bi  Bi3  1  0.86143400  0.54753900  0.64988800  1
  Bi  Bi4  1  0.05248300  0.22142600  0.47418400  1
  Bi  Bi5  1  0.63856600  0.54753900  0.14988800  1
  Bi  Bi6  1  0.48841300  0.32807600  0.44902000  1
  Bi  Bi7  1  0.63990700  0.05843500  0.31194500  1
  Bi  Bi8  1  0.98841300  0.67192400  0.05098000  1
  Bi  Bi9  1  0.01158700  0.32807600  0.94902000  1
  Bi  Bi10  1  0.13990700  0.94156500  0.18805500  1
  Bi  Bi11  1  0.55248300  0.77857400  0.02581600  1
  Bi  Bi12  1  0.85113300  0.30061600  0.52516700  1
  Bi  Bi13  1  0.14886700  0.69938400  0.47483300  1
  Bi  Bi14  1  0.92989600  0.38105000  0.32322700  1
  Bi  Bi15  1  0.94751700  0.77857400  0.52581600  1
  Bi  Bi16  1  0.51158700  0.67192400  0.55098000  1
  Bi  Bi17  1  0.35113300  0.69938400  0.97483300  1
  Bi  Bi18  1  0.36143400  0.45246100  0.85011200  1
  Bi  Bi19  1  0.18712900  0.41502400  0.56785800  1
  Bi  Bi20  1  0.86009300  0.05843500  0.81194500  1
  Bi  Bi21  1  0.42989600  0.61895000  0.17677300  1
  Bi  Bi22  1  0.86218400  0.95796900  0.19331300  1
  Bi  Bi23  1  0.13781600  0.04203100  0.80668700  1
  Bi  Bi24  1  0.81287100  0.58497600  0.43214200  1
  Bi  Bi25  1  0.44751700  0.22142600  0.97418400  1
  Bi  Bi26  1  0.63781600  0.95796900  0.69331300  1
  Bi  Bi27  1  0.36218400  0.04203100  0.30668700  1
  Bi  Bi28  1  0.36009300  0.94156500  0.68805500  1
  Bi  Bi29  1  0.64886700  0.30061600  0.02516700  1
  Bi  Bi30  1  0.13856600  0.45246100  0.35011200  1
  Bi  Bi31  1  0.31287100  0.41502400  0.06785800  1
  As  As32  1  0.00385900  0.21818900  0.78075200  1
  As  As33  1  0.50385900  0.78181100  0.71924800  1
  As  As34  1  0.99614100  0.78181100  0.21924800  1
  As  As35  1  0.49614100  0.21818900  0.28075200  1
  Au  Au36  1  0.49325400  0.36704500  0.13250700  1
  Au  Au37  1  0.50674600  0.63295500  0.86749300  1
  Au  Au38  1  0.00674600  0.36704500  0.63250700  1
  Au  Au39  1  0.99325400  0.63295500  0.36749300  1
  Cl  Cl40  1  0.24229000  0.74448600  0.25137800  1
  Cl  Cl41  1  0.49478400  0.13312800  0.67520400  1
  Cl  Cl42  1  0.74944400  0.77500000  0.26032500  1
  Cl  Cl43  1  0.85606600  0.17145400  0.98377300  1
  Cl  Cl44  1  0.89587000  0.50743200  0.87551600  1
  Cl  Cl45  1  0.24944400  0.22500000  0.23967500  1
  Cl  Cl46  1  0.64393400  0.17145400  0.48377300  1
  Cl  Cl47  1  0.37058700  0.49504900  0.37528400  1
  Cl  Cl48  1  0.84177900  0.83039000  0.02026000  1
  Cl  Cl49  1  0.86346800  0.02302700  0.62780100  1
  Cl  Cl50  1  0.12941300  0.49504900  0.87528400  1
  Cl  Cl51  1  0.87058700  0.50495100  0.12471600  1
  Cl  Cl52  1  0.99478400  0.86687200  0.82479600  1
  Cl  Cl53  1  0.75771000  0.25551400  0.74862200  1
  Cl  Cl54  1  0.87252100  0.00505500  0.37191600  1
  Cl  Cl55  1  0.00521600  0.13312800  0.17520400  1
  Cl  Cl56  1  0.62941300  0.50495100  0.62471600  1
  Cl  Cl57  1  0.37252100  0.99494500  0.12808400  1
  Cl  Cl58  1  0.74229000  0.25551400  0.24862200  1
  Cl  Cl59  1  0.62747900  0.00505500  0.87191600  1
  Cl  Cl60  1  0.34177900  0.16961000  0.47974000  1
  Cl  Cl61  1  0.13653200  0.97697300  0.37219900  1
  Cl  Cl62  1  0.25055600  0.22500000  0.73967500  1
  Cl  Cl63  1  0.63653200  0.02302700  0.12780100  1
  Cl  Cl64  1  0.10413000  0.49256800  0.12448400  1
  Cl  Cl65  1  0.25771000  0.74448600  0.75137800  1
  Cl  Cl66  1  0.36346800  0.97697300  0.87219900  1
  Cl  Cl67  1  0.65822100  0.83039000  0.52026000  1
  Cl  Cl68  1  0.35606600  0.82854600  0.51622700  1
  Cl  Cl69  1  0.12747900  0.99494500  0.62808400  1
  Cl  Cl70  1  0.60413000  0.50743200  0.37551600  1
  Cl  Cl71  1  0.14393400  0.82854600  0.01622700  1
  Cl  Cl72  1  0.39587000  0.49256800  0.62448400  1
  Cl  Cl73  1  0.15822100  0.16961000  0.97974000  1
  Cl  Cl74  1  0.75055600  0.77500000  0.76032500  1
  Cl  Cl75  1  0.50521600  0.86687200  0.32479600  1
