# generated using pymatgen
data_TePdI2
_symmetry_space_group_name_H-M   'P 1'
_cell_length_a   4.43912600
_cell_length_b   7.25226828
_cell_length_c   9.28706945
_cell_angle_alpha   68.31694972
_cell_angle_beta   80.75704678
_cell_angle_gamma   82.76227868
_symmetry_Int_Tables_number   1
_chemical_formula_structural   TePdI2
_chemical_formula_sum   'Te2 Pd2 I4'
_cell_volume   273.49766925
_cell_formula_units_Z   2
loop_
 _symmetry_equiv_pos_site_id
 _symmetry_equiv_pos_as_xyz
  1  'x, y, z'
loop_
 _atom_site_type_symbol
 _atom_site_label
 _atom_site_symmetry_multiplicity
 _atom_site_fract_x
 _atom_site_fract_y
 _atom_site_fract_z
 _atom_site_occupancy
  Te  Te0  1  0.16202400  0.50486300  0.14978600  1
  Te  Te1  1  0.83797600  0.49513700  0.85021400  1
  Pd  Pd2  1  0.26396500  0.25149600  0.00400600  1
  Pd  Pd3  1  0.73603500  0.74850400  0.99599400  1
  I  I4  1  0.35666600  0.03333200  0.81151100  1
  I  I5  1  0.19936300  0.70551800  0.57203500  1
  I  I6  1  0.64333400  0.96666800  0.18848900  1
  I  I7  1  0.80063700  0.29448200  0.42796500  1
