# generated using pymatgen
data_RbZnSClO4
_symmetry_space_group_name_H-M   'P 1'
_cell_length_a   9.81872400
_cell_length_b   7.36784400
_cell_length_c   8.50137236
_cell_angle_alpha   84.31060096
_cell_angle_beta   90.00000000
_cell_angle_gamma   90.00000000
_symmetry_Int_Tables_number   1
_chemical_formula_structural   RbZnSClO4
_chemical_formula_sum   'Rb4 Zn4 S4 Cl4 O16'
_cell_volume   611.98370851
_cell_formula_units_Z   4
loop_
 _symmetry_equiv_pos_site_id
 _symmetry_equiv_pos_as_xyz
  1  'x, y, z'
loop_
 _atom_site_type_symbol
 _atom_site_label
 _atom_site_symmetry_multiplicity
 _atom_site_fract_x
 _atom_site_fract_y
 _atom_site_fract_z
 _atom_site_occupancy
  Rb  Rb0  1  0.41872800  0.63718100  0.69897900  1
  Rb  Rb1  1  0.91872800  0.36281900  0.80102100  1
  Rb  Rb2  1  0.08127200  0.63718100  0.19897900  1
  Rb  Rb3  1  0.58127200  0.36281900  0.30102100  1
  Zn  Zn4  1  0.69590600  0.90554200  0.04408300  1
  Zn  Zn5  1  0.80409400  0.90554200  0.54408300  1
  Zn  Zn6  1  0.19590600  0.09445800  0.45591700  1
  Zn  Zn7  1  0.30409400  0.09445800  0.95591700  1
  S  S8  1  0.92932800  0.10531600  0.23425900  1
  S  S9  1  0.07067200  0.89468400  0.76574100  1
  S  S10  1  0.42932800  0.89468400  0.26574100  1
  S  S11  1  0.57067200  0.10531600  0.73425900  1
  Cl  Cl12  1  0.18320400  0.37318300  0.52911200  1
  Cl  Cl13  1  0.81679600  0.62681700  0.47088800  1
  Cl  Cl14  1  0.68320400  0.62681700  0.97088800  1
  Cl  Cl15  1  0.31679600  0.37318300  0.02911200  1
  O  O16  1  0.62393200  0.96651300  0.63147900  1
  O  O17  1  0.83853500  0.11203400  0.37686600  1
  O  O18  1  0.66146500  0.11203400  0.87686600  1
  O  O19  1  0.43296600  0.03268600  0.78645000  1
  O  O20  1  0.43648100  0.71285600  0.35038300  1
  O  O21  1  0.56351900  0.28714400  0.64961700  1
  O  O22  1  0.16146500  0.88796600  0.62313400  1
  O  O23  1  0.33853500  0.88796600  0.12313400  1
  O  O24  1  0.37606800  0.03348700  0.36852100  1
  O  O25  1  0.12393200  0.03348700  0.86852100  1
  O  O26  1  0.87606800  0.96651300  0.13147900  1
  O  O27  1  0.56703400  0.96731400  0.21355000  1
  O  O28  1  0.93296600  0.96731400  0.71355000  1
  O  O29  1  0.06351900  0.71285600  0.85038300  1
  O  O30  1  0.93648100  0.28714400  0.14961700  1
  O  O31  1  0.06703400  0.03268600  0.28645000  1
