# generated using pymatgen
data_Ti5(PO5)4
_symmetry_space_group_name_H-M   'P 1'
_cell_length_a   7.60765200
_cell_length_b   12.99757100
_cell_length_c   14.57870700
_cell_angle_alpha   90.00000000
_cell_angle_beta   90.00000000
_cell_angle_gamma   90.00000000
_symmetry_Int_Tables_number   1
_chemical_formula_structural   Ti5(PO5)4
_chemical_formula_sum   'Ti20 P16 O80'
_cell_volume   1441.55708332
_cell_formula_units_Z   4
loop_
 _symmetry_equiv_pos_site_id
 _symmetry_equiv_pos_as_xyz
  1  'x, y, z'
loop_
 _atom_site_type_symbol
 _atom_site_label
 _atom_site_symmetry_multiplicity
 _atom_site_fract_x
 _atom_site_fract_y
 _atom_site_fract_z
 _atom_site_occupancy
  Ti  Ti0  1  0.60596600  0.14373200  0.17655000  1
  Ti  Ti1  1  0.87603300  0.37617000  0.44160700  1
  Ti  Ti2  1  0.64759400  0.38390300  0.05365900  1
  Ti  Ti3  1  0.10596600  0.35626800  0.82345000  1
  Ti  Ti4  1  0.39403400  0.64373200  0.32345000  1
  Ti  Ti5  1  0.62396700  0.62383000  0.94160700  1
  Ti  Ti6  1  0.15049300  0.60745000  0.70511200  1
  Ti  Ti7  1  0.12396700  0.87617000  0.05839300  1
  Ti  Ti8  1  0.90422500  0.13405600  0.32930400  1
  Ti  Ti9  1  0.14759400  0.11609700  0.94634100  1
  Ti  Ti10  1  0.59577500  0.86594400  0.82930400  1
  Ti  Ti11  1  0.85240600  0.61609700  0.55365900  1
  Ti  Ti12  1  0.89403400  0.85626800  0.67655000  1
  Ti  Ti13  1  0.40422500  0.36594400  0.67069600  1
  Ti  Ti14  1  0.34950700  0.39255000  0.20511200  1
  Ti  Ti15  1  0.09577500  0.63405600  0.17069600  1
  Ti  Ti16  1  0.37603300  0.12383000  0.55839300  1
  Ti  Ti17  1  0.35240600  0.88390300  0.44634100  1
  Ti  Ti18  1  0.84950700  0.10745000  0.79488800  1
  Ti  Ti19  1  0.65049300  0.89255000  0.29488800  1
  P  P20  1  0.47914000  0.75697700  0.12172800  1
  P  P21  1  0.73391700  0.99587300  0.49981500  1
  P  P22  1  0.97914000  0.74302300  0.87827200  1
  P  P23  1  0.26608300  0.49587300  0.00018500  1
  P  P24  1  0.02086000  0.24302300  0.62172800  1
  P  P25  1  0.75975100  0.49068900  0.75328800  1
  P  P26  1  0.52086000  0.25697700  0.37827200  1
  P  P27  1  0.25975100  0.00931100  0.24671200  1
  P  P28  1  0.50074300  0.74398800  0.62769500  1
  P  P29  1  0.76608300  0.00412700  0.99981500  1
  P  P30  1  0.00074300  0.75601200  0.37230500  1
  P  P31  1  0.99925700  0.25601200  0.12769500  1
  P  P32  1  0.24024900  0.99068900  0.74671200  1
  P  P33  1  0.74024900  0.50931100  0.25328800  1
  P  P34  1  0.23391700  0.50412700  0.50018500  1
  P  P35  1  0.49925700  0.24398800  0.87230500  1
  O  O36  1  0.11588300  0.43232400  0.44510100  1
  O  O37  1  0.16249000  0.42401200  0.93591700  1
  O  O38  1  0.88485700  0.18632900  0.19213800  1
  O  O39  1  0.13910700  0.55697300  0.06122900  1
  O  O40  1  0.86023700  0.67682500  0.93852100  1
  O  O41  1  0.88051200  0.55363700  0.68692700  1
  O  O42  1  0.13755700  0.31209700  0.68664000  1
  O  O43  1  0.36244300  0.68790300  0.18664000  1
  O  O44  1  0.63910700  0.94302700  0.93877100  1
  O  O45  1  0.86244300  0.81209700  0.81336000  1
  O  O46  1  0.37558100  0.92940600  0.80317200  1
  O  O47  1  0.90746400  0.68926500  0.44408900  1
  O  O48  1  0.79910200  0.49889500  0.50226100  1
  O  O49  1  0.66249000  0.07598800  0.06408300  1
  O  O50  1  0.62085600  0.92554000  0.43377400  1
  O  O51  1  0.45901800  0.24939600  0.62114000  1
  O  O52  1  0.61803000  0.58518000  0.30464300  1
  O  O53  1  0.90681600  0.17278800  0.68344000  1
  O  O54  1  0.70089800  0.50110500  0.00226100  1
  O  O55  1  0.63784800  0.18476200  0.81676600  1
  O  O56  1  0.13976300  0.17682500  0.56147900  1
  O  O57  1  0.61948800  0.44636300  0.18692700  1
  O  O58  1  0.40681600  0.32721200  0.31656000  1
  O  O59  1  0.46446600  0.76436600  0.36171300  1
  O  O60  1  0.87558100  0.57059400  0.19682800  1
  O  O61  1  0.86089300  0.05697300  0.43877100  1
  O  O62  1  0.62440500  0.66787300  0.57869600  1
  O  O63  1  0.11803000  0.91482000  0.69535700  1
  O  O64  1  0.90464200  0.31175500  0.56291900  1
  O  O65  1  0.61514300  0.81367100  0.69213800  1
  O  O66  1  0.96446600  0.73563400  0.63828700  1
  O  O67  1  0.23028000  0.48822200  0.74118300  1
  O  O68  1  0.53553400  0.26436600  0.13828700  1
  O  O69  1  0.09318400  0.67278800  0.81656000  1
  O  O70  1  0.73028000  0.01177800  0.25881700  1
  O  O71  1  0.36215200  0.68476200  0.68323400  1
  O  O72  1  0.61588300  0.06767600  0.55489900  1
  O  O73  1  0.59535800  0.68824500  0.06291900  1
  O  O74  1  0.33751000  0.57598800  0.43591700  1
  O  O75  1  0.03553400  0.23563400  0.86171300  1
  O  O76  1  0.88197000  0.41482000  0.80464300  1
  O  O77  1  0.59253600  0.31073500  0.94408900  1
  O  O78  1  0.13784800  0.31523800  0.18323400  1
  O  O79  1  0.63755700  0.18790300  0.31336000  1
  O  O80  1  0.11514300  0.68632900  0.30786200  1
  O  O81  1  0.40746400  0.81073500  0.55591100  1
  O  O82  1  0.59318400  0.82721200  0.18344000  1
  O  O83  1  0.33507800  0.06154500  0.67993100  1
  O  O84  1  0.87914400  0.07446000  0.93377400  1
  O  O85  1  0.36089300  0.44302700  0.56122900  1
  O  O86  1  0.12085600  0.57446000  0.56622600  1
  O  O87  1  0.11948800  0.05363700  0.81307300  1
  O  O88  1  0.20089800  0.99889500  0.99773900  1
  O  O89  1  0.86215200  0.81523800  0.31676600  1
  O  O90  1  0.54098200  0.74939600  0.87886000  1
  O  O91  1  0.04098200  0.75060400  0.12114000  1
  O  O92  1  0.88411700  0.93232400  0.05489900  1
  O  O93  1  0.83507800  0.43845500  0.32006900  1
  O  O94  1  0.09253600  0.18926500  0.05591100  1
  O  O95  1  0.63976300  0.32317500  0.43852100  1
  O  O96  1  0.37559500  0.16787300  0.92130400  1
  O  O97  1  0.36023700  0.82317500  0.06147900  1
  O  O98  1  0.83751000  0.92401200  0.56408300  1
  O  O99  1  0.38051200  0.94636300  0.31307300  1
  O  O100  1  0.66492200  0.56154500  0.82006900  1
  O  O101  1  0.38411700  0.56767600  0.94510100  1
  O  O102  1  0.16492200  0.93845500  0.17993100  1
  O  O103  1  0.95901800  0.25060400  0.37886000  1
  O  O104  1  0.09535800  0.81175500  0.93708100  1
  O  O105  1  0.62441900  0.42940600  0.69682800  1
  O  O106  1  0.26972000  0.51177800  0.24118300  1
  O  O107  1  0.40464200  0.18824500  0.43708100  1
  O  O108  1  0.76972000  0.98822200  0.75881700  1
  O  O109  1  0.38485700  0.31367100  0.80786200  1
  O  O110  1  0.12440500  0.83212700  0.42130400  1
  O  O111  1  0.37914400  0.42554000  0.06622600  1
  O  O112  1  0.38197000  0.08518000  0.19535700  1
  O  O113  1  0.12441900  0.07059400  0.30317200  1
  O  O114  1  0.87559500  0.33212700  0.07869600  1
  O  O115  1  0.29910200  0.00110500  0.49773900  1
