# generated using pymatgen
data_Sr(Si3N4)2
_symmetry_space_group_name_H-M   'P 1'
_cell_length_a   6.59228940
_cell_length_b   6.59228940
_cell_length_c   6.59228940
_cell_angle_alpha   136.89913639
_cell_angle_beta   106.00606802
_cell_angle_gamma   89.66246081
_symmetry_Int_Tables_number   1
_chemical_formula_structural   Sr(Si3N4)2
_chemical_formula_sum   'Sr1 Si6 N8'
_cell_volume   179.64138881
_cell_formula_units_Z   1
loop_
 _symmetry_equiv_pos_site_id
 _symmetry_equiv_pos_as_xyz
  1  'x, y, z'
loop_
 _atom_site_type_symbol
 _atom_site_label
 _atom_site_symmetry_multiplicity
 _atom_site_fract_x
 _atom_site_fract_y
 _atom_site_fract_z
 _atom_site_occupancy
  Sr  Sr0  1  0.50000000  0.65719000  0.15719000  1
  Si  Si1  1  0.36358300  0.30842400  0.35144800  1
  Si  Si2  1  0.04302300  0.98786500  0.35144800  1
  Si  Si3  1  0.95697700  0.30842400  0.94484200  1
  Si  Si4  1  0.63641700  0.98786500  0.94484200  1
  Si  Si5  1  0.12701700  0.76717400  0.64015700  1
  Si  Si6  1  0.87298300  0.51314100  0.64015700  1
  N  N7  1  0.29166500  0.21539400  0.50705900  1
  N  N8  1  0.37952400  0.99112800  0.97568700  1
  N  N9  1  0.18385600  0.47852900  0.29467300  1
  N  N10  1  0.62047600  0.59616300  0.61160400  1
  N  N11  1  0.70833500  0.21539400  0.92373000  1
  N  N12  1  0.01544100  0.99112800  0.61160400  1
  N  N13  1  0.98455900  0.59616300  0.97568700  1
  N  N14  1  0.81614400  0.11081700  0.29467300  1
