# generated using pymatgen
data_La5Mn5O16
_symmetry_space_group_name_H-M   'P 1'
_cell_length_a   7.86689600
_cell_length_b   9.49980520
_cell_length_c   14.74004405
_cell_angle_alpha   90.69916732
_cell_angle_beta   105.33499716
_cell_angle_gamma   113.42521431
_symmetry_Int_Tables_number   1
_chemical_formula_structural   La5Mn5O16
_chemical_formula_sum   'La15 Mn15 O48'
_cell_volume   966.19343470
_cell_formula_units_Z   3
loop_
 _symmetry_equiv_pos_site_id
 _symmetry_equiv_pos_as_xyz
  1  'x, y, z'
loop_
 _atom_site_type_symbol
 _atom_site_label
 _atom_site_symmetry_multiplicity
 _atom_site_fract_x
 _atom_site_fract_y
 _atom_site_fract_z
 _atom_site_occupancy
  La  La0  1  0.05631300  0.71227500  0.94296900  1
  La  La1  1  0.18286100  0.06630900  0.81891900  1
  La  La2  1  0.30335100  0.43623700  0.68363400  1
  La  La3  1  0.57663400  0.70006200  0.94060300  1
  La  La4  1  0.70132700  0.06097700  0.81863300  1
  La  La5  1  0.43898800  0.82270300  0.55747300  1
  La  La6  1  0.80380100  0.43017600  0.68086600  1
  La  La7  1  0.94169700  0.81599500  0.55973300  1
  La  La8  1  0.68725200  0.55452100  0.31476600  1
  La  La9  1  0.81629200  0.93581000  0.18214900  1
  La  La10  1  0.06158700  0.18452400  0.43778000  1
  La  La11  1  0.19101400  0.56329200  0.31287000  1
  La  La12  1  0.94632600  0.29154100  0.06102100  1
  La  La13  1  0.30543600  0.94505800  0.18832200  1
  La  La14  1  0.42250600  0.29613200  0.06388700  1
  Mn  Mn15  1  0.12685100  0.38169400  0.87511000  1
  Mn  Mn16  1  0.24928600  0.74991400  0.75048000  1
  Mn  Mn17  1  0.62561700  0.37600900  0.87462700  1
  Mn  Mn18  1  0.37569600  0.12490100  0.62577400  1
  Mn  Mn19  1  0.50090600  0.49849400  0.49946600  1
  Mn  Mn20  1  0.74439200  0.74681800  0.74691000  1
  Mn  Mn21  1  0.87258400  0.12531200  0.62314400  1
  Mn  Mn22  1  0.62471000  0.87977600  0.37278300  1
  Mn  Mn23  1  0.74993800  0.24846300  0.25126400  1
  Mn  Mn24  1  0.99548800  0.49657600  0.49922700  1
  Mn  Mn25  1  0.12843900  0.87635700  0.37557200  1
  Mn  Mn26  1  0.87349900  0.61917300  0.12559500  1
  Mn  Mn27  1  0.25811000  0.25136800  0.25511300  1
  Mn  Mn28  1  0.37368600  0.62503900  0.12485500  1
  Mn  Mn29  1  0.50105200  0.00000900  0.99995600  1
  O  O30  1  0.24813300  0.58057700  0.82899500  1
  O  O31  1  0.38185200  0.36204300  0.89936100  1
  O  O32  1  0.26086100  0.01449500  0.97787900  1
  O  O33  1  0.62007900  0.20314000  0.95341800  1
  O  O34  1  0.46035500  0.22497700  0.76120800  1
  O  O35  1  0.41897300  0.89766000  0.86762200  1
  O  O36  1  0.46930600  0.33527300  0.58550700  1
  O  O37  1  0.82652500  0.84723200  0.87087900  1
  O  O38  1  0.63470900  0.11823100  0.65138300  1
  O  O39  1  0.78565600  0.53081200  0.98875600  1
  O  O40  1  0.48916800  0.75707900  0.72046700  1
  O  O41  1  0.63460200  0.54568700  0.79266100  1
  O  O42  1  0.85725600  0.95292000  0.70417200  1
  O  O43  1  0.00601000  0.74164900  0.77439800  1
  O  O44  1  0.72716600  0.96798000  0.51104300  1
  O  O45  1  0.86769700  0.38893900  0.84770800  1
  O  O46  1  0.66759200  0.64969800  0.61502100  1
  O  O47  1  0.02580700  0.18910900  0.91914800  1
  O  O48  1  0.74746200  0.07409500  0.31867000  1
  O  O49  1  0.08606200  0.60358200  0.63455400  1
  O  O50  1  0.88170400  0.86596500  0.39434000  1
  O  O51  1  0.03720200  0.27386500  0.74340000  1
  O  O52  1  0.75164800  0.52235400  0.48178500  1
  O  O53  1  0.92486700  0.30691100  0.55689500  1
  O  O54  1  0.10491500  0.70082800  0.45047800  1
  O  O55  1  0.26440800  0.50519100  0.52205800  1
  O  O56  1  0.95556900  0.71881300  0.25742200  1
  O  O57  1  0.11761300  0.13114900  0.60508300  1
  O  O58  1  0.91486000  0.39953500  0.36515600  1
  O  O59  1  0.26579000  0.92036100  0.67575800  1
  O  O60  1  0.97804500  0.81347600  0.08430300  1
  O  O61  1  0.32255400  0.36292400  0.38188700  1
  O  O62  1  0.12858200  0.61067300  0.14780400  1
  O  O63  1  0.26400500  0.00578600  0.49887900  1
  O  O64  1  0.99332400  0.25834800  0.22739500  1
  O  O65  1  0.13951400  0.04451300  0.29751200  1
  O  O66  1  0.35813100  0.45447500  0.20508600  1
  O  O67  1  0.50796900  0.24926300  0.26290600  1
  O  O68  1  0.21302600  0.47370900  0.00946800  1
  O  O69  1  0.35412300  0.86292300  0.34822500  1
  O  O70  1  0.16477500  0.14991100  0.12999200  1
  O  O71  1  0.52254600  0.67282300  0.42111100  1
  O  O72  1  0.58291500  0.09993300  0.13150700  1
  O  O73  1  0.53737900  0.77328900  0.23992900  1
  O  O74  1  0.38406600  0.79732200  0.04621000  1
  O  O75  1  0.73935200  0.98522600  0.02085400  1
  O  O76  1  0.61815400  0.63496300  0.10236300  1
  O  O77  1  0.75955600  0.41727500  0.16834000  1
