# generated using pymatgen
data_SbClO
_symmetry_space_group_name_H-M   'P 1'
_cell_length_a   11.41223800
_cell_length_b   8.13100000
_cell_length_c   9.68169601
_cell_angle_alpha   76.10958883
_cell_angle_beta   90.00000000
_cell_angle_gamma   90.00000000
_symmetry_Int_Tables_number   1
_chemical_formula_structural   SbClO
_chemical_formula_sum   'Sb12 Cl12 O12'
_cell_volume   872.12072641
_cell_formula_units_Z   12
loop_
 _symmetry_equiv_pos_site_id
 _symmetry_equiv_pos_as_xyz
  1  'x, y, z'
loop_
 _atom_site_type_symbol
 _atom_site_label
 _atom_site_symmetry_multiplicity
 _atom_site_fract_x
 _atom_site_fract_y
 _atom_site_fract_z
 _atom_site_occupancy
  Sb  Sb0  1  0.03103000  0.71675900  0.42603000  1
  Sb  Sb1  1  0.53103000  0.28324100  0.07397000  1
  Sb  Sb2  1  0.96897000  0.28324100  0.57397000  1
  Sb  Sb3  1  0.46897000  0.71675900  0.92603000  1
  Sb  Sb4  1  0.24344000  0.90843900  0.09304900  1
  Sb  Sb5  1  0.74344000  0.09156100  0.40695100  1
  Sb  Sb6  1  0.75656000  0.09156100  0.90695100  1
  Sb  Sb7  1  0.25656000  0.90843900  0.59304900  1
  Sb  Sb8  1  0.17342500  0.47190300  0.24023900  1
  Sb  Sb9  1  0.67342500  0.52809700  0.25976100  1
  Sb  Sb10  1  0.82657500  0.52809700  0.75976100  1
  Sb  Sb11  1  0.32657500  0.47190300  0.74023900  1
  Cl  Cl12  1  0.39826100  0.88421500  0.41178700  1
  Cl  Cl13  1  0.89826100  0.11578500  0.08821300  1
  Cl  Cl14  1  0.60173900  0.11578500  0.58821300  1
  Cl  Cl15  1  0.10173900  0.88421500  0.91178700  1
  Cl  Cl16  1  0.35378500  0.40660100  0.37408600  1
  Cl  Cl17  1  0.85378500  0.59339900  0.12591400  1
  Cl  Cl18  1  0.64621500  0.59339900  0.62591400  1
  Cl  Cl19  1  0.14621500  0.40660100  0.87408600  1
  Cl  Cl20  1  0.11394500  0.10519600  0.35323800  1
  Cl  Cl21  1  0.61394500  0.89480400  0.14676200  1
  Cl  Cl22  1  0.88605500  0.89480400  0.64676200  1
  Cl  Cl23  1  0.38605500  0.10519600  0.85323800  1
  O  O24  1  0.07044100  0.46962300  0.41215800  1
  O  O25  1  0.57044100  0.53037700  0.08784200  1
  O  O26  1  0.92955900  0.53037700  0.58784200  1
  O  O27  1  0.42955900  0.46962300  0.91215800  1
  O  O28  1  0.15986600  0.72312800  0.24387100  1
  O  O29  1  0.65986600  0.27687200  0.25612900  1
  O  O30  1  0.84013400  0.27687200  0.75612900  1
  O  O31  1  0.34013400  0.72312800  0.74387100  1
  O  O32  1  0.33873600  0.71337200  0.06314300  1
  O  O33  1  0.83873600  0.28662800  0.43685700  1
  O  O34  1  0.66126400  0.28662800  0.93685700  1
  O  O35  1  0.16126400  0.71337200  0.56314300  1
