# generated using pymatgen
data_Nd2Te3MoO12
_symmetry_space_group_name_H-M   'P 1'
_cell_length_a   5.39578600
_cell_length_b   11.42417800
_cell_length_c   18.25076200
_cell_angle_alpha   90.00000000
_cell_angle_beta   90.00000000
_cell_angle_gamma   90.00000000
_symmetry_Int_Tables_number   1
_chemical_formula_structural   Nd2Te3MoO12
_chemical_formula_sum   'Nd8 Te12 Mo4 O48'
_cell_volume   1125.02113130
_cell_formula_units_Z   4
loop_
 _symmetry_equiv_pos_site_id
 _symmetry_equiv_pos_as_xyz
  1  'x, y, z'
loop_
 _atom_site_type_symbol
 _atom_site_label
 _atom_site_symmetry_multiplicity
 _atom_site_fract_x
 _atom_site_fract_y
 _atom_site_fract_z
 _atom_site_occupancy
  Nd  Nd0  1  0.25635300  0.92289100  0.93747100  1
  Nd  Nd1  1  0.75635300  0.42289100  0.56252900  1
  Nd  Nd2  1  0.74364700  0.42289100  0.06252900  1
  Nd  Nd3  1  0.74364700  0.07710900  0.06252900  1
  Nd  Nd4  1  0.75635300  0.07710900  0.56252900  1
  Nd  Nd5  1  0.24364700  0.92289100  0.43747100  1
  Nd  Nd6  1  0.25635300  0.57710900  0.93747100  1
  Nd  Nd7  1  0.24364700  0.57710900  0.43747100  1
  Te  Te8  1  0.22694400  0.58881200  0.16942500  1
  Te  Te9  1  0.71367700  0.75000000  0.54631300  1
  Te  Te10  1  0.21367700  0.25000000  0.95368700  1
  Te  Te11  1  0.72694400  0.41118800  0.33057500  1
  Te  Te12  1  0.78632300  0.75000000  0.04631300  1
  Te  Te13  1  0.27305600  0.58881200  0.66942500  1
  Te  Te14  1  0.27305600  0.91118800  0.66942500  1
  Te  Te15  1  0.77305600  0.08881200  0.83057500  1
  Te  Te16  1  0.77305600  0.41118800  0.83057500  1
  Te  Te17  1  0.22694400  0.91118800  0.16942500  1
  Te  Te18  1  0.72694400  0.08881200  0.33057500  1
  Te  Te19  1  0.28632300  0.25000000  0.45368700  1
  Mo  Mo20  1  0.74121500  0.75000000  0.31923100  1
  Mo  Mo21  1  0.25878500  0.25000000  0.68076900  1
  Mo  Mo22  1  0.75878500  0.75000000  0.81923100  1
  Mo  Mo23  1  0.24121500  0.25000000  0.18076900  1
  O  O24  1  0.51637200  0.25000000  0.53460000  1
  O  O25  1  0.95352100  0.87927400  0.82831200  1
  O  O26  1  0.60571700  0.61736100  0.00990100  1
  O  O27  1  0.35665600  0.25000000  0.27080000  1
  O  O28  1  0.98362800  0.25000000  0.03460000  1
  O  O29  1  0.96738400  0.98480000  0.65930600  1
  O  O30  1  0.04647900  0.12072600  0.17168800  1
  O  O31  1  0.39428300  0.11736100  0.99009900  1
  O  O32  1  0.54647900  0.87927400  0.32831200  1
  O  O33  1  0.41585200  0.93306000  0.57365500  1
  O  O34  1  0.51786400  0.25000000  0.12226600  1
  O  O35  1  0.60571700  0.88263900  0.00990100  1
  O  O36  1  0.01786400  0.75000000  0.37773400  1
  O  O37  1  0.58414800  0.06694000  0.42634500  1
  O  O38  1  0.46738400  0.48480000  0.84069400  1
  O  O39  1  0.14672400  0.75000000  0.64422600  1
  O  O40  1  0.39428300  0.38263900  0.99009900  1
  O  O41  1  0.41585200  0.56694000  0.57365500  1
  O  O42  1  0.54647900  0.62072600  0.32831200  1
  O  O43  1  0.04647900  0.37927400  0.17168800  1
  O  O44  1  0.03261600  0.48480000  0.34069400  1
  O  O45  1  0.64334400  0.75000000  0.72920000  1
  O  O46  1  0.91585200  0.43306000  0.92634500  1
  O  O47  1  0.89428300  0.88263900  0.50990100  1
  O  O48  1  0.14334400  0.25000000  0.77080000  1
  O  O49  1  0.03261600  0.01520000  0.34069400  1
  O  O50  1  0.53261600  0.51520000  0.15930600  1
  O  O51  1  0.08414800  0.56694000  0.07365500  1
  O  O52  1  0.45352100  0.37927400  0.67168800  1
  O  O53  1  0.10571700  0.11736100  0.49009900  1
  O  O54  1  0.46738400  0.01520000  0.84069400  1
  O  O55  1  0.10571700  0.38263900  0.49009900  1
  O  O56  1  0.53261600  0.98480000  0.15930600  1
  O  O57  1  0.85665600  0.75000000  0.22920000  1
  O  O58  1  0.45352100  0.12072600  0.67168800  1
  O  O59  1  0.95352100  0.62072600  0.82831200  1
  O  O60  1  0.98213600  0.25000000  0.62226600  1
  O  O61  1  0.91585200  0.06694000  0.92634500  1
  O  O62  1  0.89428300  0.61736100  0.50990100  1
  O  O63  1  0.85327600  0.25000000  0.35577400  1
  O  O64  1  0.64672400  0.25000000  0.85577400  1
  O  O65  1  0.48213600  0.75000000  0.87773400  1
  O  O66  1  0.35327600  0.75000000  0.14422600  1
  O  O67  1  0.01637200  0.75000000  0.96540000  1
  O  O68  1  0.96738400  0.51520000  0.65930600  1
  O  O69  1  0.08414800  0.93306000  0.07365500  1
  O  O70  1  0.58414800  0.43306000  0.42634500  1
  O  O71  1  0.48362800  0.75000000  0.46540000  1
