# generated using pymatgen
data_Ba2LaSbO6
_symmetry_space_group_name_H-M   'P 1'
_cell_length_a   6.15076130
_cell_length_b   6.15076130
_cell_length_c   6.15076187
_cell_angle_alpha   60.41399934
_cell_angle_beta   60.41399934
_cell_angle_gamma   60.41399867
_symmetry_Int_Tables_number   1
_chemical_formula_structural   Ba2LaSbO6
_chemical_formula_sum   'Ba2 La1 Sb1 O6'
_cell_volume   166.08041816
_cell_formula_units_Z   1
loop_
 _symmetry_equiv_pos_site_id
 _symmetry_equiv_pos_as_xyz
  1  'x, y, z'
loop_
 _atom_site_type_symbol
 _atom_site_label
 _atom_site_symmetry_multiplicity
 _atom_site_fract_x
 _atom_site_fract_y
 _atom_site_fract_z
 _atom_site_occupancy
  Ba  Ba0  1  0.74846400  0.74846400  0.74846400  1
  Ba  Ba1  1  0.25153600  0.25153600  0.25153600  1
  La  La2  1  0.00000000  0.00000000  0.00000000  1
  Sb  Sb3  1  0.50000000  0.50000000  0.50000000  1
  O  O4  1  0.72753200  0.31172100  0.22783400  1
  O  O5  1  0.77216600  0.27246800  0.68827900  1
  O  O6  1  0.31172100  0.22783400  0.72753200  1
  O  O7  1  0.68827900  0.77216600  0.27246800  1
  O  O8  1  0.22783400  0.72753200  0.31172100  1
  O  O9  1  0.27246800  0.68827900  0.77216600  1
