# generated using pymatgen
data_Co(RhO2)2
_symmetry_space_group_name_H-M   'P 1'
_cell_length_a   6.10231900
_cell_length_b   6.10229549
_cell_length_c   6.10230532
_cell_angle_alpha   89.99999443
_cell_angle_beta   59.99996216
_cell_angle_gamma   120.00002666
_symmetry_Int_Tables_number   1
_chemical_formula_structural   Co(RhO2)2
_chemical_formula_sum   'Co2 Rh4 O8'
_cell_volume   160.68177895
_cell_formula_units_Z   2
loop_
 _symmetry_equiv_pos_site_id
 _symmetry_equiv_pos_as_xyz
  1  'x, y, z'
loop_
 _atom_site_type_symbol
 _atom_site_label
 _atom_site_symmetry_multiplicity
 _atom_site_fract_x
 _atom_site_fract_y
 _atom_site_fract_z
 _atom_site_occupancy
  Co  Co0  1  0.74999900  0.87499900  0.87500000  1
  Co  Co1  1  0.25000000  0.12500200  0.12499900  1
  Rh  Rh2  1  0.49998700  0.50000700  0.50000700  1
  Rh  Rh3  1  0.00001400  0.50000700  0.99997800  1
  Rh  Rh4  1  0.00001500  0.50000700  0.50000900  1
  Rh  Rh5  1  0.49998400  0.99997800  0.50000800  1
  O  O6  1  0.48030400  0.74015300  0.74015100  1
  O  O7  1  0.48030400  0.74015300  0.27954400  1
  O  O8  1  0.01969500  0.74015100  0.74015300  1
  O  O9  1  0.98025100  0.25987400  0.25987400  1
  O  O10  1  0.51975100  0.25987700  0.25987500  1
  O  O11  1  0.01969800  0.27954400  0.74015100  1
  O  O12  1  0.51975000  0.25987500  0.72037500  1
  O  O13  1  0.98025000  0.72037500  0.25987600  1
