# generated using pymatgen
data_CaV2(PO5)2
_symmetry_space_group_name_H-M   'P 1'
_cell_length_a   9.96072795
_cell_length_b   8.82580855
_cell_length_c   6.92945479
_cell_angle_alpha   77.39341821
_cell_angle_beta   59.84837324
_cell_angle_gamma   42.75820855
_symmetry_Int_Tables_number   1
_chemical_formula_structural   CaV2(PO5)2
_chemical_formula_sum   'Ca2 V4 P4 O20'
_cell_volume   345.65993973
_cell_formula_units_Z   2
loop_
 _symmetry_equiv_pos_site_id
 _symmetry_equiv_pos_as_xyz
  1  'x, y, z'
loop_
 _atom_site_type_symbol
 _atom_site_label
 _atom_site_symmetry_multiplicity
 _atom_site_fract_x
 _atom_site_fract_y
 _atom_site_fract_z
 _atom_site_occupancy
  Ca  Ca0  1  0.50075800  0.99924200  0.99924200  1
  Ca  Ca1  1  0.25075800  0.74924200  0.74924200  1
  V  V2  1  0.87654800  0.38368600  0.39523800  1
  V  V3  1  0.34452900  0.39523800  0.38368600  1
  V  V4  1  0.86631400  0.37345200  0.90547100  1
  V  V5  1  0.85476200  0.90547100  0.37345200  1
  P  P6  1  0.03859800  0.54583000  0.96219600  1
  P  P7  1  0.70417000  0.21140200  0.79662400  1
  P  P8  1  0.45337600  0.96219600  0.54583000  1
  P  P9  1  0.28780400  0.79662400  0.21140200  1
  O  O10  1  0.58016300  0.72147000  0.44792300  1
  O  O11  1  0.65827300  0.17259600  0.33981700  1
  O  O12  1  0.31607700  0.65244000  0.39366500  1
  O  O13  1  0.80207700  0.99955700  0.66983700  1
  O  O14  1  0.21689100  0.07963100  0.75845900  1
  O  O15  1  0.41981300  0.10766600  0.36434100  1
  O  O16  1  0.07740400  0.59172700  0.42068600  1
  O  O17  1  0.82931400  0.33981700  0.17259600  1
  O  O18  1  0.91018300  0.42068600  0.59172700  1
  O  O19  1  0.17036900  0.03310900  0.30498100  1
  O  O20  1  0.25044300  0.44792300  0.72147000  1
  O  O21  1  0.49154100  0.30498100  0.03310900  1
  O  O22  1  0.94501900  0.75845900  0.07963100  1
  O  O23  1  0.14233400  0.83018700  0.14182000  1
  O  O24  1  0.10818000  0.36434100  0.10766600  1
  O  O25  1  0.88565900  0.14182000  0.83018700  1
  O  O26  1  0.85633500  0.61218200  0.93392300  1
  O  O27  1  0.63781800  0.39366500  0.65244000  1
  O  O28  1  0.52853000  0.66983700  0.99955700  1
  O  O29  1  0.59756000  0.93392300  0.61218200  1
