# generated using pymatgen
data_Hg3AsO4
_symmetry_space_group_name_H-M   'P 1'
_cell_length_a   8.82565500
_cell_length_b   10.52485400
_cell_length_c   14.00671443
_cell_angle_alpha   78.39004042
_cell_angle_beta   90.00000000
_cell_angle_gamma   90.00000000
_symmetry_Int_Tables_number   1
_chemical_formula_structural   Hg3AsO4
_chemical_formula_sum   'Hg24 As8 O32'
_cell_volume   1274.44647743
_cell_formula_units_Z   8
loop_
 _symmetry_equiv_pos_site_id
 _symmetry_equiv_pos_as_xyz
  1  'x, y, z'
loop_
 _atom_site_type_symbol
 _atom_site_label
 _atom_site_symmetry_multiplicity
 _atom_site_fract_x
 _atom_site_fract_y
 _atom_site_fract_z
 _atom_site_occupancy
  Hg  Hg0  1  0.55592200  0.51635600  0.36166800  1
  Hg  Hg1  1  0.05592200  0.48364400  0.13833200  1
  Hg  Hg2  1  0.94407800  0.51635600  0.86166800  1
  Hg  Hg3  1  0.58709800  0.72823500  0.83489900  1
  Hg  Hg4  1  0.25529300  0.94499900  0.96119600  1
  Hg  Hg5  1  0.75529300  0.05500100  0.53880400  1
  Hg  Hg6  1  0.08709800  0.27176500  0.66510100  1
  Hg  Hg7  1  0.93103500  0.91003600  0.66520200  1
  Hg  Hg8  1  0.24470700  0.94499900  0.46119600  1
  Hg  Hg9  1  0.61169900  0.18929700  0.30240000  1
  Hg  Hg10  1  0.91290200  0.72823500  0.33489900  1
  Hg  Hg11  1  0.43103500  0.08996400  0.83479800  1
  Hg  Hg12  1  0.11169900  0.81070300  0.19760000  1
  Hg  Hg13  1  0.26973200  0.48992800  0.40308300  1
  Hg  Hg14  1  0.44407800  0.48364400  0.63833200  1
  Hg  Hg15  1  0.74470700  0.05500100  0.03880400  1
  Hg  Hg16  1  0.76973200  0.51007200  0.09691700  1
  Hg  Hg17  1  0.73026800  0.51007200  0.59691700  1
  Hg  Hg18  1  0.38830100  0.81070300  0.69760000  1
  Hg  Hg19  1  0.06896500  0.08996400  0.33479800  1
  Hg  Hg20  1  0.56896500  0.91003600  0.16520200  1
  Hg  Hg21  1  0.88830100  0.18929700  0.80240000  1
  Hg  Hg22  1  0.23026800  0.48992800  0.90308300  1
  Hg  Hg23  1  0.41290200  0.27176500  0.16510100  1
  As  As24  1  0.09791700  0.63343200  0.59510700  1
  As  As25  1  0.91615500  0.83944700  0.90590100  1
  As  As26  1  0.40208300  0.63343200  0.09510700  1
  As  As27  1  0.08384500  0.16055300  0.09409900  1
  As  As28  1  0.59791700  0.36656800  0.90489300  1
  As  As29  1  0.41615500  0.16055300  0.59409900  1
  As  As30  1  0.58384500  0.83944700  0.40590100  1
  As  As31  1  0.90208300  0.36656800  0.40489300  1
  O  O32  1  0.29860400  0.50712300  0.16542900  1
  O  O33  1  0.09962200  0.62795900  0.47325500  1
  O  O34  1  0.58004800  0.62479700  0.14667500  1
  O  O35  1  0.96444100  0.16718100  0.99586300  1
  O  O36  1  0.40037800  0.62795900  0.97325500  1
  O  O37  1  0.02816000  0.82359600  0.80704100  1
  O  O38  1  0.08004800  0.37520300  0.35332500  1
  O  O39  1  0.80533500  0.97757100  0.88089500  1
  O  O40  1  0.79860400  0.49287700  0.33457100  1
  O  O41  1  0.16992100  0.78301300  0.61042700  1
  O  O42  1  0.59962200  0.37204100  0.02674500  1
  O  O43  1  0.70939500  0.70801200  0.43107300  1
  O  O44  1  0.70139600  0.49287700  0.83457100  1
  O  O45  1  0.53555900  0.16718100  0.49586300  1
  O  O46  1  0.90037800  0.37204100  0.52674500  1
  O  O47  1  0.30533500  0.02242900  0.61910500  1
  O  O48  1  0.41995200  0.37520300  0.85332500  1
  O  O49  1  0.66992100  0.21698700  0.88957300  1
  O  O50  1  0.20939500  0.29198800  0.06892700  1
  O  O51  1  0.47184000  0.82359600  0.30704100  1
  O  O52  1  0.79060500  0.70801200  0.93107300  1
  O  O53  1  0.69466500  0.97757100  0.38089500  1
  O  O54  1  0.20139600  0.50712300  0.66542900  1
  O  O55  1  0.03555900  0.83281900  0.00413700  1
  O  O56  1  0.29060500  0.29198800  0.56892700  1
  O  O57  1  0.91995200  0.62479700  0.64667500  1
  O  O58  1  0.83007900  0.21698700  0.38957300  1
  O  O59  1  0.52816000  0.17640400  0.69295900  1
  O  O60  1  0.46444100  0.83281900  0.50413700  1
  O  O61  1  0.33007900  0.78301300  0.11042700  1
  O  O62  1  0.19466500  0.02242900  0.11910500  1
  O  O63  1  0.97184000  0.17640400  0.19295900  1
