# generated using pymatgen
data_Mg15Si2Ir5
_symmetry_space_group_name_H-M   'P 1'
_cell_length_a   13.77835500
_cell_length_b   13.77835500
_cell_length_c   8.80872500
_cell_angle_alpha   90.00000000
_cell_angle_beta   90.00000000
_cell_angle_gamma   90.00000000
_symmetry_Int_Tables_number   1
_chemical_formula_structural   Mg15Si2Ir5
_chemical_formula_sum   'Mg60 Si8 Ir20'
_cell_volume   1672.27536601
_cell_formula_units_Z   4
loop_
 _symmetry_equiv_pos_site_id
 _symmetry_equiv_pos_as_xyz
  1  'x, y, z'
loop_
 _atom_site_type_symbol
 _atom_site_label
 _atom_site_symmetry_multiplicity
 _atom_site_fract_x
 _atom_site_fract_y
 _atom_site_fract_z
 _atom_site_occupancy
  Mg  Mg0  1  0.73339300  0.24402000  0.40807700  1
  Mg  Mg1  1  0.43906800  0.36890800  0.72433600  1
  Mg  Mg2  1  0.62850400  0.41341700  0.93488400  1
  Mg  Mg3  1  0.16045800  0.94404500  0.89390100  1
  Mg  Mg4  1  0.26660700  0.75598000  0.40807700  1
  Mg  Mg5  1  0.05595500  0.16045800  0.10609900  1
  Mg  Mg6  1  0.94698800  0.29700300  0.61105400  1
  Mg  Mg7  1  0.20299700  0.44698800  0.11105400  1
  Mg  Mg8  1  0.44698800  0.79700300  0.88894600  1
  Mg  Mg9  1  0.36890800  0.56093200  0.27566400  1
  Mg  Mg10  1  0.23339300  0.74402000  0.09192300  1
  Mg  Mg11  1  0.93906800  0.86890800  0.77566400  1
  Mg  Mg12  1  0.76660700  0.25598000  0.09192300  1
  Mg  Mg13  1  0.70299700  0.94698800  0.38894600  1
  Mg  Mg14  1  0.36822400  0.92748200  0.13462300  1
  Mg  Mg15  1  0.06093200  0.13109200  0.77566400  1
  Mg  Mg16  1  0.44404500  0.33954200  0.39390100  1
  Mg  Mg17  1  0.92794200  0.63114100  0.36168300  1
  Mg  Mg18  1  0.55301200  0.20299700  0.88894600  1
  Mg  Mg19  1  0.75598000  0.73339300  0.59192300  1
  Mg  Mg20  1  0.66045800  0.44404500  0.60609900  1
  Mg  Mg21  1  0.74402000  0.76660700  0.90807700  1
  Mg  Mg22  1  0.08658300  0.12850400  0.43488400  1
  Mg  Mg23  1  0.25000000  0.25000000  0.25000000  1
  Mg  Mg24  1  0.86890800  0.06093200  0.22433600  1
  Mg  Mg25  1  0.63109200  0.43906800  0.27566400  1
  Mg  Mg26  1  0.94404500  0.83954200  0.10609900  1
  Mg  Mg27  1  0.87149600  0.08658300  0.56511600  1
  Mg  Mg28  1  0.13114100  0.57205800  0.86168300  1
  Mg  Mg29  1  0.63177600  0.07251800  0.13462300  1
  Mg  Mg30  1  0.05301200  0.70299700  0.61105400  1
  Mg  Mg31  1  0.07205800  0.36885900  0.36168300  1
  Mg  Mg32  1  0.12850400  0.91341700  0.56511600  1
  Mg  Mg33  1  0.56093200  0.63109200  0.72433600  1
  Mg  Mg34  1  0.07251800  0.36822400  0.86537700  1
  Mg  Mg35  1  0.83954200  0.05595500  0.89390100  1
  Mg  Mg36  1  0.37149600  0.58658300  0.93488400  1
  Mg  Mg37  1  0.13177600  0.57251800  0.36537700  1
  Mg  Mg38  1  0.75000000  0.25000000  0.75000000  1
  Mg  Mg39  1  0.25000000  0.75000000  0.75000000  1
  Mg  Mg40  1  0.57205800  0.86885900  0.13831700  1
  Mg  Mg41  1  0.33954200  0.55595500  0.60609900  1
  Mg  Mg42  1  0.25598000  0.23339300  0.90807700  1
  Mg  Mg43  1  0.29700300  0.05301200  0.38894600  1
  Mg  Mg44  1  0.63114100  0.07205800  0.63831700  1
  Mg  Mg45  1  0.41341700  0.37149600  0.06511600  1
  Mg  Mg46  1  0.92748200  0.63177600  0.86537700  1
  Mg  Mg47  1  0.86885900  0.42794200  0.86168300  1
  Mg  Mg48  1  0.36885900  0.92794200  0.63831700  1
  Mg  Mg49  1  0.24402000  0.26660700  0.59192300  1
  Mg  Mg50  1  0.42794200  0.13114100  0.13831700  1
  Mg  Mg51  1  0.91341700  0.87149600  0.43488400  1
  Mg  Mg52  1  0.13109200  0.93906800  0.22433600  1
  Mg  Mg53  1  0.75000000  0.75000000  0.25000000  1
  Mg  Mg54  1  0.55595500  0.66045800  0.39390100  1
  Mg  Mg55  1  0.79700300  0.55301200  0.11105400  1
  Mg  Mg56  1  0.42748200  0.13177600  0.63462300  1
  Mg  Mg57  1  0.58658300  0.62850400  0.06511600  1
  Mg  Mg58  1  0.86822400  0.42748200  0.36537700  1
  Mg  Mg59  1  0.57251800  0.86822400  0.63462300  1
  Si  Si60  1  0.95212300  0.33417800  0.11509100  1
  Si  Si61  1  0.66582200  0.95212300  0.88490900  1
  Si  Si62  1  0.83417800  0.54787700  0.61509100  1
  Si  Si63  1  0.54787700  0.16582200  0.38490900  1
  Si  Si64  1  0.04787700  0.66582200  0.11509100  1
  Si  Si65  1  0.45212300  0.83417800  0.38490900  1
  Si  Si66  1  0.16582200  0.45212300  0.61509100  1
  Si  Si67  1  0.33417800  0.04787700  0.88490900  1
  Ir  Ir68  1  0.76458000  0.92009100  0.09853600  1
  Ir  Ir69  1  0.57575200  0.26805000  0.17453500  1
  Ir  Ir70  1  0.07575200  0.76805000  0.32546500  1
  Ir  Ir71  1  0.00000000  0.50000000  0.11351800  1
  Ir  Ir72  1  0.76805000  0.92424800  0.67453500  1
  Ir  Ir73  1  0.50000000  0.00000000  0.38648200  1
  Ir  Ir74  1  0.23195000  0.07575200  0.67453500  1
  Ir  Ir75  1  0.42424800  0.73195000  0.17453500  1
  Ir  Ir76  1  0.26458000  0.42009100  0.40146400  1
  Ir  Ir77  1  0.26805000  0.42424800  0.82546500  1
  Ir  Ir78  1  0.92424800  0.23195000  0.32546500  1
  Ir  Ir79  1  0.92009100  0.23542000  0.90146400  1
  Ir  Ir80  1  0.73195000  0.57575200  0.82546500  1
  Ir  Ir81  1  0.57990900  0.26458000  0.59853600  1
  Ir  Ir82  1  0.23542000  0.07990900  0.09853600  1
  Ir  Ir83  1  0.50000000  0.00000000  0.88648200  1
  Ir  Ir84  1  0.73542000  0.57990900  0.40146400  1
  Ir  Ir85  1  0.07990900  0.76458000  0.90146400  1
  Ir  Ir86  1  0.42009100  0.73542000  0.59853600  1
  Ir  Ir87  1  0.00000000  0.50000000  0.61351800  1
