# generated using pymatgen
data_Na4MoS3O14
_symmetry_space_group_name_H-M   'P 1'
_cell_length_a   8.62643200
_cell_length_b   9.47054800
_cell_length_c   15.34929900
_cell_angle_alpha   90.00000000
_cell_angle_beta   90.00000000
_cell_angle_gamma   90.00000000
_symmetry_Int_Tables_number   1
_chemical_formula_structural   Na4MoS3O14
_chemical_formula_sum   'Na16 Mo4 S12 O56'
_cell_volume   1253.99226866
_cell_formula_units_Z   4
loop_
 _symmetry_equiv_pos_site_id
 _symmetry_equiv_pos_as_xyz
  1  'x, y, z'
loop_
 _atom_site_type_symbol
 _atom_site_label
 _atom_site_symmetry_multiplicity
 _atom_site_fract_x
 _atom_site_fract_y
 _atom_site_fract_z
 _atom_site_occupancy
  Na  Na0  1  0.80567200  0.75991700  0.31738000  1
  Na  Na1  1  0.19994100  0.58037900  0.33830000  1
  Na  Na2  1  0.43214700  0.96586200  0.28775600  1
  Na  Na3  1  0.82998900  0.48603100  0.96936400  1
  Na  Na4  1  0.32998900  0.01396900  0.03063600  1
  Na  Na5  1  0.19432800  0.25991700  0.18262000  1
  Na  Na6  1  0.80005900  0.08037900  0.16170000  1
  Na  Na7  1  0.06785300  0.03413800  0.78775600  1
  Na  Na8  1  0.30567200  0.74008300  0.68262000  1
  Na  Na9  1  0.69994100  0.91962100  0.66170000  1
  Na  Na10  1  0.56785300  0.46586200  0.21224400  1
  Na  Na11  1  0.93214700  0.53413800  0.71224400  1
  Na  Na12  1  0.17001100  0.98603100  0.53063600  1
  Na  Na13  1  0.30005900  0.41962100  0.83830000  1
  Na  Na14  1  0.67001100  0.51396900  0.46936400  1
  Na  Na15  1  0.69432800  0.24008300  0.81738000  1
  Mo  Mo16  1  0.72577300  0.89153900  0.92687200  1
  Mo  Mo17  1  0.77422700  0.10846100  0.42687200  1
  Mo  Mo18  1  0.22577300  0.60846100  0.07312800  1
  Mo  Mo19  1  0.27422700  0.39153900  0.57312800  1
  S  S20  1  0.42187200  0.29705900  0.38153900  1
  S  S21  1  0.57812800  0.79705900  0.11846100  1
  S  S22  1  0.37294500  0.12324000  0.70380800  1
  S  S23  1  0.47203900  0.35653100  0.01563900  1
  S  S24  1  0.97203900  0.14346900  0.98436100  1
  S  S25  1  0.12705500  0.87676000  0.20380800  1
  S  S26  1  0.62705500  0.62324000  0.79619200  1
  S  S27  1  0.02796100  0.64346900  0.51563900  1
  S  S28  1  0.92187200  0.20294100  0.61846100  1
  S  S29  1  0.87294500  0.37676000  0.29619200  1
  S  S30  1  0.52796100  0.85653100  0.48436100  1
  S  S31  1  0.07812800  0.70294100  0.88153900  1
  O  O32  1  0.49840400  0.79676700  0.57073100  1
  O  O33  1  0.70473300  0.77848000  0.05091100  1
  O  O34  1  0.39357500  0.25712400  0.07496000  1
  O  O35  1  0.42691900  0.75872100  0.07540200  1
  O  O36  1  0.70343400  0.03044900  0.33145700  1
  O  O37  1  0.05282200  0.52075900  0.05653800  1
  O  O38  1  0.88161200  0.27886000  0.37733200  1
  O  O39  1  0.64546200  0.98065500  0.50472000  1
  O  O40  1  0.14546200  0.51934500  0.49528000  1
  O  O41  1  0.56886700  0.94715100  0.14505000  1
  O  O42  1  0.43113300  0.44715100  0.35495000  1
  O  O43  1  0.50159600  0.29676700  0.92926900  1
  O  O44  1  0.46497600  0.59454100  0.77270500  1
  O  O45  1  0.92691900  0.74127900  0.92459800  1
  O  O46  1  0.07308100  0.24127900  0.57540200  1
  O  O47  1  0.10945800  0.07961600  0.94346500  1
  O  O48  1  0.78654600  0.30188700  0.22779900  1
  O  O49  1  0.94717800  0.02075900  0.44346200  1
  O  O50  1  0.20473300  0.72152000  0.94908900  1
  O  O51  1  0.61838800  0.72114000  0.87733200  1
  O  O52  1  0.89357500  0.24287600  0.92504000  1
  O  O53  1  0.10642500  0.74287600  0.57496000  1
  O  O54  1  0.96497600  0.90545900  0.22729500  1
  O  O55  1  0.35453800  0.48065500  0.99528000  1
  O  O56  1  0.89054200  0.57961600  0.55653500  1
  O  O57  1  0.29656600  0.53044900  0.16854300  1
  O  O58  1  0.60642500  0.75712400  0.42504000  1
  O  O59  1  0.60945800  0.42038400  0.05653500  1
  O  O60  1  0.20343400  0.46955100  0.66854300  1
  O  O61  1  0.28958500  0.99457400  0.67642700  1
  O  O62  1  0.11838800  0.77886000  0.12266800  1
  O  O63  1  0.93113300  0.05284900  0.64505000  1
  O  O64  1  0.11253500  0.79398500  0.80647300  1
  O  O65  1  0.79656600  0.96955100  0.83145700  1
  O  O66  1  0.44717800  0.47924100  0.55653800  1
  O  O67  1  0.99840400  0.70323300  0.42926900  1
  O  O68  1  0.71041500  0.49457400  0.82357300  1
  O  O69  1  0.06886700  0.55284900  0.85495000  1
  O  O70  1  0.85453800  0.01934500  0.00472000  1
  O  O71  1  0.39054200  0.92038400  0.44346500  1
  O  O72  1  0.38746500  0.20601500  0.30647300  1
  O  O73  1  0.03502400  0.40545900  0.27270500  1
  O  O74  1  0.88746500  0.29398500  0.69352700  1
  O  O75  1  0.53502400  0.09454100  0.72729500  1
  O  O76  1  0.38161200  0.22114000  0.62266800  1
  O  O77  1  0.29526700  0.27848000  0.44908900  1
  O  O78  1  0.00159600  0.20323300  0.07073100  1
  O  O79  1  0.28654600  0.19811300  0.77220100  1
  O  O80  1  0.61253500  0.70601500  0.19352700  1
  O  O81  1  0.55282200  0.97924100  0.94346200  1
  O  O82  1  0.78958500  0.50542600  0.32357300  1
  O  O83  1  0.21041500  0.00542600  0.17642700  1
  O  O84  1  0.79526700  0.22152000  0.55091100  1
  O  O85  1  0.21345400  0.80188700  0.27220100  1
  O  O86  1  0.57308100  0.25872100  0.42459800  1
  O  O87  1  0.71345400  0.69811300  0.72779900  1
