# generated using pymatgen
data_Ba2AlInO5
_symmetry_space_group_name_H-M   'P 1'
_cell_length_a   5.93292185
_cell_length_b   5.93292185
_cell_length_c   19.98246000
_cell_angle_alpha   90.00000000
_cell_angle_beta   90.00000000
_cell_angle_gamma   119.99999835
_symmetry_Int_Tables_number   1
_chemical_formula_structural   Ba2AlInO5
_chemical_formula_sum   'Ba8 Al4 In4 O20'
_cell_volume   609.13961852
_cell_formula_units_Z   4
loop_
 _symmetry_equiv_pos_site_id
 _symmetry_equiv_pos_as_xyz
  1  'x, y, z'
loop_
 _atom_site_type_symbol
 _atom_site_label
 _atom_site_symmetry_multiplicity
 _atom_site_fract_x
 _atom_site_fract_y
 _atom_site_fract_z
 _atom_site_occupancy
  Ba  Ba0  1  0.66666700  0.33333300  0.89408700  1
  Ba  Ba1  1  0.33333300  0.66666700  0.10591300  1
  Ba  Ba2  1  0.33333300  0.66666700  0.39408700  1
  Ba  Ba3  1  0.00000000  0.00000000  0.00000000  1
  Ba  Ba4  1  0.00000000  0.00000000  0.50000000  1
  Ba  Ba5  1  0.66666700  0.33333300  0.25000000  1
  Ba  Ba6  1  0.66666700  0.33333300  0.60591300  1
  Ba  Ba7  1  0.33333300  0.66666700  0.75000000  1
  Al  Al8  1  0.00000000  0.00000000  0.83668700  1
  Al  Al9  1  0.00000000  0.00000000  0.16331300  1
  Al  Al10  1  0.00000000  0.00000000  0.66331300  1
  Al  Al11  1  0.00000000  0.00000000  0.33668700  1
  In  In12  1  0.33333300  0.66666700  0.56675200  1
  In  In13  1  0.66666700  0.33333300  0.06675200  1
  In  In14  1  0.33333300  0.66666700  0.93324800  1
  In  In15  1  0.66666700  0.33333300  0.43324800  1
  O  O16  1  0.67361100  0.83680600  0.63433300  1
  O  O17  1  0.00000000  0.50000000  0.50000000  1
  O  O18  1  0.00000000  0.00000000  0.25000000  1
  O  O19  1  0.83680600  0.67361100  0.36566700  1
  O  O20  1  0.83680600  0.16319400  0.13433300  1
  O  O21  1  0.16319400  0.32638900  0.63433300  1
  O  O22  1  0.67361100  0.83680600  0.86566700  1
  O  O23  1  0.32638900  0.16319400  0.13433300  1
  O  O24  1  0.00000000  0.00000000  0.75000000  1
  O  O25  1  0.83680600  0.16319400  0.36566700  1
  O  O26  1  0.16319400  0.32638900  0.86566700  1
  O  O27  1  0.50000000  0.00000000  0.00000000  1
  O  O28  1  0.32638900  0.16319400  0.36566700  1
  O  O29  1  0.50000000  0.00000000  0.50000000  1
  O  O30  1  0.83680600  0.67361100  0.13433300  1
  O  O31  1  0.16319400  0.83680600  0.63433300  1
  O  O32  1  0.50000000  0.50000000  0.00000000  1
  O  O33  1  0.00000000  0.50000000  0.00000000  1
  O  O34  1  0.50000000  0.50000000  0.50000000  1
  O  O35  1  0.16319400  0.83680600  0.86566700  1
