# generated using pymatgen
data_Na3Mg3In(SO4)6
_symmetry_space_group_name_H-M   'P 1'
_cell_length_a   8.99925056
_cell_length_b   8.99651092
_cell_length_c   18.01403426
_cell_angle_alpha   58.47334077
_cell_angle_beta   58.44973777
_cell_angle_gamma   58.42588095
_symmetry_Int_Tables_number   1
_chemical_formula_structural   Na3Mg3In(SO4)6
_chemical_formula_sum   'Na6 Mg6 In2 S12 O48'
_cell_volume   994.69409753
_cell_formula_units_Z   2
loop_
 _symmetry_equiv_pos_site_id
 _symmetry_equiv_pos_as_xyz
  1  'x, y, z'
loop_
 _atom_site_type_symbol
 _atom_site_label
 _atom_site_symmetry_multiplicity
 _atom_site_fract_x
 _atom_site_fract_y
 _atom_site_fract_z
 _atom_site_occupancy
  Na  Na0  1  0.99966600  0.99791300  0.00084900  1
  Na  Na1  1  0.02033900  0.00362300  0.49208600  1
  Na  Na2  1  0.49647200  0.52369400  0.23749100  1
  Na  Na3  1  0.59468500  0.24124800  0.44177900  1
  Na  Na4  1  0.46956000  0.49994200  0.76139100  1
  Na  Na5  1  0.87446000  0.59803000  0.62049500  1
  Mg  Mg6  1  0.34957000  0.35012000  0.18045600  1
  Mg  Mg7  1  0.14598100  0.14120600  0.57415400  1
  Mg  Mg8  1  0.35713400  0.35223100  0.67541200  1
  Mg  Mg9  1  0.64900300  0.65654600  0.32439000  1
  Mg  Mg10  1  0.85659500  0.84751300  0.41885100  1
  Mg  Mg11  1  0.64605400  0.64711400  0.82557900  1
  In  In12  1  0.14800900  0.14606100  0.07545100  1
  In  In13  1  0.85004200  0.84964100  0.92602500  1
  S  S14  1  0.04764300  0.74627500  0.22610900  1
  S  S15  1  0.45579100  0.05162100  0.37482600  1
  S  S16  1  0.74523400  0.45164900  0.02461600  1
  S  S17  1  0.25030400  0.54552000  0.47800800  1
  S  S18  1  0.54764000  0.95147400  0.12780400  1
  S  S19  1  0.04603500  0.74672600  0.72278800  1
  S  S20  1  0.94918600  0.25197200  0.27608100  1
  S  S21  1  0.45152000  0.04877600  0.87307900  1
  S  S22  1  0.75004000  0.45069700  0.52435600  1
  S  S23  1  0.25398100  0.54518200  0.97704600  1
  S  S24  1  0.54317400  0.95280900  0.62635200  1
  S  S25  1  0.95873100  0.24991700  0.77140100  1
  O  O26  1  0.97035600  0.21544200  0.19846500  1
  O  O27  1  0.20741400  0.39854300  0.98525100  1
  O  O28  1  0.40084300  0.96814700  0.10450900  1
  O  O29  1  0.10708800  0.29125000  0.25601100  1
  O  O30  1  0.29312400  0.49757000  0.05724700  1
  O  O31  1  0.06177900  0.91027300  0.13628500  1
  O  O32  1  0.49898400  0.11148800  0.14816000  1
  O  O33  1  0.22590600  0.59028800  0.21281600  1
  O  O34  1  0.28097800  0.06789100  0.45604300  1
  O  O35  1  0.98956800  0.20972800  0.69379000  1
  O  O36  1  0.43201700  0.22697800  0.29475200  1
  O  O37  1  0.58740300  0.42483400  0.11150200  1
  O  O38  1  0.21848400  0.38219800  0.49569100  1
  O  O39  1  0.08228900  0.71608400  0.46882300  1
  O  O40  1  0.38875400  0.98833800  0.60471200  1
  O  O41  1  0.11289300  0.29234000  0.75431300  1
  O  O42  1  0.90999500  0.27495700  0.03036800  1
  O  O43  1  0.41234300  0.56838900  0.39058400  1
  O  O44  1  0.28637800  0.51637000  0.55659600  1
  O  O45  1  0.57496000  0.77588800  0.20640800  1
  O  O46  1  0.06437100  0.91073600  0.63735200  1
  O  O47  1  0.72449700  0.93949500  0.04520300  1
  O  O48  1  0.51302900  0.10923500  0.64511000  1
  O  O49  1  0.22170000  0.58714600  0.71351400  1
  O  O50  1  0.77018700  0.40896000  0.29146600  1
  O  O51  1  0.49964000  0.89294200  0.35362700  1
  O  O52  1  0.27396600  0.06032400  0.95494700  1
  O  O53  1  0.92863200  0.08736000  0.36323400  1
  O  O54  1  0.42580700  0.22470900  0.79483500  1
  O  O55  1  0.70424900  0.48573200  0.44738100  1
  O  O56  1  0.59040400  0.43094000  0.61270400  1
  O  O57  1  0.09017800  0.72338900  0.96943600  1
  O  O58  1  0.89410900  0.70072700  0.24513000  1
  O  O59  1  0.60883300  0.02521500  0.39682000  1
  O  O60  1  0.91328100  0.27684800  0.53326400  1
  O  O61  1  0.79467000  0.60750300  0.50647100  1
  O  O62  1  0.41241900  0.57123900  0.88944700  1
  O  O63  1  0.57179100  0.77324500  0.70494800  1
  O  O64  1  0.01737300  0.79671600  0.29990800  1
  O  O65  1  0.72122800  0.93055300  0.54404200  1
  O  O66  1  0.78168000  0.41285600  0.78137800  1
  O  O67  1  0.50027100  0.89008100  0.85138100  1
  O  O68  1  0.93726900  0.08874300  0.86072100  1
  O  O69  1  0.70660000  0.50076200  0.94377600  1
  O  O70  1  0.89077100  0.70364800  0.74009100  1
  O  O71  1  0.59701100  0.02902800  0.89813300  1
  O  O72  1  0.79086600  0.59854400  0.01686800  1
  O  O73  1  0.01376200  0.78682700  0.80211100  1
