# generated using pymatgen
data_Hg6BiAs4Cl7
_symmetry_space_group_name_H-M   'P 1'
_cell_length_a   12.50116700
_cell_length_b   12.50116700
_cell_length_c   12.50116700
_cell_angle_alpha   90.00000000
_cell_angle_beta   90.00000000
_cell_angle_gamma   90.00000000
_symmetry_Int_Tables_number   1
_chemical_formula_structural   Hg6BiAs4Cl7
_chemical_formula_sum   'Hg24 Bi4 As16 Cl28'
_cell_volume   1953.67208232
_cell_formula_units_Z   4
loop_
 _symmetry_equiv_pos_site_id
 _symmetry_equiv_pos_as_xyz
  1  'x, y, z'
loop_
 _atom_site_type_symbol
 _atom_site_label
 _atom_site_symmetry_multiplicity
 _atom_site_fract_x
 _atom_site_fract_y
 _atom_site_fract_z
 _atom_site_occupancy
  Hg  Hg0  1  0.80447000  0.04682800  0.81389700  1
  Hg  Hg1  1  0.95317200  0.31389700  0.69553000  1
  Hg  Hg2  1  0.19553000  0.54682800  0.68610300  1
  Hg  Hg3  1  0.30447000  0.04682800  0.68610300  1
  Hg  Hg4  1  0.95317200  0.18610300  0.19553000  1
  Hg  Hg5  1  0.45317200  0.18610300  0.30447000  1
  Hg  Hg6  1  0.30447000  0.45317200  0.18610300  1
  Hg  Hg7  1  0.18610300  0.19553000  0.95317200  1
  Hg  Hg8  1  0.18610300  0.30447000  0.45317200  1
  Hg  Hg9  1  0.31389700  0.80447000  0.45317200  1
  Hg  Hg10  1  0.04682800  0.68610300  0.30447000  1
  Hg  Hg11  1  0.68610300  0.30447000  0.04682800  1
  Hg  Hg12  1  0.45317200  0.31389700  0.80447000  1
  Hg  Hg13  1  0.68610300  0.19553000  0.54682800  1
  Hg  Hg14  1  0.31389700  0.69553000  0.95317200  1
  Hg  Hg15  1  0.69553000  0.54682800  0.81389700  1
  Hg  Hg16  1  0.81389700  0.80447000  0.04682800  1
  Hg  Hg17  1  0.54682800  0.81389700  0.69553000  1
  Hg  Hg18  1  0.19553000  0.95317200  0.18610300  1
  Hg  Hg19  1  0.80447000  0.45317200  0.31389700  1
  Hg  Hg20  1  0.04682800  0.81389700  0.80447000  1
  Hg  Hg21  1  0.54682800  0.68610300  0.19553000  1
  Hg  Hg22  1  0.81389700  0.69553000  0.54682800  1
  Hg  Hg23  1  0.69553000  0.95317200  0.31389700  1
  Bi  Bi24  1  0.00000000  0.00000000  0.50000000  1
  Bi  Bi25  1  0.50000000  0.00000000  0.00000000  1
  Bi  Bi26  1  0.50000000  0.50000000  0.50000000  1
  Bi  Bi27  1  0.00000000  0.50000000  0.00000000  1
  As  As28  1  0.23295700  0.76704300  0.26704300  1
  As  As29  1  0.15164500  0.34835500  0.65164500  1
  As  As30  1  0.65164500  0.34835500  0.84835500  1
  As  As31  1  0.73295700  0.73295700  0.73295700  1
  As  As32  1  0.84835500  0.65164500  0.34835500  1
  As  As33  1  0.34835500  0.84835500  0.65164500  1
  As  As34  1  0.84835500  0.84835500  0.84835500  1
  As  As35  1  0.73295700  0.76704300  0.23295700  1
  As  As36  1  0.26704300  0.26704300  0.26704300  1
  As  As37  1  0.26704300  0.23295700  0.76704300  1
  As  As38  1  0.34835500  0.65164500  0.15164500  1
  As  As39  1  0.23295700  0.73295700  0.76704300  1
  As  As40  1  0.76704300  0.23295700  0.73295700  1
  As  As41  1  0.65164500  0.15164500  0.34835500  1
  As  As42  1  0.76704300  0.26704300  0.23295700  1
  As  As43  1  0.15164500  0.15164500  0.15164500  1
  Cl  Cl44  1  0.95620000  0.95058200  0.29168300  1
  Cl  Cl45  1  0.79168300  0.95620000  0.54941800  1
  Cl  Cl46  1  0.54941800  0.70831700  0.45620000  1
  Cl  Cl47  1  0.45058200  0.20831700  0.04380000  1
  Cl  Cl48  1  0.54941800  0.79168300  0.95620000  1
  Cl  Cl49  1  0.95620000  0.54941800  0.79168300  1
  Cl  Cl50  1  0.04380000  0.04941800  0.70831700  1
  Cl  Cl51  1  0.70831700  0.45620000  0.54941800  1
  Cl  Cl52  1  0.04380000  0.45058200  0.20831700  1
  Cl  Cl53  1  0.29168300  0.95620000  0.95058200  1
  Cl  Cl54  1  0.54380000  0.04941800  0.79168300  1
  Cl  Cl55  1  0.04941800  0.70831700  0.04380000  1
  Cl  Cl56  1  0.50000000  0.00000000  0.50000000  1
  Cl  Cl57  1  0.45620000  0.54941800  0.70831700  1
  Cl  Cl58  1  0.00000000  0.50000000  0.50000000  1
  Cl  Cl59  1  0.04941800  0.79168300  0.54380000  1
  Cl  Cl60  1  0.20831700  0.04380000  0.45058200  1
  Cl  Cl61  1  0.54380000  0.45058200  0.29168300  1
  Cl  Cl62  1  0.95058200  0.29168300  0.95620000  1
  Cl  Cl63  1  0.45620000  0.95058200  0.20831700  1
  Cl  Cl64  1  0.79168300  0.54380000  0.04941800  1
  Cl  Cl65  1  0.45058200  0.29168300  0.54380000  1
  Cl  Cl66  1  0.95058200  0.20831700  0.45620000  1
  Cl  Cl67  1  0.50000000  0.50000000  0.00000000  1
  Cl  Cl68  1  0.29168300  0.54380000  0.45058200  1
  Cl  Cl69  1  0.00000000  0.00000000  0.00000000  1
  Cl  Cl70  1  0.20831700  0.45620000  0.95058200  1
  Cl  Cl71  1  0.70831700  0.04380000  0.04941800  1
