# generated using pymatgen
data_Rb4Zr3Se14
_symmetry_space_group_name_H-M   'P 1'
_cell_length_a   12.32666126
_cell_length_b   12.32666126
_cell_length_c   14.57089894
_cell_angle_alpha   69.77397637
_cell_angle_beta   69.77397637
_cell_angle_gamma   41.87514442
_symmetry_Int_Tables_number   1
_chemical_formula_structural   Rb4Zr3Se14
_chemical_formula_sum   'Rb8 Zr6 Se28'
_cell_volume   1372.88562671
_cell_formula_units_Z   2
loop_
 _symmetry_equiv_pos_site_id
 _symmetry_equiv_pos_as_xyz
  1  'x, y, z'
loop_
 _atom_site_type_symbol
 _atom_site_label
 _atom_site_symmetry_multiplicity
 _atom_site_fract_x
 _atom_site_fract_y
 _atom_site_fract_z
 _atom_site_occupancy
  Rb  Rb0  1  0.02105700  0.37538500  0.89220700  1
  Rb  Rb1  1  0.62461400  0.97894300  0.60779300  1
  Rb  Rb2  1  0.97894300  0.62461400  0.10779300  1
  Rb  Rb3  1  0.37538500  0.02105700  0.39220700  1
  Rb  Rb4  1  0.18180500  0.68194100  0.64940600  1
  Rb  Rb5  1  0.31805900  0.81819500  0.85059400  1
  Rb  Rb6  1  0.81819500  0.31805900  0.35059400  1
  Rb  Rb7  1  0.68194100  0.18180500  0.14940600  1
  Zr  Zr8  1  0.92472100  0.41065600  0.58593500  1
  Zr  Zr9  1  0.58934400  0.07527900  0.91406500  1
  Zr  Zr10  1  0.07527900  0.58934400  0.41406500  1
  Zr  Zr11  1  0.41065600  0.92472100  0.08593500  1
  Zr  Zr12  1  0.76139300  0.23860700  0.75000000  1
  Zr  Zr13  1  0.23860700  0.76139300  0.25000000  1
  Se  Se14  1  0.87307400  0.19945400  0.90305500  1
  Se  Se15  1  0.80054600  0.12692600  0.59694500  1
  Se  Se16  1  0.12692600  0.80054600  0.09694500  1
  Se  Se17  1  0.19945400  0.87307400  0.40305500  1
  Se  Se18  1  0.66092400  0.46874700  0.57850800  1
  Se  Se19  1  0.53125300  0.33907600  0.92149200  1
  Se  Se20  1  0.33907600  0.53125300  0.42149200  1
  Se  Se21  1  0.46874700  0.66092400  0.07850800  1
  Se  Se22  1  0.07233100  0.09111100  0.63291300  1
  Se  Se23  1  0.90888900  0.92766900  0.86708700  1
  Se  Se24  1  0.92766900  0.90888900  0.36708700  1
  Se  Se25  1  0.09111100  0.07233100  0.13291300  1
  Se  Se26  1  0.74311400  0.45587100  0.78388300  1
  Se  Se27  1  0.54412900  0.25688600  0.71611700  1
  Se  Se28  1  0.25688600  0.54412900  0.21611700  1
  Se  Se29  1  0.45587100  0.74311400  0.28388300  1
  Se  Se30  1  0.99325500  0.56803500  0.60425200  1
  Se  Se31  1  0.43196500  0.00674500  0.89574800  1
  Se  Se32  1  0.00674500  0.43196500  0.39574800  1
  Se  Se33  1  0.56803500  0.99325500  0.10425200  1
  Se  Se34  1  0.84830400  0.80191100  0.83035700  1
  Se  Se35  1  0.19808900  0.15169600  0.66964300  1
  Se  Se36  1  0.15169600  0.19808900  0.16964300  1
  Se  Se37  1  0.80191100  0.84830400  0.33035700  1
  Se  Se38  1  0.30415300  0.40389500  0.89061600  1
  Se  Se39  1  0.59610500  0.69584700  0.60938400  1
  Se  Se40  1  0.69584700  0.59610500  0.10938400  1
  Se  Se41  1  0.40389500  0.30415300  0.39061600  1
