# generated using pymatgen
data_BaNbTePO8
_symmetry_space_group_name_H-M   'P 1'
_cell_length_a   6.85295000
_cell_length_b   7.69509100
_cell_length_c   27.85648400
_cell_angle_alpha   90.00000000
_cell_angle_beta   90.00000000
_cell_angle_gamma   90.00000000
_symmetry_Int_Tables_number   1
_chemical_formula_structural   BaNbTePO8
_chemical_formula_sum   'Ba8 Nb8 Te8 P8 O64'
_cell_volume   1468.98588497
_cell_formula_units_Z   8
loop_
 _symmetry_equiv_pos_site_id
 _symmetry_equiv_pos_as_xyz
  1  'x, y, z'
loop_
 _atom_site_type_symbol
 _atom_site_label
 _atom_site_symmetry_multiplicity
 _atom_site_fract_x
 _atom_site_fract_y
 _atom_site_fract_z
 _atom_site_occupancy
  Ba  Ba0  1  0.96952900  0.35773000  0.80103900  1
  Ba  Ba1  1  0.46952900  0.14227000  0.19896100  1
  Ba  Ba2  1  0.53047100  0.64227000  0.30103900  1
  Ba  Ba3  1  0.46952900  0.35773000  0.69896100  1
  Ba  Ba4  1  0.96952900  0.14227000  0.30103900  1
  Ba  Ba5  1  0.03047100  0.85773000  0.69896100  1
  Ba  Ba6  1  0.53047100  0.85773000  0.80103900  1
  Ba  Ba7  1  0.03047100  0.64227000  0.19896100  1
  Nb  Nb8  1  0.23628400  0.58444100  0.43534100  1
  Nb  Nb9  1  0.73628400  0.91555900  0.56465900  1
  Nb  Nb10  1  0.76371600  0.08444100  0.06465900  1
  Nb  Nb11  1  0.76371600  0.41555900  0.56465900  1
  Nb  Nb12  1  0.26371600  0.41555900  0.93534100  1
  Nb  Nb13  1  0.26371600  0.08444100  0.43534100  1
  Nb  Nb14  1  0.23628400  0.91555900  0.93534100  1
  Nb  Nb15  1  0.73628400  0.58444100  0.06465900  1
  Te  Te16  1  0.29277200  0.63855900  0.57250700  1
  Te  Te17  1  0.79277200  0.86144100  0.42749300  1
  Te  Te18  1  0.70722800  0.36144100  0.42749300  1
  Te  Te19  1  0.29277200  0.86144100  0.07250700  1
  Te  Te20  1  0.79277200  0.63855900  0.92749300  1
  Te  Te21  1  0.20722800  0.13855900  0.57250700  1
  Te  Te22  1  0.70722800  0.13855900  0.92749300  1
  Te  Te23  1  0.20722800  0.36144100  0.07250700  1
  P  P24  1  0.03497400  0.82288100  0.82312400  1
  P  P25  1  0.46502600  0.32288100  0.82312400  1
  P  P26  1  0.96502600  0.32288100  0.67687600  1
  P  P27  1  0.46502600  0.17711900  0.32312400  1
  P  P28  1  0.53497400  0.82288100  0.67687600  1
  P  P29  1  0.53497400  0.67711900  0.17687600  1
  P  P30  1  0.96502600  0.17711900  0.17687600  1
  P  P31  1  0.03497400  0.67711900  0.32312400  1
  O  O32  1  0.97253200  0.04921800  0.41723500  1
  O  O33  1  0.82114400  0.85065300  0.06843800  1
  O  O34  1  0.19041300  0.88647200  0.86072100  1
  O  O35  1  0.69041300  0.88647200  0.63927900  1
  O  O36  1  0.02746800  0.95078200  0.58276500  1
  O  O37  1  0.14634200  0.71323600  0.78553400  1
  O  O38  1  0.95882400  0.66717400  0.44043500  1
  O  O39  1  0.52746800  0.54921800  0.41723500  1
  O  O40  1  0.67885600  0.14934700  0.56843800  1
  O  O41  1  0.02746800  0.54921800  0.08276500  1
  O  O42  1  0.71650900  0.40694500  0.49653700  1
  O  O43  1  0.67885600  0.35065300  0.06843800  1
  O  O44  1  0.17885600  0.35065300  0.43156200  1
  O  O45  1  0.45882400  0.66717400  0.05956500  1
  O  O46  1  0.45882400  0.83282600  0.55956500  1
  O  O47  1  0.64634200  0.71323600  0.71446600  1
  O  O48  1  0.28349100  0.59305500  0.50346300  1
  O  O49  1  0.87473900  0.70683200  0.84805400  1
  O  O50  1  0.12526100  0.29316800  0.15194600  1
  O  O51  1  0.93124400  0.52331200  0.29859800  1
  O  O52  1  0.43124400  0.52331200  0.20140200  1
  O  O53  1  0.06875600  0.47668800  0.70140200  1
  O  O54  1  0.32114400  0.85065300  0.43156200  1
  O  O55  1  0.19041300  0.61352800  0.36072100  1
  O  O56  1  0.21650900  0.09305500  0.50346300  1
  O  O57  1  0.28349100  0.90694500  0.00346300  1
  O  O58  1  0.80958700  0.38647200  0.63927900  1
  O  O59  1  0.78349100  0.90694500  0.49653700  1
  O  O60  1  0.62526100  0.20683200  0.84805400  1
  O  O61  1  0.04117600  0.16717400  0.05956500  1
  O  O62  1  0.95882400  0.83282600  0.94043500  1
  O  O63  1  0.54117600  0.16717400  0.44043500  1
  O  O64  1  0.35365800  0.28676400  0.28553400  1
  O  O65  1  0.35365800  0.21323600  0.78553400  1
  O  O66  1  0.37473900  0.70683200  0.65194600  1
  O  O67  1  0.69041300  0.61352800  0.13927900  1
  O  O68  1  0.93124400  0.97668800  0.79859800  1
  O  O69  1  0.47253200  0.04921800  0.08276500  1
  O  O70  1  0.06875600  0.02331200  0.20140200  1
  O  O71  1  0.47253200  0.45078200  0.58276500  1
  O  O72  1  0.82114400  0.64934700  0.56843800  1
  O  O73  1  0.43124400  0.97668800  0.70140200  1
  O  O74  1  0.17885600  0.14934700  0.93156200  1
  O  O75  1  0.80958700  0.11352800  0.13927900  1
  O  O76  1  0.37473900  0.79316800  0.15194600  1
  O  O77  1  0.14634200  0.78676400  0.28553400  1
  O  O78  1  0.32114400  0.64934700  0.93156200  1
  O  O79  1  0.71650900  0.09305500  0.99653700  1
  O  O80  1  0.54117600  0.33282600  0.94043500  1
  O  O81  1  0.78349100  0.59305500  0.99653700  1
  O  O82  1  0.56875600  0.02331200  0.29859800  1
  O  O83  1  0.30958700  0.11352800  0.36072100  1
  O  O84  1  0.52746800  0.95078200  0.91723500  1
  O  O85  1  0.64634200  0.78676400  0.21446600  1
  O  O86  1  0.30958700  0.38647200  0.86072100  1
  O  O87  1  0.85365800  0.21323600  0.71446600  1
  O  O88  1  0.12526100  0.20683200  0.65194600  1
  O  O89  1  0.21650900  0.40694500  0.00346300  1
  O  O90  1  0.62526100  0.29316800  0.34805400  1
  O  O91  1  0.85365800  0.28676400  0.21446600  1
  O  O92  1  0.04117600  0.33282600  0.55956500  1
  O  O93  1  0.97253200  0.45078200  0.91723500  1
  O  O94  1  0.87473900  0.79316800  0.34805400  1
  O  O95  1  0.56875600  0.47668800  0.79859800  1
