# generated using pymatgen
data_KSnPO5
_symmetry_space_group_name_H-M   'P 1'
_cell_length_a   6.63629600
_cell_length_b   10.90101100
_cell_length_c   13.37912800
_cell_angle_alpha   90.00000000
_cell_angle_beta   90.00000000
_cell_angle_gamma   90.00000000
_symmetry_Int_Tables_number   1
_chemical_formula_structural   KSnPO5
_chemical_formula_sum   'K8 Sn8 P8 O40'
_cell_volume   967.87736909
_cell_formula_units_Z   8
loop_
 _symmetry_equiv_pos_site_id
 _symmetry_equiv_pos_as_xyz
  1  'x, y, z'
loop_
 _atom_site_type_symbol
 _atom_site_label
 _atom_site_symmetry_multiplicity
 _atom_site_fract_x
 _atom_site_fract_y
 _atom_site_fract_z
 _atom_site_occupancy
  K  K0  1  0.30618900  0.43995700  0.89080300  1
  K  K1  1  0.22405000  0.19943600  0.62533700  1
  K  K2  1  0.19381100  0.43995700  0.39080300  1
  K  K3  1  0.69381100  0.93995700  0.10919700  1
  K  K4  1  0.77595000  0.69943600  0.37466300  1
  K  K5  1  0.80618900  0.93995700  0.60919700  1
  K  K6  1  0.72405000  0.69943600  0.87466300  1
  K  K7  1  0.27595000  0.19943600  0.12533700  1
  Sn  Sn8  1  0.74512900  0.25046600  0.75157300  1
  Sn  Sn9  1  0.75487100  0.25046600  0.25157300  1
  Sn  Sn10  1  0.99771700  0.50150500  0.12755400  1
  Sn  Sn11  1  0.49771700  0.00150500  0.37244600  1
  Sn  Sn12  1  0.00228300  0.00150500  0.87244600  1
  Sn  Sn13  1  0.50228300  0.50150500  0.62755400  1
  Sn  Sn14  1  0.25487100  0.75046600  0.24842700  1
  Sn  Sn15  1  0.24512900  0.75046600  0.74842700  1
  P  P16  1  0.34166400  0.75171900  0.50123100  1
  P  P17  1  0.49849700  0.99856200  0.82432000  1
  P  P18  1  0.15833600  0.75171900  0.00123100  1
  P  P19  1  0.50150300  0.49856200  0.17568000  1
  P  P20  1  0.99849700  0.49856200  0.67568000  1
  P  P21  1  0.00150300  0.99856200  0.32432000  1
  P  P22  1  0.65833600  0.25171900  0.49876900  1
  P  P23  1  0.84166400  0.25171900  0.99876900  1
  O  O24  1  0.79404100  0.22954300  0.59134200  1
  O  O25  1  0.03427100  0.62576900  0.23693400  1
  O  O26  1  0.47155200  0.88483300  0.75536900  1
  O  O27  1  0.70595900  0.22954300  0.09134200  1
  O  O28  1  0.01395200  0.86395100  0.77145600  1
  O  O29  1  0.20595900  0.72954300  0.40865800  1
  O  O30  1  0.68241600  0.97608500  0.89426000  1
  O  O31  1  0.48739800  0.86325200  0.48695600  1
  O  O32  1  0.46572900  0.62576900  0.73693400  1
  O  O33  1  0.18241600  0.47608500  0.60574000  1
  O  O34  1  0.01260200  0.86325200  0.98695600  1
  O  O35  1  0.81758400  0.97608500  0.39426000  1
  O  O36  1  0.52054500  0.13602600  0.48547000  1
  O  O37  1  0.53427100  0.12576900  0.26306600  1
  O  O38  1  0.96942900  0.10740300  0.25132200  1
  O  O39  1  0.51395200  0.36395100  0.72854400  1
  O  O40  1  0.29404100  0.72954300  0.90865800  1
  O  O41  1  0.03057100  0.60740300  0.74867800  1
  O  O42  1  0.20210500  0.77413800  0.59205700  1
  O  O43  1  0.02844800  0.88483300  0.25536900  1
  O  O44  1  0.31758400  0.47608500  0.10574000  1
  O  O45  1  0.31500500  0.02235700  0.89320800  1
  O  O46  1  0.70210500  0.27413800  0.90794300  1
  O  O47  1  0.96572900  0.12576900  0.76306600  1
  O  O48  1  0.53057100  0.10740300  0.75132200  1
  O  O49  1  0.98739800  0.36325200  0.01304400  1
  O  O50  1  0.02054500  0.63602600  0.01453000  1
  O  O51  1  0.18499500  0.02235700  0.39320800  1
  O  O52  1  0.98604800  0.36395100  0.22854400  1
  O  O53  1  0.68499500  0.52235700  0.10679200  1
  O  O54  1  0.79789500  0.27413800  0.40794300  1
  O  O55  1  0.97945500  0.13602600  0.98547000  1
  O  O56  1  0.46942900  0.60740300  0.24867800  1
  O  O57  1  0.97155200  0.38483300  0.74463100  1
  O  O58  1  0.81500500  0.52235700  0.60679200  1
  O  O59  1  0.52844800  0.38483300  0.24463100  1
  O  O60  1  0.47945500  0.63602600  0.51453000  1
  O  O61  1  0.29789500  0.77413800  0.09205700  1
  O  O62  1  0.51260200  0.36325200  0.51304400  1
  O  O63  1  0.48604800  0.86395100  0.27145600  1
