# generated using pymatgen
data_Li2Ti6PbO14
_symmetry_space_group_name_H-M   'P 1'
_cell_length_a   10.11515062
_cell_length_b   10.11515062
_cell_length_c   11.58463100
_cell_angle_alpha   90.00000000
_cell_angle_beta   90.00000000
_cell_angle_gamma   112.49334530
_symmetry_Int_Tables_number   1
_chemical_formula_structural   Li2Ti6PbO14
_chemical_formula_sum   'Li8 Ti24 Pb4 O56'
_cell_volume   1095.12362837
_cell_formula_units_Z   4
loop_
 _symmetry_equiv_pos_site_id
 _symmetry_equiv_pos_as_xyz
  1  'x, y, z'
loop_
 _atom_site_type_symbol
 _atom_site_label
 _atom_site_symmetry_multiplicity
 _atom_site_fract_x
 _atom_site_fract_y
 _atom_site_fract_z
 _atom_site_occupancy
  Li  Li0  1  0.43133700  0.05894800  0.12363800  1
  Li  Li1  1  0.06866300  0.44105200  0.62363800  1
  Li  Li2  1  0.93133700  0.55894800  0.37636200  1
  Li  Li3  1  0.55894800  0.93133700  0.37636200  1
  Li  Li4  1  0.94105200  0.56866300  0.87636200  1
  Li  Li5  1  0.56866300  0.94105200  0.87636200  1
  Li  Li6  1  0.44105200  0.06866300  0.62363800  1
  Li  Li7  1  0.05894800  0.43133700  0.12363800  1
  Ti  Ti8  1  0.77521200  0.98929800  0.11696400  1
  Ti  Ti9  1  0.25678000  0.75678000  0.75000000  1
  Ti  Ti10  1  0.98662800  0.76897900  0.63556600  1
  Ti  Ti11  1  0.75678000  0.25678000  0.75000000  1
  Ti  Ti12  1  0.73102100  0.51337200  0.13556600  1
  Ti  Ti13  1  0.24322000  0.74322000  0.25000000  1
  Ti  Ti14  1  0.74363000  0.25637000  0.00000000  1
  Ti  Ti15  1  0.01070200  0.22478800  0.88303600  1
  Ti  Ti16  1  0.75637000  0.24363000  0.50000000  1
  Ti  Ti17  1  0.74322000  0.24322000  0.25000000  1
  Ti  Ti18  1  0.76897900  0.98662800  0.63556600  1
  Ti  Ti19  1  0.22478800  0.01070200  0.88303600  1
  Ti  Ti20  1  0.98929800  0.77521200  0.11696400  1
  Ti  Ti21  1  0.25637000  0.74363000  0.00000000  1
  Ti  Ti22  1  0.48929800  0.27521200  0.38303600  1
  Ti  Ti23  1  0.24363000  0.75637000  0.50000000  1
  Ti  Ti24  1  0.26897900  0.48662800  0.86443400  1
  Ti  Ti25  1  0.51337200  0.73102100  0.13556600  1
  Ti  Ti26  1  0.23102100  0.01337200  0.36443400  1
  Ti  Ti27  1  0.51070200  0.72478800  0.61696400  1
  Ti  Ti28  1  0.01337200  0.23102100  0.36443400  1
  Ti  Ti29  1  0.27521200  0.48929800  0.38303600  1
  Ti  Ti30  1  0.72478800  0.51070200  0.61696400  1
  Ti  Ti31  1  0.48662800  0.26897900  0.86443400  1
  Pb  Pb32  1  0.34179800  0.34179800  0.12038400  1
  Pb  Pb33  1  0.15820200  0.15820200  0.62038400  1
  Pb  Pb34  1  0.65820200  0.65820200  0.87961600  1
  Pb  Pb35  1  0.84179800  0.84179800  0.37961600  1
  O  O36  1  0.85743000  0.64021800  0.73771400  1
  O  O37  1  0.35743000  0.14021800  0.76228600  1
  O  O38  1  0.35583200  0.13982800  0.48527600  1
  O  O39  1  0.14583200  0.61903800  0.37732700  1
  O  O40  1  0.64416800  0.86017200  0.51472400  1
  O  O41  1  0.86017200  0.64416800  0.51472400  1
  O  O42  1  0.65161200  0.12020800  0.62745800  1
  O  O43  1  0.62890100  0.36385800  0.25021600  1
  O  O44  1  0.85416800  0.38096200  0.62267300  1
  O  O45  1  0.41099500  0.41099500  0.36948800  1
  O  O46  1  0.35416800  0.88096200  0.87732700  1
  O  O47  1  0.14257000  0.35978200  0.26228600  1
  O  O48  1  0.58900500  0.58900500  0.63051200  1
  O  O49  1  0.13372200  0.86627800  0.00000000  1
  O  O50  1  0.37109900  0.63614200  0.74978400  1
  O  O51  1  0.63614200  0.37109900  0.74978400  1
  O  O52  1  0.41729900  0.41729900  0.87857600  1
  O  O53  1  0.58270100  0.58270100  0.12142400  1
  O  O54  1  0.08900500  0.08900500  0.86948800  1
  O  O55  1  0.36385800  0.62890100  0.25021600  1
  O  O56  1  0.37979200  0.84838800  0.12745800  1
  O  O57  1  0.63372200  0.36627800  0.50000000  1
  O  O58  1  0.84838800  0.37979200  0.12745800  1
  O  O59  1  0.36017200  0.14416800  0.98527600  1
  O  O60  1  0.13089500  0.86910500  0.50000000  1
  O  O61  1  0.14416800  0.36017200  0.98527600  1
  O  O62  1  0.15161200  0.62020800  0.87254200  1
  O  O63  1  0.63089500  0.36910500  0.00000000  1
  O  O64  1  0.87979200  0.34838800  0.37254200  1
  O  O65  1  0.08270100  0.08270100  0.37857600  1
  O  O66  1  0.86910500  0.13089500  0.50000000  1
  O  O67  1  0.91729900  0.91729900  0.62142400  1
  O  O68  1  0.86627800  0.13372200  0.00000000  1
  O  O69  1  0.13982800  0.35583200  0.48527600  1
  O  O70  1  0.64583200  0.11903800  0.12267300  1
  O  O71  1  0.62020800  0.15161200  0.87254200  1
  O  O72  1  0.36627800  0.63372200  0.50000000  1
  O  O73  1  0.85978200  0.64257000  0.23771400  1
  O  O74  1  0.12020800  0.65161200  0.62745800  1
  O  O75  1  0.85583200  0.63982800  0.01472400  1
  O  O76  1  0.87109900  0.13614200  0.75021600  1
  O  O77  1  0.34838800  0.87979200  0.37254200  1
  O  O78  1  0.91099500  0.91099500  0.13051200  1
  O  O79  1  0.63982800  0.85583200  0.01472400  1
  O  O80  1  0.13614200  0.87109900  0.75021600  1
  O  O81  1  0.11903800  0.64583200  0.12267300  1
  O  O82  1  0.61903800  0.14583200  0.37732700  1
  O  O83  1  0.35978200  0.14257000  0.26228600  1
  O  O84  1  0.38096200  0.85416800  0.62267300  1
  O  O85  1  0.64021800  0.85743000  0.73771400  1
  O  O86  1  0.88096200  0.35416800  0.87732700  1
  O  O87  1  0.12890100  0.86385800  0.24978400  1
  O  O88  1  0.36910500  0.63089500  0.00000000  1
  O  O89  1  0.64257000  0.85978200  0.23771400  1
  O  O90  1  0.86385800  0.12890100  0.24978400  1
  O  O91  1  0.14021800  0.35743000  0.76228600  1
