# generated using pymatgen
data_Li3CrF6
_symmetry_space_group_name_H-M   'P 1'
_cell_length_a   8.54071862
_cell_length_b   8.54071862
_cell_length_c   10.23516472
_cell_angle_alpha   85.95027637
_cell_angle_beta   85.95027637
_cell_angle_gamma   61.75201256
_symmetry_Int_Tables_number   1
_chemical_formula_structural   Li3CrF6
_chemical_formula_sum   'Li18 Cr6 F36'
_cell_volume   655.44868623
_cell_formula_units_Z   6
loop_
 _symmetry_equiv_pos_site_id
 _symmetry_equiv_pos_as_xyz
  1  'x, y, z'
loop_
 _atom_site_type_symbol
 _atom_site_label
 _atom_site_symmetry_multiplicity
 _atom_site_fract_x
 _atom_site_fract_y
 _atom_site_fract_z
 _atom_site_occupancy
  Li  Li0  1  0.71275000  0.00739800  0.76997500  1
  Li  Li1  1  0.99260200  0.28725000  0.73002500  1
  Li  Li2  1  0.28725000  0.99260200  0.23002500  1
  Li  Li3  1  0.00739800  0.71275000  0.26997500  1
  Li  Li4  1  0.32601400  0.62796000  0.03831600  1
  Li  Li5  1  0.37204000  0.67398600  0.46168400  1
  Li  Li6  1  0.87551300  0.45928600  0.44836500  1
  Li  Li7  1  0.54071400  0.12448700  0.05163500  1
  Li  Li8  1  0.12448700  0.54071400  0.55163500  1
  Li  Li9  1  0.45928600  0.87551300  0.94836500  1
  Li  Li10  1  0.05979700  0.34426000  0.06806400  1
  Li  Li11  1  0.65574000  0.94020300  0.43193600  1
  Li  Li12  1  0.94020300  0.65574000  0.93193600  1
  Li  Li13  1  0.34426000  0.05979700  0.56806400  1
  Li  Li14  1  0.18810700  0.81189300  0.75000000  1
  Li  Li15  1  0.81189300  0.18810700  0.25000000  1
  Li  Li16  1  0.67398600  0.37204000  0.96168400  1
  Li  Li17  1  0.62796000  0.32601400  0.53831600  1
  Cr  Cr18  1  0.66580900  0.66090900  0.20391600  1
  Cr  Cr19  1  0.33909100  0.33419100  0.29608400  1
  Cr  Cr20  1  0.33419100  0.33909100  0.79608400  1
  Cr  Cr21  1  0.66090900  0.66580900  0.70391600  1
  Cr  Cr22  1  0.00000000  0.00000000  0.50000000  1
  Cr  Cr23  1  0.00000000  0.00000000  0.00000000  1
  F  F24  1  0.24066400  0.55820900  0.19466100  1
  F  F25  1  0.22664800  0.26809000  0.66301300  1
  F  F26  1  0.26809000  0.22664800  0.16301300  1
  F  F27  1  0.77335200  0.73191000  0.33698700  1
  F  F28  1  0.76020800  0.08611300  0.93772700  1
  F  F29  1  0.91388700  0.23979200  0.56227300  1
  F  F30  1  0.23979200  0.91388700  0.06227300  1
  F  F31  1  0.08611300  0.76020800  0.43772700  1
  F  F32  1  0.73191000  0.77335200  0.83698700  1
  F  F33  1  0.76146700  0.09287500  0.43449000  1
  F  F34  1  0.09287500  0.76146700  0.93449000  1
  F  F35  1  0.23853300  0.90712500  0.56551000  1
  F  F36  1  0.44179100  0.75933600  0.30533900  1
  F  F37  1  0.43075000  0.41157500  0.93399700  1
  F  F38  1  0.41157500  0.43075000  0.43399700  1
  F  F39  1  0.56925000  0.58842500  0.06600300  1
  F  F40  1  0.58343300  0.89368000  0.60566200  1
  F  F41  1  0.10632000  0.41656700  0.89433800  1
  F  F42  1  0.41656700  0.10632000  0.39433800  1
  F  F43  1  0.89368000  0.58343300  0.10566200  1
  F  F44  1  0.92218100  0.93397500  0.16691000  1
  F  F45  1  0.06602500  0.07781900  0.33309000  1
  F  F46  1  0.07781900  0.06602500  0.83309000  1
  F  F47  1  0.93397500  0.92218100  0.66691000  1
  F  F48  1  0.75933600  0.44179100  0.80533900  1
  F  F49  1  0.55820900  0.24066400  0.69466100  1
  F  F50  1  0.10792000  0.43034800  0.38984100  1
  F  F51  1  0.58842500  0.56925000  0.56600300  1
  F  F52  1  0.89208000  0.56965200  0.61015900  1
  F  F53  1  0.43034800  0.10792000  0.88984100  1
  F  F54  1  0.24428800  0.56669800  0.69767300  1
  F  F55  1  0.43330200  0.75571200  0.80232700  1
  F  F56  1  0.75571200  0.43330200  0.30232700  1
  F  F57  1  0.56669800  0.24428800  0.19767300  1
  F  F58  1  0.90712500  0.23853300  0.06551000  1
  F  F59  1  0.56965200  0.89208000  0.11015900  1
