# generated using pymatgen
data_Lu11Te4
_symmetry_space_group_name_H-M   'P 1'
_cell_length_a   15.44275952
_cell_length_b   15.44275952
_cell_length_c   21.27051978
_cell_angle_alpha   77.30944878
_cell_angle_beta   77.30944878
_cell_angle_gamma   14.68248088
_symmetry_Int_Tables_number   1
_chemical_formula_structural   Lu11Te4
_chemical_formula_sum   'Lu33 Te12'
_cell_volume   1253.76752524
_cell_formula_units_Z   3
loop_
 _symmetry_equiv_pos_site_id
 _symmetry_equiv_pos_as_xyz
  1  'x, y, z'
loop_
 _atom_site_type_symbol
 _atom_site_label
 _atom_site_symmetry_multiplicity
 _atom_site_fract_x
 _atom_site_fract_y
 _atom_site_fract_z
 _atom_site_occupancy
  Lu  Lu0  1  0.74503000  0.74503000  0.07299500  1
  Lu  Lu1  1  0.03202000  0.03202000  0.16531200  1
  Lu  Lu2  1  0.96798000  0.96798000  0.83468800  1
  Lu  Lu3  1  0.17212400  0.17212400  0.43492100  1
  Lu  Lu4  1  0.57419800  0.57419800  0.03785200  1
  Lu  Lu5  1  0.71430900  0.71430900  0.54394800  1
  Lu  Lu6  1  0.39381000  0.39381000  0.77895700  1
  Lu  Lu7  1  0.75742700  0.75742700  0.34568700  1
  Lu  Lu8  1  0.56142200  0.56142200  0.41370800  1
  Lu  Lu9  1  0.53603800  0.53603800  0.69207700  1
  Lu  Lu10  1  0.42580200  0.42580200  0.96214800  1
  Lu  Lu11  1  0.87310000  0.87310000  0.09220100  1
  Lu  Lu12  1  0.13071100  0.13071100  0.63092000  1
  Lu  Lu13  1  0.60619000  0.60619000  0.22104300  1
  Lu  Lu14  1  0.12690000  0.12690000  0.90779900  1
  Lu  Lu15  1  0.82787600  0.82787600  0.56507900  1
  Lu  Lu16  1  0.43857800  0.43857800  0.58629200  1
  Lu  Lu17  1  0.25497000  0.25497000  0.92700500  1
  Lu  Lu18  1  0.96812400  0.96812400  0.44490100  1
  Lu  Lu19  1  0.20389300  0.20389300  0.21887000  1
  Lu  Lu20  1  0.28569100  0.28569100  0.45605200  1
  Lu  Lu21  1  0.86928900  0.86928900  0.36908000  1
  Lu  Lu22  1  0.00000000  0.00000000  0.00000000  1
  Lu  Lu23  1  0.79610700  0.79610700  0.78113000  1
  Lu  Lu24  1  0.46396200  0.46396200  0.30792300  1
  Lu  Lu25  1  0.65913000  0.65913000  0.74511700  1
  Lu  Lu26  1  0.34087000  0.34087000  0.25488300  1
  Lu  Lu27  1  0.54348800  0.54348800  0.88221900  1
  Lu  Lu28  1  0.15088100  0.15088100  0.09602900  1
  Lu  Lu29  1  0.84911900  0.84911900  0.90397100  1
  Lu  Lu30  1  0.45651200  0.45651200  0.11778100  1
  Lu  Lu31  1  0.03187600  0.03187600  0.55509900  1
  Lu  Lu32  1  0.24257300  0.24257300  0.65431300  1
  Te  Te33  1  0.78404200  0.78404200  0.19437800  1
  Te  Te34  1  0.95810300  0.95810300  0.68923200  1
  Te  Te35  1  0.61263500  0.61263500  0.52744000  1
  Te  Te36  1  0.21595800  0.21595800  0.80562200  1
  Te  Te37  1  0.07998600  0.07998600  0.77461000  1
  Te  Te38  1  0.38736500  0.38736500  0.47256000  1
  Te  Te39  1  0.04189700  0.04189700  0.31076800  1
  Te  Te40  1  0.65819300  0.65819300  0.32828800  1
  Te  Te41  1  0.92001400  0.92001400  0.22539000  1
  Te  Te42  1  0.67822500  0.67822500  0.97998000  1
  Te  Te43  1  0.32177500  0.32177500  0.02002000  1
  Te  Te44  1  0.34180700  0.34180700  0.67171200  1
