# generated using pymatgen
data_Ca14MnP11
_symmetry_space_group_name_H-M   'P 1'
_cell_length_a   14.90528392
_cell_length_b   14.90528392
_cell_length_c   14.90528392
_cell_angle_alpha   118.15836137
_cell_angle_beta   118.10258505
_cell_angle_gamma   93.26981990
_symmetry_Int_Tables_number   1
_chemical_formula_structural   Ca14MnP11
_chemical_formula_sum   'Ca56 Mn4 P44'
_cell_volume   2403.49565578
_cell_formula_units_Z   4
loop_
 _symmetry_equiv_pos_site_id
 _symmetry_equiv_pos_as_xyz
  1  'x, y, z'
loop_
 _atom_site_type_symbol
 _atom_site_label
 _atom_site_symmetry_multiplicity
 _atom_site_fract_x
 _atom_site_fract_y
 _atom_site_fract_z
 _atom_site_occupancy
  Ca  Ca0  1  0.50000000  0.35178300  0.85178300  1
  Ca  Ca1  1  0.64546700  0.62343800  0.11466900  1
  Ca  Ca2  1  0.87792300  0.84048300  0.37920700  1
  Ca  Ca3  1  0.58573800  0.50077000  0.77147000  1
  Ca  Ca4  1  0.72935800  0.37262600  0.09656400  1
  Ca  Ca5  1  0.46127500  0.34048300  0.46256000  1
  Ca  Ca6  1  0.36677300  0.26845600  0.14765700  1
  Ca  Ca7  1  0.86713500  0.72340700  0.09676000  1
  Ca  Ca8  1  0.69566600  0.27439100  0.77934500  1
  Ca  Ca9  1  0.14454700  0.99565400  0.64785200  1
  Ca  Ca10  1  0.96999200  0.49331700  0.11455000  1
  Ca  Ca11  1  0.12079900  0.76845600  0.40168300  1
  Ca  Ca12  1  0.85545300  0.50330500  0.85110700  1
  Ca  Ca13  1  0.41426200  0.18573200  0.91503200  1
  Ca  Ca14  1  0.77410400  0.49869200  0.58381900  1
  Ca  Ca15  1  0.30433400  0.08367900  0.57872500  1
  Ca  Ca16  1  0.99776000  0.72976200  0.91038800  1
  Ca  Ca17  1  0.23203300  0.13347900  0.35209500  1
  Ca  Ca18  1  0.87920100  0.28088400  0.64765700  1
  Ca  Ca19  1  0.78138400  0.63347900  0.40144600  1
  Ca  Ca20  1  0.00224000  0.91262800  0.73200200  1
  Ca  Ca21  1  0.15926200  0.03819500  0.03849900  1
  Ca  Ca22  1  0.27070000  0.68573200  0.27147000  1
  Ca  Ca23  1  0.12207700  0.50128500  0.96256000  1
  Ca  Ca24  1  0.00000000  0.64798400  0.64798400  1
  Ca  Ca25  1  0.49123100  0.96920300  0.61466900  1
  Ca  Ca26  1  0.27606200  0.87262600  0.14326800  1
  Ca  Ca27  1  0.00030300  0.37923600  0.53849900  1
  Ca  Ca28  1  0.50876900  0.12343800  0.47797100  1
  Ca  Ca29  1  0.21861600  0.62006200  0.85209500  1
  Ca  Ca30  1  0.99969700  0.53819500  0.37893300  1
  Ca  Ca31  1  0.50000000  0.85178300  0.35178300  1
  Ca  Ca32  1  0.37876700  0.99331700  0.02332500  1
  Ca  Ca33  1  0.22589600  0.80971600  0.72458900  1
  Ca  Ca34  1  0.35453300  0.46920300  0.97797100  1
  Ca  Ca35  1  0.50495400  0.58367900  0.27934500  1
  Ca  Ca36  1  0.72393800  0.86720500  0.59656400  1
  Ca  Ca37  1  0.62664700  0.22340700  0.35627200  1
  Ca  Ca38  1  0.27064200  0.36720500  0.64326800  1
  Ca  Ca39  1  0.49504600  0.77439100  0.07872500  1
  Ca  Ca40  1  0.18062600  0.41262800  0.41038800  1
  Ca  Ca41  1  0.72930000  0.00077000  0.41503200  1
  Ca  Ca42  1  0.08512700  0.30971600  0.08381900  1
  Ca  Ca43  1  0.65219800  0.00330500  0.14785200  1
  Ca  Ca44  1  0.37335300  0.72962500  0.59676000  1
  Ca  Ca45  1  0.53872500  0.00128500  0.87920700  1
  Ca  Ca46  1  0.34780200  0.49565400  0.35110700  1
  Ca  Ca47  1  0.81937400  0.22976200  0.23200200  1
  Ca  Ca48  1  0.63322700  0.78088400  0.90168300  1
  Ca  Ca49  1  0.13286500  0.22962500  0.85627200  1
  Ca  Ca50  1  0.03000800  0.14455900  0.52332500  1
  Ca  Ca51  1  0.76796700  0.12006200  0.90144600  1
  Ca  Ca52  1  0.91487300  0.99869200  0.22458900  1
  Ca  Ca53  1  0.62123300  0.64455900  0.61455000  1
  Ca  Ca54  1  0.84073800  0.87923600  0.87893300  1
  Ca  Ca55  1  0.00000000  0.14798400  0.14798400  1
  Mn  Mn56  1  0.62569600  0.37399000  0.24966600  1
  Mn  Mn57  1  0.12432400  0.87399000  0.24829400  1
  Mn  Mn58  1  0.87567600  0.12397000  0.74966600  1
  Mn  Mn59  1  0.37430400  0.62397000  0.74829400  1
  P  P60  1  0.55359200  0.43242300  0.11160400  1
  P  P61  1  0.42603900  0.26957500  0.60391300  1
  P  P62  1  0.74631200  0.49624800  0.99187700  1
  P  P63  1  0.85536300  0.60568900  0.21091700  1
  P  P64  1  0.76895200  0.66883300  0.84568400  1
  P  P65  1  0.55764200  0.44313600  0.37887500  1
  P  P66  1  0.06426100  0.94313600  0.38549400  1
  P  P67  1  0.25368800  0.24556500  0.74993600  1
  P  P68  1  0.67819200  0.33516100  0.60730700  1
  P  P69  1  0.05375900  0.94209700  0.12011600  1
  P  P70  1  0.83171500  0.72863900  0.65434900  1
  P  P71  1  0.32180800  0.92911500  0.65696900  1
  P  P72  1  0.05869800  0.67840700  0.10901500  1
  P  P73  1  0.93573900  0.32123300  0.87887500  1
  P  P74  1  0.98793800  0.51343800  0.75031200  1
  P  P75  1  0.82198000  0.44209700  0.38833800  1
  P  P76  1  0.32081900  0.93242300  0.37883100  1
  P  P77  1  0.57396100  0.17787400  0.84353600  1
  P  P78  1  0.16828500  0.82263400  0.89692300  1
  P  P79  1  0.27214600  0.42911500  0.10730700  1
  P  P80  1  0.01206200  0.76237300  0.52550000  1
  P  P81  1  0.49562900  0.74556500  0.49187700  1
  P  P82  1  0.39477300  0.10568900  0.25032600  1
  P  P83  1  0.23104800  0.07673300  0.89988100  1
  P  P84  1  0.14463700  0.35555400  0.75032600  1
  P  P85  1  0.33433800  0.67787400  0.10391300  1
  P  P86  1  0.92571100  0.32263400  0.15434900  1
  P  P87  1  0.17802000  0.56635700  0.62011600  1
  P  P88  1  0.67918100  0.05801200  0.61160400  1
  P  P89  1  0.50437100  0.99624800  0.24993600  1
  P  P90  1  0.56939200  0.17840700  0.11970900  1
  P  P91  1  0.44235800  0.82123300  0.88549400  1
  P  P92  1  0.17685200  0.57673300  0.34568400  1
  P  P93  1  0.66566200  0.76957500  0.34353600  1
  P  P94  1  0.44640800  0.55801200  0.87883100  1
  P  P95  1  0.82314800  0.16883300  0.39988100  1
  P  P96  1  0.23687300  0.26237300  0.25031200  1
  P  P97  1  0.43060800  0.55031700  0.60901500  1
  P  P98  1  0.94130200  0.05031700  0.61970900  1
  P  P99  1  0.72785400  0.83516100  0.15696900  1
  P  P100  1  0.76312700  0.01343800  0.02550000  1
  P  P101  1  0.60522700  0.85555400  0.71091700  1
  P  P102  1  0.07428900  0.22863900  0.39692300  1
  P  P103  1  0.94624100  0.06635700  0.88833800  1
