# generated using pymatgen
data_Tl2CN2
_symmetry_space_group_name_H-M   'P 1'
_cell_length_a   5.40073800
_cell_length_b   7.08841580
_cell_length_c   10.05892191
_cell_angle_alpha   98.01379146
_cell_angle_beta   97.73385858
_cell_angle_gamma   112.00001485
_symmetry_Int_Tables_number   1
_chemical_formula_structural   Tl2CN2
_chemical_formula_sum   'Tl6 C3 N6'
_cell_volume   346.16079420
_cell_formula_units_Z   3
loop_
 _symmetry_equiv_pos_site_id
 _symmetry_equiv_pos_as_xyz
  1  'x, y, z'
loop_
 _atom_site_type_symbol
 _atom_site_label
 _atom_site_symmetry_multiplicity
 _atom_site_fract_x
 _atom_site_fract_y
 _atom_site_fract_z
 _atom_site_occupancy
  Tl  Tl0  1  0.82535800  0.20203500  0.95236000  1
  Tl  Tl1  1  0.87640600  0.06377800  0.32588000  1
  Tl  Tl2  1  0.12359400  0.93622200  0.67412000  1
  Tl  Tl3  1  0.59052500  0.46846500  0.31535700  1
  Tl  Tl4  1  0.17464200  0.79796500  0.04764000  1
  Tl  Tl5  1  0.40947500  0.53153500  0.68464300  1
  C  C6  1  0.77152900  0.22944700  0.64227500  1
  C  C7  1  0.22847100  0.77055300  0.35772500  1
  C  C8  1  0.50000000  0.50000000  0.00000000  1
  N  N9  1  0.59785700  0.24730200  0.70602500  1
  N  N10  1  0.71300700  0.50423500  0.06730200  1
  N  N11  1  0.40214300  0.75269800  0.29397500  1
  N  N12  1  0.28699300  0.49576500  0.93269800  1
  N  N13  1  0.95386400  0.21170400  0.58492100  1
  N  N14  1  0.04613600  0.78829600  0.41507900  1
