# generated using pymatgen
data_Tm8Ga3Co
_symmetry_space_group_name_H-M   'P 1'
_cell_length_a   9.87513271
_cell_length_b   9.87513271
_cell_length_c   6.83560500
_cell_angle_alpha   90.00000000
_cell_angle_beta   90.00000000
_cell_angle_gamma   120.00000477
_symmetry_Int_Tables_number   1
_chemical_formula_structural   Tm8Ga3Co
_chemical_formula_sum   'Tm16 Ga6 Co2'
_cell_volume   577.28922461
_cell_formula_units_Z   2
loop_
 _symmetry_equiv_pos_site_id
 _symmetry_equiv_pos_as_xyz
  1  'x, y, z'
loop_
 _atom_site_type_symbol
 _atom_site_label
 _atom_site_symmetry_multiplicity
 _atom_site_fract_x
 _atom_site_fract_y
 _atom_site_fract_z
 _atom_site_occupancy
  Tm  Tm0  1  0.17328100  0.82671900  0.99034700  1
  Tm  Tm1  1  0.34656100  0.17328100  0.49034700  1
  Tm  Tm2  1  0.82671900  0.65343900  0.49034700  1
  Tm  Tm3  1  0.17328100  0.34656100  0.99034700  1
  Tm  Tm4  1  0.65343900  0.82671900  0.99034700  1
  Tm  Tm5  1  0.82671900  0.17328100  0.49034700  1
  Tm  Tm6  1  0.33333300  0.66666700  0.67166200  1
  Tm  Tm7  1  0.66666700  0.33333300  0.17166200  1
  Tm  Tm8  1  0.46419200  0.53580800  0.29174300  1
  Tm  Tm9  1  0.92838300  0.46419200  0.79174300  1
  Tm  Tm10  1  0.53580800  0.07161700  0.79174300  1
  Tm  Tm11  1  0.46419200  0.92838300  0.29174300  1
  Tm  Tm12  1  0.07161700  0.53580800  0.29174300  1
  Tm  Tm13  1  0.53580800  0.46419200  0.79174300  1
  Tm  Tm14  1  0.00000000  0.00000000  0.26827700  1
  Tm  Tm15  1  0.00000000  0.00000000  0.76827700  1
  Ga  Ga16  1  0.16344000  0.83656000  0.53936300  1
  Ga  Ga17  1  0.32688000  0.16344000  0.03936300  1
  Ga  Ga18  1  0.83656000  0.67312000  0.03936300  1
  Ga  Ga19  1  0.16344000  0.32688000  0.53936300  1
  Ga  Ga20  1  0.67312000  0.83656000  0.53936300  1
  Ga  Ga21  1  0.83656000  0.16344000  0.03936300  1
  Co  Co22  1  0.33333300  0.66666700  0.05770600  1
  Co  Co23  1  0.66666700  0.33333300  0.55770600  1
