# generated using pymatgen
data_Y2S3
_symmetry_space_group_name_H-M   'P 1'
_cell_length_a   4.04419400
_cell_length_b   10.23405200
_cell_length_c   17.67181249
_cell_angle_alpha   81.34087206
_cell_angle_beta   90.00000000
_cell_angle_gamma   90.00000000
_symmetry_Int_Tables_number   1
_chemical_formula_structural   Y2S3
_chemical_formula_sum   'Y12 S18'
_cell_volume   723.07271891
_cell_formula_units_Z   6
loop_
 _symmetry_equiv_pos_site_id
 _symmetry_equiv_pos_as_xyz
  1  'x, y, z'
loop_
 _atom_site_type_symbol
 _atom_site_label
 _atom_site_symmetry_multiplicity
 _atom_site_fract_x
 _atom_site_fract_y
 _atom_site_fract_z
 _atom_site_occupancy
  Y  Y0  1  0.25000000  0.81083200  0.02066600  1
  Y  Y1  1  0.75000000  0.18916800  0.97933400  1
  Y  Y2  1  0.25000000  0.87549000  0.43014400  1
  Y  Y3  1  0.75000000  0.12451000  0.56985600  1
  Y  Y4  1  0.25000000  0.17081500  0.78106700  1
  Y  Y5  1  0.75000000  0.82918500  0.21893300  1
  Y  Y6  1  0.25000000  0.81273500  0.72046600  1
  Y  Y7  1  0.75000000  0.18726500  0.27953400  1
  Y  Y8  1  0.25000000  0.51356200  0.39881100  1
  Y  Y9  1  0.75000000  0.48643800  0.60118900  1
  Y  Y10  1  0.25000000  0.45044700  0.11508500  1
  Y  Y11  1  0.75000000  0.54955300  0.88491500  1
  S  S12  1  0.25000000  0.94860000  0.57516000  1
  S  S13  1  0.75000000  0.05140000  0.42484000  1
  S  S14  1  0.25000000  0.73178300  0.87316100  1
  S  S15  1  0.75000000  0.26821700  0.12683900  1
  S  S16  1  0.25000000  0.38498300  0.96661800  1
  S  S17  1  0.75000000  0.61501700  0.03338200  1
  S  S18  1  0.25000000  0.36173000  0.28156900  1
  S  S19  1  0.75000000  0.63827000  0.71843100  1
  S  S20  1  0.25000000  0.99252400  0.26810500  1
  S  S21  1  0.75000000  0.00747600  0.73189500  1
  S  S22  1  0.25000000  0.28952800  0.63023200  1
  S  S23  1  0.75000000  0.71047200  0.36976800  1
  S  S24  1  0.25000000  0.04933600  0.92426700  1
  S  S25  1  0.75000000  0.95066400  0.07573300  1
  S  S26  1  0.25000000  0.67953900  0.18343300  1
  S  S27  1  0.75000000  0.32046100  0.81656700  1
  S  S28  1  0.25000000  0.63228600  0.53193100  1
  S  S29  1  0.75000000  0.36771400  0.46806900  1
