# generated using pymatgen
data_SbSe(IF2)3
_symmetry_space_group_name_H-M   'P 1'
_cell_length_a   10.54241300
_cell_length_b   8.85151000
_cell_length_c   13.09297235
_cell_angle_alpha   81.98045202
_cell_angle_beta   90.00000000
_cell_angle_gamma   90.00000000
_symmetry_Int_Tables_number   1
_chemical_formula_structural   SbSe(IF2)3
_chemical_formula_sum   'Sb4 Se4 I12 F24'
_cell_volume   1209.83896148
_cell_formula_units_Z   4
loop_
 _symmetry_equiv_pos_site_id
 _symmetry_equiv_pos_as_xyz
  1  'x, y, z'
loop_
 _atom_site_type_symbol
 _atom_site_label
 _atom_site_symmetry_multiplicity
 _atom_site_fract_x
 _atom_site_fract_y
 _atom_site_fract_z
 _atom_site_occupancy
  Sb  Sb0  1  0.22106800  0.80000600  0.06716800  1
  Sb  Sb1  1  0.27893200  0.80000600  0.56716800  1
  Sb  Sb2  1  0.77893200  0.19999400  0.93283200  1
  Sb  Sb3  1  0.72106800  0.19999400  0.43283200  1
  Se  Se4  1  0.69151600  0.80023800  0.70761000  1
  Se  Se5  1  0.80848400  0.80023800  0.20761000  1
  Se  Se6  1  0.30848400  0.19976200  0.29239000  1
  Se  Se7  1  0.19151600  0.19976200  0.79239000  1
  I  I8  1  0.68124700  0.56079400  0.62007700  1
  I  I9  1  0.81875300  0.56079400  0.12007700  1
  I  I10  1  0.95150500  0.74193500  0.36489100  1
  I  I11  1  0.58465500  0.78966000  0.27961700  1
  I  I12  1  0.31875300  0.43920600  0.37992300  1
  I  I13  1  0.08465500  0.21034000  0.22038300  1
  I  I14  1  0.41534500  0.21034000  0.72038300  1
  I  I15  1  0.54849500  0.74193500  0.86489100  1
  I  I16  1  0.91534500  0.78966000  0.77961700  1
  I  I17  1  0.04849500  0.25806500  0.63510900  1
  I  I18  1  0.18124700  0.43920600  0.87992300  1
  I  I19  1  0.45150500  0.25806500  0.13510900  1
  F  F20  1  0.23487500  0.99631600  0.49412200  1
  F  F21  1  0.71501900  0.14139500  0.80679100  1
  F  F22  1  0.21501900  0.85860500  0.69320900  1
  F  F23  1  0.88708200  0.27616800  0.46381700  1
  F  F24  1  0.32134900  0.60072300  0.63510900  1
  F  F25  1  0.28498100  0.85860500  0.19320900  1
  F  F26  1  0.05473000  0.87257100  0.09536700  1
  F  F27  1  0.11291800  0.72383200  0.53618300  1
  F  F28  1  0.84062700  0.25994100  0.06102700  1
  F  F29  1  0.34062700  0.74005900  0.43897300  1
  F  F30  1  0.94527000  0.12742900  0.90463300  1
  F  F31  1  0.55473000  0.12742900  0.40463300  1
  F  F32  1  0.65937300  0.25994100  0.56102700  1
  F  F33  1  0.78498100  0.14139500  0.30679100  1
  F  F34  1  0.82134900  0.39927700  0.86489100  1
  F  F35  1  0.38708200  0.72383200  0.03618300  1
  F  F36  1  0.67865100  0.39927700  0.36489100  1
  F  F37  1  0.15937300  0.74005900  0.93897300  1
  F  F38  1  0.61291800  0.27616800  0.96381700  1
  F  F39  1  0.44527000  0.87257100  0.59536700  1
  F  F40  1  0.26512500  0.99631600  0.99412200  1
  F  F41  1  0.76512500  0.00368400  0.50587800  1
  F  F42  1  0.73487500  0.00368400  0.00587800  1
  F  F43  1  0.17865100  0.60072300  0.13510900  1
