# generated using pymatgen
data_Na3AlS3
_symmetry_space_group_name_H-M   'P 1'
_cell_length_a   12.15587000
_cell_length_b   7.65787200
_cell_length_c   13.80173429
_cell_angle_alpha   81.17900744
_cell_angle_beta   90.00000000
_cell_angle_gamma   90.00000000
_symmetry_Int_Tables_number   1
_chemical_formula_structural   Na3AlS3
_chemical_formula_sum   'Na24 Al8 S24'
_cell_volume   1269.58116644
_cell_formula_units_Z   8
loop_
 _symmetry_equiv_pos_site_id
 _symmetry_equiv_pos_as_xyz
  1  'x, y, z'
loop_
 _atom_site_type_symbol
 _atom_site_label
 _atom_site_symmetry_multiplicity
 _atom_site_fract_x
 _atom_site_fract_y
 _atom_site_fract_z
 _atom_site_occupancy
  Na  Na0  1  0.98211600  0.08212900  0.80625000  1
  Na  Na1  1  0.75495200  0.99494600  0.01156000  1
  Na  Na2  1  0.80805000  0.52961800  0.75896700  1
  Na  Na3  1  0.74177400  0.91303400  0.52682300  1
  Na  Na4  1  0.91283200  0.11048400  0.36427700  1
  Na  Na5  1  0.24177400  0.58696600  0.47317700  1
  Na  Na6  1  0.82482600  0.50484400  0.24184600  1
  Na  Na7  1  0.25822600  0.08696600  0.47317700  1
  Na  Na8  1  0.74504800  0.49494600  0.01156000  1
  Na  Na9  1  0.41283200  0.38951600  0.63572300  1
  Na  Na10  1  0.25495200  0.50505400  0.98844000  1
  Na  Na11  1  0.24504800  0.00505400  0.98844000  1
  Na  Na12  1  0.75822600  0.41303400  0.52682300  1
  Na  Na13  1  0.19195000  0.47038200  0.24103300  1
  Na  Na14  1  0.01788400  0.91787100  0.19375000  1
  Na  Na15  1  0.58716800  0.61048400  0.36427700  1
  Na  Na16  1  0.32482600  0.99515600  0.75815400  1
  Na  Na17  1  0.08716800  0.88951600  0.63572300  1
  Na  Na18  1  0.30805000  0.97038200  0.24103300  1
  Na  Na19  1  0.17517400  0.49515600  0.75815400  1
  Na  Na20  1  0.48211600  0.41787100  0.19375000  1
  Na  Na21  1  0.69195000  0.02961800  0.75896700  1
  Na  Na22  1  0.51788400  0.58212900  0.80625000  1
  Na  Na23  1  0.67517400  0.00484400  0.24184600  1
  Al  Al24  1  0.00696000  0.32724300  0.07341600  1
  Al  Al25  1  0.02096000  0.32201800  0.56620800  1
  Al  Al26  1  0.52096000  0.17798200  0.43379200  1
  Al  Al27  1  0.47904000  0.82201800  0.56620800  1
  Al  Al28  1  0.50696000  0.17275700  0.92658400  1
  Al  Al29  1  0.49304000  0.82724300  0.07341600  1
  Al  Al30  1  0.97904000  0.67798200  0.43379200  1
  Al  Al31  1  0.99304000  0.67275700  0.92658400  1
  S  S32  1  0.35963500  0.30932900  0.85460700  1
  S  S33  1  0.16698500  0.20538000  0.12462600  1
  S  S34  1  0.38961100  0.37663800  0.38603700  1
  S  S35  1  0.14036500  0.80932900  0.85460700  1
  S  S36  1  0.00144100  0.62065200  0.09597600  1
  S  S37  1  0.64036500  0.69067100  0.14539300  1
  S  S38  1  0.81682600  0.76165600  0.36908300  1
  S  S39  1  0.11038900  0.87663800  0.38603700  1
  S  S40  1  0.31682600  0.73834400  0.63091700  1
  S  S41  1  0.50144100  0.87934800  0.90402400  1
  S  S42  1  0.66698500  0.29462000  0.87537400  1
  S  S43  1  0.85963500  0.19067100  0.14539300  1
  S  S44  1  0.18317400  0.23834400  0.63091700  1
  S  S45  1  0.03380000  0.40691900  0.39769300  1
  S  S46  1  0.61038900  0.62336200  0.61396300  1
  S  S47  1  0.49855900  0.12065200  0.09597600  1
  S  S48  1  0.68317400  0.26165600  0.36908300  1
  S  S49  1  0.88961100  0.12336200  0.61396300  1
  S  S50  1  0.96620000  0.59308100  0.60230700  1
  S  S51  1  0.99855900  0.37934800  0.90402400  1
  S  S52  1  0.83301500  0.79462000  0.87537400  1
  S  S53  1  0.53380000  0.09308100  0.60230700  1
  S  S54  1  0.33301500  0.70538000  0.12462600  1
  S  S55  1  0.46620000  0.90691900  0.39769300  1
