# generated using pymatgen
data_Na3Zr2Si2PO12
_symmetry_space_group_name_H-M   'P 1'
_cell_length_a   9.15342746
_cell_length_b   18.31852347
_cell_length_c   9.31654039
_cell_angle_alpha   61.44819919
_cell_angle_beta   61.40951197
_cell_angle_gamma   60.20715234
_symmetry_Int_Tables_number   1
_chemical_formula_structural   Na3Zr2Si2PO12
_chemical_formula_sum   'Na12 Zr8 Si8 P4 O48'
_cell_volume   1129.70839481
_cell_formula_units_Z   4
loop_
 _symmetry_equiv_pos_site_id
 _symmetry_equiv_pos_as_xyz
  1  'x, y, z'
loop_
 _atom_site_type_symbol
 _atom_site_label
 _atom_site_symmetry_multiplicity
 _atom_site_fract_x
 _atom_site_fract_y
 _atom_site_fract_z
 _atom_site_occupancy
  Na  Na0  1  0.05211400  0.15655500  0.92172800  1
  Na  Na1  1  0.34112100  0.01972600  0.44039000  1
  Na  Na2  1  0.60713400  0.19301300  0.25819400  1
  Na  Na3  1  0.39454800  0.30385500  0.74833800  1
  Na  Na4  1  0.31044600  0.52675300  0.41534300  1
  Na  Na5  1  0.05340200  0.65578900  0.91856500  1
  Na  Na6  1  0.94438700  0.34644000  0.08324500  1
  Na  Na7  1  0.69081700  0.47339600  0.58130100  1
  Na  Na8  1  0.60872500  0.69606400  0.25004900  1
  Na  Na9  1  0.39342200  0.80072500  0.75796900  1
  Na  Na10  1  0.94259900  0.84964400  0.09077300  1
  Na  Na11  1  0.72923100  0.96057100  0.63712100  1
  Zr  Zr12  1  0.15359700  0.32280600  0.55606600  1
  Zr  Zr13  1  0.64458300  0.07750700  0.05771400  1
  Zr  Zr14  1  0.35675800  0.42330900  0.94196700  1
  Zr  Zr15  1  0.85098600  0.17729500  0.44156900  1
  Zr  Zr16  1  0.15839900  0.82199500  0.55457900  1
  Zr  Zr17  1  0.64780800  0.57604500  0.05601800  1
  Zr  Zr18  1  0.35445500  0.92368700  0.94506300  1
  Zr  Zr19  1  0.84759500  0.67754400  0.44291200  1
  Si  Si20  1  0.24861700  0.23596200  0.23544600  1
  Si  Si21  1  0.47150100  0.12386600  0.73857500  1
  Si  Si22  1  0.53020700  0.37587100  0.26250300  1
  Si  Si23  1  0.24956000  0.73476300  0.23715800  1
  Si  Si24  1  0.75340500  0.26451400  0.76297200  1
  Si  Si25  1  0.47214000  0.62375400  0.73670100  1
  Si  Si26  1  0.53071300  0.87621100  0.26435200  1
  Si  Si27  1  0.75414700  0.76455700  0.76247000  1
  P  P28  1  0.04413000  0.47876100  0.74886000  1
  P  P29  1  0.95681500  0.02078800  0.25033800  1
  P  P30  1  0.04320000  0.97963900  0.74718100  1
  P  P31  1  0.95900500  0.52125300  0.24923600  1
  O  O32  1  0.10916400  0.00299400  0.08443600  1
  O  O33  1  0.01533000  0.05542800  0.57951400  1
  O  O34  1  0.06842500  0.21761200  0.29111300  1
  O  O35  1  0.26224100  0.31673600  0.05104000  1
  O  O36  1  0.11010300  0.50245200  0.08423700  1
  O  O37  1  0.42280500  0.14432000  0.22436600  1
  O  O38  1  0.24607600  0.26374100  0.38064200  1
  O  O39  1  0.06190000  0.38940500  0.75067800  1
  O  O40  1  0.29122200  0.21147200  0.71899600  1
  O  O41  1  0.00556000  0.55450800  0.58457400  1
  O  O42  1  0.43081200  0.03424200  0.79805000  1
  O  O43  1  0.47510700  0.37760900  0.11675600  1
  O  O44  1  0.07100100  0.71407700  0.29672700  1
  O  O45  1  0.78039800  0.02965300  0.24851200  1
  O  O46  1  0.36604100  0.37173300  0.44533100  1
  O  O47  1  0.63984700  0.12649500  0.55927500  1
  O  O48  1  0.22311300  0.46966500  0.74677900  1
  O  O49  1  0.52184900  0.12397000  0.88562300  1
  O  O50  1  0.25790900  0.81691900  0.05518200  1
  O  O51  1  0.57500400  0.46424800  0.20342000  1
  O  O52  1  0.71009800  0.28746600  0.27962600  1
  O  O53  1  0.42491900  0.64425800  0.22016900  1
  O  O54  1  0.93676000  0.11026400  0.25026000  1
  O  O55  1  0.25046300  0.76145000  0.38196600  1
  O  O56  1  0.75674900  0.23618800  0.61831100  1
  O  O57  1  0.05300100  0.89223400  0.74774900  1
  O  O58  1  0.57864400  0.35583800  0.77598100  1
  O  O59  1  0.88994800  0.00030900  0.90965900  1
  O  O60  1  0.28977600  0.71148900  0.72303600  1
  O  O61  1  0.43007200  0.53506100  0.79425700  1
  O  O62  1  0.74099900  0.18373400  0.94735800  1
  O  O63  1  0.47262300  0.87802900  0.12052700  1
  O  O64  1  0.77972600  0.53073300  0.25083400  1
  O  O65  1  0.36986500  0.86968900  0.44980300  1
  O  O66  1  0.63448100  0.62950400  0.55273400  1
  O  O67  1  0.22293900  0.96577400  0.75210400  1
  O  O68  1  0.93139700  0.28547900  0.70533900  1
  O  O69  1  0.52782500  0.62297700  0.88112800  1
  O  O70  1  0.57626800  0.96401500  0.20582000  1
  O  O71  1  0.99569600  0.44560700  0.41436900  1
  O  O72  1  0.71255000  0.78811100  0.27727500  1
  O  O73  1  0.94098200  0.61048900  0.24815600  1
  O  O74  1  0.75458800  0.73775600  0.61736400  1
  O  O75  1  0.57840000  0.85458200  0.78301000  1
  O  O76  1  0.89310200  0.49742600  0.91412200  1
  O  O77  1  0.74623300  0.68212300  0.94456600  1
  O  O78  1  0.93030800  0.78762100  0.70347300  1
  O  O79  1  0.99812300  0.94455500  0.41316000  1
