# generated using pymatgen
data_Nb2Pd3Se8
_symmetry_space_group_name_H-M   'P 1'
_cell_length_a   3.63011400
_cell_length_b   10.83880600
_cell_length_c   15.43915200
_cell_angle_alpha   90.00000000
_cell_angle_beta   90.00000000
_cell_angle_gamma   90.00000000
_symmetry_Int_Tables_number   1
_chemical_formula_structural   Nb2Pd3Se8
_chemical_formula_sum   'Nb4 Pd6 Se16'
_cell_volume   607.47044018
_cell_formula_units_Z   2
loop_
 _symmetry_equiv_pos_site_id
 _symmetry_equiv_pos_as_xyz
  1  'x, y, z'
loop_
 _atom_site_type_symbol
 _atom_site_label
 _atom_site_symmetry_multiplicity
 _atom_site_fract_x
 _atom_site_fract_y
 _atom_site_fract_z
 _atom_site_occupancy
  Nb  Nb0  1  0.50000000  0.78649900  0.88344500  1
  Nb  Nb1  1  0.50000000  0.21350100  0.11655500  1
  Nb  Nb2  1  0.50000000  0.28649900  0.61655500  1
  Nb  Nb3  1  0.50000000  0.71350100  0.38344500  1
  Pd  Pd4  1  0.00000000  0.00000000  0.00000000  1
  Pd  Pd5  1  0.00000000  0.50000000  0.50000000  1
  Pd  Pd6  1  0.00000000  0.61993300  0.78378400  1
  Pd  Pd7  1  0.00000000  0.38006700  0.21621600  1
  Pd  Pd8  1  0.00000000  0.11993300  0.71621600  1
  Pd  Pd9  1  0.00000000  0.88006700  0.28378400  1
  Se  Se10  1  0.00000000  0.77061300  0.00754900  1
  Se  Se11  1  0.00000000  0.22938700  0.99245100  1
  Se  Se12  1  0.00000000  0.27061300  0.49245100  1
  Se  Se13  1  0.00000000  0.72938700  0.50754900  1
  Se  Se14  1  0.00000000  0.95548100  0.84322400  1
  Se  Se15  1  0.00000000  0.04451900  0.15677600  1
  Se  Se16  1  0.00000000  0.45548100  0.65677600  1
  Se  Se17  1  0.00000000  0.54451900  0.34322400  1
  Se  Se18  1  0.50000000  0.74888000  0.71888100  1
  Se  Se19  1  0.50000000  0.25112000  0.28111900  1
  Se  Se20  1  0.50000000  0.24888000  0.78111900  1
  Se  Se21  1  0.50000000  0.75112000  0.21888100  1
  Se  Se22  1  0.50000000  0.54714300  0.88254900  1
  Se  Se23  1  0.50000000  0.45285700  0.11745100  1
  Se  Se24  1  0.50000000  0.04714300  0.61745100  1
  Se  Se25  1  0.50000000  0.95285700  0.38254900  1
