# generated using pymatgen
data_Na2Te4MoO12
_symmetry_space_group_name_H-M   'P 1'
_cell_length_a   9.25685512
_cell_length_b   9.25685512
_cell_length_c   11.47201945
_cell_angle_alpha   75.60325388
_cell_angle_beta   75.60325388
_cell_angle_gamma   37.49256735
_symmetry_Int_Tables_number   1
_chemical_formula_structural   Na2Te4MoO12
_chemical_formula_sum   'Na4 Te8 Mo2 O24'
_cell_volume   577.33703690
_cell_formula_units_Z   2
loop_
 _symmetry_equiv_pos_site_id
 _symmetry_equiv_pos_as_xyz
  1  'x, y, z'
loop_
 _atom_site_type_symbol
 _atom_site_label
 _atom_site_symmetry_multiplicity
 _atom_site_fract_x
 _atom_site_fract_y
 _atom_site_fract_z
 _atom_site_occupancy
  Na  Na0  1  0.56277800  0.01681200  0.26394800  1
  Na  Na1  1  0.98318800  0.43722200  0.23605200  1
  Na  Na2  1  0.43722200  0.98318800  0.73605200  1
  Na  Na3  1  0.01681200  0.56277800  0.76394800  1
  Te  Te4  1  0.31978400  0.86957000  0.40361300  1
  Te  Te5  1  0.13043000  0.68021600  0.09638700  1
  Te  Te6  1  0.68021600  0.13043000  0.59638700  1
  Te  Te7  1  0.86957000  0.31978400  0.90361300  1
  Te  Te8  1  0.48386300  0.82925300  0.06655100  1
  Te  Te9  1  0.17074700  0.51613700  0.43344900  1
  Te  Te10  1  0.51613700  0.17074700  0.93344900  1
  Te  Te11  1  0.82925300  0.48386300  0.56655100  1
  Mo  Mo12  1  0.66199700  0.33800300  0.25000000  1
  Mo  Mo13  1  0.33800300  0.66199700  0.75000000  1
  O  O14  1  0.49128900  0.28654200  0.33804000  1
  O  O15  1  0.71345800  0.50871100  0.16196000  1
  O  O16  1  0.50871100  0.71345800  0.66196000  1
  O  O17  1  0.28654200  0.49128900  0.83804000  1
  O  O18  1  0.68390500  0.83404700  0.07094000  1
  O  O19  1  0.16595300  0.31609500  0.42906000  1
  O  O20  1  0.31609500  0.16595300  0.92906000  1
  O  O21  1  0.83404700  0.68390500  0.57094000  1
  O  O22  1  0.65115800  0.67355300  0.41065700  1
  O  O23  1  0.32644700  0.34884200  0.08934300  1
  O  O24  1  0.34884200  0.32644700  0.58934300  1
  O  O25  1  0.67355300  0.65115800  0.91065700  1
  O  O26  1  0.31368900  0.00461000  0.24701500  1
  O  O27  1  0.99539000  0.68631100  0.25298500  1
  O  O28  1  0.68631100  0.99539000  0.75298500  1
  O  O29  1  0.00461000  0.31368900  0.74701500  1
  O  O30  1  0.38762400  0.63385900  0.36593700  1
  O  O31  1  0.36614100  0.61237600  0.13406300  1
  O  O32  1  0.61237600  0.36614100  0.63406300  1
  O  O33  1  0.63385900  0.38762400  0.86593700  1
  O  O34  1  0.82520300  0.12795300  0.14373200  1
  O  O35  1  0.87204700  0.17479700  0.35626800  1
  O  O36  1  0.17479700  0.87204700  0.85626800  1
  O  O37  1  0.12795300  0.82520300  0.64373200  1
