# generated using pymatgen
data_Er4Si9Ir13
_symmetry_space_group_name_H-M   'P 1'
_cell_length_a   3.95137700
_cell_length_b   11.00682600
_cell_length_c   19.00473100
_cell_angle_alpha   90.00000000
_cell_angle_beta   90.00000000
_cell_angle_gamma   90.00000000
_symmetry_Int_Tables_number   1
_chemical_formula_structural   Er4Si9Ir13
_chemical_formula_sum   'Er8 Si18 Ir26'
_cell_volume   826.55602410
_cell_formula_units_Z   2
loop_
 _symmetry_equiv_pos_site_id
 _symmetry_equiv_pos_as_xyz
  1  'x, y, z'
loop_
 _atom_site_type_symbol
 _atom_site_label
 _atom_site_symmetry_multiplicity
 _atom_site_fract_x
 _atom_site_fract_y
 _atom_site_fract_z
 _atom_site_occupancy
  Er  Er0  1  0.50000000  0.69088000  0.20793300  1
  Er  Er1  1  0.00000000  0.80912000  0.79206700  1
  Er  Er2  1  0.00000000  0.19088000  0.79206700  1
  Er  Er3  1  0.50000000  0.30912000  0.20793300  1
  Er  Er4  1  0.50000000  0.00000000  0.51936400  1
  Er  Er5  1  0.00000000  0.50000000  0.48063600  1
  Er  Er6  1  0.50000000  0.50000000  0.02194000  1
  Er  Er7  1  0.00000000  0.00000000  0.97806000  1
  Si  Si8  1  0.00000000  0.00000000  0.39773200  1
  Si  Si9  1  0.50000000  0.50000000  0.60226800  1
  Si  Si10  1  0.50000000  0.31855800  0.41458900  1
  Si  Si11  1  0.00000000  0.18144200  0.58541100  1
  Si  Si12  1  0.00000000  0.81855800  0.58541100  1
  Si  Si13  1  0.50000000  0.68144200  0.41458900  1
  Si  Si14  1  0.00000000  0.68782400  0.08049300  1
  Si  Si15  1  0.50000000  0.81217600  0.91950700  1
  Si  Si16  1  0.50000000  0.18782400  0.91950700  1
  Si  Si17  1  0.00000000  0.31217600  0.08049300  1
  Si  Si18  1  0.50000000  0.00000000  0.10208800  1
  Si  Si19  1  0.00000000  0.50000000  0.89791200  1
  Si  Si20  1  0.50000000  0.37343000  0.72938800  1
  Si  Si21  1  0.00000000  0.12657000  0.27061200  1
  Si  Si22  1  0.00000000  0.87343000  0.27061200  1
  Si  Si23  1  0.50000000  0.62657000  0.72938800  1
  Si  Si24  1  0.50000000  0.00000000  0.73239000  1
  Si  Si25  1  0.00000000  0.50000000  0.26761000  1
  Ir  Ir26  1  0.00000000  0.68383900  0.33509500  1
  Ir  Ir27  1  0.50000000  0.81616100  0.66490500  1
  Ir  Ir28  1  0.50000000  0.18383900  0.66490500  1
  Ir  Ir29  1  0.00000000  0.31616100  0.33509500  1
  Ir  Ir30  1  0.00000000  0.50000000  0.14210400  1
  Ir  Ir31  1  0.50000000  0.00000000  0.85789600  1
  Ir  Ir32  1  0.50000000  0.50000000  0.34290500  1
  Ir  Ir33  1  0.00000000  0.00000000  0.65709500  1
  Ir  Ir34  1  0.00000000  0.50000000  0.77262000  1
  Ir  Ir35  1  0.50000000  0.00000000  0.22738000  1
  Ir  Ir36  1  0.50000000  0.68877900  0.53890600  1
  Ir  Ir37  1  0.00000000  0.81122100  0.46109400  1
  Ir  Ir38  1  0.00000000  0.18877900  0.46109400  1
  Ir  Ir39  1  0.50000000  0.31122100  0.53890600  1
  Ir  Ir40  1  0.00000000  0.70039800  0.95333700  1
  Ir  Ir41  1  0.50000000  0.79960200  0.04666300  1
  Ir  Ir42  1  0.50000000  0.20039800  0.04666300  1
  Ir  Ir43  1  0.00000000  0.29960200  0.95333700  1
  Ir  Ir44  1  0.00000000  0.87508100  0.14343500  1
  Ir  Ir45  1  0.50000000  0.62491900  0.85656500  1
  Ir  Ir46  1  0.50000000  0.37508100  0.85656500  1
  Ir  Ir47  1  0.00000000  0.12491900  0.14343500  1
  Ir  Ir48  1  0.50000000  0.87224900  0.35553400  1
  Ir  Ir49  1  0.00000000  0.62775100  0.64446600  1
  Ir  Ir50  1  0.00000000  0.37224900  0.64446600  1
  Ir  Ir51  1  0.50000000  0.12775100  0.35553400  1
