# generated using pymatgen
data_CaGaAu3
_symmetry_space_group_name_H-M   'P 1'
_cell_length_a   9.27188300
_cell_length_b   9.27188300
_cell_length_c   9.27188300
_cell_angle_alpha   90.00000000
_cell_angle_beta   90.00000000
_cell_angle_gamma   90.00000000
_symmetry_Int_Tables_number   1
_chemical_formula_structural   CaGaAu3
_chemical_formula_sum   'Ca8 Ga8 Au24'
_cell_volume   797.08351656
_cell_formula_units_Z   8
loop_
 _symmetry_equiv_pos_site_id
 _symmetry_equiv_pos_as_xyz
  1  'x, y, z'
loop_
 _atom_site_type_symbol
 _atom_site_label
 _atom_site_symmetry_multiplicity
 _atom_site_fract_x
 _atom_site_fract_y
 _atom_site_fract_z
 _atom_site_occupancy
  Ca  Ca0  1  0.39274100  0.39274100  0.39274100  1
  Ca  Ca1  1  0.60725900  0.89274100  0.10725900  1
  Ca  Ca2  1  0.10725900  0.89274100  0.39274100  1
  Ca  Ca3  1  0.60725900  0.60725900  0.60725900  1
  Ca  Ca4  1  0.89274100  0.39274100  0.10725900  1
  Ca  Ca5  1  0.39274100  0.10725900  0.89274100  1
  Ca  Ca6  1  0.10725900  0.60725900  0.89274100  1
  Ca  Ca7  1  0.89274100  0.10725900  0.60725900  1
  Ga  Ga8  1  0.89585200  0.60414800  0.39585200  1
  Ga  Ga9  1  0.60414800  0.39585200  0.89585200  1
  Ga  Ga10  1  0.89585200  0.89585200  0.89585200  1
  Ga  Ga11  1  0.39585200  0.60414800  0.10414800  1
  Ga  Ga12  1  0.10414800  0.10414800  0.10414800  1
  Ga  Ga13  1  0.39585200  0.89585200  0.60414800  1
  Ga  Ga14  1  0.60414800  0.10414800  0.39585200  1
  Ga  Ga15  1  0.10414800  0.39585200  0.60414800  1
  Au  Au16  1  0.57931500  0.26119700  0.14187400  1
  Au  Au17  1  0.07931500  0.23880300  0.85812600  1
  Au  Au18  1  0.26119700  0.14187400  0.57931500  1
  Au  Au19  1  0.64187400  0.57931500  0.23880300  1
  Au  Au20  1  0.57931500  0.23880300  0.64187400  1
  Au  Au21  1  0.26119700  0.35812600  0.07931500  1
  Au  Au22  1  0.35812600  0.42068500  0.76119700  1
  Au  Au23  1  0.23880300  0.85812600  0.07931500  1
  Au  Au24  1  0.23880300  0.64187400  0.57931500  1
  Au  Au25  1  0.76119700  0.14187400  0.92068500  1
  Au  Au26  1  0.73880300  0.64187400  0.92068500  1
  Au  Au27  1  0.73880300  0.85812600  0.42068500  1
  Au  Au28  1  0.35812600  0.07931500  0.26119700  1
  Au  Au29  1  0.42068500  0.73880300  0.85812600  1
  Au  Au30  1  0.92068500  0.73880300  0.64187400  1
  Au  Au31  1  0.64187400  0.92068500  0.73880300  1
  Au  Au32  1  0.85812600  0.42068500  0.73880300  1
  Au  Au33  1  0.42068500  0.76119700  0.35812600  1
  Au  Au34  1  0.92068500  0.76119700  0.14187400  1
  Au  Au35  1  0.07931500  0.26119700  0.35812600  1
  Au  Au36  1  0.76119700  0.35812600  0.42068500  1
  Au  Au37  1  0.14187400  0.57931500  0.26119700  1
  Au  Au38  1  0.85812600  0.07931500  0.23880300  1
  Au  Au39  1  0.14187400  0.92068500  0.76119700  1
