# generated using pymatgen
data_CaAs2(XeF5)4
_symmetry_space_group_name_H-M   'P 1'
_cell_length_a   15.64353400
_cell_length_b   8.55844100
_cell_length_c   8.83466573
_cell_angle_alpha   68.31895645
_cell_angle_beta   90.00000000
_cell_angle_gamma   90.00000000
_symmetry_Int_Tables_number   1
_chemical_formula_structural   CaAs2(XeF5)4
_chemical_formula_sum   'Ca2 As4 Xe8 F40'
_cell_volume   1099.14374116
_cell_formula_units_Z   2
loop_
 _symmetry_equiv_pos_site_id
 _symmetry_equiv_pos_as_xyz
  1  'x, y, z'
loop_
 _atom_site_type_symbol
 _atom_site_label
 _atom_site_symmetry_multiplicity
 _atom_site_fract_x
 _atom_site_fract_y
 _atom_site_fract_z
 _atom_site_occupancy
  Ca  Ca0  1  0.15978200  0.63504300  0.40802200  1
  Ca  Ca1  1  0.65978200  0.36495700  0.59197800  1
  As  As2  1  0.49135200  0.19838800  0.32573500  1
  As  As3  1  0.73041100  0.71628000  0.15606500  1
  As  As4  1  0.99135200  0.80161200  0.67426500  1
  As  As5  1  0.23041100  0.28372000  0.84393500  1
  Xe  Xe6  1  0.98744600  0.96878300  0.08588800  1
  Xe  Xe7  1  0.75230400  0.24233300  0.09156200  1
  Xe  Xe8  1  0.70632800  0.84004900  0.63250100  1
  Xe  Xe9  1  0.48744600  0.03121700  0.91411200  1
  Xe  Xe10  1  0.93576000  0.35884600  0.52703000  1
  Xe  Xe11  1  0.20632800  0.15995100  0.36749900  1
  Xe  Xe12  1  0.25230400  0.75766700  0.90843800  1
  Xe  Xe13  1  0.43576000  0.64115400  0.47297000  1
  F  F14  1  0.07715100  0.93760600  0.67339900  1
  F  F15  1  0.74400200  0.90423000  0.98455200  1
  F  F16  1  0.67738000  0.07711100  0.63587600  1
  F  F17  1  0.23075800  0.39940400  0.36301000  1
  F  F18  1  0.29136600  0.20068900  0.72195800  1
  F  F19  1  0.32389600  0.37176300  0.89089400  1
  F  F20  1  0.56169300  0.59146500  0.55833900  1
  F  F21  1  0.06169300  0.40853500  0.44166100  1
  F  F22  1  0.68654600  0.28278700  0.87172500  1
  F  F23  1  0.71691500  0.52184300  0.33388300  1
  F  F24  1  0.79136600  0.79931100  0.27804200  1
  F  F25  1  0.66897600  0.62796100  0.03987600  1
  F  F26  1  0.17738000  0.92288900  0.36412400  1
  F  F27  1  0.57715100  0.06239400  0.32660100  1
  F  F28  1  0.82389600  0.62823700  0.10910600  1
  F  F29  1  0.81248700  0.30272200  0.61594100  1
  F  F30  1  0.13640000  0.20567300  0.78664100  1
  F  F31  1  0.97077000  0.92887700  0.46821000  1
  F  F32  1  0.63640000  0.79432700  0.21335900  1
  F  F33  1  0.01629900  0.67518100  0.87668500  1
  F  F34  1  0.47077000  0.07112300  0.53179000  1
  F  F35  1  0.06543400  0.67646200  0.60495600  1
  F  F36  1  0.73075800  0.60059600  0.63699000  1
  F  F37  1  0.51629900  0.32481900  0.12331500  1
  F  F38  1  0.41898100  0.07670400  0.26100500  1
  F  F39  1  0.24400200  0.09577000  0.01544800  1
  F  F40  1  0.40878200  0.33704000  0.33018600  1
  F  F41  1  0.31398300  0.80363400  0.69178400  1
  F  F42  1  0.44121500  0.80989800  0.07896800  1
  F  F43  1  0.18654600  0.71721300  0.12827500  1
  F  F44  1  0.31248700  0.69727800  0.38405900  1
  F  F45  1  0.21691500  0.47815700  0.66611700  1
  F  F46  1  0.03197200  0.74131900  0.26221200  1
  F  F47  1  0.53197200  0.25868100  0.73778800  1
  F  F48  1  0.94121500  0.19010200  0.92103200  1
  F  F49  1  0.16897600  0.37203900  0.96012400  1
  F  F50  1  0.81398300  0.19636600  0.30821600  1
  F  F51  1  0.91898100  0.92329600  0.73899500  1
  F  F52  1  0.90878200  0.66296000  0.66981400  1
  F  F53  1  0.56543400  0.32353800  0.39504400  1
