# generated using pymatgen
data_K2YbMoPO8
_symmetry_space_group_name_H-M   'P 1'
_cell_length_a   12.30937405
_cell_length_b   12.30937405
_cell_length_c   12.30937405
_cell_angle_alpha   147.01529267
_cell_angle_beta   119.57933627
_cell_angle_gamma   70.58280680
_symmetry_Int_Tables_number   1
_chemical_formula_structural   K2YbMoPO8
_chemical_formula_sum   'K8 Yb4 Mo4 P4 O32'
_cell_volume   869.84773783
_cell_formula_units_Z   4
loop_
 _symmetry_equiv_pos_site_id
 _symmetry_equiv_pos_as_xyz
  1  'x, y, z'
loop_
 _atom_site_type_symbol
 _atom_site_label
 _atom_site_symmetry_multiplicity
 _atom_site_fract_x
 _atom_site_fract_y
 _atom_site_fract_z
 _atom_site_occupancy
  K  K0  1  0.74035100  0.63209100  0.05789900  1
  K  K1  1  0.75964900  0.81754800  0.89174000  1
  K  K2  1  0.24035100  0.18245200  0.10826000  1
  K  K3  1  0.07419200  0.68245200  0.44210100  1
  K  K4  1  0.92580800  0.31754800  0.55789900  1
  K  K5  1  0.57419200  0.13209100  0.39174000  1
  K  K6  1  0.42580800  0.86790900  0.60826000  1
  K  K7  1  0.25964900  0.36790900  0.94210100  1
  Yb  Yb8  1  0.68007900  0.75000000  0.43007900  1
  Yb  Yb9  1  0.81992100  0.25000000  0.06992100  1
  Yb  Yb10  1  0.18007900  0.75000000  0.93007900  1
  Yb  Yb11  1  0.31992100  0.25000000  0.56992100  1
  Mo  Mo12  1  0.58592700  0.33592700  0.25000000  1
  Mo  Mo13  1  0.91407300  0.16407300  0.75000000  1
  Mo  Mo14  1  0.41407300  0.66407300  0.75000000  1
  Mo  Mo15  1  0.08592700  0.83592700  0.25000000  1
  P  P16  1  0.93226200  0.75000000  0.68226200  1
  P  P17  1  0.56773800  0.25000000  0.81773800  1
  P  P18  1  0.06773800  0.25000000  0.31773800  1
  P  P19  1  0.43226200  0.75000000  0.18226200  1
  O  O20  1  0.15279400  0.08455600  0.21894100  1
  O  O21  1  0.16182000  0.09609100  0.48506900  1
  O  O22  1  0.63438500  0.06614700  0.71894100  1
  O  O23  1  0.65279400  0.43385300  0.06823800  1
  O  O24  1  0.34720600  0.56614700  0.93176200  1
  O  O25  1  0.43280700  0.20811500  0.76451900  1
  O  O26  1  0.66182000  0.17675200  0.06572900  1
  O  O27  1  0.55640400  0.29188500  0.72469200  1
  O  O28  1  0.44359600  0.70811500  0.27530800  1
  O  O29  1  0.05640400  0.33171100  0.26451900  1
  O  O30  1  0.34811800  0.66562200  0.58494000  1
  O  O31  1  0.56719300  0.79188500  0.23548100  1
  O  O32  1  0.86561500  0.58455600  0.43176200  1
  O  O33  1  0.58068200  0.76317700  0.91506000  1
  O  O34  1  0.84720600  0.91544400  0.78105900  1
  O  O35  1  0.13438500  0.41544400  0.56823800  1
  O  O36  1  0.41931800  0.23682300  0.08494000  1
  O  O37  1  0.36561500  0.93385300  0.28105900  1
  O  O38  1  0.61102300  0.59609100  0.43427100  1
  O  O39  1  0.08068200  0.16562200  0.81750400  1
  O  O40  1  0.93280700  0.16828900  0.22469200  1
  O  O41  1  0.84811800  0.26317700  0.68249600  1
  O  O42  1  0.94359600  0.66828900  0.73548100  1
  O  O43  1  0.91931800  0.83437800  0.18249600  1
  O  O44  1  0.38897700  0.40390900  0.56572900  1
  O  O45  1  0.33818000  0.82324800  0.93427100  1
  O  O46  1  0.11102300  0.67675200  0.01493100  1
  O  O47  1  0.06719300  0.83171100  0.77530800  1
  O  O48  1  0.83818000  0.90390900  0.51493100  1
  O  O49  1  0.65188200  0.33437800  0.41506000  1
  O  O50  1  0.88897700  0.32324800  0.98506900  1
  O  O51  1  0.15188200  0.73682300  0.31750400  1
