# generated using pymatgen
data_NdTl(MoO4)2
_symmetry_space_group_name_H-M   'P 1'
_cell_length_a   6.41116100
_cell_length_b   6.41116100
_cell_length_c   9.70717600
_cell_angle_alpha   90.00000000
_cell_angle_beta   90.00000000
_cell_angle_gamma   90.00000000
_symmetry_Int_Tables_number   1
_chemical_formula_structural   NdTl(MoO4)2
_chemical_formula_sum   'Nd2 Tl2 Mo4 O16'
_cell_volume   398.99391309
_cell_formula_units_Z   2
loop_
 _symmetry_equiv_pos_site_id
 _symmetry_equiv_pos_as_xyz
  1  'x, y, z'
loop_
 _atom_site_type_symbol
 _atom_site_label
 _atom_site_symmetry_multiplicity
 _atom_site_fract_x
 _atom_site_fract_y
 _atom_site_fract_z
 _atom_site_occupancy
  Nd  Nd0  1  0.00000000  0.00000000  0.00000000  1
  Nd  Nd1  1  0.50000000  0.50000000  0.50000000  1
  Tl  Tl2  1  0.00000000  0.00000000  0.50000000  1
  Tl  Tl3  1  0.50000000  0.50000000  0.00000000  1
  Mo  Mo4  1  0.00000000  0.50000000  0.75000000  1
  Mo  Mo5  1  0.00000000  0.50000000  0.25000000  1
  Mo  Mo6  1  0.50000000  0.00000000  0.75000000  1
  Mo  Mo7  1  0.50000000  0.00000000  0.25000000  1
  O  O8  1  0.38931000  0.19621300  0.36071300  1
  O  O9  1  0.38931000  0.80378700  0.63928700  1
  O  O10  1  0.11069000  0.69621300  0.86071300  1
  O  O11  1  0.61069000  0.19621300  0.63928700  1
  O  O12  1  0.11069000  0.30378700  0.13928700  1
  O  O13  1  0.80378700  0.38931000  0.36071300  1
  O  O14  1  0.30378700  0.11069000  0.86071300  1
  O  O15  1  0.19621300  0.61069000  0.36071300  1
  O  O16  1  0.88931000  0.69621300  0.13928700  1
  O  O17  1  0.69621300  0.88931000  0.86071300  1
  O  O18  1  0.61069000  0.80378700  0.36071300  1
  O  O19  1  0.80378700  0.61069000  0.63928700  1
  O  O20  1  0.19621300  0.38931000  0.63928700  1
  O  O21  1  0.88931000  0.30378700  0.86071300  1
  O  O22  1  0.30378700  0.88931000  0.13928700  1
  O  O23  1  0.69621300  0.11069000  0.13928700  1
