# generated using pymatgen
data_CdHgAsBr
_symmetry_space_group_name_H-M   'P 1'
_cell_length_a   4.80486300
_cell_length_b   10.21266200
_cell_length_c   11.06423700
_cell_angle_alpha   90.00000000
_cell_angle_beta   90.00000000
_cell_angle_gamma   90.00000000
_symmetry_Int_Tables_number   1
_chemical_formula_structural   CdHgAsBr
_chemical_formula_sum   'Cd4 Hg4 As4 Br4'
_cell_volume   542.92699750
_cell_formula_units_Z   4
loop_
 _symmetry_equiv_pos_site_id
 _symmetry_equiv_pos_as_xyz
  1  'x, y, z'
loop_
 _atom_site_type_symbol
 _atom_site_label
 _atom_site_symmetry_multiplicity
 _atom_site_fract_x
 _atom_site_fract_y
 _atom_site_fract_z
 _atom_site_occupancy
  Cd  Cd0  1  0.00000000  0.28055900  0.07732900  1
  Cd  Cd1  1  0.00000000  0.28055900  0.42267100  1
  Cd  Cd2  1  0.00000000  0.71944100  0.92267100  1
  Cd  Cd3  1  0.00000000  0.71944100  0.57732900  1
  Hg  Hg4  1  0.50000000  0.25961100  0.75000000  1
  Hg  Hg5  1  0.50000000  0.74038900  0.25000000  1
  Hg  Hg6  1  0.50000000  0.00000000  0.50000000  1
  Hg  Hg7  1  0.50000000  0.00000000  0.00000000  1
  As  As8  1  0.50000000  0.24973300  0.98003800  1
  As  As9  1  0.50000000  0.75026700  0.01996200  1
  As  As10  1  0.50000000  0.24973300  0.51996200  1
  As  As11  1  0.50000000  0.75026700  0.48003800  1
  Br  Br12  1  0.00000000  0.52517200  0.75000000  1
  Br  Br13  1  0.00000000  0.47482800  0.25000000  1
  Br  Br14  1  0.00000000  0.07516300  0.25000000  1
  Br  Br15  1  0.00000000  0.92483700  0.75000000  1
