# generated using pymatgen
data_TiCl3
_symmetry_space_group_name_H-M   'P 1'
_cell_length_a   6.73715939
_cell_length_b   6.73715939
_cell_length_c   5.72147600
_cell_angle_alpha   90.00000000
_cell_angle_beta   90.00000000
_cell_angle_gamma   119.99999397
_symmetry_Int_Tables_number   1
_chemical_formula_structural   TiCl3
_chemical_formula_sum   'Ti2 Cl6'
_cell_volume   224.90151573
_cell_formula_units_Z   2
loop_
 _symmetry_equiv_pos_site_id
 _symmetry_equiv_pos_as_xyz
  1  'x, y, z'
loop_
 _atom_site_type_symbol
 _atom_site_label
 _atom_site_symmetry_multiplicity
 _atom_site_fract_x
 _atom_site_fract_y
 _atom_site_fract_z
 _atom_site_occupancy
  Ti  Ti0  1  0.00000000  0.00000000  0.00000000  1
  Ti  Ti1  1  0.00000000  0.00000000  0.50000000  1
  Cl  Cl2  1  0.71135100  0.00000000  0.75000000  1
  Cl  Cl3  1  0.00000000  0.28864900  0.25000000  1
  Cl  Cl4  1  0.28864900  0.00000000  0.25000000  1
  Cl  Cl5  1  0.00000000  0.71135100  0.75000000  1
  Cl  Cl6  1  0.71135100  0.71135100  0.25000000  1
  Cl  Cl7  1  0.28864900  0.28864900  0.75000000  1
