# generated using pymatgen
data_UTl2(TeO4)2
_symmetry_space_group_name_H-M   'P 1'
_cell_length_a   8.50609000
_cell_length_b   5.53682200
_cell_length_c   21.95071545
_cell_angle_alpha   77.27694939
_cell_angle_beta   90.00000000
_cell_angle_gamma   90.00000000
_symmetry_Int_Tables_number   1
_chemical_formula_structural   UTl2(TeO4)2
_chemical_formula_sum   'U4 Tl8 Te8 O32'
_cell_volume   1008.42233480
_cell_formula_units_Z   4
loop_
 _symmetry_equiv_pos_site_id
 _symmetry_equiv_pos_as_xyz
  1  'x, y, z'
loop_
 _atom_site_type_symbol
 _atom_site_label
 _atom_site_symmetry_multiplicity
 _atom_site_fract_x
 _atom_site_fract_y
 _atom_site_fract_z
 _atom_site_occupancy
  U  U0  1  0.67476300  0.59688800  0.64255500  1
  U  U1  1  0.32523700  0.40311200  0.35744500  1
  U  U2  1  0.82523700  0.59688800  0.14255500  1
  U  U3  1  0.17476300  0.40311200  0.85744500  1
  Tl  Tl4  1  0.61349000  0.79272100  0.45033700  1
  Tl  Tl5  1  0.66515900  0.41670600  0.85275200  1
  Tl  Tl6  1  0.16515900  0.58329400  0.64724800  1
  Tl  Tl7  1  0.11349000  0.20727900  0.04966300  1
  Tl  Tl8  1  0.88651000  0.79272100  0.95033700  1
  Tl  Tl9  1  0.33484100  0.58329400  0.14724800  1
  Tl  Tl10  1  0.83484100  0.41670600  0.35275200  1
  Tl  Tl11  1  0.38651000  0.20727900  0.54966300  1
  Te  Te12  1  0.57727100  0.98811300  0.26955700  1
  Te  Te13  1  0.58295900  0.17509100  0.05265600  1
  Te  Te14  1  0.42272900  0.01188700  0.73044300  1
  Te  Te15  1  0.91704100  0.17509100  0.55265600  1
  Te  Te16  1  0.92272900  0.98811300  0.76955700  1
  Te  Te17  1  0.41704100  0.82490900  0.94734400  1
  Te  Te18  1  0.07727100  0.01188700  0.23044300  1
  Te  Te19  1  0.08295900  0.82490900  0.44734400  1
  O  O20  1  0.53618600  0.77238600  0.58231300  1
  O  O21  1  0.40446400  0.18085900  0.28919200  1
  O  O22  1  0.59553600  0.81914100  0.71080800  1
  O  O23  1  0.98830400  0.67293000  0.82127000  1
  O  O24  1  0.34142200  0.89318400  0.02196300  1
  O  O25  1  0.36864200  0.12458000  0.88874400  1
  O  O26  1  0.90446400  0.81914100  0.21080800  1
  O  O27  1  0.18062700  0.57713300  0.29979000  1
  O  O28  1  0.01169600  0.32707000  0.17873000  1
  O  O29  1  0.68062700  0.42286700  0.20021000  1
  O  O30  1  0.75356500  0.37864100  0.07032300  1
  O  O31  1  0.96381400  0.77238600  0.08231300  1
  O  O32  1  0.81937300  0.42286700  0.70021000  1
  O  O33  1  0.73031400  0.03495900  0.32696000  1
  O  O34  1  0.65857800  0.10681600  0.97803700  1
  O  O35  1  0.25356500  0.62135900  0.42967700  1
  O  O36  1  0.15857800  0.89318400  0.52196300  1
  O  O37  1  0.03618600  0.22761400  0.91768700  1
  O  O38  1  0.09553600  0.18085900  0.78919200  1
  O  O39  1  0.63135800  0.87542000  0.11125600  1
  O  O40  1  0.24643500  0.62135900  0.92967700  1
  O  O41  1  0.48830400  0.32707000  0.67873000  1
  O  O42  1  0.31937300  0.57713300  0.79979000  1
  O  O43  1  0.84142200  0.10681600  0.47803700  1
  O  O44  1  0.76968600  0.03495900  0.82696000  1
  O  O45  1  0.51169600  0.67293000  0.32127000  1
  O  O46  1  0.23031400  0.96504100  0.17304000  1
  O  O47  1  0.86864200  0.87542000  0.61125600  1
  O  O48  1  0.74643500  0.37864100  0.57032300  1
  O  O49  1  0.26968600  0.96504100  0.67304000  1
  O  O50  1  0.46381400  0.22761400  0.41768700  1
  O  O51  1  0.13135800  0.12458000  0.38874400  1
