# generated using pymatgen
data_K9U6BiO24
_symmetry_space_group_name_H-M   'P 1'
_cell_length_a   8.76710000
_cell_length_b   8.76710000
_cell_length_c   8.76710000
_cell_angle_alpha   90.00000000
_cell_angle_beta   90.00000000
_cell_angle_gamma   90.00000000
_symmetry_Int_Tables_number   1
_chemical_formula_structural   K9U6BiO24
_chemical_formula_sum   'K9 U6 Bi1 O24'
_cell_volume   673.85721201
_cell_formula_units_Z   1
loop_
 _symmetry_equiv_pos_site_id
 _symmetry_equiv_pos_as_xyz
  1  'x, y, z'
loop_
 _atom_site_type_symbol
 _atom_site_label
 _atom_site_symmetry_multiplicity
 _atom_site_fract_x
 _atom_site_fract_y
 _atom_site_fract_z
 _atom_site_occupancy
  K  K0  1  0.00000000  0.00000000  0.00000000  1
  K  K1  1  0.75234700  0.75234700  0.75234700  1
  K  K2  1  0.24765300  0.24765300  0.75234700  1
  K  K3  1  0.75234700  0.24765300  0.24765300  1
  K  K4  1  0.24765300  0.24765300  0.24765300  1
  K  K5  1  0.24765300  0.75234700  0.24765300  1
  K  K6  1  0.75234700  0.24765300  0.75234700  1
  K  K7  1  0.24765300  0.75234700  0.75234700  1
  K  K8  1  0.75234700  0.75234700  0.24765300  1
  U  U9  1  0.00000000  0.00000000  0.50000000  1
  U  U10  1  0.00000000  0.50000000  0.00000000  1
  U  U11  1  0.50000000  0.00000000  0.00000000  1
  U  U12  1  0.50000000  0.50000000  0.00000000  1
  U  U13  1  0.00000000  0.50000000  0.50000000  1
  U  U14  1  0.50000000  0.00000000  0.50000000  1
  Bi  Bi15  1  0.50000000  0.50000000  0.50000000  1
  O  O16  1  0.28497800  0.00000000  0.00000000  1
  O  O17  1  0.50000000  0.25495500  0.00000000  1
  O  O18  1  0.00000000  0.71502200  0.00000000  1
  O  O19  1  0.50000000  0.00000000  0.25495500  1
  O  O20  1  0.50000000  0.50000000  0.23065200  1
  O  O21  1  0.00000000  0.50000000  0.25495500  1
  O  O22  1  0.00000000  0.28497800  0.00000000  1
  O  O23  1  0.25495500  0.00000000  0.50000000  1
  O  O24  1  0.50000000  0.50000000  0.76934800  1
  O  O25  1  0.74504500  0.00000000  0.50000000  1
  O  O26  1  0.00000000  0.50000000  0.74504500  1
  O  O27  1  0.50000000  0.00000000  0.74504500  1
  O  O28  1  0.71502200  0.00000000  0.00000000  1
  O  O29  1  0.00000000  0.74504500  0.50000000  1
  O  O30  1  0.50000000  0.76934800  0.50000000  1
  O  O31  1  0.50000000  0.23065200  0.50000000  1
  O  O32  1  0.00000000  0.25495500  0.50000000  1
  O  O33  1  0.76934800  0.50000000  0.50000000  1
  O  O34  1  0.25495500  0.50000000  0.00000000  1
  O  O35  1  0.74504500  0.50000000  0.00000000  1
  O  O36  1  0.00000000  0.00000000  0.28497800  1
  O  O37  1  0.50000000  0.74504500  0.00000000  1
  O  O38  1  0.23065200  0.50000000  0.50000000  1
  O  O39  1  0.00000000  0.00000000  0.71502200  1
