# generated using pymatgen
data_Ce3Si11Pt23
_symmetry_space_group_name_H-M   'P 1'
_cell_length_a   12.06293622
_cell_length_b   12.06293622
_cell_length_c   12.06293622
_cell_angle_alpha   60.00000000
_cell_angle_beta   60.00000000
_cell_angle_gamma   60.00000000
_symmetry_Int_Tables_number   1
_chemical_formula_structural   Ce3Si11Pt23
_chemical_formula_sum   'Ce6 Si22 Pt46'
_cell_volume   1241.20665826
_cell_formula_units_Z   2
loop_
 _symmetry_equiv_pos_site_id
 _symmetry_equiv_pos_as_xyz
  1  'x, y, z'
loop_
 _atom_site_type_symbol
 _atom_site_label
 _atom_site_symmetry_multiplicity
 _atom_site_fract_x
 _atom_site_fract_y
 _atom_site_fract_z
 _atom_site_occupancy
  Ce  Ce0  1  0.00000000  0.50000000  0.00000000  1
  Ce  Ce1  1  0.50000000  0.50000000  0.00000000  1
  Ce  Ce2  1  0.50000000  0.00000000  0.00000000  1
  Ce  Ce3  1  0.00000000  0.00000000  0.50000000  1
  Ce  Ce4  1  0.00000000  0.50000000  0.50000000  1
  Ce  Ce5  1  0.50000000  0.00000000  0.50000000  1
  Si  Si6  1  0.83436300  0.83436300  0.49691100  1
  Si  Si7  1  0.16563700  0.50308900  0.16563700  1
  Si  Si8  1  0.82945200  0.17054800  0.82945200  1
  Si  Si9  1  0.83436300  0.83436300  0.83436300  1
  Si  Si10  1  0.60631600  0.60631600  0.18105200  1
  Si  Si11  1  0.49691100  0.83436300  0.83436300  1
  Si  Si12  1  0.17054800  0.17054800  0.82945200  1
  Si  Si13  1  0.81894800  0.39368400  0.39368400  1
  Si  Si14  1  0.60631600  0.18105200  0.60631600  1
  Si  Si15  1  0.17054800  0.82945200  0.17054800  1
  Si  Si16  1  0.82945200  0.17054800  0.17054800  1
  Si  Si17  1  0.60631600  0.60631600  0.60631600  1
  Si  Si18  1  0.17054800  0.82945200  0.82945200  1
  Si  Si19  1  0.16563700  0.16563700  0.50308900  1
  Si  Si20  1  0.82945200  0.82945200  0.17054800  1
  Si  Si21  1  0.83436300  0.49691100  0.83436300  1
  Si  Si22  1  0.39368400  0.39368400  0.81894800  1
  Si  Si23  1  0.39368400  0.81894800  0.39368400  1
  Si  Si24  1  0.18105200  0.60631600  0.60631600  1
  Si  Si25  1  0.16563700  0.16563700  0.16563700  1
  Si  Si26  1  0.50308900  0.16563700  0.16563700  1
  Si  Si27  1  0.39368400  0.39368400  0.39368400  1
  Pt  Pt28  1  0.37426700  0.62573300  0.37426700  1
  Pt  Pt29  1  0.42073800  0.08313300  0.74806500  1
  Pt  Pt30  1  0.91686700  0.57926200  0.25193500  1
  Pt  Pt31  1  0.25193500  0.25193500  0.91686700  1
  Pt  Pt32  1  0.91692400  0.24922800  0.91692400  1
  Pt  Pt33  1  0.74806500  0.08313300  0.42073800  1
  Pt  Pt34  1  0.37426700  0.37426700  0.62573300  1
  Pt  Pt35  1  0.74806500  0.74806500  0.08313300  1
  Pt  Pt36  1  0.57926200  0.91686700  0.25193500  1
  Pt  Pt37  1  0.25193500  0.57926200  0.25193500  1
  Pt  Pt38  1  0.08313300  0.74806500  0.42073800  1
  Pt  Pt39  1  0.74806500  0.08313300  0.74806500  1
  Pt  Pt40  1  0.57926200  0.25193500  0.91686700  1
  Pt  Pt41  1  0.25193500  0.57926200  0.91686700  1
  Pt  Pt42  1  0.08307600  0.75077200  0.08307600  1
  Pt  Pt43  1  0.91692400  0.91692400  0.91692400  1
  Pt  Pt44  1  0.37426700  0.62573300  0.62573300  1
  Pt  Pt45  1  0.30859300  0.07422000  0.30859300  1
  Pt  Pt46  1  0.30859300  0.30859300  0.30859300  1
  Pt  Pt47  1  0.25193500  0.91686700  0.25193500  1
  Pt  Pt48  1  0.91692400  0.91692400  0.24922800  1
  Pt  Pt49  1  0.57926200  0.25193500  0.25193500  1
  Pt  Pt50  1  0.08307600  0.08307600  0.75077200  1
  Pt  Pt51  1  0.25193500  0.91686700  0.57926200  1
  Pt  Pt52  1  0.69140700  0.69140700  0.69140700  1
  Pt  Pt53  1  0.30859300  0.30859300  0.07422000  1
  Pt  Pt54  1  0.74806500  0.74806500  0.42073800  1
  Pt  Pt55  1  0.25193500  0.25193500  0.57926200  1
  Pt  Pt56  1  0.69140700  0.92578000  0.69140700  1
  Pt  Pt57  1  0.24922800  0.91692400  0.91692400  1
  Pt  Pt58  1  0.91686700  0.25193500  0.57926200  1
  Pt  Pt59  1  0.42073800  0.74806500  0.08313300  1
  Pt  Pt60  1  0.08307600  0.08307600  0.08307600  1
  Pt  Pt61  1  0.75077200  0.08307600  0.08307600  1
  Pt  Pt62  1  0.42073800  0.74806500  0.74806500  1
  Pt  Pt63  1  0.62573300  0.37426700  0.37426700  1
  Pt  Pt64  1  0.74806500  0.42073800  0.74806500  1
  Pt  Pt65  1  0.74806500  0.42073800  0.08313300  1
  Pt  Pt66  1  0.62573300  0.37426700  0.62573300  1
  Pt  Pt67  1  0.07422000  0.30859300  0.30859300  1
  Pt  Pt68  1  0.92578000  0.69140700  0.69140700  1
  Pt  Pt69  1  0.91686700  0.25193500  0.25193500  1
  Pt  Pt70  1  0.69140700  0.69140700  0.92578000  1
  Pt  Pt71  1  0.62573300  0.62573300  0.37426700  1
  Pt  Pt72  1  0.08313300  0.42073800  0.74806500  1
  Pt  Pt73  1  0.08313300  0.74806500  0.74806500  1
