# generated using pymatgen
data_CaZr(PO4)2
_symmetry_space_group_name_H-M   'P 1'
_cell_length_a   6.31303000
_cell_length_b   6.80786600
_cell_length_c   14.80569500
_cell_angle_alpha   90.00000000
_cell_angle_beta   90.00000000
_cell_angle_gamma   90.00000000
_symmetry_Int_Tables_number   1
_chemical_formula_structural   CaZr(PO4)2
_chemical_formula_sum   'Ca4 Zr4 P8 O32'
_cell_volume   636.32304315
_cell_formula_units_Z   4
loop_
 _symmetry_equiv_pos_site_id
 _symmetry_equiv_pos_as_xyz
  1  'x, y, z'
loop_
 _atom_site_type_symbol
 _atom_site_label
 _atom_site_symmetry_multiplicity
 _atom_site_fract_x
 _atom_site_fract_y
 _atom_site_fract_z
 _atom_site_occupancy
  Ca  Ca0  1  0.55256100  0.75000000  0.15046200  1
  Ca  Ca1  1  0.05256100  0.75000000  0.34953800  1
  Ca  Ca2  1  0.94743900  0.25000000  0.65046200  1
  Ca  Ca3  1  0.44743900  0.25000000  0.84953800  1
  Zr  Zr4  1  0.17561000  0.75000000  0.89088900  1
  Zr  Zr5  1  0.82439000  0.25000000  0.10911100  1
  Zr  Zr6  1  0.67561000  0.75000000  0.60911100  1
  Zr  Zr7  1  0.32439000  0.25000000  0.39088900  1
  P  P8  1  0.13117100  0.75000000  0.64829400  1
  P  P9  1  0.86882900  0.25000000  0.35170600  1
  P  P10  1  0.04130500  0.75000000  0.11555600  1
  P  P11  1  0.36882900  0.25000000  0.14829400  1
  P  P12  1  0.54130500  0.75000000  0.38444400  1
  P  P13  1  0.63117100  0.75000000  0.85170600  1
  P  P14  1  0.95869500  0.25000000  0.88444400  1
  P  P15  1  0.45869500  0.25000000  0.61555600  1
  O  O16  1  0.38992600  0.92947600  0.38674600  1
  O  O17  1  0.84158000  0.75000000  0.90224900  1
  O  O18  1  0.34158000  0.75000000  0.59775100  1
  O  O19  1  0.88992600  0.92947600  0.11325400  1
  O  O20  1  0.61007400  0.07052400  0.61325400  1
  O  O21  1  0.38992600  0.57052400  0.38674600  1
  O  O22  1  0.16874000  0.75000000  0.75103300  1
  O  O23  1  0.11007400  0.07052400  0.88674600  1
  O  O24  1  0.51590700  0.07752500  0.12012700  1
  O  O25  1  0.88992600  0.57052400  0.11325400  1
  O  O26  1  0.15842000  0.25000000  0.09775100  1
  O  O27  1  0.19532500  0.75000000  0.03282100  1
  O  O28  1  0.18112500  0.75000000  0.20083500  1
  O  O29  1  0.65842000  0.25000000  0.40224900  1
  O  O30  1  0.01590700  0.42247500  0.37987300  1
  O  O31  1  0.66874000  0.75000000  0.74896700  1
  O  O32  1  0.01590700  0.07752500  0.37987300  1
  O  O33  1  0.83126000  0.25000000  0.24896700  1
  O  O34  1  0.69532500  0.75000000  0.46717900  1
  O  O35  1  0.80467500  0.25000000  0.96717900  1
  O  O36  1  0.98409300  0.57752500  0.62012700  1
  O  O37  1  0.48409300  0.57752500  0.87987300  1
  O  O38  1  0.51590700  0.42247500  0.12012700  1
  O  O39  1  0.31887500  0.25000000  0.70083500  1
  O  O40  1  0.68112500  0.75000000  0.29916500  1
  O  O41  1  0.98409300  0.92247500  0.62012700  1
  O  O42  1  0.33126000  0.25000000  0.25103300  1
  O  O43  1  0.61007400  0.42947600  0.61325400  1
  O  O44  1  0.48409300  0.92247500  0.87987300  1
  O  O45  1  0.81887500  0.25000000  0.79916500  1
  O  O46  1  0.30467500  0.25000000  0.53282100  1
  O  O47  1  0.11007400  0.42947600  0.88674600  1
