# generated using pymatgen
data_KNd(WO4)2
_symmetry_space_group_name_H-M   'P 1'
_cell_length_a   7.53044134
_cell_length_b   7.53044134
_cell_length_c   7.59894660
_cell_angle_alpha   66.26646158
_cell_angle_beta   66.26646158
_cell_angle_gamma   92.76554452
_symmetry_Int_Tables_number   1
_chemical_formula_structural   KNd(WO4)2
_chemical_formula_sum   'K2 Nd2 W4 O16'
_cell_volume   349.56257274
_cell_formula_units_Z   2
loop_
 _symmetry_equiv_pos_site_id
 _symmetry_equiv_pos_as_xyz
  1  'x, y, z'
loop_
 _atom_site_type_symbol
 _atom_site_label
 _atom_site_symmetry_multiplicity
 _atom_site_fract_x
 _atom_site_fract_y
 _atom_site_fract_z
 _atom_site_occupancy
  K  K0  1  0.68897800  0.68897800  0.47342300  1
  K  K1  1  0.31102200  0.31102200  0.52657700  1
  Nd  Nd2  1  0.30109000  0.69891000  0.00000000  1
  Nd  Nd3  1  0.69891000  0.30109000  0.00000000  1
  W  W4  1  0.83764400  0.16235600  0.50000000  1
  W  W5  1  0.20403900  0.20403900  0.05665100  1
  W  W6  1  0.79596100  0.79596100  0.94334900  1
  W  W7  1  0.16235600  0.83764400  0.50000000  1
  O  O8  1  0.21785000  0.69041200  0.35395500  1
  O  O9  1  0.42607200  0.42607200  0.89230700  1
  O  O10  1  0.34666200  0.09356400  0.26053200  1
  O  O11  1  0.98365500  0.98365500  0.34420500  1
  O  O12  1  0.30958800  0.78215000  0.64604500  1
  O  O13  1  0.65333800  0.90643600  0.73946800  1
  O  O14  1  0.95964200  0.70460000  0.06468200  1
  O  O15  1  0.01634500  0.01634500  0.65579500  1
  O  O16  1  0.90643600  0.65333800  0.73946800  1
  O  O17  1  0.78215000  0.30958800  0.64604500  1
  O  O18  1  0.09356400  0.34666200  0.26053200  1
  O  O19  1  0.57392800  0.57392800  0.10769300  1
  O  O20  1  0.04035800  0.29540000  0.93531800  1
  O  O21  1  0.70460000  0.95964200  0.06468200  1
  O  O22  1  0.29540000  0.04035800  0.93531800  1
  O  O23  1  0.69041200  0.21785000  0.35395500  1
