# generated using pymatgen
data_RbMnF4
_symmetry_space_group_name_H-M   'P 1'
_cell_length_a   7.97571100
_cell_length_b   6.16482600
_cell_length_c   7.99920807
_cell_angle_alpha   89.14334719
_cell_angle_beta   90.00000000
_cell_angle_gamma   90.00000000
_symmetry_Int_Tables_number   1
_chemical_formula_structural   RbMnF4
_chemical_formula_sum   'Rb4 Mn4 F16'
_cell_volume   393.26806561
_cell_formula_units_Z   4
loop_
 _symmetry_equiv_pos_site_id
 _symmetry_equiv_pos_as_xyz
  1  'x, y, z'
loop_
 _atom_site_type_symbol
 _atom_site_label
 _atom_site_symmetry_multiplicity
 _atom_site_fract_x
 _atom_site_fract_y
 _atom_site_fract_z
 _atom_site_occupancy
  Rb  Rb0  1  0.29568200  0.48764200  0.25340500  1
  Rb  Rb1  1  0.79568200  0.51235800  0.24659500  1
  Rb  Rb2  1  0.70431800  0.51235800  0.74659500  1
  Rb  Rb3  1  0.20431800  0.48764200  0.75340500  1
  Mn  Mn4  1  0.00000000  0.00000000  0.00000000  1
  Mn  Mn5  1  0.00000000  0.00000000  0.50000000  1
  Mn  Mn6  1  0.50000000  0.00000000  0.00000000  1
  Mn  Mn7  1  0.50000000  0.00000000  0.50000000  1
  F  F8  1  0.93560700  0.28490600  0.95480700  1
  F  F9  1  0.95031800  0.28572200  0.55192100  1
  F  F10  1  0.45031800  0.71427800  0.94807900  1
  F  F11  1  0.04968200  0.71427800  0.44807900  1
  F  F12  1  0.22969500  0.09499700  0.99782300  1
  F  F13  1  0.72969500  0.90500300  0.50217700  1
  F  F14  1  0.77030500  0.90500300  0.00217700  1
  F  F15  1  0.27030500  0.09499700  0.49782300  1
  F  F16  1  0.01355300  0.92189300  0.73237300  1
  F  F17  1  0.51355300  0.07810700  0.76762700  1
  F  F18  1  0.98644700  0.07810700  0.26762700  1
  F  F19  1  0.48644700  0.92189300  0.23237300  1
  F  F20  1  0.56439300  0.28490600  0.45480700  1
  F  F21  1  0.43560700  0.71509400  0.54519300  1
  F  F22  1  0.06439300  0.71509400  0.04519300  1
  F  F23  1  0.54968200  0.28572200  0.05192100  1
