# generated using pymatgen
data_Hf5(In2Rh)2
_symmetry_space_group_name_H-M   'P 1'
_cell_length_a   3.39888200
_cell_length_b   7.72256200
_cell_length_c   17.64890100
_cell_angle_alpha   90.00000000
_cell_angle_beta   90.00000000
_cell_angle_gamma   90.00000000
_symmetry_Int_Tables_number   1
_chemical_formula_structural   Hf5(In2Rh)2
_chemical_formula_sum   'Hf10 In8 Rh4'
_cell_volume   463.24971198
_cell_formula_units_Z   2
loop_
 _symmetry_equiv_pos_site_id
 _symmetry_equiv_pos_as_xyz
  1  'x, y, z'
loop_
 _atom_site_type_symbol
 _atom_site_label
 _atom_site_symmetry_multiplicity
 _atom_site_fract_x
 _atom_site_fract_y
 _atom_site_fract_z
 _atom_site_occupancy
  Hf  Hf0  1  0.00000000  0.25901300  0.22182900  1
  Hf  Hf1  1  0.00000000  0.63600100  0.07999700  1
  Hf  Hf2  1  0.00000000  0.75901300  0.27817100  1
  Hf  Hf3  1  0.00000000  0.86399900  0.57999700  1
  Hf  Hf4  1  0.00000000  0.24098700  0.72182900  1
  Hf  Hf5  1  0.00000000  0.74098700  0.77817100  1
  Hf  Hf6  1  0.00000000  0.13600100  0.42000300  1
  Hf  Hf7  1  0.00000000  0.00000000  0.00000000  1
  Hf  Hf8  1  0.00000000  0.36399900  0.92000300  1
  Hf  Hf9  1  0.00000000  0.50000000  0.50000000  1
  In  In10  1  0.50000000  0.79924300  0.43269400  1
  In  In11  1  0.50000000  0.70075700  0.93269400  1
  In  In12  1  0.50000000  0.06259000  0.85103200  1
  In  In13  1  0.50000000  0.56259000  0.64896800  1
  In  In14  1  0.50000000  0.20075700  0.56730600  1
  In  In15  1  0.50000000  0.93741000  0.14896800  1
  In  In16  1  0.50000000  0.43741000  0.35103200  1
  In  In17  1  0.50000000  0.29924300  0.06730600  1
  Rh  Rh18  1  0.50000000  0.45179900  0.80668200  1
  Rh  Rh19  1  0.50000000  0.54820100  0.19331800  1
  Rh  Rh20  1  0.50000000  0.95179900  0.69331800  1
  Rh  Rh21  1  0.50000000  0.04820100  0.30668200  1
