# generated using pymatgen
data_BaPt2S3
_symmetry_space_group_name_H-M   'P 1'
_cell_length_a   11.20913000
_cell_length_b   11.20913000
_cell_length_c   13.33911600
_cell_angle_alpha   90.00000000
_cell_angle_beta   90.00000000
_cell_angle_gamma   90.00000000
_symmetry_Int_Tables_number   1
_chemical_formula_structural   BaPt2S3
_chemical_formula_sum   'Ba12 Pt24 S36'
_cell_volume   1675.98783224
_cell_formula_units_Z   12
loop_
 _symmetry_equiv_pos_site_id
 _symmetry_equiv_pos_as_xyz
  1  'x, y, z'
loop_
 _atom_site_type_symbol
 _atom_site_label
 _atom_site_symmetry_multiplicity
 _atom_site_fract_x
 _atom_site_fract_y
 _atom_site_fract_z
 _atom_site_occupancy
  Ba  Ba0  1  0.89863000  0.67747000  0.24985900  1
  Ba  Ba1  1  0.82253000  0.39863000  0.49985900  1
  Ba  Ba2  1  0.67747000  0.89863000  0.75014100  1
  Ba  Ba3  1  0.60137000  0.17747000  0.00014100  1
  Ba  Ba4  1  0.17747000  0.60137000  0.99985900  1
  Ba  Ba5  1  0.10137000  0.32253000  0.74985900  1
  Ba  Ba6  1  0.39412900  0.39412900  0.50000000  1
  Ba  Ba7  1  0.32253000  0.10137000  0.25014100  1
  Ba  Ba8  1  0.39863000  0.82253000  0.50014100  1
  Ba  Ba9  1  0.10587100  0.89412900  0.75000000  1
  Ba  Ba10  1  0.89412900  0.10587100  0.25000000  1
  Ba  Ba11  1  0.60587100  0.60587100  0.00000000  1
  Pt  Pt12  1  0.63430300  0.03968600  0.36694600  1
  Pt  Pt13  1  0.35783500  0.26968700  0.86787600  1
  Pt  Pt14  1  0.11126500  0.11126500  0.00000000  1
  Pt  Pt15  1  0.03968600  0.63430300  0.63305400  1
  Pt  Pt16  1  0.38655400  0.61344600  0.75000000  1
  Pt  Pt17  1  0.88873500  0.88873500  0.50000000  1
  Pt  Pt18  1  0.76968700  0.14216500  0.61787600  1
  Pt  Pt19  1  0.13430300  0.46031400  0.38305400  1
  Pt  Pt20  1  0.88655400  0.88655400  0.00000000  1
  Pt  Pt21  1  0.73031300  0.64216500  0.63212400  1
  Pt  Pt22  1  0.85783500  0.23031300  0.88212400  1
  Pt  Pt23  1  0.23031300  0.85783500  0.11787600  1
  Pt  Pt24  1  0.61126500  0.38873500  0.75000000  1
  Pt  Pt25  1  0.46031400  0.13430300  0.61694600  1
  Pt  Pt26  1  0.53968600  0.86569700  0.11694600  1
  Pt  Pt27  1  0.11344600  0.11344600  0.50000000  1
  Pt  Pt28  1  0.14216500  0.76968700  0.38212400  1
  Pt  Pt29  1  0.64216500  0.73031300  0.36787600  1
  Pt  Pt30  1  0.86569700  0.53968600  0.88305400  1
  Pt  Pt31  1  0.38873500  0.61126500  0.25000000  1
  Pt  Pt32  1  0.96031400  0.36569700  0.13305400  1
  Pt  Pt33  1  0.61344600  0.38655400  0.25000000  1
  Pt  Pt34  1  0.36569700  0.96031400  0.86694600  1
  Pt  Pt35  1  0.26968700  0.35783500  0.13212400  1
  S  S36  1  0.11428500  0.32259900  0.25127200  1
  S  S37  1  0.17740100  0.61428500  0.50127200  1
  S  S38  1  0.59850600  0.59850600  0.50000000  1
  S  S39  1  0.31984700  0.11250000  0.98035400  1
  S  S40  1  0.59763200  0.59455000  0.23876800  1
  S  S41  1  0.68015300  0.88750000  0.48035400  1
  S  S42  1  0.09850600  0.90149400  0.25000000  1
  S  S43  1  0.09455000  0.90236800  0.98876800  1
  S  S44  1  0.32409700  0.10490000  0.48260700  1
  S  S45  1  0.82259900  0.38571500  0.00127200  1
  S  S46  1  0.09763200  0.90545000  0.51123200  1
  S  S47  1  0.17590300  0.60490000  0.76739300  1
  S  S48  1  0.39510000  0.82409700  0.73260700  1
  S  S49  1  0.90236800  0.09455000  0.01123200  1
  S  S50  1  0.82409700  0.39510000  0.26739300  1
  S  S51  1  0.32259900  0.11428500  0.74872800  1
  S  S52  1  0.89510000  0.67590300  0.01739300  1
  S  S53  1  0.11250000  0.31984700  0.01964600  1
  S  S54  1  0.61250000  0.18015300  0.73035400  1
  S  S55  1  0.61428500  0.17740100  0.49872800  1
  S  S56  1  0.40149400  0.40149400  0.00000000  1
  S  S57  1  0.67590300  0.89510000  0.98260700  1
  S  S58  1  0.90545000  0.09763200  0.48876800  1
  S  S59  1  0.40236800  0.40545000  0.73876800  1
  S  S60  1  0.18015300  0.61250000  0.26964600  1
  S  S61  1  0.60490000  0.17590300  0.23260700  1
  S  S62  1  0.81984700  0.38750000  0.76964600  1
  S  S63  1  0.90149400  0.09850600  0.75000000  1
  S  S64  1  0.88571500  0.67740100  0.75127200  1
  S  S65  1  0.38750000  0.81984700  0.23035400  1
  S  S66  1  0.88750000  0.68015300  0.51964600  1
  S  S67  1  0.59455000  0.59763200  0.76123200  1
  S  S68  1  0.67740100  0.88571500  0.24872800  1
  S  S69  1  0.10490000  0.32409700  0.51739300  1
  S  S70  1  0.38571500  0.82259900  0.99872800  1
  S  S71  1  0.40545000  0.40236800  0.26123200  1
