# generated using pymatgen
data_KNa2LiTi2Fe2(SiO3)8
_symmetry_space_group_name_H-M   'P 1'
_cell_length_a   10.47850126
_cell_length_b   10.47850126
_cell_length_c   10.09955815
_cell_angle_alpha   70.17293393
_cell_angle_beta   70.17293393
_cell_angle_gamma   75.35930327
_symmetry_Int_Tables_number   1
_chemical_formula_structural   KNa2LiTi2Fe2(SiO3)8
_chemical_formula_sum   'K2 Na4 Li2 Ti4 Fe4 Si16 O48'
_cell_volume   969.39088618
_cell_formula_units_Z   2
loop_
 _symmetry_equiv_pos_site_id
 _symmetry_equiv_pos_as_xyz
  1  'x, y, z'
loop_
 _atom_site_type_symbol
 _atom_site_label
 _atom_site_symmetry_multiplicity
 _atom_site_fract_x
 _atom_site_fract_y
 _atom_site_fract_z
 _atom_site_occupancy
  K  K0  1  0.58401900  0.41817200  0.25487100  1
  K  K1  1  0.41817200  0.58401900  0.75487100  1
  Na  Na2  1  0.53490300  0.93824700  0.31195400  1
  Na  Na3  1  0.93824700  0.53490300  0.81195400  1
  Na  Na4  1  0.46302100  0.05892200  0.71054700  1
  Na  Na5  1  0.05892200  0.46302100  0.21054700  1
  Li  Li6  1  0.06145400  0.93307600  0.26507400  1
  Li  Li7  1  0.93307600  0.06145400  0.76507400  1
  Ti  Ti8  1  0.33080500  0.98320700  0.11037400  1
  Ti  Ti9  1  0.98320700  0.33080500  0.61037400  1
  Ti  Ti10  1  0.86019800  0.96215300  0.12230700  1
  Ti  Ti11  1  0.96215300  0.86019800  0.62230700  1
  Fe  Fe12  1  0.65633700  0.02096700  0.90721800  1
  Fe  Fe13  1  0.02096700  0.65633700  0.40721800  1
  Fe  Fe14  1  0.14790100  0.02942000  0.89275300  1
  Fe  Fe15  1  0.02942000  0.14790100  0.39275300  1
  Si  Si16  1  0.44825700  0.26024900  0.06639300  1
  Si  Si17  1  0.26024900  0.44825700  0.56639300  1
  Si  Si18  1  0.54877200  0.74060100  0.94758300  1
  Si  Si19  1  0.74060100  0.54877200  0.44758300  1
  Si  Si20  1  0.24895200  0.70516200  0.08823400  1
  Si  Si21  1  0.70516200  0.24895200  0.58823400  1
  Si  Si22  1  0.75412600  0.28950800  0.92158900  1
  Si  Si23  1  0.28950800  0.75412600  0.42158900  1
  Si  Si24  1  0.75690900  0.70345000  0.11644200  1
  Si  Si25  1  0.70345000  0.75690900  0.61644200  1
  Si  Si26  1  0.24892800  0.29445400  0.89519300  1
  Si  Si27  1  0.29445400  0.24892800  0.39519300  1
  Si  Si28  1  0.95897800  0.25385400  0.08463700  1
  Si  Si29  1  0.25385400  0.95897800  0.58463700  1
  Si  Si30  1  0.04056600  0.74886600  0.92288000  1
  Si  Si31  1  0.74886600  0.04056600  0.42288000  1
  O  O32  1  0.99274700  0.09304000  0.07720000  1
  O  O33  1  0.09304000  0.99274700  0.57720000  1
  O  O34  1  0.99266500  0.90640400  0.93530800  1
  O  O35  1  0.90640400  0.99266500  0.43530800  1
  O  O36  1  0.22228600  0.87080100  0.07553900  1
  O  O37  1  0.87080100  0.22228600  0.57553900  1
  O  O38  1  0.78718200  0.12552900  0.93885000  1
  O  O39  1  0.12552900  0.78718200  0.43885000  1
  O  O40  1  0.72831800  0.05524800  0.26477500  1
  O  O41  1  0.05524800  0.72831800  0.76477500  1
  O  O42  1  0.27933000  0.94521500  0.73656400  1
  O  O43  1  0.94521500  0.27933000  0.23656400  1
  O  O44  1  0.19744800  0.06043600  0.22928100  1
  O  O45  1  0.06043600  0.19744800  0.72928100  1
  O  O46  1  0.82634700  0.92883600  0.74705700  1
  O  O47  1  0.92883600  0.82634700  0.24705700  1
  O  O48  1  0.72230900  0.86640400  0.10648800  1
  O  O49  1  0.86640400  0.72230900  0.60648800  1
  O  O50  1  0.29040800  0.13085800  0.91422600  1
  O  O51  1  0.13085800  0.29040800  0.41422600  1
  O  O52  1  0.92148200  0.65330800  0.04427800  1
  O  O53  1  0.65330800  0.92148200  0.54427800  1
  O  O54  1  0.08211200  0.34009500  0.95659700  1
  O  O55  1  0.34009500  0.08211200  0.45659700  1
  O  O56  1  0.47548900  0.09584200  0.08423800  1
  O  O57  1  0.09584200  0.47548900  0.58423800  1
  O  O58  1  0.51096000  0.90142800  0.93952600  1
  O  O59  1  0.90142800  0.51096000  0.43952600  1
  O  O60  1  0.67046600  0.66245900  0.03133400  1
  O  O61  1  0.66245900  0.67046600  0.53133400  1
  O  O62  1  0.32889800  0.34301700  0.98147300  1
  O  O63  1  0.34301700  0.32889800  0.48147300  1
  O  O64  1  0.39252800  0.29211600  0.22667100  1
  O  O65  1  0.29211600  0.39252800  0.72667100  1
  O  O66  1  0.60729800  0.71314400  0.78467300  1
  O  O67  1  0.71314400  0.60729800  0.28467300  1
  O  O68  1  0.38710400  0.82069700  0.25792600  1
  O  O69  1  0.82069700  0.38710400  0.75792600  1
  O  O70  1  0.60658100  0.18581900  0.74569900  1
  O  O71  1  0.18581900  0.60658100  0.24569900  1
  O  O72  1  0.41766200  0.65676800  0.02797500  1
  O  O73  1  0.65676800  0.41766200  0.52797500  1
  O  O74  1  0.58520700  0.33606300  0.98023100  1
  O  O75  1  0.33606300  0.58520700  0.48023100  1
  O  O76  1  0.81827200  0.32995300  0.03029100  1
  O  O77  1  0.32995300  0.81827200  0.53029100  1
  O  O78  1  0.18459200  0.67999700  0.96890500  1
  O  O79  1  0.67999700  0.18459200  0.46890500  1
