# generated using pymatgen
data_Li5Mn7O16
_symmetry_space_group_name_H-M   'P 1'
_cell_length_a   5.82573700
_cell_length_b   8.39120500
_cell_length_c   11.76897500
_cell_angle_alpha   90.00000000
_cell_angle_beta   90.00000000
_cell_angle_gamma   90.00000000
_symmetry_Int_Tables_number   1
_chemical_formula_structural   Li5Mn7O16
_chemical_formula_sum   'Li10 Mn14 O32'
_cell_volume   575.32579495
_cell_formula_units_Z   2
loop_
 _symmetry_equiv_pos_site_id
 _symmetry_equiv_pos_as_xyz
  1  'x, y, z'
loop_
 _atom_site_type_symbol
 _atom_site_label
 _atom_site_symmetry_multiplicity
 _atom_site_fract_x
 _atom_site_fract_y
 _atom_site_fract_z
 _atom_site_occupancy
  Li  Li0  1  0.50000000  0.00000000  0.00000000  1
  Li  Li1  1  0.50000000  0.62238800  0.12055800  1
  Li  Li2  1  0.00000000  0.12238800  0.37944200  1
  Li  Li3  1  0.50000000  0.37761200  0.87944200  1
  Li  Li4  1  0.50000000  0.61238900  0.62228700  1
  Li  Li5  1  0.00000000  0.50000000  0.50000000  1
  Li  Li6  1  0.00000000  0.88761100  0.12228700  1
  Li  Li7  1  0.00000000  0.11238900  0.87771300  1
  Li  Li8  1  0.50000000  0.38761100  0.37771300  1
  Li  Li9  1  0.00000000  0.87761200  0.62055800  1
  Mn  Mn10  1  0.74786200  0.24497100  0.12753900  1
  Mn  Mn11  1  0.00000000  0.50000000  0.00000000  1
  Mn  Mn12  1  0.00000000  0.50108900  0.25005600  1
  Mn  Mn13  1  0.24786200  0.74497100  0.37246100  1
  Mn  Mn14  1  0.25213800  0.24497100  0.12753900  1
  Mn  Mn15  1  0.50000000  0.00108900  0.24994400  1
  Mn  Mn16  1  0.50000000  0.00000000  0.50000000  1
  Mn  Mn17  1  0.75213800  0.74497100  0.37246100  1
  Mn  Mn18  1  0.75213800  0.25502900  0.62753900  1
  Mn  Mn19  1  0.00000000  0.49891100  0.74994400  1
  Mn  Mn20  1  0.25213800  0.75502900  0.87246100  1
  Mn  Mn21  1  0.24786200  0.25502900  0.62753900  1
  Mn  Mn22  1  0.50000000  0.99891100  0.75005600  1
  Mn  Mn23  1  0.74786200  0.75502900  0.87246100  1
  O  O24  1  0.26958600  0.97884700  0.86129800  1
  O  O25  1  0.50000000  0.75146000  0.97724800  1
  O  O26  1  0.73041400  0.97884700  0.86129800  1
  O  O27  1  0.77631500  0.51846900  0.87523400  1
  O  O28  1  0.77631500  0.48153100  0.12476600  1
  O  O29  1  0.00000000  0.76068200  0.97850800  1
  O  O30  1  0.00000000  0.23931800  0.02149200  1
  O  O31  1  0.00000000  0.26870400  0.24148500  1
  O  O32  1  0.22368500  0.51846900  0.87523400  1
  O  O33  1  0.22368500  0.48153100  0.12476600  1
  O  O34  1  0.26958600  0.02115300  0.13870200  1
  O  O35  1  0.27631500  0.98153100  0.37523400  1
  O  O36  1  0.50000000  0.23650300  0.24155800  1
  O  O37  1  0.50000000  0.24854000  0.02275200  1
  O  O38  1  0.50000000  0.76870400  0.25851500  1
  O  O39  1  0.50000000  0.73931800  0.47850800  1
  O  O40  1  0.73041400  0.02115300  0.13870200  1
  O  O41  1  0.72368500  0.98153100  0.37523400  1
  O  O42  1  0.76958600  0.52115300  0.36129800  1
  O  O43  1  0.76958600  0.47884700  0.63870200  1
  O  O44  1  0.00000000  0.74854000  0.47724800  1
  O  O45  1  0.00000000  0.73650300  0.25844200  1
  O  O46  1  0.00000000  0.25146000  0.52275200  1
  O  O47  1  0.00000000  0.26349700  0.74155800  1
  O  O48  1  0.23041400  0.52115300  0.36129800  1
  O  O49  1  0.23041400  0.47884700  0.63870200  1
  O  O50  1  0.27631500  0.01846900  0.62476600  1
  O  O51  1  0.50000000  0.26068200  0.52149200  1
  O  O52  1  0.50000000  0.23129600  0.74148500  1
  O  O53  1  0.50000000  0.76349700  0.75844200  1
  O  O54  1  0.72368500  0.01846900  0.62476600  1
  O  O55  1  0.00000000  0.73129600  0.75851500  1
