# generated using pymatgen
data_Na5Ga3F14
_symmetry_space_group_name_H-M   'P 1'
_cell_length_a   7.34739600
_cell_length_b   7.39939000
_cell_length_c   12.80387788
_cell_angle_alpha   55.48608913
_cell_angle_beta   90.00000000
_cell_angle_gamma   90.00000000
_symmetry_Int_Tables_number   1
_chemical_formula_structural   Na5Ga3F14
_chemical_formula_sum   'Na10 Ga6 F28'
_cell_volume   573.57751312
_cell_formula_units_Z   2
loop_
 _symmetry_equiv_pos_site_id
 _symmetry_equiv_pos_as_xyz
  1  'x, y, z'
loop_
 _atom_site_type_symbol
 _atom_site_label
 _atom_site_symmetry_multiplicity
 _atom_site_fract_x
 _atom_site_fract_y
 _atom_site_fract_z
 _atom_site_occupancy
  Na  Na0  1  0.23511800  0.51794500  0.75858300  1
  Na  Na1  1  0.20102500  0.01121300  0.25129700  1
  Na  Na2  1  0.50000000  0.50000000  0.00000000  1
  Na  Na3  1  0.76488200  0.48205500  0.24141700  1
  Na  Na4  1  0.73511800  0.48205500  0.74141700  1
  Na  Na5  1  0.70102500  0.98878700  0.24870300  1
  Na  Na6  1  0.26488200  0.51794500  0.25858300  1
  Na  Na7  1  0.79897500  0.98878700  0.74870300  1
  Na  Na8  1  0.29897500  0.01121300  0.75129700  1
  Na  Na9  1  0.00000000  0.50000000  0.50000000  1
  Ga  Ga10  1  0.50000000  0.50000000  0.50000000  1
  Ga  Ga11  1  0.50000000  0.00000000  0.50000000  1
  Ga  Ga12  1  0.00000000  0.50000000  0.00000000  1
  Ga  Ga13  1  0.00000000  0.00000000  0.00000000  1
  Ga  Ga14  1  0.50000000  0.00000000  0.00000000  1
  Ga  Ga15  1  0.00000000  0.00000000  0.50000000  1
  F  F16  1  0.74689400  0.03001100  0.54001900  1
  F  F17  1  0.16346000  0.39557300  0.13830700  1
  F  F18  1  0.43990800  0.04404200  0.12872600  1
  F  F19  1  0.56009200  0.95595800  0.87127400  1
  F  F20  1  0.92216100  0.75195700  0.00075600  1
  F  F21  1  0.33654000  0.39557300  0.63830700  1
  F  F22  1  0.75310600  0.03001100  0.04001900  1
  F  F23  1  0.29773600  0.64797700  0.38915700  1
  F  F24  1  0.00912100  0.31251600  0.38272700  1
  F  F25  1  0.54370800  0.18611100  0.32432900  1
  F  F26  1  0.24689400  0.96998900  0.95998100  1
  F  F27  1  0.25310600  0.96998900  0.45998100  1
  F  F28  1  0.04370800  0.81388900  0.17567100  1
  F  F29  1  0.93990800  0.95595800  0.37127400  1
  F  F30  1  0.50912100  0.68748400  0.11727300  1
  F  F31  1  0.49087900  0.31251600  0.88272700  1
  F  F32  1  0.57783900  0.75195700  0.50075600  1
  F  F33  1  0.83654000  0.60442700  0.86169300  1
  F  F34  1  0.07783900  0.24804300  0.99924400  1
  F  F35  1  0.42216100  0.24804300  0.49924400  1
  F  F36  1  0.79773600  0.35202300  0.11084300  1
  F  F37  1  0.70226400  0.35202300  0.61084300  1
  F  F38  1  0.45629200  0.81388900  0.67567100  1
  F  F39  1  0.66346000  0.60442700  0.36169300  1
  F  F40  1  0.06009200  0.04404200  0.62872600  1
  F  F41  1  0.99087900  0.68748400  0.61727300  1
  F  F42  1  0.20226400  0.64797700  0.88915700  1
  F  F43  1  0.95629200  0.18611100  0.82432900  1
