# generated using pymatgen
data_PrAlSi2
_symmetry_space_group_name_H-M   'P 1'
_cell_length_a   4.19117833
_cell_length_b   4.19117833
_cell_length_c   11.16315100
_cell_angle_alpha   90.00000000
_cell_angle_beta   90.00000000
_cell_angle_gamma   120.00000520
_symmetry_Int_Tables_number   1
_chemical_formula_structural   PrAlSi2
_chemical_formula_sum   'Pr2 Al2 Si4'
_cell_volume   169.82033297
_cell_formula_units_Z   2
loop_
 _symmetry_equiv_pos_site_id
 _symmetry_equiv_pos_as_xyz
  1  'x, y, z'
loop_
 _atom_site_type_symbol
 _atom_site_label
 _atom_site_symmetry_multiplicity
 _atom_site_fract_x
 _atom_site_fract_y
 _atom_site_fract_z
 _atom_site_occupancy
  Pr  Pr0  1  0.00000000  0.00000000  0.18128500  1
  Pr  Pr1  1  0.00000000  0.00000000  0.81871500  1
  Al  Al2  1  0.66666700  0.33333300  0.41490300  1
  Al  Al3  1  0.33333300  0.66666700  0.58509700  1
  Si  Si4  1  0.66666700  0.33333300  0.64457900  1
  Si  Si5  1  0.33333300  0.66666700  0.99436700  1
  Si  Si6  1  0.66666700  0.33333300  0.00563300  1
  Si  Si7  1  0.33333300  0.66666700  0.35542100  1
