# generated using pymatgen
data_Rb3(FeS2)2
_symmetry_space_group_name_H-M   'P 1'
_cell_length_a   7.49356500
_cell_length_b   10.94619300
_cell_length_c   12.18558600
_cell_angle_alpha   90.00000000
_cell_angle_beta   90.00000000
_cell_angle_gamma   90.00000000
_symmetry_Int_Tables_number   1
_chemical_formula_structural   Rb3(FeS2)2
_chemical_formula_sum   'Rb12 Fe8 S16'
_cell_volume   999.53498384
_cell_formula_units_Z   4
loop_
 _symmetry_equiv_pos_site_id
 _symmetry_equiv_pos_as_xyz
  1  'x, y, z'
loop_
 _atom_site_type_symbol
 _atom_site_label
 _atom_site_symmetry_multiplicity
 _atom_site_fract_x
 _atom_site_fract_y
 _atom_site_fract_z
 _atom_site_occupancy
  Rb  Rb0  1  0.06666700  0.42661700  0.13918600  1
  Rb  Rb1  1  0.56666700  0.07338300  0.36081400  1
  Rb  Rb2  1  0.93333300  0.92661700  0.86081400  1
  Rb  Rb3  1  0.43333300  0.57338300  0.63918600  1
  Rb  Rb4  1  0.93333300  0.57338300  0.86081400  1
  Rb  Rb5  1  0.43333300  0.92661700  0.63918600  1
  Rb  Rb6  1  0.06666700  0.07338300  0.13918600  1
  Rb  Rb7  1  0.56666700  0.42661700  0.36081400  1
  Rb  Rb8  1  0.09051400  0.25000000  0.77117800  1
  Rb  Rb9  1  0.59051400  0.25000000  0.72882200  1
  Rb  Rb10  1  0.90948600  0.75000000  0.22882200  1
  Rb  Rb11  1  0.40948600  0.75000000  0.27117800  1
  Fe  Fe12  1  0.04937100  0.36985800  0.47269200  1
  Fe  Fe13  1  0.54937100  0.13014200  0.02730800  1
  Fe  Fe14  1  0.95062900  0.86985800  0.52730800  1
  Fe  Fe15  1  0.45062900  0.63014200  0.97269200  1
  Fe  Fe16  1  0.95062900  0.63014200  0.52730800  1
  Fe  Fe17  1  0.45062900  0.86985800  0.97269200  1
  Fe  Fe18  1  0.04937100  0.13014200  0.47269200  1
  Fe  Fe19  1  0.54937100  0.36985800  0.02730800  1
  S  S20  1  0.14056500  0.54958100  0.39568500  1
  S  S21  1  0.64056500  0.95041900  0.10431500  1
  S  S22  1  0.85943500  0.04958100  0.60431500  1
  S  S23  1  0.35943500  0.45041900  0.89568500  1
  S  S24  1  0.85943500  0.45041900  0.60431500  1
  S  S25  1  0.35943500  0.04958100  0.89568500  1
  S  S26  1  0.14056500  0.95041900  0.39568500  1
  S  S27  1  0.64056500  0.54958100  0.10431500  1
  S  S28  1  0.28348700  0.25000000  0.53213900  1
  S  S29  1  0.78348700  0.25000000  0.96786100  1
  S  S30  1  0.71651300  0.75000000  0.46786100  1
  S  S31  1  0.21651300  0.75000000  0.03213900  1
  S  S32  1  0.41698900  0.25000000  0.15488500  1
  S  S33  1  0.91698900  0.25000000  0.34511500  1
  S  S34  1  0.58301100  0.75000000  0.84511500  1
  S  S35  1  0.08301100  0.75000000  0.65488500  1
