# generated using pymatgen
data_Dy2Fe14C
_symmetry_space_group_name_H-M   'P 1'
_cell_length_a   8.72492300
_cell_length_b   8.72492300
_cell_length_c   11.71535500
_cell_angle_alpha   90.00000000
_cell_angle_beta   90.00000000
_cell_angle_gamma   90.00000000
_symmetry_Int_Tables_number   1
_chemical_formula_structural   Dy2Fe14C
_chemical_formula_sum   'Dy8 Fe56 C4'
_cell_volume   891.82298020
_cell_formula_units_Z   4
loop_
 _symmetry_equiv_pos_site_id
 _symmetry_equiv_pos_as_xyz
  1  'x, y, z'
loop_
 _atom_site_type_symbol
 _atom_site_label
 _atom_site_symmetry_multiplicity
 _atom_site_fract_x
 _atom_site_fract_y
 _atom_site_fract_z
 _atom_site_occupancy
  Dy  Dy0  1  0.35571300  0.35571300  0.50000000  1
  Dy  Dy1  1  0.64428700  0.64428700  0.50000000  1
  Dy  Dy2  1  0.24107500  0.75892500  0.50000000  1
  Dy  Dy3  1  0.75892500  0.24107500  0.50000000  1
  Dy  Dy4  1  0.25892500  0.25892500  0.00000000  1
  Dy  Dy5  1  0.85571300  0.14428700  0.00000000  1
  Dy  Dy6  1  0.74107500  0.74107500  0.00000000  1
  Dy  Dy7  1  0.14428700  0.85571300  0.00000000  1
  Fe  Fe8  1  0.22553800  0.56398000  0.87975200  1
  Fe  Fe9  1  0.46465700  0.85792200  0.67538200  1
  Fe  Fe10  1  0.93602000  0.72553800  0.37975200  1
  Fe  Fe11  1  0.59698900  0.40301100  0.29614500  1
  Fe  Fe12  1  0.68459200  0.68459200  0.75460900  1
  Fe  Fe13  1  0.43602000  0.77446200  0.87975200  1
  Fe  Fe14  1  0.68459200  0.68459200  0.24539100  1
  Fe  Fe15  1  0.96465700  0.64207800  0.17538200  1
  Fe  Fe16  1  0.14207800  0.53534300  0.67538200  1
  Fe  Fe17  1  0.06398000  0.27446200  0.62024800  1
  Fe  Fe18  1  0.50000000  0.50000000  0.10806500  1
  Fe  Fe19  1  0.64207800  0.96465700  0.82461800  1
  Fe  Fe20  1  0.72553800  0.93602000  0.62024800  1
  Fe  Fe21  1  0.03534300  0.35792200  0.82461800  1
  Fe  Fe22  1  0.14207800  0.53534300  0.32461800  1
  Fe  Fe23  1  0.31540800  0.31540800  0.75460900  1
  Fe  Fe24  1  0.85792200  0.46465700  0.32461800  1
  Fe  Fe25  1  0.90301100  0.90301100  0.79614500  1
  Fe  Fe26  1  0.81540800  0.18459200  0.25460900  1
  Fe  Fe27  1  0.77446200  0.43602000  0.12024800  1
  Fe  Fe28  1  0.59698900  0.40301100  0.70385500  1
  Fe  Fe29  1  0.27446200  0.06398000  0.37975200  1
  Fe  Fe30  1  0.50000000  0.50000000  0.89193500  1
  Fe  Fe31  1  0.35792200  0.03534300  0.82461800  1
  Fe  Fe32  1  0.40301100  0.59698900  0.29614500  1
  Fe  Fe33  1  0.96465700  0.64207800  0.82461800  1
  Fe  Fe34  1  0.22553800  0.56398000  0.12024800  1
  Fe  Fe35  1  0.00000000  0.00000000  0.60806500  1
  Fe  Fe36  1  0.35792200  0.03534300  0.17538200  1
  Fe  Fe37  1  0.27446200  0.06398000  0.62024800  1
  Fe  Fe38  1  0.85792200  0.46465700  0.67538200  1
  Fe  Fe39  1  0.56398000  0.22553800  0.12024800  1
  Fe  Fe40  1  0.56398000  0.22553800  0.87975200  1
  Fe  Fe41  1  0.90301100  0.90301100  0.20385500  1
  Fe  Fe42  1  0.09698900  0.09698900  0.79614500  1
  Fe  Fe43  1  0.18459200  0.81540800  0.25460900  1
  Fe  Fe44  1  0.46465700  0.85792200  0.32461800  1
  Fe  Fe45  1  0.00000000  0.50000000  0.50000000  1
  Fe  Fe46  1  0.72553800  0.93602000  0.37975200  1
  Fe  Fe47  1  0.77446200  0.43602000  0.87975200  1
  Fe  Fe48  1  0.00000000  0.00000000  0.39193500  1
  Fe  Fe49  1  0.50000000  0.00000000  0.50000000  1
  Fe  Fe50  1  0.31540800  0.31540800  0.24539100  1
  Fe  Fe51  1  0.06398000  0.27446200  0.37975200  1
  Fe  Fe52  1  0.43602000  0.77446200  0.12024800  1
  Fe  Fe53  1  0.64207800  0.96465700  0.17538200  1
  Fe  Fe54  1  0.53534300  0.14207800  0.67538200  1
  Fe  Fe55  1  0.09698900  0.09698900  0.20385500  1
  Fe  Fe56  1  0.03534300  0.35792200  0.17538200  1
  Fe  Fe57  1  0.00000000  0.50000000  0.00000000  1
  Fe  Fe58  1  0.53534300  0.14207800  0.32461800  1
  Fe  Fe59  1  0.18459200  0.81540800  0.74539100  1
  Fe  Fe60  1  0.93602000  0.72553800  0.62024800  1
  Fe  Fe61  1  0.40301100  0.59698900  0.70385500  1
  Fe  Fe62  1  0.81540800  0.18459200  0.74539100  1
  Fe  Fe63  1  0.50000000  0.00000000  0.00000000  1
  C  C64  1  0.62707600  0.37292400  0.00000000  1
  C  C65  1  0.12707600  0.12707600  0.50000000  1
  C  C66  1  0.37292400  0.62707600  0.00000000  1
  C  C67  1  0.87292400  0.87292400  0.50000000  1
