# generated using pymatgen
data_AsSe(IF2)3
_symmetry_space_group_name_H-M   'P 1'
_cell_length_a   10.47482900
_cell_length_b   8.69695200
_cell_length_c   12.79885889
_cell_angle_alpha   80.97098058
_cell_angle_beta   90.00000000
_cell_angle_gamma   90.00000000
_symmetry_Int_Tables_number   1
_chemical_formula_structural   AsSe(IF2)3
_chemical_formula_sum   'As4 Se4 I12 F24'
_cell_volume   1151.51684922
_cell_formula_units_Z   4
loop_
 _symmetry_equiv_pos_site_id
 _symmetry_equiv_pos_as_xyz
  1  'x, y, z'
loop_
 _atom_site_type_symbol
 _atom_site_label
 _atom_site_symmetry_multiplicity
 _atom_site_fract_x
 _atom_site_fract_y
 _atom_site_fract_z
 _atom_site_occupancy
  As  As0  1  0.27452300  0.80242300  0.56663900  1
  As  As1  1  0.22547700  0.80242300  0.06663900  1
  As  As2  1  0.77452300  0.19757700  0.93336100  1
  As  As3  1  0.72547700  0.19757700  0.43336100  1
  Se  Se4  1  0.18123300  0.20127900  0.80101000  1
  Se  Se5  1  0.68123300  0.79872100  0.69899000  1
  Se  Se6  1  0.31876700  0.20127900  0.30101000  1
  Se  Se7  1  0.81876700  0.79872100  0.19899000  1
  I  I8  1  0.59073400  0.79043200  0.26671700  1
  I  I9  1  0.95912200  0.73802300  0.36228700  1
  I  I10  1  0.82685400  0.55584400  0.11062300  1
  I  I11  1  0.67314600  0.55584400  0.61062300  1
  I  I12  1  0.40926600  0.20956800  0.73328300  1
  I  I13  1  0.45912200  0.26197700  0.13771300  1
  I  I14  1  0.17314600  0.44415600  0.88937700  1
  I  I15  1  0.09073400  0.20956800  0.23328300  1
  I  I16  1  0.32685400  0.44415600  0.38937700  1
  I  I17  1  0.54087800  0.73802300  0.86228700  1
  I  I18  1  0.04087800  0.26197700  0.63771300  1
  I  I19  1  0.90926600  0.79043200  0.76671700  1
  F  F20  1  0.71664100  0.15477800  0.81111300  1
  F  F21  1  0.37784000  0.72182900  0.04079100  1
  F  F22  1  0.82451300  0.38453200  0.87227500  1
  F  F23  1  0.28335900  0.84522200  0.18888700  1
  F  F24  1  0.33052400  0.75854200  0.44206300  1
  F  F25  1  0.77682100  0.01247500  0.49808100  1
  F  F26  1  0.12216000  0.72182900  0.54079100  1
  F  F27  1  0.66947600  0.24145800  0.55793700  1
  F  F28  1  0.83052400  0.24145800  0.05793700  1
  F  F29  1  0.62216000  0.27817100  0.95920900  1
  F  F30  1  0.92628400  0.11943000  0.90989300  1
  F  F31  1  0.21664100  0.84522200  0.68888700  1
  F  F32  1  0.07371600  0.88057000  0.09010700  1
  F  F33  1  0.67548700  0.38453200  0.37227500  1
  F  F34  1  0.27682100  0.98752500  0.00191900  1
  F  F35  1  0.17548700  0.61546800  0.12772500  1
  F  F36  1  0.78335900  0.15477800  0.31111300  1
  F  F37  1  0.22317900  0.98752500  0.50191900  1
  F  F38  1  0.72317900  0.01247500  0.99808100  1
  F  F39  1  0.16947600  0.75854200  0.94206300  1
  F  F40  1  0.87784000  0.27817100  0.45920900  1
  F  F41  1  0.42628400  0.88057000  0.59010700  1
  F  F42  1  0.57371600  0.11943000  0.40989300  1
  F  F43  1  0.32451300  0.61546800  0.62772500  1
