# generated using pymatgen
data_Yb5Bi3
_symmetry_space_group_name_H-M   'P 1'
_cell_length_a   8.43499500
_cell_length_b   9.78098600
_cell_length_c   12.74977800
_cell_angle_alpha   90.00000000
_cell_angle_beta   90.00000000
_cell_angle_gamma   90.00000000
_symmetry_Int_Tables_number   1
_chemical_formula_structural   Yb5Bi3
_chemical_formula_sum   'Yb20 Bi12'
_cell_volume   1051.88942649
_cell_formula_units_Z   4
loop_
 _symmetry_equiv_pos_site_id
 _symmetry_equiv_pos_as_xyz
  1  'x, y, z'
loop_
 _atom_site_type_symbol
 _atom_site_label
 _atom_site_symmetry_multiplicity
 _atom_site_fract_x
 _atom_site_fract_y
 _atom_site_fract_z
 _atom_site_occupancy
  Yb  Yb0  1  0.80408200  0.54366800  0.07449000  1
  Yb  Yb1  1  0.81805400  0.25000000  0.76989200  1
  Yb  Yb2  1  0.03532200  0.75000000  0.50482400  1
  Yb  Yb3  1  0.34813400  0.25000000  0.71052500  1
  Yb  Yb4  1  0.19591800  0.04366800  0.92551000  1
  Yb  Yb5  1  0.53532200  0.25000000  0.99517600  1
  Yb  Yb6  1  0.84813400  0.75000000  0.78947500  1
  Yb  Yb7  1  0.31805400  0.75000000  0.73010800  1
  Yb  Yb8  1  0.30408200  0.45633200  0.42551000  1
  Yb  Yb9  1  0.68194600  0.25000000  0.26989200  1
  Yb  Yb10  1  0.46467800  0.75000000  0.00482400  1
  Yb  Yb11  1  0.69591800  0.54366800  0.57449000  1
  Yb  Yb12  1  0.96467800  0.25000000  0.49517600  1
  Yb  Yb13  1  0.15186600  0.25000000  0.21052500  1
  Yb  Yb14  1  0.18194600  0.75000000  0.23010800  1
  Yb  Yb15  1  0.19591800  0.45633200  0.92551000  1
  Yb  Yb16  1  0.80408200  0.95633200  0.07449000  1
  Yb  Yb17  1  0.69591800  0.95633200  0.57449000  1
  Yb  Yb18  1  0.30408200  0.04366800  0.42551000  1
  Yb  Yb19  1  0.65186600  0.75000000  0.28947500  1
  Bi  Bi20  1  0.06592000  0.01270700  0.67125800  1
  Bi  Bi21  1  0.93408000  0.98729300  0.32874200  1
  Bi  Bi22  1  0.06592000  0.48729300  0.67125800  1
  Bi  Bi23  1  0.42107600  0.75000000  0.48323700  1
  Bi  Bi24  1  0.56592000  0.98729300  0.82874200  1
  Bi  Bi25  1  0.43408000  0.01270700  0.17125800  1
  Bi  Bi26  1  0.57892400  0.25000000  0.51676300  1
  Bi  Bi27  1  0.43408000  0.48729300  0.17125800  1
  Bi  Bi28  1  0.56592000  0.51270700  0.82874200  1
  Bi  Bi29  1  0.07892400  0.75000000  0.98323700  1
  Bi  Bi30  1  0.92107600  0.25000000  0.01676300  1
  Bi  Bi31  1  0.93408000  0.51270700  0.32874200  1
