# generated using pymatgen
data_BaV2TeO8
_symmetry_space_group_name_H-M   'P 1'
_cell_length_a   5.69475900
_cell_length_b   9.89728000
_cell_length_c   14.64542385
_cell_angle_alpha   67.57613739
_cell_angle_beta   90.00000000
_cell_angle_gamma   90.00000000
_symmetry_Int_Tables_number   1
_chemical_formula_structural   BaV2TeO8
_chemical_formula_sum   'Ba4 V8 Te4 O32'
_cell_volume   763.03963212
_cell_formula_units_Z   4
loop_
 _symmetry_equiv_pos_site_id
 _symmetry_equiv_pos_as_xyz
  1  'x, y, z'
loop_
 _atom_site_type_symbol
 _atom_site_label
 _atom_site_symmetry_multiplicity
 _atom_site_fract_x
 _atom_site_fract_y
 _atom_site_fract_z
 _atom_site_occupancy
  Ba  Ba0  1  0.31287500  0.75526300  0.83652700  1
  Ba  Ba1  1  0.68712500  0.24473700  0.16347300  1
  Ba  Ba2  1  0.18712500  0.75526300  0.33652700  1
  Ba  Ba3  1  0.81287500  0.24473700  0.66347300  1
  V  V4  1  0.84142700  0.00467100  0.91343700  1
  V  V5  1  0.15209800  0.51873600  0.13749800  1
  V  V6  1  0.34142700  0.99532900  0.58656300  1
  V  V7  1  0.15857300  0.99532900  0.08656300  1
  V  V8  1  0.65857300  0.00467100  0.41343700  1
  V  V9  1  0.84790200  0.48126400  0.86250200  1
  V  V10  1  0.34790200  0.51873600  0.63749800  1
  V  V11  1  0.65209800  0.48126400  0.36250200  1
  Te  Te12  1  0.16328300  0.28350900  0.40872000  1
  Te  Te13  1  0.66328300  0.71649100  0.09128000  1
  Te  Te14  1  0.33671700  0.28350900  0.90872000  1
  Te  Te15  1  0.83671700  0.71649100  0.59128000  1
  O  O16  1  0.11537600  0.15662900  0.54532200  1
  O  O17  1  0.63597700  0.13730600  0.86074100  1
  O  O18  1  0.89990100  0.39503600  0.44107100  1
  O  O19  1  0.00868700  0.01261300  0.18035300  1
  O  O20  1  0.88096900  0.57632400  0.06539900  1
  O  O21  1  0.86590500  0.43353700  0.76379900  1
  O  O22  1  0.36402300  0.86269400  0.13925900  1
  O  O23  1  0.38096900  0.42367600  0.43460100  1
  O  O24  1  0.17254100  0.33575600  0.17571300  1
  O  O25  1  0.36590500  0.56646300  0.73620100  1
  O  O26  1  0.49131300  0.01261300  0.68035300  1
  O  O27  1  0.61903100  0.57632400  0.56539900  1
  O  O28  1  0.39990100  0.60496400  0.05892900  1
  O  O29  1  0.38462400  0.15662900  0.04532200  1
  O  O30  1  0.88462400  0.84337100  0.45467800  1
  O  O31  1  0.67254100  0.66424400  0.32428700  1
  O  O32  1  0.32745900  0.33575600  0.67571300  1
  O  O33  1  0.60009900  0.39503600  0.94107100  1
  O  O34  1  0.63409500  0.43353700  0.26379900  1
  O  O35  1  0.45046300  0.12426900  0.45303800  1
  O  O36  1  0.04953700  0.12426900  0.95303800  1
  O  O37  1  0.54953700  0.87573100  0.54696200  1
  O  O38  1  0.13597700  0.86269400  0.63925900  1
  O  O39  1  0.50868700  0.98738700  0.31964700  1
  O  O40  1  0.82745900  0.66424400  0.82428700  1
  O  O41  1  0.95046300  0.87573100  0.04696200  1
  O  O42  1  0.11903100  0.42367600  0.93460100  1
  O  O43  1  0.13409500  0.56646300  0.23620100  1
  O  O44  1  0.99131300  0.98738700  0.81964700  1
  O  O45  1  0.10009900  0.60496400  0.55892900  1
  O  O46  1  0.61537600  0.84337100  0.95467800  1
  O  O47  1  0.86402300  0.13730600  0.36074100  1
