# generated using pymatgen
data_Ba(FeBr4)2
_symmetry_space_group_name_H-M   'P 1'
_cell_length_a   11.51282800
_cell_length_b   13.48696000
_cell_length_c   22.27164100
_cell_angle_alpha   90.00000000
_cell_angle_beta   90.00000000
_cell_angle_gamma   90.00000000
_symmetry_Int_Tables_number   1
_chemical_formula_structural   Ba(FeBr4)2
_chemical_formula_sum   'Ba8 Fe16 Br64'
_cell_volume   3458.18564267
_cell_formula_units_Z   8
loop_
 _symmetry_equiv_pos_site_id
 _symmetry_equiv_pos_as_xyz
  1  'x, y, z'
loop_
 _atom_site_type_symbol
 _atom_site_label
 _atom_site_symmetry_multiplicity
 _atom_site_fract_x
 _atom_site_fract_y
 _atom_site_fract_z
 _atom_site_occupancy
  Ba  Ba0  1  0.15214900  0.47062000  0.38760900  1
  Ba  Ba1  1  0.65214900  0.52938000  0.11239100  1
  Ba  Ba2  1  0.34785100  0.47062000  0.88760900  1
  Ba  Ba3  1  0.15214900  0.97062000  0.11239100  1
  Ba  Ba4  1  0.84785100  0.02938000  0.88760900  1
  Ba  Ba5  1  0.84785100  0.52938000  0.61239100  1
  Ba  Ba6  1  0.65214900  0.02938000  0.38760900  1
  Ba  Ba7  1  0.34785100  0.97062000  0.61239100  1
  Fe  Fe8  1  0.11098900  0.02999300  0.75340900  1
  Fe  Fe9  1  0.38901100  0.52999300  0.24659100  1
  Fe  Fe10  1  0.77618700  0.27098800  0.49565300  1
  Fe  Fe11  1  0.72381300  0.77098800  0.50434700  1
  Fe  Fe12  1  0.27618700  0.72901200  0.00434700  1
  Fe  Fe13  1  0.77618700  0.77098800  0.00434700  1
  Fe  Fe14  1  0.38901100  0.02999300  0.25340900  1
  Fe  Fe15  1  0.72381300  0.27098800  0.99565300  1
  Fe  Fe16  1  0.27618700  0.22901200  0.49565300  1
  Fe  Fe17  1  0.22381300  0.72901200  0.50434700  1
  Fe  Fe18  1  0.88901100  0.97000700  0.24659100  1
  Fe  Fe19  1  0.61098900  0.97000700  0.74659100  1
  Fe  Fe20  1  0.61098900  0.47000700  0.75340900  1
  Fe  Fe21  1  0.22381300  0.22901200  0.99565300  1
  Fe  Fe22  1  0.11098900  0.52999300  0.74659100  1
  Fe  Fe23  1  0.88901100  0.47000700  0.25340900  1
  Br  Br24  1  0.28565400  0.11537300  0.73358000  1
  Br  Br25  1  0.61381200  0.05691700  0.65435900  1
  Br  Br26  1  0.81655600  0.78341900  0.59802700  1
  Br  Br27  1  0.68344400  0.28341900  0.40197300  1
  Br  Br28  1  0.18344400  0.71658100  0.09802700  1
  Br  Br29  1  0.11381200  0.44308300  0.65435900  1
  Br  Br30  1  0.68373100  0.60124800  0.49082200  1
  Br  Br31  1  0.04576300  0.35791200  0.26153100  1
  Br  Br32  1  0.44931200  0.63027400  0.00082500  1
  Br  Br33  1  0.45423700  0.35791200  0.76153100  1
  Br  Br34  1  0.95423700  0.14208800  0.76153100  1
  Br  Br35  1  0.31655600  0.71658100  0.59802700  1
  Br  Br36  1  0.16230900  0.66301300  0.92643900  1
  Br  Br37  1  0.11381200  0.94308300  0.84564100  1
  Br  Br38  1  0.21434600  0.61537300  0.26642000  1
  Br  Br39  1  0.08951000  0.91659000  0.67306200  1
  Br  Br40  1  0.54576300  0.14208800  0.26153100  1
  Br  Br41  1  0.88618800  0.55691700  0.34564100  1
  Br  Br42  1  0.66230900  0.33698700  0.57356100  1
  Br  Br43  1  0.38618800  0.94308300  0.34564100  1
  Br  Br44  1  0.81626900  0.10124800  0.50917800  1
  Br  Br45  1  0.68344400  0.78341900  0.09802700  1
  Br  Br46  1  0.81626900  0.60124800  0.99082200  1
  Br  Br47  1  0.58951000  0.58341000  0.67306200  1
  Br  Br48  1  0.31626900  0.39875200  0.50917800  1
  Br  Br49  1  0.78565400  0.88462700  0.76642000  1
  Br  Br50  1  0.08951000  0.41659000  0.82693800  1
  Br  Br51  1  0.94931200  0.86972600  0.00082500  1
  Br  Br52  1  0.05068800  0.13027400  0.99917500  1
  Br  Br53  1  0.41049000  0.91659000  0.17306200  1
  Br  Br54  1  0.88618800  0.05691700  0.15435900  1
  Br  Br55  1  0.18373100  0.89875200  0.49082200  1
  Br  Br56  1  0.66230900  0.83698700  0.92643900  1
  Br  Br57  1  0.54576300  0.64208800  0.23846900  1
  Br  Br58  1  0.18373100  0.39875200  0.00917800  1
  Br  Br59  1  0.58951000  0.08341000  0.82693800  1
  Br  Br60  1  0.41049000  0.41659000  0.32693800  1
  Br  Br61  1  0.31655600  0.21658100  0.90197300  1
  Br  Br62  1  0.33769100  0.66301300  0.42643900  1
  Br  Br63  1  0.33769100  0.16301300  0.07356100  1
  Br  Br64  1  0.28565400  0.61537300  0.76642000  1
  Br  Br65  1  0.95423700  0.64208800  0.73846900  1
  Br  Br66  1  0.44931200  0.13027400  0.49917500  1
  Br  Br67  1  0.05068800  0.63027400  0.50082500  1
  Br  Br68  1  0.16230900  0.16301300  0.57356100  1
  Br  Br69  1  0.91049000  0.08341000  0.32693800  1
  Br  Br70  1  0.68373100  0.10124800  0.00917800  1
  Br  Br71  1  0.91049000  0.58341000  0.17306200  1
  Br  Br72  1  0.18344400  0.21658100  0.40197300  1
  Br  Br73  1  0.45423700  0.85791200  0.73846900  1
  Br  Br74  1  0.04576300  0.85791200  0.23846900  1
  Br  Br75  1  0.94931200  0.36972600  0.49917500  1
  Br  Br76  1  0.55068800  0.36972600  0.99917500  1
  Br  Br77  1  0.78565400  0.38462700  0.73358000  1
  Br  Br78  1  0.71434600  0.88462700  0.26642000  1
  Br  Br79  1  0.55068800  0.86972600  0.50082500  1
  Br  Br80  1  0.21434600  0.11537300  0.23358000  1
  Br  Br81  1  0.83769100  0.83698700  0.42643900  1
  Br  Br82  1  0.61381200  0.55691700  0.84564100  1
  Br  Br83  1  0.83769100  0.33698700  0.07356100  1
  Br  Br84  1  0.38618800  0.44308300  0.15435900  1
  Br  Br85  1  0.31626900  0.89875200  0.99082200  1
  Br  Br86  1  0.81655600  0.28341900  0.90197300  1
  Br  Br87  1  0.71434600  0.38462700  0.23358000  1
