# generated using pymatgen
data_Sc2Te5O13
_symmetry_space_group_name_H-M   'P 1'
_cell_length_a   6.69736500
_cell_length_b   8.71309071
_cell_length_c   10.62085559
_cell_angle_alpha   86.56748934
_cell_angle_beta   86.38487062
_cell_angle_gamma   73.79988232
_symmetry_Int_Tables_number   1
_chemical_formula_structural   Sc2Te5O13
_chemical_formula_sum   'Sc4 Te10 O26'
_cell_volume   593.40528817
_cell_formula_units_Z   2
loop_
 _symmetry_equiv_pos_site_id
 _symmetry_equiv_pos_as_xyz
  1  'x, y, z'
loop_
 _atom_site_type_symbol
 _atom_site_label
 _atom_site_symmetry_multiplicity
 _atom_site_fract_x
 _atom_site_fract_y
 _atom_site_fract_z
 _atom_site_occupancy
  Sc  Sc0  1  0.99126700  0.24098600  0.75187100  1
  Sc  Sc1  1  0.00873300  0.75901400  0.24812900  1
  Sc  Sc2  1  0.44794000  0.45641400  0.80977500  1
  Sc  Sc3  1  0.55206000  0.54358600  0.19022500  1
  Te  Te4  1  0.45443300  0.90902100  0.29762200  1
  Te  Te5  1  0.83393400  0.20428600  0.35786900  1
  Te  Te6  1  0.73384700  0.60274100  0.51663500  1
  Te  Te7  1  0.71147500  0.12101100  0.02065500  1
  Te  Te8  1  0.85860500  0.63651500  0.89880000  1
  Te  Te9  1  0.16606600  0.79571400  0.64213100  1
  Te  Te10  1  0.28852500  0.87898900  0.97934500  1
  Te  Te11  1  0.54556700  0.09097900  0.70237800  1
  Te  Te12  1  0.14139500  0.36348500  0.10120000  1
  Te  Te13  1  0.26615300  0.39725900  0.48336500  1
  O  O14  1  0.45592900  0.18716600  0.52018600  1
  O  O15  1  0.48114700  0.67587900  0.01828400  1
  O  O16  1  0.51885300  0.32412100  0.98171600  1
  O  O17  1  0.30310200  0.23131500  0.77697500  1
  O  O18  1  0.85647600  0.49854300  0.08881500  1
  O  O19  1  0.06970000  0.26908400  0.27931200  1
  O  O20  1  0.31915000  0.74470100  0.28735900  1
  O  O21  1  0.69689800  0.76868500  0.22302500  1
  O  O22  1  0.66145000  0.49322800  0.38231600  1
  O  O23  1  0.93030000  0.73091600  0.72068800  1
  O  O24  1  0.64641500  0.00606200  0.88256800  1
  O  O25  1  0.02593500  0.35279500  0.56832000  1
  O  O26  1  0.35465200  0.71684700  0.77390600  1
  O  O27  1  0.95400400  0.16984000  0.94450800  1
  O  O28  1  0.04599600  0.83016000  0.05549200  1
  O  O29  1  0.91727600  0.98786400  0.30648100  1
  O  O30  1  0.08272400  0.01213600  0.69351900  1
  O  O31  1  0.64534800  0.28315300  0.22609400  1
  O  O32  1  0.33855000  0.50677200  0.61768400  1
  O  O33  1  0.22958100  0.51729500  0.18702400  1
  O  O34  1  0.35358500  0.99393800  0.11743200  1
  O  O35  1  0.54407100  0.81283400  0.47981400  1
  O  O36  1  0.97406500  0.64720500  0.43168000  1
  O  O37  1  0.68085000  0.25529900  0.71264100  1
  O  O38  1  0.77041900  0.48270500  0.81297600  1
  O  O39  1  0.14352400  0.50145700  0.91118500  1
