# generated using pymatgen
data_LaNbTeO6
_symmetry_space_group_name_H-M   'P 1'
_cell_length_a   6.86447500
_cell_length_b   7.50167461
_cell_length_c   10.90006721
_cell_angle_alpha   100.28721852
_cell_angle_beta   102.98114285
_cell_angle_gamma   89.77545774
_symmetry_Int_Tables_number   1
_chemical_formula_structural   LaNbTeO6
_chemical_formula_sum   'La4 Nb4 Te4 O24'
_cell_volume   537.77904788
_cell_formula_units_Z   4
loop_
 _symmetry_equiv_pos_site_id
 _symmetry_equiv_pos_as_xyz
  1  'x, y, z'
loop_
 _atom_site_type_symbol
 _atom_site_label
 _atom_site_symmetry_multiplicity
 _atom_site_fract_x
 _atom_site_fract_y
 _atom_site_fract_z
 _atom_site_occupancy
  La  La0  1  0.23936300  0.13930800  0.49462100  1
  La  La1  1  0.33041600  0.28511600  0.15604000  1
  La  La2  1  0.76063700  0.86069200  0.50537900  1
  La  La3  1  0.66958400  0.71488400  0.84396000  1
  Nb  Nb4  1  0.18317100  0.45407800  0.80302000  1
  Nb  Nb5  1  0.17334900  0.95917100  0.80067100  1
  Nb  Nb6  1  0.81682900  0.54592200  0.19698000  1
  Nb  Nb7  1  0.82665100  0.04082900  0.19932900  1
  Te  Te8  1  0.32971700  0.79898700  0.20101100  1
  Te  Te9  1  0.73597400  0.37125900  0.50318500  1
  Te  Te10  1  0.67028300  0.20101300  0.79898900  1
  Te  Te11  1  0.26402600  0.62874100  0.49681500  1
  O  O12  1  0.49990100  0.39996600  0.78981400  1
  O  O13  1  0.91036000  0.49971100  0.77838800  1
  O  O14  1  0.85683800  0.81609400  0.28128800  1
  O  O15  1  0.39383300  0.87104900  0.38514500  1
  O  O16  1  0.53432100  0.67746200  0.59549600  1
  O  O17  1  0.75546400  0.56851900  0.02963400  1
  O  O18  1  0.85030000  0.15076300  0.42780400  1
  O  O19  1  0.81718200  0.94364700  0.03419900  1
  O  O20  1  0.89284800  0.88870400  0.74177400  1
  O  O21  1  0.14316200  0.18390600  0.71871200  1
  O  O22  1  0.60616700  0.12895100  0.61485500  1
  O  O23  1  0.14970000  0.84923700  0.57219600  1
  O  O24  1  0.49425300  0.01758100  0.81918200  1
  O  O25  1  0.08964000  0.50028900  0.22161200  1
  O  O26  1  0.46567900  0.32253800  0.40450400  1
  O  O27  1  0.24453600  0.43148100  0.97036600  1
  O  O28  1  0.50009900  0.60003400  0.21018600  1
  O  O29  1  0.50574700  0.98241900  0.18081800  1
  O  O30  1  0.28782200  0.71406600  0.81974500  1
  O  O31  1  0.71217800  0.28593400  0.18025500  1
  O  O32  1  0.18281800  0.05635300  0.96580100  1
  O  O33  1  0.18121200  0.45427600  0.58816800  1
  O  O34  1  0.81878800  0.54572400  0.41183200  1
  O  O35  1  0.10715200  0.11129600  0.25822600  1
