# generated using pymatgen
data_CaVBiO5
_symmetry_space_group_name_H-M   'P 1'
_cell_length_a   5.53330600
_cell_length_b   11.38240600
_cell_length_c   15.80869100
_cell_angle_alpha   90.00000000
_cell_angle_beta   90.00000000
_cell_angle_gamma   90.00000000
_symmetry_Int_Tables_number   1
_chemical_formula_structural   CaVBiO5
_chemical_formula_sum   'Ca8 V8 Bi8 O40'
_cell_volume   995.66827902
_cell_formula_units_Z   8
loop_
 _symmetry_equiv_pos_site_id
 _symmetry_equiv_pos_as_xyz
  1  'x, y, z'
loop_
 _atom_site_type_symbol
 _atom_site_label
 _atom_site_symmetry_multiplicity
 _atom_site_fract_x
 _atom_site_fract_y
 _atom_site_fract_z
 _atom_site_occupancy
  Ca  Ca0  1  0.50466500  0.35898900  0.55213400  1
  Ca  Ca1  1  0.00466500  0.14101100  0.55213400  1
  Ca  Ca2  1  0.00466500  0.64101100  0.94786600  1
  Ca  Ca3  1  0.99533500  0.35898900  0.05213400  1
  Ca  Ca4  1  0.49533500  0.14101100  0.05213400  1
  Ca  Ca5  1  0.99533500  0.85898900  0.44786600  1
  Ca  Ca6  1  0.49533500  0.64101100  0.44786600  1
  Ca  Ca7  1  0.50466500  0.85898900  0.94786600  1
  V  V8  1  0.98603900  0.40403200  0.40159300  1
  V  V9  1  0.51396100  0.90403200  0.59840700  1
  V  V10  1  0.01396100  0.59596800  0.59840700  1
  V  V11  1  0.48603900  0.09596800  0.40159300  1
  V  V12  1  0.01396100  0.09596800  0.90159300  1
  V  V13  1  0.98603900  0.90403200  0.09840700  1
  V  V14  1  0.51396100  0.40403200  0.90159300  1
  V  V15  1  0.48603900  0.59596800  0.09840700  1
  Bi  Bi16  1  0.95214600  0.84559200  0.76826800  1
  Bi  Bi17  1  0.04785400  0.15440800  0.23173200  1
  Bi  Bi18  1  0.54785400  0.34559200  0.23173200  1
  Bi  Bi19  1  0.04785400  0.65440800  0.26826800  1
  Bi  Bi20  1  0.45214600  0.15440800  0.73173200  1
  Bi  Bi21  1  0.45214600  0.65440800  0.76826800  1
  Bi  Bi22  1  0.54785400  0.84559200  0.26826800  1
  Bi  Bi23  1  0.95214600  0.34559200  0.73173200  1
  O  O24  1  0.93913100  0.32629700  0.30491300  1
  O  O25  1  0.29513300  0.04650000  0.93388700  1
  O  O26  1  0.20486700  0.54650000  0.06611300  1
  O  O27  1  0.24282200  0.76894100  0.84668200  1
  O  O28  1  0.25717800  0.26894100  0.15331800  1
  O  O29  1  0.93913100  0.82629700  0.19508700  1
  O  O30  1  0.25717800  0.76894100  0.34668200  1
  O  O31  1  0.56086900  0.82629700  0.69508700  1
  O  O32  1  0.29513300  0.54650000  0.56611300  1
  O  O33  1  0.06086900  0.67370300  0.69508700  1
  O  O34  1  0.56086900  0.32629700  0.80491300  1
  O  O35  1  0.62402500  0.18294400  0.47577200  1
  O  O36  1  0.79513300  0.95350000  0.56611300  1
  O  O37  1  0.75717800  0.73105900  0.34668200  1
  O  O38  1  0.17221000  0.02491000  0.12489000  1
  O  O39  1  0.79513300  0.45350000  0.93388700  1
  O  O40  1  0.06086900  0.17370300  0.80491300  1
  O  O41  1  0.74282200  0.23105900  0.65331800  1
  O  O42  1  0.12402500  0.81705600  0.02422800  1
  O  O43  1  0.20486700  0.04650000  0.43388700  1
  O  O44  1  0.37597500  0.81705600  0.52422800  1
  O  O45  1  0.82779000  0.97509000  0.87511000  1
  O  O46  1  0.75717800  0.23105900  0.15331800  1
  O  O47  1  0.67221000  0.97509000  0.37511000  1
  O  O48  1  0.37597500  0.31705600  0.97577200  1
  O  O49  1  0.12402500  0.31705600  0.47577200  1
  O  O50  1  0.70486700  0.45350000  0.43388700  1
  O  O51  1  0.70486700  0.95350000  0.06611300  1
  O  O52  1  0.67221000  0.47509000  0.12489000  1
  O  O53  1  0.87597500  0.68294400  0.52422800  1
  O  O54  1  0.87597500  0.18294400  0.97577200  1
  O  O55  1  0.62402500  0.68294400  0.02422800  1
  O  O56  1  0.82779000  0.47509000  0.62489000  1
  O  O57  1  0.74282200  0.73105900  0.84668200  1
  O  O58  1  0.24282200  0.26894100  0.65331800  1
  O  O59  1  0.17221000  0.52491000  0.37511000  1
  O  O60  1  0.32779000  0.52491000  0.87511000  1
  O  O61  1  0.43913100  0.17370300  0.30491300  1
  O  O62  1  0.32779000  0.02491000  0.62489000  1
  O  O63  1  0.43913100  0.67370300  0.19508700  1
