# generated using pymatgen
data_Cs3As7
_symmetry_space_group_name_H-M   'P 1'
_cell_length_a   10.46720400
_cell_length_b   13.53492400
_cell_length_c   22.63386900
_cell_angle_alpha   90.00000000
_cell_angle_beta   90.00000000
_cell_angle_gamma   90.00000000
_symmetry_Int_Tables_number   1
_chemical_formula_structural   Cs3As7
_chemical_formula_sum   'Cs24 As56'
_cell_volume   3206.60383672
_cell_formula_units_Z   8
loop_
 _symmetry_equiv_pos_site_id
 _symmetry_equiv_pos_as_xyz
  1  'x, y, z'
loop_
 _atom_site_type_symbol
 _atom_site_label
 _atom_site_symmetry_multiplicity
 _atom_site_fract_x
 _atom_site_fract_y
 _atom_site_fract_z
 _atom_site_occupancy
  Cs  Cs0  1  0.69646800  0.97286600  0.73087300  1
  Cs  Cs1  1  0.30353200  0.47286600  0.76912700  1
  Cs  Cs2  1  0.40027400  0.22644000  0.62095400  1
  Cs  Cs3  1  0.19646800  0.52713400  0.26912700  1
  Cs  Cs4  1  0.23512800  0.95006600  0.47842900  1
  Cs  Cs5  1  0.26487200  0.45006600  0.47842900  1
  Cs  Cs6  1  0.90027400  0.22644000  0.87904600  1
  Cs  Cs7  1  0.59972600  0.72644000  0.87904600  1
  Cs  Cs8  1  0.30353200  0.02713400  0.26912700  1
  Cs  Cs9  1  0.76487200  0.45006600  0.02157100  1
  Cs  Cs10  1  0.26487200  0.04993400  0.97842900  1
  Cs  Cs11  1  0.69646800  0.52713400  0.23087300  1
  Cs  Cs12  1  0.80353200  0.47286600  0.73087300  1
  Cs  Cs13  1  0.09972600  0.77356000  0.12095400  1
  Cs  Cs14  1  0.40027400  0.27356000  0.12095400  1
  Cs  Cs15  1  0.90027400  0.27356000  0.37904600  1
  Cs  Cs16  1  0.59972600  0.77356000  0.37904600  1
  Cs  Cs17  1  0.19646800  0.97286600  0.76912700  1
  Cs  Cs18  1  0.73512800  0.95006600  0.02157100  1
  Cs  Cs19  1  0.09972600  0.72644000  0.62095400  1
  Cs  Cs20  1  0.80353200  0.02713400  0.23087300  1
  Cs  Cs21  1  0.23512800  0.54993400  0.97842900  1
  Cs  Cs22  1  0.73512800  0.54993400  0.52157100  1
  Cs  Cs23  1  0.76487200  0.04993400  0.52157100  1
  As  As24  1  0.59168200  0.08983500  0.36624800  1
  As  As25  1  0.92073700  0.82125000  0.45645600  1
  As  As26  1  0.03234600  0.83649400  0.94761800  1
  As  As27  1  0.23239600  0.70580300  0.39726900  1
  As  As28  1  0.40831800  0.91016500  0.63375200  1
  As  As29  1  0.57926300  0.17875000  0.95645600  1
  As  As30  1  0.05366100  0.37848200  0.14262500  1
  As  As31  1  0.85421800  0.20350900  0.68362600  1
  As  As32  1  0.44633900  0.87848200  0.14262500  1
  As  As33  1  0.42689700  0.77995800  0.70501000  1
  As  As34  1  0.94633900  0.87848200  0.35737500  1
  As  As35  1  0.64578200  0.79649100  0.18362600  1
  As  As36  1  0.57310300  0.27995800  0.79499000  1
  As  As37  1  0.76760500  0.20580300  0.10273100  1
  As  As38  1  0.07310300  0.22004200  0.20501000  1
  As  As39  1  0.44633900  0.62151800  0.64262500  1
  As  As40  1  0.92689700  0.72004200  0.29499000  1
  As  As41  1  0.90831800  0.91016500  0.86624800  1
  As  As42  1  0.14578200  0.79649100  0.31637400  1
  As  As43  1  0.64578200  0.70350900  0.68362600  1
  As  As44  1  0.14578200  0.70350900  0.81637400  1
  As  As45  1  0.07926300  0.17875000  0.54354400  1
  As  As46  1  0.53234600  0.83649400  0.55238200  1
  As  As47  1  0.73239500  0.70580300  0.10273100  1
  As  As48  1  0.94633900  0.62151800  0.85737500  1
  As  As49  1  0.96765400  0.33649400  0.55238200  1
  As  As50  1  0.05366100  0.12151800  0.64262500  1
  As  As51  1  0.09168200  0.41016500  0.63375200  1
  As  As52  1  0.59168200  0.41016500  0.86624800  1
  As  As53  1  0.73239500  0.79419700  0.60273100  1
  As  As54  1  0.03234600  0.66350600  0.44761800  1
  As  As55  1  0.07926300  0.32125000  0.04354400  1
  As  As56  1  0.42073700  0.82125000  0.04354400  1
  As  As57  1  0.35421800  0.20350900  0.81637400  1
  As  As58  1  0.96765400  0.16350600  0.05238200  1
  As  As59  1  0.40831800  0.58983500  0.13375200  1
  As  As60  1  0.46765400  0.16350600  0.44761800  1
  As  As61  1  0.07310300  0.27995800  0.70501000  1
  As  As62  1  0.55366100  0.37848200  0.35737500  1
  As  As63  1  0.85421800  0.29649100  0.18362600  1
  As  As64  1  0.42689700  0.72004200  0.20501000  1
  As  As65  1  0.76760500  0.29419700  0.60273100  1
  As  As66  1  0.57310300  0.22004200  0.29499000  1
  As  As67  1  0.55366100  0.12151800  0.85737500  1
  As  As68  1  0.09168200  0.08983500  0.13375200  1
  As  As69  1  0.23239600  0.79419700  0.89726900  1
  As  As70  1  0.42073700  0.67875000  0.54354400  1
  As  As71  1  0.26760500  0.29419700  0.89726900  1
  As  As72  1  0.26760500  0.20580300  0.39726900  1
  As  As73  1  0.92689700  0.77995800  0.79499000  1
  As  As74  1  0.90831800  0.58983500  0.36624800  1
  As  As75  1  0.53234600  0.66350600  0.05238200  1
  As  As76  1  0.46765400  0.33649400  0.94761800  1
  As  As77  1  0.92073700  0.67875000  0.95645600  1
  As  As78  1  0.57926300  0.32125000  0.45645600  1
  As  As79  1  0.35421800  0.29649100  0.31637400  1
