# generated using pymatgen
data_Li4Ga3Si3ClO12
_symmetry_space_group_name_H-M   'P 1'
_cell_length_a   8.61536300
_cell_length_b   8.61536300
_cell_length_c   8.61536300
_cell_angle_alpha   90.00000000
_cell_angle_beta   90.00000000
_cell_angle_gamma   90.00000000
_symmetry_Int_Tables_number   1
_chemical_formula_structural   Li4Ga3Si3ClO12
_chemical_formula_sum   'Li8 Ga6 Si6 Cl2 O24'
_cell_volume   639.47083543
_cell_formula_units_Z   2
loop_
 _symmetry_equiv_pos_site_id
 _symmetry_equiv_pos_as_xyz
  1  'x, y, z'
loop_
 _atom_site_type_symbol
 _atom_site_label
 _atom_site_symmetry_multiplicity
 _atom_site_fract_x
 _atom_site_fract_y
 _atom_site_fract_z
 _atom_site_occupancy
  Li  Li0  1  0.82817900  0.82817900  0.17182100  1
  Li  Li1  1  0.17182100  0.17182100  0.17182100  1
  Li  Li2  1  0.67182100  0.67182100  0.67182100  1
  Li  Li3  1  0.32817900  0.67182100  0.32817900  1
  Li  Li4  1  0.32817900  0.32817900  0.67182100  1
  Li  Li5  1  0.17182100  0.82817900  0.82817900  1
  Li  Li6  1  0.82817900  0.17182100  0.82817900  1
  Li  Li7  1  0.67182100  0.32817900  0.32817900  1
  Ga  Ga8  1  0.00000000  0.75000000  0.50000000  1
  Ga  Ga9  1  0.25000000  0.50000000  0.00000000  1
  Ga  Ga10  1  0.50000000  0.00000000  0.75000000  1
  Ga  Ga11  1  0.50000000  0.00000000  0.25000000  1
  Ga  Ga12  1  0.00000000  0.25000000  0.50000000  1
  Ga  Ga13  1  0.75000000  0.50000000  0.00000000  1
  Si  Si14  1  0.00000000  0.50000000  0.25000000  1
  Si  Si15  1  0.50000000  0.75000000  0.00000000  1
  Si  Si16  1  0.50000000  0.25000000  0.00000000  1
  Si  Si17  1  0.00000000  0.50000000  0.75000000  1
  Si  Si18  1  0.75000000  0.00000000  0.50000000  1
  Si  Si19  1  0.25000000  0.00000000  0.50000000  1
  Cl  Cl20  1  0.00000000  0.00000000  0.00000000  1
  Cl  Cl21  1  0.50000000  0.50000000  0.50000000  1
  O  O22  1  0.09843500  0.62662200  0.35411000  1
  O  O23  1  0.35411000  0.09843500  0.62662200  1
  O  O24  1  0.90156500  0.62662200  0.64589000  1
  O  O25  1  0.40156500  0.85411000  0.87337800  1
  O  O26  1  0.62662200  0.64589000  0.90156500  1
  O  O27  1  0.37337800  0.35411000  0.90156500  1
  O  O28  1  0.14589000  0.87337800  0.59843500  1
  O  O29  1  0.35411000  0.90156500  0.37337800  1
  O  O30  1  0.64589000  0.09843500  0.37337800  1
  O  O31  1  0.85411000  0.87337800  0.40156500  1
  O  O32  1  0.12662200  0.40156500  0.14589000  1
  O  O33  1  0.12662200  0.59843500  0.85411000  1
  O  O34  1  0.14589000  0.12662200  0.40156500  1
  O  O35  1  0.87337800  0.40156500  0.85411000  1
  O  O36  1  0.64589000  0.90156500  0.62662200  1
  O  O37  1  0.37337800  0.64589000  0.09843500  1
  O  O38  1  0.62662200  0.35411000  0.09843500  1
  O  O39  1  0.90156500  0.37337800  0.35411000  1
  O  O40  1  0.59843500  0.14589000  0.87337800  1
  O  O41  1  0.09843500  0.37337800  0.64589000  1
  O  O42  1  0.85411000  0.12662200  0.59843500  1
  O  O43  1  0.59843500  0.85411000  0.12662200  1
  O  O44  1  0.87337800  0.59843500  0.14589000  1
  O  O45  1  0.40156500  0.14589000  0.12662200  1
