# generated using pymatgen
data_Gd2Te4O11
_symmetry_space_group_name_H-M   'P 1'
_cell_length_a   6.82462637
_cell_length_b   6.82462637
_cell_length_c   16.43134000
_cell_angle_alpha   76.05234216
_cell_angle_beta   76.05234216
_cell_angle_gamma   45.01222350
_symmetry_Int_Tables_number   1
_chemical_formula_structural   Gd2Te4O11
_chemical_formula_sum   'Gd4 Te8 O22'
_cell_volume   522.51592170
_cell_formula_units_Z   2
loop_
 _symmetry_equiv_pos_site_id
 _symmetry_equiv_pos_as_xyz
  1  'x, y, z'
loop_
 _atom_site_type_symbol
 _atom_site_label
 _atom_site_symmetry_multiplicity
 _atom_site_fract_x
 _atom_site_fract_y
 _atom_site_fract_z
 _atom_site_occupancy
  Gd  Gd0  1  0.63014400  0.13166100  0.03758400  1
  Gd  Gd1  1  0.86833900  0.36985600  0.46241600  1
  Gd  Gd2  1  0.36985600  0.86833900  0.96241600  1
  Gd  Gd3  1  0.13166100  0.63014400  0.53758400  1
  Te  Te4  1  0.58871100  0.15240300  0.37429700  1
  Te  Te5  1  0.84759700  0.41128900  0.12570300  1
  Te  Te6  1  0.41128900  0.84759700  0.62570300  1
  Te  Te7  1  0.15240300  0.58871100  0.87429700  1
  Te  Te8  1  0.15610900  0.60247100  0.19917800  1
  Te  Te9  1  0.39752900  0.84389100  0.30082200  1
  Te  Te10  1  0.84389100  0.39752900  0.80082200  1
  Te  Te11  1  0.60247100  0.15610900  0.69917800  1
  O  O12  1  0.68365600  0.81237100  0.37183400  1
  O  O13  1  0.18762900  0.31634400  0.12816600  1
  O  O14  1  0.31634400  0.18762900  0.62816600  1
  O  O15  1  0.81237100  0.68365600  0.87183400  1
  O  O16  1  0.24973700  0.33476300  0.44666800  1
  O  O17  1  0.66523700  0.75026300  0.05333200  1
  O  O18  1  0.75026300  0.66523700  0.55333200  1
  O  O19  1  0.33476300  0.24973700  0.94666800  1
  O  O20  1  0.81904700  0.04040200  0.45438900  1
  O  O21  1  0.95959800  0.18095300  0.04561100  1
  O  O22  1  0.18095300  0.95959800  0.54561100  1
  O  O23  1  0.04040200  0.81904700  0.95438900  1
  O  O24  1  0.44302200  0.60660600  0.40188200  1
  O  O25  1  0.39339400  0.55697800  0.09811800  1
  O  O26  1  0.55697800  0.39339400  0.59811800  1
  O  O27  1  0.60660600  0.44302200  0.90188200  1
  O  O28  1  0.09274500  0.20401200  0.33156100  1
  O  O29  1  0.79598800  0.90725500  0.16843900  1
  O  O30  1  0.90725500  0.79598800  0.66843900  1
  O  O31  1  0.20401200  0.09274500  0.83156100  1
  O  O32  1  0.14587900  0.85412100  0.25000000  1
  O  O33  1  0.85412100  0.14587900  0.75000000  1
