# generated using pymatgen
data_PbCl4
_symmetry_space_group_name_H-M   'P 1'
_cell_length_a   7.14005255
_cell_length_b   7.14005255
_cell_length_c   11.47250470
_cell_angle_alpha   66.09565774
_cell_angle_beta   66.09565774
_cell_angle_gamma   48.27721362
_symmetry_Int_Tables_number   1
_chemical_formula_structural   PbCl4
_chemical_formula_sum   'Pb2 Cl8'
_cell_volume   391.13722779
_cell_formula_units_Z   2
loop_
 _symmetry_equiv_pos_site_id
 _symmetry_equiv_pos_as_xyz
  1  'x, y, z'
loop_
 _atom_site_type_symbol
 _atom_site_label
 _atom_site_symmetry_multiplicity
 _atom_site_fract_x
 _atom_site_fract_y
 _atom_site_fract_z
 _atom_site_occupancy
  Pb  Pb0  1  0.26116200  0.73883800  0.25000000  1
  Pb  Pb1  1  0.73883800  0.26116200  0.75000000  1
  Cl  Cl2  1  0.90014400  0.85615300  0.19177300  1
  Cl  Cl3  1  0.09985600  0.14384700  0.80822700  1
  Cl  Cl4  1  0.38306700  0.37297900  0.93315900  1
  Cl  Cl5  1  0.62702100  0.61693300  0.56684100  1
  Cl  Cl6  1  0.14384700  0.09985600  0.30822700  1
  Cl  Cl7  1  0.85615300  0.90014400  0.69177300  1
  Cl  Cl8  1  0.61693300  0.62702100  0.06684100  1
  Cl  Cl9  1  0.37297900  0.38306700  0.43315900  1
