# generated using pymatgen
data_La12Fe2I17
_symmetry_space_group_name_H-M   'P 1'
_cell_length_a   9.94546400
_cell_length_b   11.99624634
_cell_length_c   12.20182428
_cell_angle_alpha   73.99926757
_cell_angle_beta   75.16266859
_cell_angle_gamma   67.07848023
_symmetry_Int_Tables_number   1
_chemical_formula_structural   La12Fe2I17
_chemical_formula_sum   'La12 Fe2 I17'
_cell_volume   1270.56899045
_cell_formula_units_Z   1
loop_
 _symmetry_equiv_pos_site_id
 _symmetry_equiv_pos_as_xyz
  1  'x, y, z'
loop_
 _atom_site_type_symbol
 _atom_site_label
 _atom_site_symmetry_multiplicity
 _atom_site_fract_x
 _atom_site_fract_y
 _atom_site_fract_z
 _atom_site_occupancy
  La  La0  1  0.45250700  0.47926800  0.32861300  1
  La  La1  1  0.56109900  0.66762400  0.00109900  1
  La  La2  1  0.29108900  0.00010800  0.08773500  1
  La  La3  1  0.84236500  0.28395800  0.84674900  1
  La  La4  1  0.42229500  0.23867600  0.72968500  1
  La  La5  1  0.70891100  0.99989200  0.91226500  1
  La  La6  1  0.54749300  0.52073200  0.67138700  1
  La  La7  1  0.43890100  0.33237600  0.99890100  1
  La  La8  1  0.57770500  0.76132400  0.27031500  1
  La  La9  1  0.82895100  0.18497100  0.57660400  1
  La  La10  1  0.17104900  0.81502900  0.42339600  1
  La  La11  1  0.15763500  0.71604200  0.15325100  1
  Fe  Fe12  1  0.36553000  0.73413300  0.21484600  1
  Fe  Fe13  1  0.63447000  0.26586700  0.78515400  1
  I  I14  1  0.05552800  0.10710700  0.31815200  1
  I  I15  1  0.45858000  0.94202100  0.82549400  1
  I  I16  1  0.43054500  0.82434800  0.53053200  1
  I  I17  1  0.56945500  0.17565200  0.46946800  1
  I  I18  1  0.85433800  0.69624700  0.04908000  1
  I  I19  1  0.21240800  0.41758800  0.24757100  1
  I  I20  1  0.69596400  0.36224900  0.10837200  1
  I  I21  1  0.54142000  0.05797900  0.17450600  1
  I  I22  1  0.74776100  0.47373800  0.41331800  1
  I  I23  1  0.88777300  0.78622300  0.36801500  1
  I  I24  1  0.94447200  0.89289300  0.68184800  1
  I  I25  1  0.14566200  0.30375300  0.95092000  1
  I  I26  1  0.30403600  0.63775100  0.89162800  1
  I  I27  1  0.00000000  0.00000000  0.00000000  1
  I  I28  1  0.11222700  0.21377700  0.63198500  1
  I  I29  1  0.78759200  0.58241200  0.75242900  1
  I  I30  1  0.25223900  0.52626200  0.58668200  1
