# generated using pymatgen
data_Sr14MnBi11
_symmetry_space_group_name_H-M   'P 1'
_cell_length_a   17.42021627
_cell_length_b   17.42021627
_cell_length_c   17.42021627
_cell_angle_alpha   117.53088570
_cell_angle_beta   117.53088570
_cell_angle_gamma   94.33262978
_symmetry_Int_Tables_number   1
_chemical_formula_structural   Sr14MnBi11
_chemical_formula_sum   'Sr56 Mn4 Bi44'
_cell_volume   3865.60410949
_cell_formula_units_Z   4
loop_
 _symmetry_equiv_pos_site_id
 _symmetry_equiv_pos_as_xyz
  1  'x, y, z'
loop_
 _atom_site_type_symbol
 _atom_site_label
 _atom_site_symmetry_multiplicity
 _atom_site_fract_x
 _atom_site_fract_y
 _atom_site_fract_z
 _atom_site_occupancy
  Sr  Sr0  1  0.50026100  0.60394800  0.85191300  1
  Sr  Sr1  1  0.62500000  0.22971800  0.10471800  1
  Sr  Sr2  1  0.16050100  0.02611600  0.78149300  1
  Sr  Sr3  1  0.89721700  0.37584600  0.83741500  1
  Sr  Sr4  1  0.12500000  0.02028200  0.39528200  1
  Sr  Sr5  1  0.77028200  0.87500000  0.39528200  1
  Sr  Sr6  1  0.12900800  0.41050100  0.63438600  1
  Sr  Sr7  1  0.75203500  0.64834800  0.14808700  1
  Sr  Sr8  1  0.71156900  0.37415400  0.02137100  1
  Sr  Sr9  1  0.44019800  0.96156900  0.83741500  1
  Sr  Sr10  1  0.30980200  0.28843100  0.66258500  1
  Sr  Sr11  1  0.03843100  0.87584600  0.47862900  1
  Sr  Sr12  1  0.49796500  0.14605200  0.39631300  1
  Sr  Sr13  1  0.35394800  0.00203500  0.60368700  1
  Sr  Sr14  1  0.12500000  0.52028200  0.89528200  1
  Sr  Sr15  1  0.99796500  0.60165200  0.35191300  1
  Sr  Sr16  1  0.94019800  0.10278300  0.47862900  1
  Sr  Sr17  1  0.62584600  0.64721700  0.33741500  1
  Sr  Sr18  1  0.89605200  0.99973900  0.14808700  1
  Sr  Sr19  1  0.35278300  0.69019800  0.97862900  1
  Sr  Sr20  1  0.12415400  0.60278300  0.16258500  1
  Sr  Sr21  1  0.00026100  0.14834800  0.89631300  1
  Sr  Sr22  1  0.66050100  0.87900800  0.13438600  1
  Sr  Sr23  1  0.50537800  0.87099200  0.28149300  1
  Sr  Sr24  1  0.85278300  0.87415400  0.66258500  1
  Sr  Sr25  1  0.21156900  0.19019800  0.33741500  1
  Sr  Sr26  1  0.00537800  0.72388400  0.63438600  1
  Sr  Sr27  1  0.74462200  0.52611600  0.86561400  1
  Sr  Sr28  1  0.25203500  0.10394800  0.10368700  1
  Sr  Sr29  1  0.24462200  0.37900800  0.21850700  1
  Sr  Sr30  1  0.35165200  0.49973900  0.10368700  1
  Sr  Sr31  1  0.24973900  0.64605200  0.64808700  1
  Sr  Sr32  1  0.74973900  0.10165200  0.60368700  1
  Sr  Sr33  1  0.62500000  0.72971800  0.60471800  1
  Sr  Sr34  1  0.89834800  0.50203500  0.64808700  1
  Sr  Sr35  1  0.85165200  0.74796500  0.85191300  1
  Sr  Sr36  1  0.62099200  0.83949900  0.86561400  1
  Sr  Sr37  1  0.27611600  0.91050100  0.28149300  1
  Sr  Sr38  1  0.85394800  0.25026100  0.35191300  1
  Sr  Sr39  1  0.12584600  0.78843100  0.97862900  1
  Sr  Sr40  1  0.77611600  0.49462200  0.36561400  1
  Sr  Sr41  1  0.97388400  0.75537800  0.13438600  1
  Sr  Sr42  1  0.12099200  0.25537800  0.78149300  1
  Sr  Sr43  1  0.58949900  0.22388400  0.71850700  1
  Sr  Sr44  1  0.62415400  0.46156900  0.52137100  1
  Sr  Sr45  1  0.97971800  0.37500000  0.10471800  1
  Sr  Sr46  1  0.53843100  0.05980200  0.16258500  1
  Sr  Sr47  1  0.39605200  0.24796500  0.89631300  1
  Sr  Sr48  1  0.39834800  0.75026100  0.39631300  1
  Sr  Sr49  1  0.47971800  0.37500000  0.60471800  1
  Sr  Sr50  1  0.08949900  0.37099200  0.36561400  1
  Sr  Sr51  1  0.80980200  0.14721700  0.02137100  1
  Sr  Sr52  1  0.27028200  0.87500000  0.89528200  1
  Sr  Sr53  1  0.47388400  0.33949900  0.21850700  1
  Sr  Sr54  1  0.39721700  0.55980200  0.52137100  1
  Sr  Sr55  1  0.62900800  0.99462200  0.71850700  1
  Mn  Mn56  1  0.25000000  0.75000000  0.50000000  1
  Mn  Mn57  1  0.75000000  0.25000000  0.50000000  1
  Mn  Mn58  1  0.00000000  0.00000000  0.00000000  1
  Mn  Mn59  1  0.50000000  0.50000000  0.00000000  1
  Bi  Bi60  1  0.86530900  0.36530900  0.23061800  1
  Bi  Bi61  1  0.29111600  0.69888900  0.14543400  1
  Bi  Bi62  1  0.88469100  0.88469100  0.26938200  1
  Bi  Bi63  1  0.55345500  0.14568200  0.85456600  1
  Bi  Bi64  1  0.94888900  0.04111600  0.64543400  1
  Bi  Bi65  1  0.36530900  0.13469100  0.50000000  1
  Bi  Bi66  1  0.45888400  0.55111100  0.35456600  1
  Bi  Bi67  1  0.35431800  0.94654500  0.14543400  1
  Bi  Bi68  1  0.05668600  0.19805500  0.13248900  1
  Bi  Bi69  1  0.05345500  0.19888900  0.40777300  1
  Bi  Bi70  1  0.50000000  0.00000000  0.50000000  1
  Bi  Bi71  1  0.19654500  0.10431800  0.64543400  1
  Bi  Bi72  1  0.80194500  0.93443400  0.85863100  1
  Bi  Bi73  1  0.68443400  0.32580400  0.63248900  1
  Bi  Bi74  1  0.44805500  0.80668600  0.63248900  1
  Bi  Bi75  1  0.17419600  0.81556600  0.36751100  1
  Bi  Bi76  1  0.56556600  0.69805500  0.14136900  1
  Bi  Bi77  1  0.67419600  0.30668600  0.35863100  1
  Bi  Bi78  1  0.07580400  0.94331400  0.14136900  1
  Bi  Bi79  1  0.75000000  0.75000000  0.00000000  1
  Bi  Bi80  1  0.55668600  0.42419600  0.85863100  1
  Bi  Bi81  1  0.38469100  0.11530900  0.00000000  1
  Bi  Bi82  1  0.06556600  0.92419600  0.86751100  1
  Bi  Bi83  1  0.00000000  0.50000000  0.50000000  1
  Bi  Bi84  1  0.30194500  0.44331400  0.86751100  1
  Bi  Bi85  1  0.80111100  0.20888400  0.85456600  1
  Bi  Bi86  1  0.25000000  0.25000000  0.00000000  1
  Bi  Bi87  1  0.39568200  0.30345500  0.35456600  1
  Bi  Bi88  1  0.30111100  0.44654500  0.59222700  1
  Bi  Bi89  1  0.69654500  0.05111100  0.09222700  1
  Bi  Bi90  1  0.79111600  0.64568200  0.59222700  1
  Bi  Bi91  1  0.19331400  0.82580400  0.64136900  1
  Bi  Bi92  1  0.95888400  0.60431800  0.90777300  1
  Bi  Bi93  1  0.11530900  0.38469100  0.00000000  1
  Bi  Bi94  1  0.94805500  0.31556600  0.64136900  1
  Bi  Bi95  1  0.63469100  0.86530900  0.50000000  1
  Bi  Bi96  1  0.69331400  0.05194500  0.36751100  1
  Bi  Bi97  1  0.57580400  0.43443400  0.13248900  1
  Bi  Bi98  1  0.85431800  0.70888400  0.40777300  1
  Bi  Bi99  1  0.89568200  0.54111600  0.09222700  1
  Bi  Bi100  1  0.44888900  0.80345500  0.90777300  1
  Bi  Bi101  1  0.13469100  0.63469100  0.76938200  1
  Bi  Bi102  1  0.61530900  0.61530900  0.73061800  1
  Bi  Bi103  1  0.18443400  0.55194500  0.35863100  1
