# generated using pymatgen
data_KZnB(PO4)2
_symmetry_space_group_name_H-M   'P 1'
_cell_length_a   9.11501124
_cell_length_b   9.11501124
_cell_length_c   8.52347199
_cell_angle_alpha   89.07037104
_cell_angle_beta   89.07037104
_cell_angle_gamma   90.50768462
_symmetry_Int_Tables_number   1
_chemical_formula_structural   KZnB(PO4)2
_chemical_formula_sum   'K4 Zn4 B4 P8 O32'
_cell_volume   707.94339445
_cell_formula_units_Z   4
loop_
 _symmetry_equiv_pos_site_id
 _symmetry_equiv_pos_as_xyz
  1  'x, y, z'
loop_
 _atom_site_type_symbol
 _atom_site_label
 _atom_site_symmetry_multiplicity
 _atom_site_fract_x
 _atom_site_fract_y
 _atom_site_fract_z
 _atom_site_occupancy
  K  K0  1  0.03050800  0.96949200  0.75000000  1
  K  K1  1  0.96949200  0.03050800  0.25000000  1
  K  K2  1  0.59770400  0.40229600  0.25000000  1
  K  K3  1  0.40229600  0.59770400  0.75000000  1
  Zn  Zn4  1  0.31364500  0.93391500  0.43878200  1
  Zn  Zn5  1  0.06608500  0.68635500  0.06121800  1
  Zn  Zn6  1  0.93391500  0.31364500  0.93878200  1
  Zn  Zn7  1  0.68635500  0.06608500  0.56121800  1
  B  B8  1  0.79545000  0.57604900  0.57370500  1
  B  B9  1  0.42395100  0.20455000  0.92629500  1
  B  B10  1  0.20455000  0.42395100  0.42629500  1
  B  B11  1  0.57604900  0.79545000  0.07370500  1
  P  P12  1  0.68936700  0.05278600  0.94064400  1
  P  P13  1  0.61133000  0.77418500  0.40747900  1
  P  P14  1  0.77418500  0.61133000  0.90747900  1
  P  P15  1  0.22581500  0.38867000  0.09252100  1
  P  P16  1  0.05278600  0.68936700  0.44064400  1
  P  P17  1  0.38867000  0.22581500  0.59252100  1
  P  P18  1  0.31063300  0.94721400  0.05935600  1
  P  P19  1  0.94721400  0.31063300  0.55935600  1
  O  O20  1  0.42813700  0.26553000  0.76479300  1
  O  O21  1  0.09745400  0.28005400  0.08449900  1
  O  O22  1  0.92606700  0.67055300  0.56661400  1
  O  O23  1  0.80131700  0.46941500  0.00302000  1
  O  O24  1  0.57518700  0.17531000  0.98066400  1
  O  O25  1  0.42481300  0.82469000  0.01933600  1
  O  O26  1  0.99220000  0.67027200  0.27674100  1
  O  O27  1  0.67027200  0.99220000  0.77674100  1
  O  O28  1  0.19868300  0.53058500  0.99698000  1
  O  O29  1  0.84223000  0.11725700  0.97063400  1
  O  O30  1  0.57186300  0.73447000  0.23520700  1
  O  O31  1  0.73447000  0.57186300  0.73520700  1
  O  O32  1  0.28005400  0.09745400  0.58449900  1
  O  O33  1  0.07393300  0.32944700  0.43338600  1
  O  O34  1  0.62579700  0.67665400  0.96890600  1
  O  O35  1  0.82469000  0.42481300  0.51933600  1
  O  O36  1  0.32972800  0.00780000  0.22325900  1
  O  O37  1  0.32334600  0.37420300  0.53109400  1
  O  O38  1  0.32944700  0.07393300  0.93338600  1
  O  O39  1  0.88274300  0.15777000  0.52936600  1
  O  O40  1  0.26553000  0.42813700  0.26479300  1
  O  O41  1  0.46941500  0.80131700  0.50302000  1
  O  O42  1  0.67665400  0.62579700  0.46890600  1
  O  O43  1  0.00780000  0.32972800  0.72325900  1
  O  O44  1  0.53058500  0.19868300  0.49698000  1
  O  O45  1  0.11725700  0.84223000  0.47063400  1
  O  O46  1  0.67055300  0.92606700  0.06661400  1
  O  O47  1  0.37420300  0.32334600  0.03109400  1
  O  O48  1  0.15777000  0.88274300  0.02936600  1
  O  O49  1  0.90254600  0.71994600  0.91550100  1
  O  O50  1  0.71994600  0.90254600  0.41550100  1
  O  O51  1  0.17531000  0.57518700  0.48066400  1
