# generated using pymatgen
data_Ba4Ti2PtO10
_symmetry_space_group_name_H-M   'P 1'
_cell_length_a   7.39624866
_cell_length_b   7.39624866
_cell_length_c   13.31864400
_cell_angle_alpha   90.00000000
_cell_angle_beta   90.00000000
_cell_angle_gamma   133.41379662
_symmetry_Int_Tables_number   1
_chemical_formula_structural   Ba4Ti2PtO10
_chemical_formula_sum   'Ba8 Ti4 Pt2 O20'
_cell_volume   529.25425074
_cell_formula_units_Z   2
loop_
 _symmetry_equiv_pos_site_id
 _symmetry_equiv_pos_as_xyz
  1  'x, y, z'
loop_
 _atom_site_type_symbol
 _atom_site_label
 _atom_site_symmetry_multiplicity
 _atom_site_fract_x
 _atom_site_fract_y
 _atom_site_fract_z
 _atom_site_occupancy
  Ba  Ba0  1  0.47078100  0.52921900  0.14209200  1
  Ba  Ba1  1  0.23437100  0.76562900  0.89983900  1
  Ba  Ba2  1  0.73437100  0.26562900  0.60016100  1
  Ba  Ba3  1  0.02921900  0.97078100  0.64209200  1
  Ba  Ba4  1  0.97078100  0.02921900  0.35790800  1
  Ba  Ba5  1  0.26562900  0.73437100  0.39983900  1
  Ba  Ba6  1  0.52921900  0.47078100  0.85790800  1
  Ba  Ba7  1  0.76562900  0.23437100  0.10016100  1
  Ti  Ti8  1  0.13877700  0.86122300  0.15529300  1
  Ti  Ti9  1  0.36122300  0.63877700  0.65529300  1
  Ti  Ti10  1  0.86122300  0.13877700  0.84470700  1
  Ti  Ti11  1  0.63877700  0.36122300  0.34470700  1
  Pt  Pt12  1  0.00000000  0.00000000  0.00000000  1
  Pt  Pt13  1  0.50000000  0.50000000  0.50000000  1
  O  O14  1  0.53612500  0.46387500  0.65125700  1
  O  O15  1  0.72969400  0.27030600  0.85900800  1
  O  O16  1  0.38299100  0.16586200  0.46009100  1
  O  O17  1  0.88299100  0.66586200  0.03990900  1
  O  O18  1  0.62220900  0.87779100  0.75000000  1
  O  O19  1  0.12220900  0.37779100  0.75000000  1
  O  O20  1  0.27030600  0.72969400  0.14099200  1
  O  O21  1  0.03612500  0.96387500  0.84874300  1
  O  O22  1  0.37779100  0.12220900  0.25000000  1
  O  O23  1  0.83413800  0.61700900  0.46009100  1
  O  O24  1  0.77030600  0.22969400  0.35900800  1
  O  O25  1  0.46387500  0.53612500  0.34874300  1
  O  O26  1  0.87779100  0.62220900  0.25000000  1
  O  O27  1  0.11700900  0.33413800  0.96009100  1
  O  O28  1  0.61700900  0.83413800  0.53990900  1
  O  O29  1  0.22969400  0.77030600  0.64099200  1
  O  O30  1  0.66586200  0.88299100  0.96009100  1
  O  O31  1  0.16586200  0.38299100  0.53990900  1
  O  O32  1  0.96387500  0.03612500  0.15125700  1
  O  O33  1  0.33413800  0.11700900  0.03990900  1
