# generated using pymatgen
data_KVPO5
_symmetry_space_group_name_H-M   'P 1'
_cell_length_a   7.47236300
_cell_length_b   7.75354000
_cell_length_c   8.54289400
_cell_angle_alpha   90.00000000
_cell_angle_beta   90.00000000
_cell_angle_gamma   90.00000000
_symmetry_Int_Tables_number   1
_chemical_formula_structural   KVPO5
_chemical_formula_sum   'K4 V4 P4 O20'
_cell_volume   494.95191709
_cell_formula_units_Z   4
loop_
 _symmetry_equiv_pos_site_id
 _symmetry_equiv_pos_as_xyz
  1  'x, y, z'
loop_
 _atom_site_type_symbol
 _atom_site_label
 _atom_site_symmetry_multiplicity
 _atom_site_fract_x
 _atom_site_fract_y
 _atom_site_fract_z
 _atom_site_occupancy
  K  K0  1  0.38288800  0.53883900  0.75910700  1
  K  K1  1  0.61711200  0.03883900  0.74089300  1
  K  K2  1  0.11711200  0.46116100  0.25910700  1
  K  K3  1  0.88288800  0.96116100  0.24089300  1
  V  V4  1  0.38298100  0.94794700  0.11809400  1
  V  V5  1  0.88298100  0.55205300  0.88190600  1
  V  V6  1  0.11701900  0.05205300  0.61809400  1
  V  V7  1  0.61701900  0.44794700  0.38190600  1
  P  P8  1  0.12316500  0.18674000  0.90372100  1
  P  P9  1  0.37683500  0.81326000  0.40372100  1
  P  P10  1  0.62316500  0.31326000  0.09627900  1
  P  P11  1  0.87683500  0.68674000  0.59627900  1
  O  O12  1  0.17752800  0.09914600  0.05954400  1
  O  O13  1  0.43191000  0.62663700  0.44125300  1
  O  O14  1  0.52839400  0.91338800  0.31512400  1
  O  O15  1  0.41644600  0.80650800  0.97876000  1
  O  O16  1  0.91644600  0.69349200  0.02124000  1
  O  O17  1  0.22394000  0.82476200  0.27841800  1
  O  O18  1  0.47160600  0.41338800  0.18487600  1
  O  O19  1  0.32247200  0.90085400  0.55954400  1
  O  O20  1  0.02839400  0.58661200  0.68487600  1
  O  O21  1  0.08355400  0.19349200  0.47876000  1
  O  O22  1  0.06809000  0.37336300  0.94125300  1
  O  O23  1  0.93191000  0.87336300  0.55874700  1
  O  O24  1  0.27606000  0.17523800  0.77841800  1
  O  O25  1  0.58355400  0.30650800  0.52124000  1
  O  O26  1  0.72394000  0.67523800  0.72158200  1
  O  O27  1  0.67752800  0.40085400  0.94045600  1
  O  O28  1  0.97160600  0.08661200  0.81512400  1
  O  O29  1  0.77606000  0.32476200  0.22158200  1
  O  O30  1  0.82247200  0.59914600  0.44045600  1
  O  O31  1  0.56809000  0.12663700  0.05874700  1
