# generated using pymatgen
data_RbMnO2
_symmetry_space_group_name_H-M   'P 1'
_cell_length_a   6.63536630
_cell_length_b   7.89869610
_cell_length_c   8.64364332
_cell_angle_alpha   77.41189612
_cell_angle_beta   88.37786389
_cell_angle_gamma   78.67563305
_symmetry_Int_Tables_number   1
_chemical_formula_structural   RbMnO2
_chemical_formula_sum   'Rb6 Mn6 O12'
_cell_volume   433.47267589
_cell_formula_units_Z   6
loop_
 _symmetry_equiv_pos_site_id
 _symmetry_equiv_pos_as_xyz
  1  'x, y, z'
loop_
 _atom_site_type_symbol
 _atom_site_label
 _atom_site_symmetry_multiplicity
 _atom_site_fract_x
 _atom_site_fract_y
 _atom_site_fract_z
 _atom_site_occupancy
  Rb  Rb0  1  0.15292000  0.10944300  0.11789100  1
  Rb  Rb1  1  0.84662100  0.89112900  0.88154000  1
  Rb  Rb2  1  0.82660900  0.87222900  0.46733900  1
  Rb  Rb3  1  0.17378000  0.12726000  0.53340900  1
  Rb  Rb4  1  0.01903400  0.45872100  0.76668600  1
  Rb  Rb5  1  0.98108700  0.54117600  0.23319800  1
  Mn  Mn6  1  0.41507000  0.67719300  0.21525300  1
  Mn  Mn7  1  0.58434300  0.32437300  0.78471300  1
  Mn  Mn8  1  0.59877700  0.32734200  0.45021400  1
  Mn  Mn9  1  0.40203100  0.67076600  0.54950800  1
  Mn  Mn10  1  0.59609100  0.32472700  0.11731700  1
  Mn  Mn11  1  0.40375500  0.67587800  0.88286300  1
  O  O12  1  0.22831800  0.77758400  0.36348300  1
  O  O13  1  0.77201500  0.22271600  0.63661500  1
  O  O14  1  0.78845600  0.23656400  0.29826900  1
  O  O15  1  0.21221600  0.76272600  0.70139500  1
  O  O16  1  0.22645200  0.76981000  0.03724000  1
  O  O17  1  0.77256900  0.23067400  0.96274200  1
  O  O18  1  0.61159600  0.61781700  0.39250800  1
  O  O19  1  0.38848900  0.38113400  0.60738700  1
  O  O20  1  0.38739100  0.38077800  0.94638100  1
  O  O21  1  0.61202700  0.62025200  0.05396600  1
  O  O22  1  0.60439400  0.62727900  0.72088200  1
  O  O23  1  0.39596100  0.37242800  0.27920300  1
