# generated using pymatgen
data_NbSeCl3
_symmetry_space_group_name_H-M   'P 1'
_cell_length_a   7.09725300
_cell_length_b   6.64875900
_cell_length_c   12.13807810
_cell_angle_alpha   81.66230730
_cell_angle_beta   90.00000000
_cell_angle_gamma   90.00000000
_symmetry_Int_Tables_number   1
_chemical_formula_structural   NbSeCl3
_chemical_formula_sum   'Nb4 Se4 Cl12'
_cell_volume   566.71687814
_cell_formula_units_Z   4
loop_
 _symmetry_equiv_pos_site_id
 _symmetry_equiv_pos_as_xyz
  1  'x, y, z'
loop_
 _atom_site_type_symbol
 _atom_site_label
 _atom_site_symmetry_multiplicity
 _atom_site_fract_x
 _atom_site_fract_y
 _atom_site_fract_z
 _atom_site_occupancy
  Nb  Nb0  1  0.63795300  0.92804800  0.14619600  1
  Nb  Nb1  1  0.36204700  0.92804800  0.64619600  1
  Nb  Nb2  1  0.63795300  0.07195200  0.35380400  1
  Nb  Nb3  1  0.36204700  0.07195200  0.85380400  1
  Se  Se4  1  0.90875500  0.83797200  0.30128500  1
  Se  Se5  1  0.90875500  0.16202800  0.19871500  1
  Se  Se6  1  0.09124500  0.83797200  0.80128500  1
  Se  Se7  1  0.09124500  0.16202800  0.69871500  1
  Cl  Cl8  1  0.77605500  0.34885800  0.42782800  1
  Cl  Cl9  1  0.22394500  0.34885800  0.92782800  1
  Cl  Cl10  1  0.55087700  0.76414800  0.80188400  1
  Cl  Cl11  1  0.33029800  0.85229500  0.04090600  1
  Cl  Cl12  1  0.44912300  0.76414800  0.30188400  1
  Cl  Cl13  1  0.22394500  0.65114200  0.57217200  1
  Cl  Cl14  1  0.33029800  0.14770500  0.45909400  1
  Cl  Cl15  1  0.55087700  0.23585200  0.69811600  1
  Cl  Cl16  1  0.66970200  0.14770500  0.95909400  1
  Cl  Cl17  1  0.44912300  0.23585200  0.19811600  1
  Cl  Cl18  1  0.77605500  0.65114200  0.07217200  1
  Cl  Cl19  1  0.66970200  0.85229500  0.54090600  1
