# generated using pymatgen
data_Sn(SeO3)2
_symmetry_space_group_name_H-M   'P 1'
_cell_length_a   8.35828700
_cell_length_b   8.35828700
_cell_length_c   8.35828700
_cell_angle_alpha   90.00000000
_cell_angle_beta   90.00000000
_cell_angle_gamma   90.00000000
_symmetry_Int_Tables_number   1
_chemical_formula_structural   Sn(SeO3)2
_chemical_formula_sum   'Sn4 Se8 O24'
_cell_volume   583.91796693
_cell_formula_units_Z   4
loop_
 _symmetry_equiv_pos_site_id
 _symmetry_equiv_pos_as_xyz
  1  'x, y, z'
loop_
 _atom_site_type_symbol
 _atom_site_label
 _atom_site_symmetry_multiplicity
 _atom_site_fract_x
 _atom_site_fract_y
 _atom_site_fract_z
 _atom_site_occupancy
  Sn  Sn0  1  0.50000000  0.50000000  0.00000000  1
  Sn  Sn1  1  0.50000000  0.00000000  0.50000000  1
  Sn  Sn2  1  0.00000000  0.00000000  0.00000000  1
  Sn  Sn3  1  0.00000000  0.50000000  0.50000000  1
  Se  Se4  1  0.83310400  0.16689600  0.66689600  1
  Se  Se5  1  0.16689600  0.83310400  0.33310400  1
  Se  Se6  1  0.66689600  0.66689600  0.66689600  1
  Se  Se7  1  0.16689600  0.66689600  0.83310400  1
  Se  Se8  1  0.33310400  0.16689600  0.83310400  1
  Se  Se9  1  0.83310400  0.33310400  0.16689600  1
  Se  Se10  1  0.66689600  0.83310400  0.16689600  1
  Se  Se11  1  0.33310400  0.33310400  0.33310400  1
  O  O12  1  0.24480200  0.46535700  0.46703800  1
  O  O13  1  0.96703800  0.24480200  0.03464300  1
  O  O14  1  0.03296200  0.74480200  0.46535700  1
  O  O15  1  0.46703800  0.25519800  0.96535700  1
  O  O16  1  0.25519800  0.96535700  0.46703800  1
  O  O17  1  0.53464300  0.53296200  0.75519800  1
  O  O18  1  0.96535700  0.03296200  0.75519800  1
  O  O19  1  0.53296200  0.74480200  0.03464300  1
  O  O20  1  0.53464300  0.96703800  0.25519800  1
  O  O21  1  0.46535700  0.03296200  0.74480200  1
  O  O22  1  0.75519800  0.96535700  0.03296200  1
  O  O23  1  0.25519800  0.53464300  0.96703800  1
  O  O24  1  0.03464300  0.53296200  0.74480200  1
  O  O25  1  0.03464300  0.96703800  0.24480200  1
  O  O26  1  0.24480200  0.03464300  0.96703800  1
  O  O27  1  0.46535700  0.46703800  0.24480200  1
  O  O28  1  0.75519800  0.53464300  0.53296200  1
  O  O29  1  0.96535700  0.46703800  0.25519800  1
  O  O30  1  0.03296200  0.75519800  0.96535700  1
  O  O31  1  0.46703800  0.24480200  0.46535700  1
  O  O32  1  0.53296200  0.75519800  0.53464300  1
  O  O33  1  0.96703800  0.25519800  0.53464300  1
  O  O34  1  0.74480200  0.03464300  0.53296200  1
  O  O35  1  0.74480200  0.46535700  0.03296200  1
