# generated using pymatgen
data_Nb2CoO6
_symmetry_space_group_name_H-M   'P 1'
_cell_length_a   5.09799900
_cell_length_b   5.83211400
_cell_length_c   14.33002600
_cell_angle_alpha   90.00000000
_cell_angle_beta   90.00000000
_cell_angle_gamma   90.00000000
_symmetry_Int_Tables_number   1
_chemical_formula_structural   Nb2CoO6
_chemical_formula_sum   'Nb8 Co4 O24'
_cell_volume   426.06192854
_cell_formula_units_Z   4
loop_
 _symmetry_equiv_pos_site_id
 _symmetry_equiv_pos_as_xyz
  1  'x, y, z'
loop_
 _atom_site_type_symbol
 _atom_site_label
 _atom_site_symmetry_multiplicity
 _atom_site_fract_x
 _atom_site_fract_y
 _atom_site_fract_z
 _atom_site_occupancy
  Nb  Nb0  1  0.25578200  0.68157300  0.15965100  1
  Nb  Nb1  1  0.75578200  0.81842700  0.34034900  1
  Nb  Nb2  1  0.24421800  0.68157300  0.84034900  1
  Nb  Nb3  1  0.74421800  0.81842700  0.65965100  1
  Nb  Nb4  1  0.74421800  0.31842700  0.84034900  1
  Nb  Nb5  1  0.24421800  0.18157300  0.65965100  1
  Nb  Nb6  1  0.75578200  0.31842700  0.15965100  1
  Nb  Nb7  1  0.25578200  0.18157300  0.34034900  1
  Co  Co8  1  0.75000000  0.84413400  0.00000000  1
  Co  Co9  1  0.25000000  0.65586600  0.50000000  1
  Co  Co10  1  0.25000000  0.15586600  0.00000000  1
  Co  Co11  1  0.75000000  0.34413400  0.50000000  1
  O  O12  1  0.58092900  0.60729400  0.09558700  1
  O  O13  1  0.08092900  0.89270600  0.40441300  1
  O  O14  1  0.91907100  0.60729400  0.90441300  1
  O  O15  1  0.41907100  0.89270600  0.59558700  1
  O  O16  1  0.41907100  0.39270600  0.90441300  1
  O  O17  1  0.91907100  0.10729400  0.59558700  1
  O  O18  1  0.08092900  0.39270600  0.09558700  1
  O  O19  1  0.58092900  0.10729400  0.40441300  1
  O  O20  1  0.09272100  0.88048900  0.07825600  1
  O  O21  1  0.59272100  0.61951100  0.42174400  1
  O  O22  1  0.40727900  0.88048900  0.92174400  1
  O  O23  1  0.90727900  0.61951100  0.57825600  1
  O  O24  1  0.90727900  0.11951100  0.92174400  1
  O  O25  1  0.40727900  0.38048900  0.57825600  1
  O  O26  1  0.59272100  0.11951100  0.07825600  1
  O  O27  1  0.09272100  0.38048900  0.42174400  1
  O  O28  1  0.42645600  0.87589400  0.25517300  1
  O  O29  1  0.92645600  0.62410600  0.24482700  1
  O  O30  1  0.07354400  0.87589400  0.74482700  1
  O  O31  1  0.57354400  0.62410600  0.75517300  1
  O  O32  1  0.57354400  0.12410600  0.74482700  1
  O  O33  1  0.07354400  0.37589400  0.75517300  1
  O  O34  1  0.92645600  0.12410600  0.25517300  1
  O  O35  1  0.42645600  0.37589400  0.24482700  1
