# generated using pymatgen
data_K3NdSi7O17
_symmetry_space_group_name_H-M   'P 1'
_cell_length_a   16.36775284
_cell_length_b   16.36775284
_cell_length_c   7.27978000
_cell_angle_alpha   90.00000000
_cell_angle_beta   90.00000000
_cell_angle_gamma   120.00000338
_symmetry_Int_Tables_number   1
_chemical_formula_structural   K3NdSi7O17
_chemical_formula_sum   'K12 Nd4 Si28 O68'
_cell_volume   1688.98965015
_cell_formula_units_Z   4
loop_
 _symmetry_equiv_pos_site_id
 _symmetry_equiv_pos_as_xyz
  1  'x, y, z'
loop_
 _atom_site_type_symbol
 _atom_site_label
 _atom_site_symmetry_multiplicity
 _atom_site_fract_x
 _atom_site_fract_y
 _atom_site_fract_z
 _atom_site_occupancy
  K  K0  1  0.36611300  0.90472700  0.46775100  1
  K  K1  1  0.24297400  0.00396400  0.12220100  1
  K  K2  1  0.75702600  0.99603600  0.87779900  1
  K  K3  1  0.90472700  0.53861400  0.53224900  1
  K  K4  1  0.23901000  0.24297400  0.87779900  1
  K  K5  1  0.76099000  0.75702600  0.12220100  1
  K  K6  1  0.99603600  0.23901000  0.12220100  1
  K  K7  1  0.09527300  0.46138600  0.46775100  1
  K  K8  1  0.63388700  0.09527300  0.53224900  1
  K  K9  1  0.53861400  0.63388700  0.46775100  1
  K  K10  1  0.46138600  0.36611300  0.53224900  1
  K  K11  1  0.00396400  0.76099000  0.87779900  1
  Nd  Nd12  1  0.00000000  0.00000000  0.00000000  1
  Nd  Nd13  1  0.00000000  0.50000000  0.00000000  1
  Nd  Nd14  1  0.50000000  0.00000000  0.00000000  1
  Nd  Nd15  1  0.50000000  0.50000000  0.00000000  1
  Si  Si16  1  0.61961000  0.90640000  0.30169400  1
  Si  Si17  1  0.74826100  0.20872700  0.97892900  1
  Si  Si18  1  0.20872700  0.46046600  0.02107100  1
  Si  Si19  1  0.09360000  0.71321000  0.30169400  1
  Si  Si20  1  0.71321000  0.61961000  0.69830600  1
  Si  Si21  1  0.53953400  0.74826100  0.02107100  1
  Si  Si22  1  0.69292500  0.52568100  0.32576500  1
  Si  Si23  1  0.30707500  0.47431900  0.67423500  1
  Si  Si24  1  0.99191000  0.15605400  0.62182100  1
  Si  Si25  1  0.79127300  0.53953400  0.97892900  1
  Si  Si26  1  0.33333300  0.66666700  0.13343000  1
  Si  Si27  1  0.52568100  0.83275600  0.67423500  1
  Si  Si28  1  0.28679000  0.38039000  0.30169400  1
  Si  Si29  1  0.66666700  0.33333300  0.42383600  1
  Si  Si30  1  0.84394600  0.83585600  0.62182100  1
  Si  Si31  1  0.83585600  0.99191000  0.37817900  1
  Si  Si32  1  0.16724400  0.69292500  0.67423500  1
  Si  Si33  1  0.15605400  0.16414400  0.37817900  1
  Si  Si34  1  0.46046600  0.25173900  0.97892900  1
  Si  Si35  1  0.33333300  0.66666700  0.57616400  1
  Si  Si36  1  0.83275600  0.30707500  0.32576500  1
  Si  Si37  1  0.47431900  0.16724400  0.32576500  1
  Si  Si38  1  0.25173900  0.79127300  0.02107100  1
  Si  Si39  1  0.90640000  0.28679000  0.69830600  1
  Si  Si40  1  0.66666700  0.33333300  0.86657000  1
  Si  Si41  1  0.38039000  0.09360000  0.69830600  1
  Si  Si42  1  0.16414400  0.00809000  0.62182100  1
  Si  Si43  1  0.00809000  0.84394600  0.37817900  1
  O  O44  1  0.59076300  0.22803600  0.35287300  1
  O  O45  1  0.37494000  0.15625300  0.87338100  1
  O  O46  1  0.36272700  0.59076300  0.64712700  1
  O  O47  1  0.07039900  0.18142100  0.45625600  1
  O  O48  1  0.25131800  0.27015700  0.36205300  1
  O  O49  1  0.74468300  0.30616400  0.93566300  1
  O  O50  1  0.34375200  0.88512600  0.08184600  1
  O  O51  1  0.57105500  0.83064500  0.47271300  1
  O  O52  1  0.01883900  0.74868200  0.36205300  1
  O  O53  1  0.81857900  0.88897800  0.45625600  1
  O  O54  1  0.11487400  0.45862600  0.08184600  1
  O  O55  1  0.25531700  0.69383600  0.06433700  1
  O  O56  1  0.84374700  0.21868700  0.87338100  1
  O  O57  1  0.11073400  0.98048200  0.81638600  1
  O  O58  1  0.93314700  0.37869300  0.24075300  1
  O  O59  1  0.56148100  0.25531700  0.93566300  1
  O  O60  1  0.55924900  0.77063000  0.79967400  1
  O  O61  1  0.44075100  0.22937000  0.20032600  1
  O  O62  1  0.92960100  0.81857900  0.54374400  1
  O  O63  1  0.86974800  0.88926600  0.81638600  1
  O  O64  1  0.21138100  0.44075100  0.79967400  1
  O  O65  1  0.03939200  0.60317000  0.25550300  1
  O  O66  1  0.27015700  0.01883900  0.63794700  1
  O  O67  1  0.11102200  0.92960100  0.45625600  1
  O  O68  1  0.44554600  0.06685300  0.24075300  1
  O  O69  1  0.78861900  0.55924900  0.20032600  1
  O  O70  1  0.65624800  0.11487400  0.91815400  1
  O  O71  1  0.77196400  0.36272700  0.35287300  1
  O  O72  1  0.88926600  0.01951800  0.18361400  1
  O  O73  1  0.74041000  0.57105500  0.52728700  1
  O  O74  1  0.43622200  0.03939200  0.74449700  1
  O  O75  1  0.30616400  0.56148100  0.06433700  1
  O  O76  1  0.45862600  0.34375200  0.91815400  1
  O  O77  1  0.42894500  0.16935500  0.52728700  1
  O  O78  1  0.22803600  0.63727300  0.64712700  1
  O  O79  1  0.83064500  0.25959000  0.52728700  1
  O  O80  1  0.06685300  0.62130700  0.75924700  1
  O  O81  1  0.96060800  0.39683000  0.74449700  1
  O  O82  1  0.22937000  0.78861900  0.79967400  1
  O  O83  1  0.55445400  0.93314700  0.75924700  1
  O  O84  1  0.21868700  0.37494000  0.12661900  1
  O  O85  1  0.18142100  0.11102200  0.54374400  1
  O  O86  1  0.16935500  0.74041000  0.47271300  1
  O  O87  1  0.63727300  0.40923700  0.35287300  1
  O  O88  1  0.98048200  0.86974800  0.18361400  1
  O  O89  1  0.54137400  0.65624800  0.08184600  1
  O  O90  1  0.25959000  0.42894500  0.47271300  1
  O  O91  1  0.39683000  0.43622200  0.25550300  1
  O  O92  1  0.01951800  0.13025200  0.81638600  1
  O  O93  1  0.88512600  0.54137400  0.91815400  1
  O  O94  1  0.72984300  0.98116100  0.36205300  1
  O  O95  1  0.77063000  0.21138100  0.20032600  1
  O  O96  1  0.37869300  0.44554600  0.75924700  1
  O  O97  1  0.43851900  0.74468300  0.06433700  1
  O  O98  1  0.33333300  0.66666700  0.35523100  1
  O  O99  1  0.40923700  0.77196400  0.64712700  1
  O  O100  1  0.15625300  0.78131300  0.12661900  1
  O  O101  1  0.78131300  0.62506000  0.87338100  1
  O  O102  1  0.13025200  0.11073400  0.18361400  1
  O  O103  1  0.56377800  0.96060800  0.25550300  1
  O  O104  1  0.66666700  0.33333300  0.64476900  1
  O  O105  1  0.62130700  0.55445400  0.24075300  1
  O  O106  1  0.62506000  0.84374700  0.12661900  1
  O  O107  1  0.69383600  0.43851900  0.93566300  1
  O  O108  1  0.98116100  0.25131800  0.63794700  1
  O  O109  1  0.88897800  0.07039900  0.54374400  1
  O  O110  1  0.60317000  0.56377800  0.74449700  1
  O  O111  1  0.74868200  0.72984300  0.63794700  1
