# generated using pymatgen
data_KAlO2
_symmetry_space_group_name_H-M   'P 1'
_cell_length_a   5.49875900
_cell_length_b   11.03734400
_cell_length_c   15.63495600
_cell_angle_alpha   90.00000000
_cell_angle_beta   90.00000000
_cell_angle_gamma   90.00000000
_symmetry_Int_Tables_number   1
_chemical_formula_structural   KAlO2
_chemical_formula_sum   'K16 Al16 O32'
_cell_volume   948.91197551
_cell_formula_units_Z   16
loop_
 _symmetry_equiv_pos_site_id
 _symmetry_equiv_pos_as_xyz
  1  'x, y, z'
loop_
 _atom_site_type_symbol
 _atom_site_label
 _atom_site_symmetry_multiplicity
 _atom_site_fract_x
 _atom_site_fract_y
 _atom_site_fract_z
 _atom_site_occupancy
  K  K0  1  0.75343000  0.00735600  0.06193200  1
  K  K1  1  0.25343000  0.49264400  0.93806800  1
  K  K2  1  0.24657000  0.50735600  0.43806800  1
  K  K3  1  0.74657000  0.99264400  0.56193200  1
  K  K4  1  0.24657000  0.99264400  0.93806800  1
  K  K5  1  0.74657000  0.50735600  0.06193200  1
  K  K6  1  0.75343000  0.49264400  0.56193200  1
  K  K7  1  0.25343000  0.00735600  0.43806800  1
  K  K8  1  0.79520400  0.26098300  0.18526100  1
  K  K9  1  0.29520400  0.23901700  0.81473900  1
  K  K10  1  0.20479600  0.76098300  0.31473900  1
  K  K11  1  0.70479600  0.73901700  0.68526100  1
  K  K12  1  0.20479600  0.73901700  0.81473900  1
  K  K13  1  0.70479600  0.76098300  0.18526100  1
  K  K14  1  0.79520400  0.23901700  0.68526100  1
  K  K15  1  0.29520400  0.26098300  0.31473900  1
  Al  Al16  1  0.25478800  0.00823300  0.18851100  1
  Al  Al17  1  0.75478800  0.49176700  0.81148900  1
  Al  Al18  1  0.74521200  0.50823300  0.31148900  1
  Al  Al19  1  0.24521200  0.99176700  0.68851100  1
  Al  Al20  1  0.74521200  0.99176700  0.81148900  1
  Al  Al21  1  0.24521200  0.50823300  0.18851100  1
  Al  Al22  1  0.25478800  0.49176700  0.68851100  1
  Al  Al23  1  0.75478800  0.00823300  0.31148900  1
  Al  Al24  1  0.27966700  0.26238100  0.06354500  1
  Al  Al25  1  0.77966700  0.23761900  0.93645500  1
  Al  Al26  1  0.72033300  0.76238100  0.43645500  1
  Al  Al27  1  0.22033300  0.73761900  0.56354500  1
  Al  Al28  1  0.72033300  0.73761900  0.93645500  1
  Al  Al29  1  0.22033300  0.76238100  0.06354500  1
  Al  Al30  1  0.27966700  0.23761900  0.56354500  1
  Al  Al31  1  0.77966700  0.26238100  0.43645500  1
  O  O32  1  0.55052600  0.48509100  0.22223900  1
  O  O33  1  0.05052600  0.01490900  0.77776100  1
  O  O34  1  0.44947400  0.98509100  0.27776100  1
  O  O35  1  0.94947400  0.51490900  0.72223900  1
  O  O36  1  0.44947400  0.51490900  0.77776100  1
  O  O37  1  0.94947400  0.98509100  0.22223900  1
  O  O38  1  0.55052600  0.01490900  0.72223900  1
  O  O39  1  0.05052600  0.48509100  0.27776100  1
  O  O40  1  0.79932100  0.15760600  0.35079600  1
  O  O41  1  0.29932100  0.34239400  0.64920400  1
  O  O42  1  0.20067900  0.65760600  0.14920400  1
  O  O43  1  0.70067900  0.84239400  0.85079600  1
  O  O44  1  0.20067900  0.84239400  0.64920400  1
  O  O45  1  0.70067900  0.65760600  0.35079600  1
  O  O46  1  0.79932100  0.34239400  0.85079600  1
  O  O47  1  0.56923100  0.28510500  0.01591900  1
  O  O48  1  0.67754900  0.40359500  0.39461000  1
  O  O49  1  0.17754900  0.09640500  0.60539000  1
  O  O50  1  0.32245100  0.90359500  0.10539000  1
  O  O51  1  0.82245100  0.59640500  0.89461000  1
  O  O52  1  0.32245100  0.59640500  0.60539000  1
  O  O53  1  0.82245100  0.90359500  0.39461000  1
  O  O54  1  0.67754900  0.09640500  0.89461000  1
  O  O55  1  0.17754900  0.40359500  0.10539000  1
  O  O56  1  0.06923100  0.28510500  0.48408100  1
  O  O57  1  0.56923100  0.21489500  0.51591900  1
  O  O58  1  0.93076900  0.78510500  0.01591900  1
  O  O59  1  0.43076900  0.71489500  0.98408100  1
  O  O60  1  0.93076900  0.71489500  0.51591900  1
  O  O61  1  0.43076900  0.78510500  0.48408100  1
  O  O62  1  0.06923100  0.21489500  0.98408100  1
  O  O63  1  0.29932100  0.15760600  0.14920400  1
