# generated using pymatgen
data_Rb2HgPSe5
_symmetry_space_group_name_H-M   'P 1'
_cell_length_a   18.06491700
_cell_length_b   18.06491700
_cell_length_c   7.37690300
_cell_angle_alpha   90.00000000
_cell_angle_beta   90.00000000
_cell_angle_gamma   90.00000000
_symmetry_Int_Tables_number   1
_chemical_formula_structural   Rb2HgPSe5
_chemical_formula_sum   'Rb16 Hg8 P8 Se40'
_cell_volume   2407.38757070
_cell_formula_units_Z   8
loop_
 _symmetry_equiv_pos_site_id
 _symmetry_equiv_pos_as_xyz
  1  'x, y, z'
loop_
 _atom_site_type_symbol
 _atom_site_label
 _atom_site_symmetry_multiplicity
 _atom_site_fract_x
 _atom_site_fract_y
 _atom_site_fract_z
 _atom_site_occupancy
  Rb  Rb0  1  0.14732600  0.17349500  0.02182000  1
  Rb  Rb1  1  0.41165500  0.12131900  0.98535300  1
  Rb  Rb2  1  0.64732600  0.67349500  0.47818000  1
  Rb  Rb3  1  0.62131900  0.08834500  0.48535300  1
  Rb  Rb4  1  0.82650500  0.14732600  0.97818000  1
  Rb  Rb5  1  0.08834500  0.37868100  0.51464700  1
  Rb  Rb6  1  0.35267400  0.32650500  0.47818000  1
  Rb  Rb7  1  0.58834500  0.87868100  0.98535300  1
  Rb  Rb8  1  0.87868100  0.41165500  0.01464700  1
  Rb  Rb9  1  0.37868100  0.91165500  0.48535300  1
  Rb  Rb10  1  0.67349500  0.35267400  0.52182000  1
  Rb  Rb11  1  0.91165500  0.62131900  0.51464700  1
  Rb  Rb12  1  0.85267400  0.82650500  0.02182000  1
  Rb  Rb13  1  0.12131900  0.58834500  0.01464700  1
  Rb  Rb14  1  0.17349500  0.85267400  0.97818000  1
  Rb  Rb15  1  0.32650500  0.64732600  0.52182000  1
  Hg  Hg16  1  0.13016300  0.93779000  0.47418600  1
  Hg  Hg17  1  0.86983700  0.06221000  0.47418600  1
  Hg  Hg18  1  0.56221000  0.63016300  0.97418600  1
  Hg  Hg19  1  0.43779000  0.36983700  0.97418600  1
  Hg  Hg20  1  0.63016300  0.43779000  0.02581400  1
  Hg  Hg21  1  0.93779000  0.86983700  0.52581400  1
  Hg  Hg22  1  0.36983700  0.56221000  0.02581400  1
  Hg  Hg23  1  0.06221000  0.13016300  0.52581400  1
  P  P24  1  0.73178400  0.90608400  0.51875300  1
  P  P25  1  0.26821600  0.09391600  0.51875300  1
  P  P26  1  0.09391600  0.73178400  0.48124700  1
  P  P27  1  0.40608400  0.76821600  0.01875300  1
  P  P28  1  0.76821600  0.59391600  0.98124700  1
  P  P29  1  0.23178400  0.40608400  0.98124700  1
  P  P30  1  0.59391600  0.23178400  0.01875300  1
  P  P31  1  0.90608400  0.26821600  0.48124700  1
  Se  Se32  1  0.26611100  0.48029800  0.21150100  1
  Se  Se33  1  0.69639600  0.30429500  0.00525200  1
  Se  Se34  1  0.80360400  0.19570500  0.49474800  1
  Se  Se35  1  0.43272900  0.48952700  0.74005900  1
  Se  Se36  1  0.98952700  0.06727100  0.24005900  1
  Se  Se37  1  0.23388900  0.01970200  0.28849900  1
  Se  Se38  1  0.48952700  0.56727100  0.25994100  1
  Se  Se39  1  0.75384100  0.53781600  0.71780900  1
  Se  Se40  1  0.37175200  0.88376900  0.97205500  1
  Se  Se41  1  0.56727100  0.51047300  0.74005900  1
  Se  Se42  1  0.11623100  0.37175200  0.02794500  1
  Se  Se43  1  0.03781600  0.74615900  0.21780900  1
  Se  Se44  1  0.51970200  0.26611100  0.78849900  1
  Se  Se45  1  0.96218400  0.25384100  0.21780900  1
  Se  Se46  1  0.01970200  0.76611100  0.71150100  1
  Se  Se47  1  0.01047300  0.93272900  0.24005900  1
  Se  Se48  1  0.06727100  0.01047300  0.75994100  1
  Se  Se49  1  0.24615900  0.46218400  0.71780900  1
  Se  Se50  1  0.80429500  0.80360400  0.50525200  1
  Se  Se51  1  0.88376900  0.62824800  0.02794500  1
  Se  Se52  1  0.12824800  0.61623100  0.52794500  1
  Se  Se53  1  0.62824800  0.11623100  0.97205500  1
  Se  Se54  1  0.53781600  0.24615900  0.28219100  1
  Se  Se55  1  0.51047300  0.43272900  0.25994100  1
  Se  Se56  1  0.48029800  0.73388900  0.78849900  1
  Se  Se57  1  0.74615900  0.96218400  0.78219100  1
  Se  Se58  1  0.25384100  0.03781600  0.78219100  1
  Se  Se59  1  0.98029800  0.23388900  0.71150100  1
  Se  Se60  1  0.19639600  0.80429500  0.49474800  1
  Se  Se61  1  0.69570500  0.69639600  0.99474800  1
  Se  Se62  1  0.46218400  0.75384100  0.28219100  1
  Se  Se63  1  0.38376900  0.12824800  0.47205500  1
  Se  Se64  1  0.19570500  0.19639600  0.50525200  1
  Se  Se65  1  0.93272900  0.98952700  0.75994100  1
  Se  Se66  1  0.61623100  0.87175200  0.47205500  1
  Se  Se67  1  0.73388900  0.51970200  0.21150100  1
  Se  Se68  1  0.30360400  0.69570500  0.00525200  1
  Se  Se69  1  0.76611100  0.98029800  0.28849900  1
  Se  Se70  1  0.87175200  0.38376900  0.52794500  1
  Se  Se71  1  0.30429500  0.30360400  0.99474800  1
