# generated using pymatgen
data_Na5Ca2Al(PO4)4
_symmetry_space_group_name_H-M   'P 1'
_cell_length_a   9.00807006
_cell_length_b   9.00807006
_cell_length_c   10.62144965
_cell_angle_alpha   72.24236189
_cell_angle_beta   72.24236189
_cell_angle_gamma   102.99813822
_symmetry_Int_Tables_number   1
_chemical_formula_structural   Na5Ca2Al(PO4)4
_chemical_formula_sum   'Na10 Ca4 Al2 P8 O32'
_cell_volume   732.10592617
_cell_formula_units_Z   2
loop_
 _symmetry_equiv_pos_site_id
 _symmetry_equiv_pos_as_xyz
  1  'x, y, z'
loop_
 _atom_site_type_symbol
 _atom_site_label
 _atom_site_symmetry_multiplicity
 _atom_site_fract_x
 _atom_site_fract_y
 _atom_site_fract_z
 _atom_site_occupancy
  Na  Na0  1  0.57928400  0.32061900  0.55729400  1
  Na  Na1  1  0.77227800  0.74389500  0.38216900  1
  Na  Na2  1  0.32061900  0.57928400  0.05729400  1
  Na  Na3  1  0.88721700  0.24252200  0.72487300  1
  Na  Na4  1  0.81563200  0.07358200  0.51320300  1
  Na  Na5  1  0.07358200  0.81563200  0.01320300  1
  Na  Na6  1  0.28112700  0.26878200  0.37064400  1
  Na  Na7  1  0.74389500  0.77227800  0.88216900  1
  Na  Na8  1  0.26878200  0.28112700  0.87064400  1
  Na  Na9  1  0.24252200  0.88721700  0.22487300  1
  Ca  Ca10  1  0.01443000  0.80002400  0.57118200  1
  Ca  Ca11  1  0.80002400  0.01443000  0.07118200  1
  Ca  Ca12  1  0.55140600  0.33144200  0.03003100  1
  Ca  Ca13  1  0.33144200  0.55140600  0.53003100  1
  Al  Al14  1  0.40813100  0.92625600  0.66695200  1
  Al  Al15  1  0.92625600  0.40813100  0.16695200  1
  P  P16  1  0.47212900  0.96808700  0.36895000  1
  P  P17  1  0.01445500  0.50271100  0.39519200  1
  P  P18  1  0.06815300  0.12927400  0.21580300  1
  P  P19  1  0.55444000  0.64319000  0.70963100  1
  P  P20  1  0.64319000  0.55444000  0.20963100  1
  P  P21  1  0.96808700  0.47212900  0.86895000  1
  P  P22  1  0.12927400  0.06815300  0.71580300  1
  P  P23  1  0.50271100  0.01445500  0.89519200  1
  O  O24  1  0.48063000  0.17490100  0.90646300  1
  O  O25  1  0.20167900  0.91975000  0.73847100  1
  O  O26  1  0.27431600  0.23344400  0.61411400  1
  O  O27  1  0.60740800  0.89785900  0.31393800  1
  O  O28  1  0.17490100  0.48063000  0.40646300  1
  O  O29  1  0.03779300  0.53430500  0.23139500  1
  O  O30  1  0.56721200  0.53165800  0.36773700  1
  O  O31  1  0.04588100  0.51027700  0.97695900  1
  O  O32  1  0.45920600  0.09949500  0.24474600  1
  O  O33  1  0.50985300  0.51293100  0.15079000  1
  O  O34  1  0.66109500  0.99357500  0.91499600  1
  O  O35  1  0.73010200  0.77695700  0.61265600  1
  O  O36  1  0.23344400  0.27431600  0.11411400  1
  O  O37  1  0.72794500  0.41869300  0.20504600  1
  O  O38  1  0.99898600  0.02410800  0.65368800  1
  O  O39  1  0.53165800  0.56721200  0.86773700  1
  O  O40  1  0.02410800  0.99898600  0.15368800  1
  O  O41  1  0.77695700  0.73010200  0.11265600  1
  O  O42  1  0.51027700  0.04588100  0.47695900  1
  O  O43  1  0.29988400  0.82272900  0.45884100  1
  O  O44  1  0.06669200  0.04368100  0.36630100  1
  O  O45  1  0.89785900  0.60740800  0.81393800  1
  O  O46  1  0.82272900  0.29988400  0.95884100  1
  O  O47  1  0.99357500  0.66109500  0.41499600  1
  O  O48  1  0.91975000  0.20167900  0.23847100  1
  O  O49  1  0.41869300  0.72794500  0.70504600  1
  O  O50  1  0.34605200  0.86002200  0.99917400  1
  O  O51  1  0.04368100  0.06669200  0.86630100  1
  O  O52  1  0.86002200  0.34605200  0.49917400  1
  O  O53  1  0.09949500  0.45920600  0.74474600  1
  O  O54  1  0.53430500  0.03779300  0.73139500  1
  O  O55  1  0.51293100  0.50985300  0.65079000  1
