# generated using pymatgen
data_Bi7Mo2(AsO8)3
_symmetry_space_group_name_H-M   'P 1'
_cell_length_a   5.41023800
_cell_length_b   16.34719300
_cell_length_c   24.07851000
_cell_angle_alpha   90.00000000
_cell_angle_beta   90.00000000
_cell_angle_gamma   90.00000000
_symmetry_Int_Tables_number   1
_chemical_formula_structural   Bi7Mo2(AsO8)3
_chemical_formula_sum   'Bi28 Mo8 As12 O96'
_cell_volume   2129.55651178
_cell_formula_units_Z   4
loop_
 _symmetry_equiv_pos_site_id
 _symmetry_equiv_pos_as_xyz
  1  'x, y, z'
loop_
 _atom_site_type_symbol
 _atom_site_label
 _atom_site_symmetry_multiplicity
 _atom_site_fract_x
 _atom_site_fract_y
 _atom_site_fract_z
 _atom_site_occupancy
  Bi  Bi0  1  0.19753700  0.32453400  0.81126900  1
  Bi  Bi1  1  0.69551900  0.66135400  0.94043600  1
  Bi  Bi2  1  0.76070500  0.17697900  0.05598100  1
  Bi  Bi3  1  0.73929500  0.67697900  0.55598100  1
  Bi  Bi4  1  0.69753700  0.32453400  0.18873100  1
  Bi  Bi5  1  0.30448100  0.33864600  0.05956400  1
  Bi  Bi6  1  0.25000000  0.50000000  0.31870700  1
  Bi  Bi7  1  0.75000000  0.00000000  0.18129300  1
  Bi  Bi8  1  0.19552000  0.83864600  0.55956400  1
  Bi  Bi9  1  0.23929500  0.82302100  0.94401900  1
  Bi  Bi10  1  0.23929500  0.67697900  0.44401900  1
  Bi  Bi11  1  0.19552000  0.66135400  0.05956400  1
  Bi  Bi12  1  0.73929500  0.82302100  0.05598100  1
  Bi  Bi13  1  0.26070500  0.17697900  0.94401900  1
  Bi  Bi14  1  0.30448100  0.16135400  0.55956400  1
  Bi  Bi15  1  0.80246300  0.82453400  0.68873100  1
  Bi  Bi16  1  0.25000000  0.00000000  0.81870700  1
  Bi  Bi17  1  0.30246300  0.67546600  0.81126900  1
  Bi  Bi18  1  0.69551900  0.83864600  0.44043600  1
  Bi  Bi19  1  0.26070500  0.32302100  0.44401900  1
  Bi  Bi20  1  0.30246300  0.82453400  0.31126900  1
  Bi  Bi21  1  0.76070500  0.32302100  0.55598100  1
  Bi  Bi22  1  0.19753700  0.17546600  0.31126900  1
  Bi  Bi23  1  0.80246300  0.67546600  0.18873100  1
  Bi  Bi24  1  0.75000000  0.50000000  0.68129300  1
  Bi  Bi25  1  0.69753700  0.17546600  0.68873100  1
  Bi  Bi26  1  0.80448100  0.33864600  0.94043600  1
  Bi  Bi27  1  0.80448100  0.16135400  0.44043600  1
  Mo  Mo28  1  0.75000000  0.50000000  0.42419200  1
  Mo  Mo29  1  0.25000000  0.50000000  0.17763500  1
  Mo  Mo30  1  0.25000000  0.00000000  0.67763500  1
  Mo  Mo31  1  0.75000000  0.50000000  0.82236500  1
  Mo  Mo32  1  0.75000000  0.00000000  0.92419200  1
  Mo  Mo33  1  0.75000000  0.00000000  0.32236500  1
  Mo  Mo34  1  0.25000000  0.50000000  0.57580800  1
  Mo  Mo35  1  0.25000000  0.00000000  0.07580800  1
  As  As36  1  0.75000000  0.00000000  0.57110700  1
  As  As37  1  0.25000000  0.00000000  0.42889300  1
  As  As38  1  0.25000000  0.50000000  0.92889300  1
  As  As39  1  0.25133600  0.66853100  0.67233400  1
  As  As40  1  0.24866400  0.33146900  0.67233400  1
  As  As41  1  0.75133600  0.83146900  0.82766600  1
  As  As42  1  0.24866400  0.16853100  0.17233400  1
  As  As43  1  0.75133600  0.66853100  0.32766600  1
  As  As44  1  0.75000000  0.50000000  0.07110700  1
  As  As45  1  0.25133600  0.83146900  0.17233400  1
  As  As46  1  0.74866400  0.16853100  0.82766600  1
  As  As47  1  0.74866400  0.33146900  0.32766600  1
  O  O48  1  0.09045300  0.22661500  0.12386800  1
  O  O49  1  0.53796500  0.45915500  0.77297400  1
  O  O50  1  0.47408000  0.44993900  0.39223400  1
  O  O51  1  0.40346900  0.09880700  0.65389100  1
  O  O52  1  0.61898700  0.07497800  0.52954400  1
  O  O53  1  0.45087700  0.40172100  0.64312800  1
  O  O54  1  0.39328800  0.72508400  0.89432000  1
  O  O55  1  0.90954700  0.77338500  0.87613200  1
  O  O56  1  0.36032800  0.07748900  0.03001500  1
  O  O57  1  0.45594500  0.62294900  0.71786500  1
  O  O58  1  0.39328800  0.77491600  0.39432000  1
  O  O59  1  0.40346900  0.40119300  0.15389100  1
  O  O60  1  0.89328800  0.77491600  0.60568000  1
  O  O61  1  0.58240700  0.76731100  0.78354700  1
  O  O62  1  0.99305500  0.75219300  0.49716200  1
  O  O63  1  0.95087700  0.40172100  0.35687200  1
  O  O64  1  0.09653100  0.90119300  0.65389100  1
  O  O65  1  0.95594500  0.62294900  0.28213500  1
  O  O66  1  0.97396700  0.45004900  0.11039400  1
  O  O67  1  0.45087700  0.09827900  0.14312800  1
  O  O68  1  0.52592000  0.94993900  0.10776600  1
  O  O69  1  0.88101300  0.92502200  0.52954400  1
  O  O70  1  0.58240700  0.73268900  0.28354700  1
  O  O71  1  0.47396700  0.04995100  0.38960600  1
  O  O72  1  0.47408000  0.05006100  0.89223400  1
  O  O73  1  0.95087700  0.09827900  0.85687200  1
  O  O74  1  0.99305500  0.74780700  0.99716200  1
  O  O75  1  0.00694500  0.25219300  0.00283800  1
  O  O76  1  0.63967200  0.57748900  0.46998500  1
  O  O77  1  0.59045300  0.22661500  0.87613200  1
  O  O78  1  0.13967200  0.57748900  0.53001500  1
  O  O79  1  0.38101300  0.92502200  0.47045600  1
  O  O80  1  0.00694500  0.24780700  0.50283800  1
  O  O81  1  0.97408000  0.44993900  0.60776600  1
  O  O82  1  0.41759300  0.23268900  0.21645300  1
  O  O83  1  0.53796500  0.04084500  0.27297400  1
  O  O84  1  0.50694500  0.25219300  0.99716200  1
  O  O85  1  0.52592000  0.55006100  0.60776600  1
  O  O86  1  0.97408000  0.05006100  0.10776600  1
  O  O87  1  0.54912300  0.59827900  0.35687200  1
  O  O88  1  0.54912300  0.90172100  0.85687200  1
  O  O89  1  0.90954700  0.72661500  0.37613200  1
  O  O90  1  0.10671200  0.22508400  0.39432000  1
  O  O91  1  0.97396700  0.04995100  0.61039400  1
  O  O92  1  0.54405500  0.12294900  0.78213500  1
  O  O93  1  0.11898700  0.07497800  0.47045600  1
  O  O94  1  0.04405500  0.12294900  0.21786500  1
  O  O95  1  0.95594500  0.87705100  0.78213500  1
  O  O96  1  0.09653100  0.59880700  0.15389100  1
  O  O97  1  0.04912300  0.59827900  0.64312800  1
  O  O98  1  0.02603300  0.95004900  0.38960600  1
  O  O99  1  0.04405500  0.37705100  0.71786500  1
  O  O100  1  0.52603300  0.54995100  0.11039400  1
  O  O101  1  0.13967200  0.92251100  0.03001500  1
  O  O102  1  0.96203500  0.54084500  0.77297400  1
  O  O103  1  0.40954700  0.72661500  0.62386800  1
  O  O104  1  0.59653100  0.59880700  0.84610900  1
  O  O105  1  0.47396700  0.45004900  0.88960600  1
  O  O106  1  0.90346900  0.09880700  0.34610900  1
  O  O107  1  0.08240700  0.76731100  0.21645300  1
  O  O108  1  0.60671200  0.22508400  0.60568000  1
  O  O109  1  0.90346900  0.40119300  0.84610900  1
  O  O110  1  0.09045300  0.27338500  0.62386800  1
  O  O111  1  0.59045300  0.27338500  0.37613200  1
  O  O112  1  0.63967200  0.92251100  0.96998500  1
  O  O113  1  0.52603300  0.95004900  0.61039400  1
  O  O114  1  0.91759300  0.23268900  0.78354700  1
  O  O115  1  0.40954700  0.77338500  0.12386800  1
  O  O116  1  0.88101300  0.57497800  0.02954400  1
  O  O117  1  0.10671200  0.27491600  0.89432000  1
  O  O118  1  0.61898700  0.42502200  0.02954400  1
  O  O119  1  0.41759300  0.26731100  0.71645300  1
  O  O120  1  0.02592000  0.94993900  0.89223400  1
  O  O121  1  0.89328800  0.72508400  0.10568000  1
  O  O122  1  0.46203500  0.95915500  0.72702600  1
  O  O123  1  0.36032800  0.42251100  0.53001500  1
  O  O124  1  0.08240700  0.73268900  0.71645300  1
  O  O125  1  0.60671200  0.27491600  0.10568000  1
  O  O126  1  0.46203500  0.54084500  0.22702600  1
  O  O127  1  0.50694500  0.24780700  0.49716200  1
  O  O128  1  0.86032800  0.07748900  0.96998500  1
  O  O129  1  0.03796500  0.04084500  0.72702600  1
  O  O130  1  0.96203500  0.95915500  0.27297400  1
  O  O131  1  0.91759300  0.26731100  0.28354700  1
  O  O132  1  0.49305500  0.75219300  0.50283800  1
  O  O133  1  0.49305500  0.74780700  0.00283800  1
  O  O134  1  0.38101300  0.57497800  0.97045600  1
  O  O135  1  0.02592000  0.55006100  0.39223400  1
  O  O136  1  0.03796500  0.45915500  0.22702600  1
  O  O137  1  0.86032800  0.42251100  0.46998500  1
  O  O138  1  0.54405500  0.37705100  0.28213500  1
  O  O139  1  0.04912300  0.90172100  0.14312800  1
  O  O140  1  0.02603300  0.54995100  0.88960600  1
  O  O141  1  0.11898700  0.42502200  0.97045600  1
  O  O142  1  0.59653100  0.90119300  0.34610900  1
  O  O143  1  0.45594500  0.87705100  0.21786500  1
