# generated using pymatgen
data_CsGeB3O7
_symmetry_space_group_name_H-M   'P 1'
_cell_length_a   7.10363500
_cell_length_b   9.68492200
_cell_length_c   10.06314900
_cell_angle_alpha   90.00000000
_cell_angle_beta   90.00000000
_cell_angle_gamma   90.00000000
_symmetry_Int_Tables_number   1
_chemical_formula_structural   CsGeB3O7
_chemical_formula_sum   'Cs4 Ge4 B12 O28'
_cell_volume   692.32604335
_cell_formula_units_Z   4
loop_
 _symmetry_equiv_pos_site_id
 _symmetry_equiv_pos_as_xyz
  1  'x, y, z'
loop_
 _atom_site_type_symbol
 _atom_site_label
 _atom_site_symmetry_multiplicity
 _atom_site_fract_x
 _atom_site_fract_y
 _atom_site_fract_z
 _atom_site_occupancy
  Cs  Cs0  1  0.00634100  0.99940900  0.67318500  1
  Cs  Cs1  1  0.50634100  0.50059100  0.17318500  1
  Cs  Cs2  1  0.00634100  0.49940900  0.82681500  1
  Cs  Cs3  1  0.50634100  0.00059100  0.32681500  1
  Ge  Ge4  1  0.49303500  0.77173200  0.88985800  1
  Ge  Ge5  1  0.99303500  0.22826800  0.11014200  1
  Ge  Ge6  1  0.49303500  0.27173200  0.61014200  1
  Ge  Ge7  1  0.99303500  0.72826800  0.38985800  1
  B  B8  1  0.86561800  0.82557400  0.01146300  1
  B  B9  1  0.19586200  0.34536100  0.43577000  1
  B  B10  1  0.96153400  0.45772600  0.28388000  1
  B  B11  1  0.96153400  0.95772600  0.21612000  1
  B  B12  1  0.36561800  0.17442600  0.98853700  1
  B  B13  1  0.86561800  0.32557400  0.48853700  1
  B  B14  1  0.46153400  0.04227400  0.78388000  1
  B  B15  1  0.36561800  0.67442600  0.51146300  1
  B  B16  1  0.19586200  0.84536100  0.06423000  1
  B  B17  1  0.69586200  0.65463900  0.56423000  1
  B  B18  1  0.69586200  0.15463900  0.93577000  1
  B  B19  1  0.46153400  0.54227400  0.71612000  1
  O  O20  1  0.93951000  0.60813800  0.26558500  1
  O  O21  1  0.42357400  0.10348600  0.65159300  1
  O  O22  1  0.31983000  0.59453700  0.61721100  1
  O  O23  1  0.55531000  0.20175200  0.02136000  1
  O  O24  1  0.42357400  0.60348600  0.84840700  1
  O  O25  1  0.05531000  0.29824800  0.52136000  1
  O  O26  1  0.15470800  0.42334800  0.32758700  1
  O  O27  1  0.05531000  0.79824800  0.97864000  1
  O  O28  1  0.23914000  0.23678600  0.07363900  1
  O  O29  1  0.88257700  0.19015300  0.95475800  1
  O  O30  1  0.38257700  0.80984700  0.04524200  1
  O  O31  1  0.31983000  0.09453700  0.88278900  1
  O  O32  1  0.43951000  0.39186200  0.73441500  1
  O  O33  1  0.73914000  0.76321400  0.92636100  1
  O  O34  1  0.88257700  0.69015300  0.54524200  1
  O  O35  1  0.65470800  0.57665200  0.67241300  1
  O  O36  1  0.92357400  0.39651400  0.15159300  1
  O  O37  1  0.65470800  0.07665200  0.82758700  1
  O  O38  1  0.81983000  0.40546300  0.38278900  1
  O  O39  1  0.38257700  0.30984700  0.45475800  1
  O  O40  1  0.81983000  0.90546300  0.11721100  1
  O  O41  1  0.93951000  0.10813800  0.23441500  1
  O  O42  1  0.92357400  0.89651400  0.34840700  1
  O  O43  1  0.23914000  0.73678600  0.42636100  1
  O  O44  1  0.15470800  0.92334800  0.17241300  1
  O  O45  1  0.43951000  0.89186200  0.76558500  1
  O  O46  1  0.55531000  0.70175200  0.47864000  1
  O  O47  1  0.73914000  0.26321400  0.57363900  1
