# generated using pymatgen
data_Cs2SnS14
_symmetry_space_group_name_H-M   'P 1'
_cell_length_a   19.24467700
_cell_length_b   7.30526500
_cell_length_c   15.83888035
_cell_angle_alpha   72.23220882
_cell_angle_beta   90.00000000
_cell_angle_gamma   90.00000000
_symmetry_Int_Tables_number   1
_chemical_formula_structural   Cs2SnS14
_chemical_formula_sum   'Cs8 Sn4 S56'
_cell_volume   2120.53458449
_cell_formula_units_Z   4
loop_
 _symmetry_equiv_pos_site_id
 _symmetry_equiv_pos_as_xyz
  1  'x, y, z'
loop_
 _atom_site_type_symbol
 _atom_site_label
 _atom_site_symmetry_multiplicity
 _atom_site_fract_x
 _atom_site_fract_y
 _atom_site_fract_z
 _atom_site_occupancy
  Cs  Cs0  1  0.79865900  0.44196300  0.47714000  1
  Cs  Cs1  1  0.29865900  0.55803700  0.02286000  1
  Cs  Cs2  1  0.20134100  0.55803700  0.52286000  1
  Cs  Cs3  1  0.70134100  0.44196300  0.97714000  1
  Cs  Cs4  1  0.95088100  0.79473000  0.83553500  1
  Cs  Cs5  1  0.45088100  0.20527000  0.66446500  1
  Cs  Cs6  1  0.04911900  0.20527000  0.16446500  1
  Cs  Cs7  1  0.54911900  0.79473000  0.33553500  1
  Sn  Sn8  1  0.82454000  0.86574400  0.16949500  1
  Sn  Sn9  1  0.32454000  0.13425600  0.33050500  1
  Sn  Sn10  1  0.17546000  0.13425600  0.83050500  1
  Sn  Sn11  1  0.67546000  0.86574400  0.66949500  1
  S  S12  1  0.81695400  0.93643500  0.32291800  1
  S  S13  1  0.31695400  0.06356500  0.17708200  1
  S  S14  1  0.18304600  0.06356500  0.67708200  1
  S  S15  1  0.68304600  0.93643500  0.82291800  1
  S  S16  1  0.90702400  0.04526900  0.35547500  1
  S  S17  1  0.40702400  0.95473100  0.14452500  1
  S  S18  1  0.09297600  0.95473100  0.64452500  1
  S  S19  1  0.59297600  0.04526900  0.85547500  1
  S  S20  1  0.96450000  0.82309400  0.43861100  1
  S  S21  1  0.46450000  0.17690600  0.06138900  1
  S  S22  1  0.03550000  0.17690600  0.56138900  1
  S  S23  1  0.53550000  0.82309400  0.93861100  1
  S  S24  1  0.03240400  0.72217100  0.36053100  1
  S  S25  1  0.53240400  0.27782900  0.13946900  1
  S  S26  1  0.96759600  0.27782900  0.63946900  1
  S  S27  1  0.46759600  0.72217100  0.86053100  1
  S  S28  1  0.97437600  0.54951000  0.30434700  1
  S  S29  1  0.47437600  0.45049000  0.19565300  1
  S  S30  1  0.02562400  0.45049000  0.69565300  1
  S  S31  1  0.52562400  0.54951000  0.80434700  1
  S  S32  1  0.94905700  0.70641900  0.17813000  1
  S  S33  1  0.44905700  0.29358100  0.32187000  1
  S  S34  1  0.05094300  0.29358100  0.82187000  1
  S  S35  1  0.55094300  0.70641900  0.67813000  1
  S  S36  1  0.86468600  0.22752700  0.09671400  1
  S  S37  1  0.36468600  0.77247300  0.40328600  1
  S  S38  1  0.13531400  0.77247300  0.90328600  1
  S  S39  1  0.63531400  0.22752700  0.59671400  1
  S  S40  1  0.90859000  0.21883400  0.97921300  1
  S  S41  1  0.40859000  0.78116600  0.52078700  1
  S  S42  1  0.09141000  0.78116600  0.02078700  1
  S  S43  1  0.59141000  0.21883400  0.47921300  1
  S  S44  1  0.83182300  0.08910200  0.92513200  1
  S  S45  1  0.33182300  0.91089800  0.57486800  1
  S  S46  1  0.16817700  0.91089800  0.07486800  1
  S  S47  1  0.66817700  0.08910200  0.42513200  1
  S  S48  1  0.82950600  0.81313700  0.01140900  1
  S  S49  1  0.32950600  0.18686300  0.48859100  1
  S  S50  1  0.17049400  0.18686300  0.98859100  1
  S  S51  1  0.67049400  0.81313700  0.51140900  1
  S  S52  1  0.69375300  0.97681800  0.16224800  1
  S  S53  1  0.19375300  0.02318200  0.33775200  1
  S  S54  1  0.30624700  0.02318200  0.83775200  1
  S  S55  1  0.80624700  0.97681800  0.66224800  1
  S  S56  1  0.64545700  0.75016900  0.13540600  1
  S  S57  1  0.14545700  0.24983100  0.36459400  1
  S  S58  1  0.35454300  0.24983100  0.86459400  1
  S  S59  1  0.85454300  0.75016900  0.63540600  1
  S  S60  1  0.67606800  0.51617200  0.24051400  1
  S  S61  1  0.17606800  0.48382800  0.25948600  1
  S  S62  1  0.32393200  0.48382800  0.75948600  1
  S  S63  1  0.82393200  0.51617200  0.74051400  1
  S  S64  1  0.78200300  0.50295000  0.22545500  1
  S  S65  1  0.28200300  0.49705000  0.27454500  1
  S  S66  1  0.21799700  0.49705000  0.77454500  1
  S  S67  1  0.71799700  0.50295000  0.72545500  1
