# generated using pymatgen
data_CdPS3
_symmetry_space_group_name_H-M   'P 1'
_cell_length_a   6.29947438
_cell_length_b   6.29947438
_cell_length_c   7.59302183
_cell_angle_alpha   82.28313588
_cell_angle_beta   82.28313588
_cell_angle_gamma   120.00939286
_symmetry_Int_Tables_number   1
_chemical_formula_structural   CdPS3
_chemical_formula_sum   'Cd2 P2 S6'
_cell_volume   251.33524758
_cell_formula_units_Z   2
loop_
 _symmetry_equiv_pos_site_id
 _symmetry_equiv_pos_as_xyz
  1  'x, y, z'
loop_
 _atom_site_type_symbol
 _atom_site_label
 _atom_site_symmetry_multiplicity
 _atom_site_fract_x
 _atom_site_fract_y
 _atom_site_fract_z
 _atom_site_occupancy
  Cd  Cd0  1  0.33315600  0.66684400  0.00000000  1
  Cd  Cd1  1  0.66684400  0.33315600  0.00000000  1
  P  P2  1  0.95004500  0.95004500  0.15431300  1
  P  P3  1  0.04995500  0.04995500  0.84568700  1
  S  S4  1  0.92451000  0.61365700  0.23338100  1
  S  S5  1  0.38634300  0.07549000  0.76661900  1
  S  S6  1  0.76430200  0.76430200  0.76706700  1
  S  S7  1  0.23569800  0.23569800  0.23293300  1
  S  S8  1  0.07549000  0.38634300  0.76661900  1
  S  S9  1  0.61365700  0.92451000  0.23338100  1
