# generated using pymatgen
data_TlInSiS4
_symmetry_space_group_name_H-M   'P 1'
_cell_length_a   7.72303900
_cell_length_b   12.68734800
_cell_length_c   16.85348000
_cell_angle_alpha   90.00000000
_cell_angle_beta   90.00000000
_cell_angle_gamma   90.00000000
_symmetry_Int_Tables_number   1
_chemical_formula_structural   TlInSiS4
_chemical_formula_sum   'Tl8 In8 Si8 S32'
_cell_volume   1651.38627286
_cell_formula_units_Z   8
loop_
 _symmetry_equiv_pos_site_id
 _symmetry_equiv_pos_as_xyz
  1  'x, y, z'
loop_
 _atom_site_type_symbol
 _atom_site_label
 _atom_site_symmetry_multiplicity
 _atom_site_fract_x
 _atom_site_fract_y
 _atom_site_fract_z
 _atom_site_occupancy
  Tl  Tl0  1  0.25000000  0.38475500  0.07073500  1
  Tl  Tl1  1  0.25000000  0.02043600  0.16771300  1
  Tl  Tl2  1  0.25000000  0.47956400  0.66771300  1
  Tl  Tl3  1  0.25000000  0.11524500  0.57073500  1
  Tl  Tl4  1  0.75000000  0.97956400  0.83228700  1
  Tl  Tl5  1  0.75000000  0.61524500  0.92926500  1
  Tl  Tl6  1  0.75000000  0.88475500  0.42926500  1
  Tl  Tl7  1  0.75000000  0.52043600  0.33228700  1
  In  In8  1  0.99241500  0.27441900  0.84662800  1
  In  In9  1  0.00758500  0.77441900  0.65337200  1
  In  In10  1  0.49241500  0.72558100  0.15337200  1
  In  In11  1  0.99241500  0.22558100  0.34662800  1
  In  In12  1  0.50758500  0.22558100  0.34662800  1
  In  In13  1  0.49241500  0.77441900  0.65337200  1
  In  In14  1  0.50758500  0.27441900  0.84662800  1
  In  In15  1  0.00758500  0.72558100  0.15337200  1
  Si  Si16  1  0.75000000  0.19715100  0.01841200  1
  Si  Si17  1  0.75000000  0.20073900  0.66942100  1
  Si  Si18  1  0.25000000  0.79926100  0.33057900  1
  Si  Si19  1  0.75000000  0.30284900  0.51841200  1
  Si  Si20  1  0.25000000  0.69715100  0.48158800  1
  Si  Si21  1  0.25000000  0.70073900  0.83057900  1
  Si  Si22  1  0.25000000  0.80284900  0.98158800  1
  Si  Si23  1  0.75000000  0.29926100  0.16942100  1
  S  S24  1  0.75000000  0.10096400  0.34063600  1
  S  S25  1  0.25000000  0.86626000  0.86221700  1
  S  S26  1  0.25000000  0.60096400  0.15936400  1
  S  S27  1  0.52131100  0.14863500  0.72875300  1
  S  S28  1  0.75000000  0.36423300  0.05055300  1
  S  S29  1  0.98211000  0.14859700  0.96154800  1
  S  S30  1  0.01789000  0.64859700  0.53845200  1
  S  S31  1  0.47868900  0.64863500  0.77124700  1
  S  S32  1  0.25000000  0.89903600  0.65936400  1
  S  S33  1  0.01789000  0.85140300  0.03845200  1
  S  S34  1  0.75000000  0.88673500  0.65179500  1
  S  S35  1  0.51789000  0.35140300  0.46154800  1
  S  S36  1  0.25000000  0.38673500  0.84820500  1
  S  S37  1  0.48211000  0.64859700  0.53845200  1
  S  S38  1  0.51789000  0.14859700  0.96154800  1
  S  S39  1  0.25000000  0.11326500  0.34820500  1
  S  S40  1  0.98211000  0.35140300  0.46154800  1
  S  S41  1  0.02131100  0.85136500  0.27124700  1
  S  S42  1  0.97868900  0.35136500  0.22875300  1
  S  S43  1  0.75000000  0.39903600  0.84063600  1
  S  S44  1  0.75000000  0.61326500  0.15179500  1
  S  S45  1  0.47868900  0.85136500  0.27124700  1
  S  S46  1  0.02131100  0.64863500  0.77124700  1
  S  S47  1  0.75000000  0.13576700  0.55055300  1
  S  S48  1  0.25000000  0.86423300  0.44944700  1
  S  S49  1  0.25000000  0.63576700  0.94944700  1
  S  S50  1  0.97868900  0.14863500  0.72875300  1
  S  S51  1  0.75000000  0.36626000  0.63778300  1
  S  S52  1  0.75000000  0.13374000  0.13778300  1
  S  S53  1  0.52131100  0.35136500  0.22875300  1
  S  S54  1  0.48211000  0.85140300  0.03845200  1
  S  S55  1  0.25000000  0.63374000  0.36221700  1
