# generated using pymatgen
data_CsGaS2
_symmetry_space_group_name_H-M   'P 1'
_cell_length_a   7.32003611
_cell_length_b   7.32003611
_cell_length_c   5.98443043
_cell_angle_alpha   78.41186300
_cell_angle_beta   78.41186300
_cell_angle_gamma   116.58635555
_symmetry_Int_Tables_number   1
_chemical_formula_structural   CsGaS2
_chemical_formula_sum   'Cs2 Ga2 S4'
_cell_volume   264.98571813
_cell_formula_units_Z   2
loop_
 _symmetry_equiv_pos_site_id
 _symmetry_equiv_pos_as_xyz
  1  'x, y, z'
loop_
 _atom_site_type_symbol
 _atom_site_label
 _atom_site_symmetry_multiplicity
 _atom_site_fract_x
 _atom_site_fract_y
 _atom_site_fract_z
 _atom_site_occupancy
  Cs  Cs0  1  0.35566600  0.64433400  0.75000000  1
  Cs  Cs1  1  0.64433400  0.35566600  0.25000000  1
  Ga  Ga2  1  0.00351300  0.99648700  0.25000000  1
  Ga  Ga3  1  0.99648700  0.00351300  0.75000000  1
  S  S4  1  0.92093800  0.72415100  0.59304000  1
  S  S5  1  0.27584900  0.07906200  0.90696000  1
  S  S6  1  0.72415100  0.92093800  0.09304000  1
  S  S7  1  0.07906200  0.27584900  0.40696000  1
