# generated using pymatgen
data_Rb2IrF6
_symmetry_space_group_name_H-M   'P 1'
_cell_length_a   6.07545666
_cell_length_b   6.07545666
_cell_length_c   4.89364900
_cell_angle_alpha   90.00000000
_cell_angle_beta   90.00000000
_cell_angle_gamma   120.00000721
_symmetry_Int_Tables_number   1
_chemical_formula_structural   Rb2IrF6
_chemical_formula_sum   'Rb2 Ir1 F6'
_cell_volume   156.43044141
_cell_formula_units_Z   1
loop_
 _symmetry_equiv_pos_site_id
 _symmetry_equiv_pos_as_xyz
  1  'x, y, z'
loop_
 _atom_site_type_symbol
 _atom_site_label
 _atom_site_symmetry_multiplicity
 _atom_site_fract_x
 _atom_site_fract_y
 _atom_site_fract_z
 _atom_site_occupancy
  Rb  Rb0  1  0.33333300  0.66666700  0.79425300  1
  Rb  Rb1  1  0.66666700  0.33333300  0.20574700  1
  Ir  Ir2  1  0.00000000  0.00000000  0.50000000  1
  F  F3  1  0.15700400  0.31400900  0.27898100  1
  F  F4  1  0.68599100  0.84299600  0.27898100  1
  F  F5  1  0.15700400  0.84299600  0.27898100  1
  F  F6  1  0.84299600  0.68599100  0.72101900  1
  F  F7  1  0.31400900  0.15700400  0.72101900  1
  F  F8  1  0.84299600  0.15700400  0.72101900  1
