# generated using pymatgen
data_Yb6Co30P19
_symmetry_space_group_name_H-M   'P 1'
_cell_length_a   14.65353649
_cell_length_b   14.65353649
_cell_length_c   3.54498600
_cell_angle_alpha   90.00000000
_cell_angle_beta   90.00000000
_cell_angle_gamma   120.00000222
_symmetry_Int_Tables_number   1
_chemical_formula_structural   Yb6Co30P19
_chemical_formula_sum   'Yb6 Co30 P19'
_cell_volume   659.21950193
_cell_formula_units_Z   1
loop_
 _symmetry_equiv_pos_site_id
 _symmetry_equiv_pos_as_xyz
  1  'x, y, z'
loop_
 _atom_site_type_symbol
 _atom_site_label
 _atom_site_symmetry_multiplicity
 _atom_site_fract_x
 _atom_site_fract_y
 _atom_site_fract_z
 _atom_site_occupancy
  Yb  Yb0  1  0.29532300  0.39246400  0.00000000  1
  Yb  Yb1  1  0.90320000  0.29634800  0.50000000  1
  Yb  Yb2  1  0.70365200  0.60685200  0.50000000  1
  Yb  Yb3  1  0.39314800  0.09680000  0.50000000  1
  Yb  Yb4  1  0.09714100  0.70467700  0.00000000  1
  Yb  Yb5  1  0.60753600  0.90285900  0.00000000  1
  Co  Co6  1  0.07419100  0.53623600  0.50000000  1
  Co  Co7  1  0.77514900  0.04690900  0.50000000  1
  Co  Co8  1  0.22297100  0.94866000  0.00000000  1
  Co  Co9  1  0.58296500  0.73417700  0.50000000  1
  Co  Co10  1  0.05134000  0.27431100  0.00000000  1
  Co  Co11  1  0.27176000  0.22485100  0.50000000  1
  Co  Co12  1  0.77448100  0.42632700  0.50000000  1
  Co  Co13  1  0.02401200  0.88781800  0.00000000  1
  Co  Co14  1  0.53594300  0.46225500  0.00000000  1
  Co  Co15  1  0.72568900  0.77702900  0.00000000  1
  Co  Co16  1  0.22585900  0.57370000  0.00000000  1
  Co  Co17  1  0.42630000  0.65216000  0.00000000  1
  Co  Co18  1  0.97238600  0.12963900  0.50000000  1
  Co  Co19  1  0.34784000  0.77414100  0.00000000  1
  Co  Co20  1  0.26582300  0.84878800  0.50000000  1
  Co  Co21  1  0.15121200  0.41703500  0.50000000  1
  Co  Co22  1  0.46376400  0.53795500  0.50000000  1
  Co  Co23  1  0.87036100  0.84274700  0.50000000  1
  Co  Co24  1  0.15725300  0.02761400  0.50000000  1
  Co  Co25  1  0.65184600  0.22551900  0.50000000  1
  Co  Co26  1  0.84935400  0.58419200  0.00000000  1
  Co  Co27  1  0.57367300  0.34815400  0.50000000  1
  Co  Co28  1  0.95309100  0.72824000  0.50000000  1
  Co  Co29  1  0.11218200  0.13619400  0.00000000  1
  Co  Co30  1  0.53774500  0.07368700  0.00000000  1
  Co  Co31  1  0.73483800  0.15064600  0.00000000  1
  Co  Co32  1  0.86380600  0.97598800  0.00000000  1
  Co  Co33  1  0.46204500  0.92580900  0.50000000  1
  Co  Co34  1  0.92631300  0.46405700  0.00000000  1
  Co  Co35  1  0.41580800  0.26516200  0.00000000  1
  P  P36  1  0.56662200  0.62946700  0.00000000  1
  P  P37  1  0.45102400  0.76844800  0.50000000  1
  P  P38  1  0.43226300  0.37040500  0.50000000  1
  P  P39  1  0.23155200  0.68257700  0.50000000  1
  P  P40  1  0.13691800  0.25653600  0.50000000  1
  P  P41  1  0.54867500  0.23152300  0.00000000  1
  P  P42  1  0.86443700  0.74439300  0.00000000  1
  P  P43  1  0.11961800  0.86308200  0.50000000  1
  P  P44  1  0.31742300  0.54897600  0.50000000  1
  P  P45  1  0.62959500  0.06185800  0.50000000  1
  P  P46  1  0.93814200  0.56773700  0.50000000  1
  P  P47  1  0.37053300  0.93715500  0.00000000  1
  P  P48  1  0.25560700  0.12004400  0.00000000  1
  P  P49  1  0.74346400  0.88038200  0.50000000  1
  P  P50  1  0.68284800  0.45132500  0.00000000  1
  P  P51  1  0.76847700  0.31715200  0.00000000  1
  P  P52  1  0.00000000  0.00000000  0.50000000  1
  P  P53  1  0.87995600  0.13556300  0.00000000  1
  P  P54  1  0.06284500  0.43337800  0.00000000  1
