# generated using pymatgen
data_Pr15Si10Ni7
_symmetry_space_group_name_H-M   'P 1'
_cell_length_a   19.86797829
_cell_length_b   19.86797829
_cell_length_c   4.38164800
_cell_angle_alpha   90.00000000
_cell_angle_beta   90.00000000
_cell_angle_gamma   120.00000095
_symmetry_Int_Tables_number   1
_chemical_formula_structural   Pr15Si10Ni7
_chemical_formula_sum   'Pr30 Si20 Ni14'
_cell_volume   1497.87463476
_cell_formula_units_Z   2
loop_
 _symmetry_equiv_pos_site_id
 _symmetry_equiv_pos_as_xyz
  1  'x, y, z'
loop_
 _atom_site_type_symbol
 _atom_site_label
 _atom_site_symmetry_multiplicity
 _atom_site_fract_x
 _atom_site_fract_y
 _atom_site_fract_z
 _atom_site_occupancy
  Pr  Pr0  1  0.91800300  0.41957300  0.25000000  1
  Pr  Pr1  1  0.85286600  0.98409500  0.25000000  1
  Pr  Pr2  1  0.64416600  0.67856600  0.75000000  1
  Pr  Pr3  1  0.03440000  0.35583400  0.75000000  1
  Pr  Pr4  1  0.46610600  0.71055500  0.75000000  1
  Pr  Pr5  1  0.19756500  0.32177000  0.75000000  1
  Pr  Pr6  1  0.41957300  0.50157000  0.75000000  1
  Pr  Pr7  1  0.13122900  0.14713400  0.25000000  1
  Pr  Pr8  1  0.86877100  0.85286600  0.75000000  1
  Pr  Pr9  1  0.80243500  0.67823000  0.25000000  1
  Pr  Pr10  1  0.67856600  0.03440000  0.25000000  1
  Pr  Pr11  1  0.71055500  0.24445000  0.25000000  1
  Pr  Pr12  1  0.98409500  0.13122900  0.75000000  1
  Pr  Pr13  1  0.32143400  0.96560000  0.75000000  1
  Pr  Pr14  1  0.08199700  0.58042700  0.75000000  1
  Pr  Pr15  1  0.12420600  0.80243500  0.75000000  1
  Pr  Pr16  1  0.32177000  0.12420600  0.25000000  1
  Pr  Pr17  1  0.53389400  0.28944500  0.25000000  1
  Pr  Pr18  1  0.58042700  0.49843000  0.25000000  1
  Pr  Pr19  1  0.96560000  0.64416600  0.25000000  1
  Pr  Pr20  1  0.49843000  0.91800300  0.75000000  1
  Pr  Pr21  1  0.75555000  0.46610600  0.25000000  1
  Pr  Pr22  1  0.28944500  0.75555000  0.75000000  1
  Pr  Pr23  1  0.35583400  0.32143400  0.25000000  1
  Pr  Pr24  1  0.67823000  0.87579400  0.75000000  1
  Pr  Pr25  1  0.01590500  0.86877100  0.25000000  1
  Pr  Pr26  1  0.87579400  0.19756500  0.25000000  1
  Pr  Pr27  1  0.50157000  0.08199700  0.25000000  1
  Pr  Pr28  1  0.24445000  0.53389400  0.75000000  1
  Pr  Pr29  1  0.14713400  0.01590500  0.75000000  1
  Si  Si30  1  0.88971700  0.51497200  0.75000000  1
  Si  Si31  1  0.71065000  0.55520100  0.75000000  1
  Si  Si32  1  0.15545000  0.71065000  0.25000000  1
  Si  Si33  1  0.62525500  0.11028300  0.75000000  1
  Si  Si34  1  0.25684700  0.19568300  0.75000000  1
  Si  Si35  1  0.51497200  0.62525500  0.25000000  1
  Si  Si36  1  0.66666700  0.33333300  0.75000000  1
  Si  Si37  1  0.19568300  0.93883700  0.25000000  1
  Si  Si38  1  0.48502800  0.37474500  0.75000000  1
  Si  Si39  1  0.11028300  0.48502800  0.25000000  1
  Si  Si40  1  0.80431700  0.06116300  0.75000000  1
  Si  Si41  1  0.84455000  0.28935000  0.75000000  1
  Si  Si42  1  0.37474500  0.88971700  0.25000000  1
  Si  Si43  1  0.93883700  0.74315300  0.75000000  1
  Si  Si44  1  0.06116300  0.25684700  0.25000000  1
  Si  Si45  1  0.33333300  0.66666700  0.25000000  1
  Si  Si46  1  0.74315300  0.80431700  0.25000000  1
  Si  Si47  1  0.44479900  0.15545000  0.75000000  1
  Si  Si48  1  0.28935000  0.44479900  0.25000000  1
  Si  Si49  1  0.55520100  0.84455000  0.25000000  1
  Ni  Ni50  1  0.80051500  0.37940500  0.75000000  1
  Ni  Ni51  1  0.84709900  0.60629100  0.75000000  1
  Ni  Ni52  1  0.60629100  0.75919200  0.25000000  1
  Ni  Ni53  1  0.75919200  0.15290100  0.75000000  1
  Ni  Ni54  1  0.62059500  0.42111000  0.75000000  1
  Ni  Ni55  1  0.42111000  0.80051500  0.25000000  1
  Ni  Ni56  1  0.57889000  0.19948500  0.75000000  1
  Ni  Ni57  1  0.19948500  0.62059500  0.25000000  1
  Ni  Ni58  1  0.37940500  0.57889000  0.25000000  1
  Ni  Ni59  1  0.15290100  0.39370900  0.25000000  1
  Ni  Ni60  1  0.39370900  0.24080800  0.75000000  1
  Ni  Ni61  1  0.00000000  0.00000000  0.50000000  1
  Ni  Ni62  1  0.00000000  0.00000000  0.00000000  1
  Ni  Ni63  1  0.24080800  0.84709900  0.25000000  1
