# generated using pymatgen
data_CsU6F25
_symmetry_space_group_name_H-M   'P 1'
_cell_length_a   8.22002125
_cell_length_b   8.22002125
_cell_length_c   16.67781700
_cell_angle_alpha   90.00000000
_cell_angle_beta   90.00000000
_cell_angle_gamma   119.99999392
_symmetry_Int_Tables_number   1
_chemical_formula_structural   CsU6F25
_chemical_formula_sum   'Cs2 U12 F50'
_cell_volume   975.92342498
_cell_formula_units_Z   2
loop_
 _symmetry_equiv_pos_site_id
 _symmetry_equiv_pos_as_xyz
  1  'x, y, z'
loop_
 _atom_site_type_symbol
 _atom_site_label
 _atom_site_symmetry_multiplicity
 _atom_site_fract_x
 _atom_site_fract_y
 _atom_site_fract_z
 _atom_site_occupancy
  Cs  Cs0  1  0.66666700  0.33333300  0.25000000  1
  Cs  Cs1  1  0.33333300  0.66666700  0.75000000  1
  U  U2  1  0.83343100  0.16656900  0.61237300  1
  U  U3  1  0.83343100  0.66686100  0.88762700  1
  U  U4  1  0.66686100  0.83343100  0.38762700  1
  U  U5  1  0.16656900  0.83343100  0.38762700  1
  U  U6  1  0.33313900  0.16656900  0.61237300  1
  U  U7  1  0.33313900  0.16656900  0.88762700  1
  U  U8  1  0.16656900  0.83343100  0.11237300  1
  U  U9  1  0.16656900  0.33313900  0.11237300  1
  U  U10  1  0.83343100  0.66686100  0.61237300  1
  U  U11  1  0.16656900  0.33313900  0.38762700  1
  U  U12  1  0.83343100  0.16656900  0.88762700  1
  U  U13  1  0.66686100  0.83343100  0.11237300  1
  F  F14  1  0.66666700  0.33333300  0.93449400  1
  F  F15  1  0.72416200  0.86208100  0.65865700  1
  F  F16  1  0.86208100  0.72416200  0.34134300  1
  F  F17  1  0.48238400  0.51761600  0.35589800  1
  F  F18  1  0.36787400  0.18393700  0.75000000  1
  F  F19  1  0.13791900  0.86208100  0.84134300  1
  F  F20  1  0.32067000  0.00000000  0.50000000  1
  F  F21  1  0.00000000  0.00000000  0.92760600  1
  F  F22  1  0.48238400  0.96476700  0.14410200  1
  F  F23  1  0.33333300  0.66666700  0.43449400  1
  F  F24  1  0.81606300  0.63212600  0.75000000  1
  F  F25  1  0.32067000  0.00000000  0.00000000  1
  F  F26  1  0.51761600  0.03523300  0.64410200  1
  F  F27  1  0.00000000  0.00000000  0.42760600  1
  F  F28  1  0.67933000  0.00000000  0.50000000  1
  F  F29  1  0.86208100  0.72416200  0.15865700  1
  F  F30  1  0.00000000  0.00000000  0.07239400  1
  F  F31  1  0.81606300  0.18393700  0.75000000  1
  F  F32  1  0.27583800  0.13791900  0.34134300  1
  F  F33  1  0.18393700  0.81606300  0.25000000  1
  F  F34  1  0.51761600  0.48238400  0.64410200  1
  F  F35  1  0.96476700  0.48238400  0.85589800  1
  F  F36  1  0.00000000  0.32067000  0.50000000  1
  F  F37  1  0.13791900  0.86208100  0.65865700  1
  F  F38  1  0.48238400  0.51761600  0.14410200  1
  F  F39  1  0.03523300  0.51761600  0.35589800  1
  F  F40  1  0.00000000  0.32067000  0.00000000  1
  F  F41  1  0.33333300  0.66666700  0.06550600  1
  F  F42  1  0.00000000  0.00000000  0.57239400  1
  F  F43  1  0.18393700  0.36787400  0.25000000  1
  F  F44  1  0.03523300  0.51761600  0.14410200  1
  F  F45  1  0.86208100  0.13791900  0.34134300  1
  F  F46  1  0.96476700  0.48238400  0.64410200  1
  F  F47  1  0.51761600  0.48238400  0.85589800  1
  F  F48  1  0.67933000  0.67933000  0.50000000  1
  F  F49  1  0.00000000  0.67933000  0.00000000  1
  F  F50  1  0.32067000  0.32067000  0.00000000  1
  F  F51  1  0.13791900  0.27583800  0.84134300  1
  F  F52  1  0.51761600  0.03523300  0.85589800  1
  F  F53  1  0.48238400  0.96476700  0.35589800  1
  F  F54  1  0.32067000  0.32067000  0.50000000  1
  F  F55  1  0.67933000  0.67933000  0.00000000  1
  F  F56  1  0.63212600  0.81606300  0.25000000  1
  F  F57  1  0.86208100  0.13791900  0.15865700  1
  F  F58  1  0.27583800  0.13791900  0.15865700  1
  F  F59  1  0.13791900  0.27583800  0.65865700  1
  F  F60  1  0.00000000  0.67933000  0.50000000  1
  F  F61  1  0.66666700  0.33333300  0.56550600  1
  F  F62  1  0.67933000  0.00000000  0.00000000  1
  F  F63  1  0.72416200  0.86208100  0.84134300  1
