# generated using pymatgen
data_K2Te(WO4)3
_symmetry_space_group_name_H-M   'P 1'
_cell_length_a   11.95809000
_cell_length_b   7.40015900
_cell_length_c   14.81081557
_cell_angle_alpha   60.20187537
_cell_angle_beta   90.00000000
_cell_angle_gamma   90.00000000
_symmetry_Int_Tables_number   1
_chemical_formula_structural   K2Te(WO4)3
_chemical_formula_sum   'K8 Te4 W12 O48'
_cell_volume   1137.34530674
_cell_formula_units_Z   4
loop_
 _symmetry_equiv_pos_site_id
 _symmetry_equiv_pos_as_xyz
  1  'x, y, z'
loop_
 _atom_site_type_symbol
 _atom_site_label
 _atom_site_symmetry_multiplicity
 _atom_site_fract_x
 _atom_site_fract_y
 _atom_site_fract_z
 _atom_site_occupancy
  K  K0  1  0.95414600  0.33396900  0.41734400  1
  K  K1  1  0.54585400  0.33396900  0.91734400  1
  K  K2  1  0.04585400  0.66603100  0.58265600  1
  K  K3  1  0.45414600  0.66603100  0.08265600  1
  K  K4  1  0.56772900  0.36771100  0.38729200  1
  K  K5  1  0.93227100  0.36771100  0.88729200  1
  K  K6  1  0.43227100  0.63228900  0.61270800  1
  K  K7  1  0.06772900  0.63228900  0.11270800  1
  Te  Te8  1  0.00519000  0.05141700  0.69879800  1
  Te  Te9  1  0.49481000  0.05141700  0.19879800  1
  Te  Te10  1  0.99481000  0.94858300  0.30120200  1
  Te  Te11  1  0.50519000  0.94858300  0.80120200  1
  W  W12  1  0.29612500  0.16610700  0.57941500  1
  W  W13  1  0.20387500  0.16610700  0.07941500  1
  W  W14  1  0.70387500  0.83389300  0.42058500  1
  W  W15  1  0.79612500  0.83389300  0.92058500  1
  W  W16  1  0.24547500  0.18120800  0.32719500  1
  W  W17  1  0.25452500  0.18120800  0.82719500  1
  W  W18  1  0.75452500  0.81879200  0.67280500  1
  W  W19  1  0.74547500  0.81879200  0.17280500  1
  W  W20  1  0.24887900  0.66796400  0.33205600  1
  W  W21  1  0.25112100  0.66796400  0.83205600  1
  W  W22  1  0.75112100  0.33203600  0.66794400  1
  W  W23  1  0.74887900  0.33203600  0.16794400  1
  O  O24  1  0.91972900  0.30598700  0.63086600  1
  O  O25  1  0.58027100  0.30598700  0.13086600  1
  O  O26  1  0.08027100  0.69401300  0.36913400  1
  O  O27  1  0.41972900  0.69401300  0.86913400  1
  O  O28  1  0.92221600  0.92972000  0.63073800  1
  O  O29  1  0.57778400  0.92972000  0.13073800  1
  O  O30  1  0.07778400  0.07028000  0.36926200  1
  O  O31  1  0.42221600  0.07028000  0.86926200  1
  O  O32  1  0.11866900  0.15850500  0.59657200  1
  O  O33  1  0.38133100  0.15850500  0.09657200  1
  O  O34  1  0.88133100  0.84149500  0.40342800  1
  O  O35  1  0.61866900  0.84149500  0.90342800  1
  O  O36  1  0.30004300  0.87781600  0.68768300  1
  O  O37  1  0.19995700  0.87781600  0.18768300  1
  O  O38  1  0.69995700  0.12218400  0.31231700  1
  O  O39  1  0.80004300  0.12218400  0.81231700  1
  O  O40  1  0.26697800  0.46272000  0.47548500  1
  O  O41  1  0.23302200  0.46272000  0.97548500  1
  O  O42  1  0.73302200  0.53728000  0.52451500  1
  O  O43  1  0.76697800  0.53728000  0.02451500  1
  O  O44  1  0.26215700  0.09051400  0.47333300  1
  O  O45  1  0.23784300  0.09051400  0.97333300  1
  O  O46  1  0.73784300  0.90948600  0.52666700  1
  O  O47  1  0.76215700  0.90948600  0.02666700  1
  O  O48  1  0.44239200  0.18828000  0.55497500  1
  O  O49  1  0.05760800  0.18828000  0.05497500  1
  O  O50  1  0.55760800  0.81172000  0.44502500  1
  O  O51  1  0.94239200  0.81172000  0.94502500  1
  O  O52  1  0.38625000  0.26815700  0.28675900  1
  O  O53  1  0.11375000  0.26815700  0.78675900  1
  O  O54  1  0.61375000  0.73184300  0.71324100  1
  O  O55  1  0.88625000  0.73184300  0.21324100  1
  O  O56  1  0.19587800  0.24672800  0.18707100  1
  O  O57  1  0.30412200  0.24672800  0.68707100  1
  O  O58  1  0.80412200  0.75327200  0.81292900  1
  O  O59  1  0.69587800  0.75327200  0.31292900  1
  O  O60  1  0.19068500  0.44938000  0.30430700  1
  O  O61  1  0.30931500  0.44938000  0.80430700  1
  O  O62  1  0.80931500  0.55062000  0.69569300  1
  O  O63  1  0.69068500  0.55062000  0.19569300  1
  O  O64  1  0.38864600  0.66287200  0.28848700  1
  O  O65  1  0.11135400  0.66287200  0.78848700  1
  O  O66  1  0.61135400  0.33712800  0.71151300  1
  O  O67  1  0.88864600  0.33712800  0.21151300  1
  O  O68  1  0.27846200  0.89766100  0.35578100  1
  O  O69  1  0.22153800  0.89766100  0.85578100  1
  O  O70  1  0.72153800  0.10233900  0.64421900  1
  O  O71  1  0.77846200  0.10233900  0.14421900  1
