# generated using pymatgen
data_Ca(BiO2)2
_symmetry_space_group_name_H-M   'P 1'
_cell_length_a   10.36860652
_cell_length_b   10.36860652
_cell_length_c   12.54287908
_cell_angle_alpha   61.91583077
_cell_angle_beta   61.91583077
_cell_angle_gamma   69.63827596
_symmetry_Int_Tables_number   1
_chemical_formula_structural   Ca(BiO2)2
_chemical_formula_sum   'Ca8 Bi16 O32'
_cell_volume   1035.69598186
_cell_formula_units_Z   8
loop_
 _symmetry_equiv_pos_site_id
 _symmetry_equiv_pos_as_xyz
  1  'x, y, z'
loop_
 _atom_site_type_symbol
 _atom_site_label
 _atom_site_symmetry_multiplicity
 _atom_site_fract_x
 _atom_site_fract_y
 _atom_site_fract_z
 _atom_site_occupancy
  Ca  Ca0  1  0.00788600  0.58208700  0.83735800  1
  Ca  Ca1  1  0.05202400  0.85269400  0.91866900  1
  Ca  Ca2  1  0.99211400  0.41791300  0.16264200  1
  Ca  Ca3  1  0.58208700  0.00788600  0.33735800  1
  Ca  Ca4  1  0.14730600  0.94797600  0.58133100  1
  Ca  Ca5  1  0.94797600  0.14730600  0.08133100  1
  Ca  Ca6  1  0.85269400  0.05202400  0.41866900  1
  Ca  Ca7  1  0.41791300  0.99211400  0.66264200  1
  Bi  Bi8  1  0.65560700  0.46873600  0.06136000  1
  Bi  Bi9  1  0.24347600  0.05191300  0.23383800  1
  Bi  Bi10  1  0.75652400  0.94808700  0.76616200  1
  Bi  Bi11  1  0.35081400  0.26894700  0.78220700  1
  Bi  Bi12  1  0.82528800  0.34557700  0.50728700  1
  Bi  Bi13  1  0.17471200  0.65442300  0.49271300  1
  Bi  Bi14  1  0.53126400  0.34439300  0.43864000  1
  Bi  Bi15  1  0.34439300  0.53126400  0.93864000  1
  Bi  Bi16  1  0.46873600  0.65560700  0.56136000  1
  Bi  Bi17  1  0.65442300  0.17471200  0.99271300  1
  Bi  Bi18  1  0.64918600  0.73105300  0.21779300  1
  Bi  Bi19  1  0.05191300  0.24347600  0.73383800  1
  Bi  Bi20  1  0.73105300  0.64918600  0.71779300  1
  Bi  Bi21  1  0.94808700  0.75652400  0.26616200  1
  Bi  Bi22  1  0.34557700  0.82528800  0.00728700  1
  Bi  Bi23  1  0.26894700  0.35081400  0.28220700  1
  O  O24  1  0.58013900  0.96226400  0.16583600  1
  O  O25  1  0.57263600  0.32325600  0.60076700  1
  O  O26  1  0.31040000  0.29089000  0.62010200  1
  O  O27  1  0.96177800  0.83575600  0.78398300  1
  O  O28  1  0.89549900  0.11100200  0.57478600  1
  O  O29  1  0.21921500  0.65289500  0.64188600  1
  O  O30  1  0.10450100  0.88899800  0.42521400  1
  O  O31  1  0.83575600  0.96177800  0.28398300  1
  O  O32  1  0.03822200  0.16424400  0.21601700  1
  O  O33  1  0.65289500  0.21921500  0.14188600  1
  O  O34  1  0.26423100  0.10977400  0.36731100  1
  O  O35  1  0.41986100  0.03773600  0.83416400  1
  O  O36  1  0.10977400  0.26423100  0.86731100  1
  O  O37  1  0.89022600  0.73576900  0.13268900  1
  O  O38  1  0.03773600  0.41986100  0.33416400  1
  O  O39  1  0.41675500  0.87606900  0.54262900  1
  O  O40  1  0.67674400  0.42736400  0.89923300  1
  O  O41  1  0.96226400  0.58013900  0.66583600  1
  O  O42  1  0.73576900  0.89022600  0.63268900  1
  O  O43  1  0.88899800  0.10450100  0.92521400  1
  O  O44  1  0.87606900  0.41675500  0.04262900  1
  O  O45  1  0.42736400  0.67674400  0.39923300  1
  O  O46  1  0.29089000  0.31040000  0.12010200  1
  O  O47  1  0.16424400  0.03822200  0.71601700  1
  O  O48  1  0.12393100  0.58324500  0.95737100  1
  O  O49  1  0.58324500  0.12393100  0.45737100  1
  O  O50  1  0.68960000  0.70911000  0.37989800  1
  O  O51  1  0.70911000  0.68960000  0.87989800  1
  O  O52  1  0.11100200  0.89549900  0.07478600  1
  O  O53  1  0.78078500  0.34710500  0.35811400  1
  O  O54  1  0.34710500  0.78078500  0.85811400  1
  O  O55  1  0.32325600  0.57263600  0.10076700  1
