# generated using pymatgen
data_YAlGeO5
_symmetry_space_group_name_H-M   'P 1'
_cell_length_a   5.67449000
_cell_length_b   7.32674300
_cell_length_c   8.41988500
_cell_angle_alpha   90.00000000
_cell_angle_beta   90.00000000
_cell_angle_gamma   90.00000000
_symmetry_Int_Tables_number   1
_chemical_formula_structural   YAlGeO5
_chemical_formula_sum   'Y4 Al4 Ge4 O20'
_cell_volume   350.06118045
_cell_formula_units_Z   4
loop_
 _symmetry_equiv_pos_site_id
 _symmetry_equiv_pos_as_xyz
  1  'x, y, z'
loop_
 _atom_site_type_symbol
 _atom_site_label
 _atom_site_symmetry_multiplicity
 _atom_site_fract_x
 _atom_site_fract_y
 _atom_site_fract_z
 _atom_site_occupancy
  Y  Y0  1  0.00000000  0.35725000  0.32610400  1
  Y  Y1  1  0.00000000  0.64275000  0.67389600  1
  Y  Y2  1  0.00000000  0.85725000  0.17389600  1
  Y  Y3  1  0.00000000  0.14275000  0.82610400  1
  Al  Al4  1  0.24957100  0.50000000  0.00000000  1
  Al  Al5  1  0.75042900  0.00000000  0.50000000  1
  Al  Al6  1  0.75042900  0.50000000  0.00000000  1
  Al  Al7  1  0.24957100  0.00000000  0.50000000  1
  Ge  Ge8  1  0.50000000  0.12024800  0.14426400  1
  Ge  Ge9  1  0.50000000  0.87975200  0.85573600  1
  Ge  Ge10  1  0.50000000  0.62024800  0.35573600  1
  Ge  Ge11  1  0.50000000  0.37975200  0.64426400  1
  O  O12  1  0.00000000  0.33912900  0.05324000  1
  O  O13  1  0.00000000  0.66087100  0.94676000  1
  O  O14  1  0.00000000  0.83912900  0.44676000  1
  O  O15  1  0.00000000  0.16087100  0.55324000  1
  O  O16  1  0.50000000  0.34659000  0.06891400  1
  O  O17  1  0.50000000  0.65341000  0.93108600  1
  O  O18  1  0.50000000  0.84659000  0.43108600  1
  O  O19  1  0.50000000  0.15341000  0.56891400  1
  O  O20  1  0.25326300  0.10570400  0.28738500  1
  O  O21  1  0.25326300  0.89429600  0.71261500  1
  O  O22  1  0.74673700  0.60570400  0.21261500  1
  O  O23  1  0.74673700  0.39429600  0.78738500  1
  O  O24  1  0.74673700  0.89429600  0.71261500  1
  O  O25  1  0.74673700  0.10570400  0.28738500  1
  O  O26  1  0.25326300  0.39429600  0.78738500  1
  O  O27  1  0.25326300  0.60570400  0.21261500  1
  O  O28  1  0.28515400  0.00000000  0.00000000  1
  O  O29  1  0.71484600  0.50000000  0.50000000  1
  O  O30  1  0.71484600  0.00000000  0.00000000  1
  O  O31  1  0.28515400  0.50000000  0.50000000  1
