# generated using pymatgen
data_P3RuO9
_symmetry_space_group_name_H-M   'P 1'
_cell_length_a   5.12629200
_cell_length_b   7.06225567
_cell_length_c   10.47396918
_cell_angle_alpha   98.63457368
_cell_angle_beta   92.41326456
_cell_angle_gamma   92.36051608
_symmetry_Int_Tables_number   1
_chemical_formula_structural   P3RuO9
_chemical_formula_sum   'P6 Ru2 O18'
_cell_volume   374.12731563
_cell_formula_units_Z   2
loop_
 _symmetry_equiv_pos_site_id
 _symmetry_equiv_pos_as_xyz
  1  'x, y, z'
loop_
 _atom_site_type_symbol
 _atom_site_label
 _atom_site_symmetry_multiplicity
 _atom_site_fract_x
 _atom_site_fract_y
 _atom_site_fract_z
 _atom_site_occupancy
  P  P0  1  0.52575900  0.95910600  0.18123200  1
  P  P1  1  0.24107500  0.31433200  0.22871500  1
  P  P2  1  0.49877600  0.32942900  0.63910100  1
  P  P3  1  0.47424100  0.04089400  0.81876800  1
  P  P4  1  0.75892500  0.68566800  0.77128500  1
  P  P5  1  0.50122400  0.67057100  0.36089900  1
  Ru  Ru6  1  0.00000000  0.00000000  0.00000000  1
  Ru  Ru7  1  0.00000000  0.50000000  0.50000000  1
  O  O8  1  0.48811400  0.18127500  0.23273700  1
  O  O9  1  0.09569300  0.27033100  0.09827500  1
  O  O10  1  0.33044500  0.88044700  0.07336800  1
  O  O11  1  0.20769100  0.35480300  0.62216100  1
  O  O12  1  0.66382600  0.33367800  0.52420100  1
  O  O13  1  0.18734000  0.06687000  0.84248100  1
  O  O14  1  0.61663800  0.47802600  0.76359800  1
  O  O15  1  0.90430700  0.72966900  0.90172500  1
  O  O16  1  0.53428800  0.12936600  0.68942500  1
  O  O17  1  0.79230900  0.64519700  0.37783900  1
  O  O18  1  0.91501500  0.69926500  0.65356200  1
  O  O19  1  0.81266000  0.93313000  0.15751900  1
  O  O20  1  0.51188600  0.81872500  0.76726300  1
  O  O21  1  0.66955500  0.11955300  0.92663200  1
  O  O22  1  0.46571200  0.87063400  0.31057500  1
  O  O23  1  0.08498500  0.30073500  0.34643800  1
  O  O24  1  0.38336200  0.52197400  0.23640200  1
  O  O25  1  0.33617400  0.66632200  0.47579900  1
