# generated using pymatgen
data_NpAl2Pd5
_symmetry_space_group_name_H-M   'P 1'
_cell_length_a   8.07613441
_cell_length_b   8.07613441
_cell_length_c   8.07613441
_cell_angle_alpha   150.01963045
_cell_angle_beta   150.01963045
_cell_angle_gamma   42.91258830
_symmetry_Int_Tables_number   1
_chemical_formula_structural   NpAl2Pd5
_chemical_formula_sum   'Np1 Al2 Pd5'
_cell_volume   131.19455589
_cell_formula_units_Z   1
loop_
 _symmetry_equiv_pos_site_id
 _symmetry_equiv_pos_as_xyz
  1  'x, y, z'
loop_
 _atom_site_type_symbol
 _atom_site_label
 _atom_site_symmetry_multiplicity
 _atom_site_fract_x
 _atom_site_fract_y
 _atom_site_fract_z
 _atom_site_occupancy
  Np  Np0  1  0.00000000  0.00000000  0.00000000  1
  Al  Al1  1  0.74664200  0.74664200  0.00000000  1
  Al  Al2  1  0.25335800  0.25335800  0.00000000  1
  Pd  Pd3  1  0.35452300  0.85452300  0.50000000  1
  Pd  Pd4  1  0.14547700  0.64547700  0.50000000  1
  Pd  Pd5  1  0.85452300  0.35452300  0.50000000  1
  Pd  Pd6  1  0.64547700  0.14547700  0.50000000  1
  Pd  Pd7  1  0.50000000  0.50000000  0.00000000  1
