# generated using pymatgen
data_Ba2Zn7F18
_symmetry_space_group_name_H-M   'P 1'
_cell_length_a   7.16236000
_cell_length_b   7.44266352
_cell_length_c   7.63773782
_cell_angle_alpha   94.28518249
_cell_angle_beta   92.88549120
_cell_angle_gamma   116.34071219
_symmetry_Int_Tables_number   1
_chemical_formula_structural   Ba2Zn7F18
_chemical_formula_sum   'Ba2 Zn7 F18'
_cell_volume   362.26033013
_cell_formula_units_Z   1
loop_
 _symmetry_equiv_pos_site_id
 _symmetry_equiv_pos_as_xyz
  1  'x, y, z'
loop_
 _atom_site_type_symbol
 _atom_site_label
 _atom_site_symmetry_multiplicity
 _atom_site_fract_x
 _atom_site_fract_y
 _atom_site_fract_z
 _atom_site_occupancy
  Ba  Ba0  1  0.31604500  0.68866100  0.63222200  1
  Ba  Ba1  1  0.68395500  0.31133900  0.36777800  1
  Zn  Zn2  1  0.00000000  0.00000000  0.50000000  1
  Zn  Zn3  1  0.19107700  0.87069900  0.17902700  1
  Zn  Zn4  1  0.80892300  0.12930100  0.82097300  1
  Zn  Zn5  1  0.82059100  0.61893200  0.80677100  1
  Zn  Zn6  1  0.17940900  0.38106800  0.19322900  1
  Zn  Zn7  1  0.60898900  0.73202800  0.12343300  1
  Zn  Zn8  1  0.39101100  0.26797200  0.87656700  1
  F  F9  1  0.47930500  0.56029400  0.32286300  1
  F  F10  1  0.52069500  0.43970600  0.67713700  1
  F  F11  1  0.10989000  0.77149600  0.92515800  1
  F  F12  1  0.89011000  0.22850400  0.07484200  1
  F  F13  1  0.71781900  0.99046600  0.55745100  1
  F  F14  1  0.28218100  0.00953400  0.44254900  1
  F  F15  1  0.92065400  0.71803600  0.57191300  1
  F  F16  1  0.07934600  0.28196400  0.42808700  1
  F  F17  1  0.90686800  0.87214400  0.23847700  1
  F  F18  1  0.09313200  0.12785600  0.76152300  1
  F  F19  1  0.70185100  0.82362600  0.87883900  1
  F  F20  1  0.29814900  0.17637400  0.12116100  1
  F  F21  1  0.10217400  0.60499000  0.28587800  1
  F  F22  1  0.89782600  0.39501000  0.71412200  1
  F  F23  1  0.49902200  0.92860900  0.18513200  1
  F  F24  1  0.50097800  0.07139100  0.81486800  1
  F  F25  1  0.67910400  0.48719700  0.02632800  1
  F  F26  1  0.32089600  0.51280300  0.97367200  1
