# generated using pymatgen
data_Zr(PO3)4
_symmetry_space_group_name_H-M   'P 1'
_cell_length_a   8.62274300
_cell_length_b   9.91867000
_cell_length_c   20.87080400
_cell_angle_alpha   90.00000000
_cell_angle_beta   90.00000000
_cell_angle_gamma   90.00000000
_symmetry_Int_Tables_number   1
_chemical_formula_structural   Zr(PO3)4
_chemical_formula_sum   'Zr8 P32 O96'
_cell_volume   1784.99935307
_cell_formula_units_Z   8
loop_
 _symmetry_equiv_pos_site_id
 _symmetry_equiv_pos_as_xyz
  1  'x, y, z'
loop_
 _atom_site_type_symbol
 _atom_site_label
 _atom_site_symmetry_multiplicity
 _atom_site_fract_x
 _atom_site_fract_y
 _atom_site_fract_z
 _atom_site_occupancy
  Zr  Zr0  1  0.99887300  0.01993200  0.88369400  1
  Zr  Zr1  1  0.49887300  0.98006800  0.11630600  1
  Zr  Zr2  1  0.49887300  0.01993200  0.61630600  1
  Zr  Zr3  1  0.49814600  0.48564200  0.86685600  1
  Zr  Zr4  1  0.99814600  0.48564200  0.63314400  1
  Zr  Zr5  1  0.49814600  0.51435800  0.36685600  1
  Zr  Zr6  1  0.99887300  0.98006800  0.38369400  1
  Zr  Zr7  1  0.99814600  0.51435800  0.13314400  1
  P  P8  1  0.26464900  0.98773900  0.26081500  1
  P  P9  1  0.77129400  0.50714100  0.98854000  1
  P  P10  1  0.11938500  0.51113900  0.79724900  1
  P  P11  1  0.38427800  0.63530800  0.12212400  1
  P  P12  1  0.62272500  0.00649000  0.45247700  1
  P  P13  1  0.38119100  0.14211600  0.87618900  1
  P  P14  1  0.12272500  0.00649000  0.04752300  1
  P  P15  1  0.26145900  0.76758900  0.83536000  1
  P  P16  1  0.76145900  0.23241100  0.16464000  1
  P  P17  1  0.26113900  0.26004500  0.09287700  1
  P  P18  1  0.76464900  0.98773900  0.23918500  1
  P  P19  1  0.61938500  0.48886100  0.20275100  1
  P  P20  1  0.26464900  0.01226100  0.76081500  1
  P  P21  1  0.76113900  0.26004500  0.40712300  1
  P  P22  1  0.11938500  0.48886100  0.29724900  1
  P  P23  1  0.26145900  0.23241100  0.33536000  1
  P  P24  1  0.26113900  0.73995500  0.59287700  1
  P  P25  1  0.88427800  0.36469200  0.87787600  1
  P  P26  1  0.62272500  0.99351000  0.95247700  1
  P  P27  1  0.76113900  0.73995500  0.90712300  1
  P  P28  1  0.38119100  0.85788400  0.37618900  1
  P  P29  1  0.76145900  0.76758900  0.66464000  1
  P  P30  1  0.27129400  0.49285900  0.01146000  1
  P  P31  1  0.27129400  0.50714100  0.51146000  1
  P  P32  1  0.12272500  0.99351000  0.54752300  1
  P  P33  1  0.88427800  0.63530800  0.37787600  1
  P  P34  1  0.76464900  0.01226100  0.73918500  1
  P  P35  1  0.77129400  0.49285900  0.48854000  1
  P  P36  1  0.88119100  0.85788400  0.12381100  1
  P  P37  1  0.38427800  0.36469200  0.62212400  1
  P  P38  1  0.88119100  0.14211600  0.62381100  1
  P  P39  1  0.61938500  0.51113900  0.70275100  1
  O  O40  1  0.32400500  0.86092100  0.77738200  1
  O  O41  1  0.26867000  0.44315900  0.81437900  1
  O  O42  1  0.76867000  0.44315900  0.68562100  1
  O  O43  1  0.49966800  0.02563000  0.89686400  1
  O  O44  1  0.87539000  0.11293400  0.69931900  1
  O  O45  1  0.60823100  0.51187900  0.46291400  1
  O  O46  1  0.88815200  0.82714000  0.88100900  1
  O  O47  1  0.04296800  0.48143000  0.73424300  1
  O  O48  1  0.60203500  0.02597100  0.71194800  1
  O  O49  1  0.76867000  0.55684100  0.18562100  1
  O  O50  1  0.49217600  0.51453700  0.14777900  1
  O  O51  1  0.88815200  0.17286000  0.38100900  1
  O  O52  1  0.72546800  0.11982100  0.59379300  1
  O  O53  1  0.63509300  0.67288900  0.69942800  1
  O  O54  1  0.88336400  0.40072700  0.95311400  1
  O  O55  1  0.39624700  0.31717500  0.35593800  1
  O  O56  1  0.82400500  0.86092100  0.72261800  1
  O  O57  1  0.38815200  0.82714000  0.61899100  1
  O  O58  1  0.22546800  0.88017900  0.40620700  1
  O  O59  1  0.54296800  0.51857000  0.26575700  1
  O  O60  1  0.80001900  0.50321000  0.55868600  1
  O  O61  1  0.22448300  0.37602400  0.64910700  1
  O  O62  1  0.04422600  0.98037000  0.98460700  1
  O  O63  1  0.45556000  0.72307200  0.38635200  1
  O  O64  1  0.72448300  0.62397600  0.35089300  1
  O  O65  1  0.10823100  0.48812100  0.53708600  1
  O  O66  1  0.54422600  0.01963000  0.01539300  1
  O  O67  1  0.37539000  0.11293400  0.80068100  1
  O  O68  1  0.30001900  0.50321000  0.94131400  1
  O  O69  1  0.88336400  0.59927300  0.45311400  1
  O  O70  1  0.79305400  0.96323100  0.30842700  1
  O  O71  1  0.79305400  0.03676900  0.80842700  1
  O  O72  1  0.10203500  0.97402900  0.28805200  1
  O  O73  1  0.83299300  0.65365900  0.96524500  1
  O  O74  1  0.49217600  0.48546300  0.64777900  1
  O  O75  1  0.95556000  0.72307200  0.11364800  1
  O  O76  1  0.18428600  0.14508300  0.38424600  1
  O  O77  1  0.68428600  0.85491700  0.61575400  1
  O  O78  1  0.27516200  0.06006300  0.56165100  1
  O  O79  1  0.27516200  0.93993700  0.06165100  1
  O  O80  1  0.13543400  0.16774900  0.05641500  1
  O  O81  1  0.63543400  0.83225100  0.94358500  1
  O  O82  1  0.77516200  0.06006300  0.93834900  1
  O  O83  1  0.29305400  0.03676900  0.69157300  1
  O  O84  1  0.13509300  0.67288900  0.80057200  1
  O  O85  1  0.54422600  0.98037000  0.51539300  1
  O  O86  1  0.46875400  0.76650900  0.12925900  1
  O  O87  1  0.63543400  0.16774900  0.44358500  1
  O  O88  1  0.96875400  0.76650900  0.37074100  1
  O  O89  1  0.39624700  0.68282500  0.85593800  1
  O  O90  1  0.63509300  0.32711100  0.19942800  1
  O  O91  1  0.72448300  0.37602400  0.85089300  1
  O  O92  1  0.96875400  0.23349100  0.87074100  1
  O  O93  1  0.99966800  0.97437000  0.10313600  1
  O  O94  1  0.22546800  0.11982100  0.90620700  1
  O  O95  1  0.89624700  0.68282500  0.64406200  1
  O  O96  1  0.60823100  0.48812100  0.96291400  1
  O  O97  1  0.18382300  0.64678200  0.63933400  1
  O  O98  1  0.77516200  0.93993700  0.43834900  1
  O  O99  1  0.80001900  0.49679000  0.05868600  1
  O  O100  1  0.13509300  0.32711100  0.30057200  1
  O  O101  1  0.18382300  0.35321800  0.13933400  1
  O  O102  1  0.10203500  0.02597100  0.78805200  1
  O  O103  1  0.45556000  0.27692800  0.88635200  1
  O  O104  1  0.13543400  0.83225100  0.55641500  1
  O  O105  1  0.33299300  0.34634100  0.03475500  1
  O  O106  1  0.87539000  0.88706600  0.19931900  1
  O  O107  1  0.54296800  0.48143000  0.76575700  1
  O  O108  1  0.04422600  0.01963000  0.48460700  1
  O  O109  1  0.38336400  0.40072700  0.54688600  1
  O  O110  1  0.72546800  0.88017900  0.09379300  1
  O  O111  1  0.99217600  0.48546300  0.85222100  1
  O  O112  1  0.37539000  0.88706600  0.30068100  1
  O  O113  1  0.60203500  0.97402900  0.21194800  1
  O  O114  1  0.10823100  0.51187900  0.03708600  1
  O  O115  1  0.22448300  0.62397600  0.14910700  1
  O  O116  1  0.32400500  0.13907900  0.27738200  1
  O  O117  1  0.30001900  0.49679000  0.44131400  1
  O  O118  1  0.26867000  0.55684100  0.31437900  1
  O  O119  1  0.95556000  0.27692800  0.61364800  1
  O  O120  1  0.68382300  0.35321800  0.36066600  1
  O  O121  1  0.46875400  0.23349100  0.62925900  1
  O  O122  1  0.38336400  0.59927300  0.04688600  1
  O  O123  1  0.04296800  0.51857000  0.23424300  1
  O  O124  1  0.89624700  0.31717500  0.14406200  1
  O  O125  1  0.83299300  0.34634100  0.46524500  1
  O  O126  1  0.49966800  0.97437000  0.39686400  1
  O  O127  1  0.82400500  0.13907900  0.22261800  1
  O  O128  1  0.99966800  0.02563000  0.60313600  1
  O  O129  1  0.33299300  0.65365900  0.53475500  1
  O  O130  1  0.68382300  0.64678200  0.86066600  1
  O  O131  1  0.38815200  0.17286000  0.11899100  1
  O  O132  1  0.99217600  0.51453700  0.35222100  1
  O  O133  1  0.29305400  0.96323100  0.19157300  1
  O  O134  1  0.18428600  0.85491700  0.88424600  1
  O  O135  1  0.68428600  0.14508300  0.11575400  1
