# generated using pymatgen
data_CsCr5S8
_symmetry_space_group_name_H-M   'P 1'
_cell_length_a   9.22363007
_cell_length_b   9.22363007
_cell_length_c   8.84117671
_cell_angle_alpha   75.37599425
_cell_angle_beta   75.37599425
_cell_angle_gamma   22.03493744
_symmetry_Int_Tables_number   1
_chemical_formula_structural   CsCr5S8
_chemical_formula_sum   'Cs1 Cr5 S8'
_cell_volume   272.69702301
_cell_formula_units_Z   1
loop_
 _symmetry_equiv_pos_site_id
 _symmetry_equiv_pos_as_xyz
  1  'x, y, z'
loop_
 _atom_site_type_symbol
 _atom_site_label
 _atom_site_symmetry_multiplicity
 _atom_site_fract_x
 _atom_site_fract_y
 _atom_site_fract_z
 _atom_site_occupancy
  Cs  Cs0  1  0.50000000  0.50000000  0.50000000  1
  Cr  Cr1  1  0.00000000  0.00000000  0.00000000  1
  Cr  Cr2  1  0.34003400  0.34003400  0.97962700  1
  Cr  Cr3  1  0.65996600  0.65996600  0.02037300  1
  Cr  Cr4  1  0.29540300  0.29540300  0.33467800  1
  Cr  Cr5  1  0.70459700  0.70459700  0.66532200  1
  S  S6  1  0.57647100  0.57647100  0.85130700  1
  S  S7  1  0.42352900  0.42352900  0.14869300  1
  S  S8  1  0.08884800  0.08884800  0.16082200  1
  S  S9  1  0.91115200  0.91115200  0.83917800  1
  S  S10  1  0.17364200  0.17364200  0.51463800  1
  S  S11  1  0.82635800  0.82635800  0.48536200  1
  S  S12  1  0.23881900  0.23881900  0.84271100  1
  S  S13  1  0.76118100  0.76118100  0.15728900  1
