# generated using pymatgen
data_Cs3As
_symmetry_space_group_name_H-M   'P 1'
_cell_length_a   11.04293231
_cell_length_b   11.04293231
_cell_length_c   11.43034800
_cell_angle_alpha   90.00000000
_cell_angle_beta   90.00000000
_cell_angle_gamma   120.00000185
_symmetry_Int_Tables_number   1
_chemical_formula_structural   Cs3As
_chemical_formula_sum   'Cs18 As6'
_cell_volume   1207.14348946
_cell_formula_units_Z   6
loop_
 _symmetry_equiv_pos_site_id
 _symmetry_equiv_pos_as_xyz
  1  'x, y, z'
loop_
 _atom_site_type_symbol
 _atom_site_label
 _atom_site_symmetry_multiplicity
 _atom_site_fract_x
 _atom_site_fract_y
 _atom_site_fract_z
 _atom_site_occupancy
  Cs  Cs0  1  0.63077300  0.00000000  0.51137300  1
  Cs  Cs1  1  0.63077300  0.63077300  0.01137300  1
  Cs  Cs2  1  0.00000000  0.36922700  0.01137300  1
  Cs  Cs3  1  0.00000000  0.63077300  0.51137300  1
  Cs  Cs4  1  0.36922700  0.36922700  0.51137300  1
  Cs  Cs5  1  0.36922700  0.00000000  0.01137300  1
  Cs  Cs6  1  0.70731500  0.00000000  0.17773900  1
  Cs  Cs7  1  0.70731500  0.70731500  0.67773900  1
  Cs  Cs8  1  0.00000000  0.29268500  0.67773900  1
  Cs  Cs9  1  0.00000000  0.70731500  0.17773900  1
  Cs  Cs10  1  0.29268500  0.29268500  0.17773900  1
  Cs  Cs11  1  0.29268500  0.00000000  0.67773900  1
  Cs  Cs12  1  0.00000000  0.00000000  0.41762900  1
  Cs  Cs13  1  0.00000000  0.00000000  0.91762900  1
  Cs  Cs14  1  0.66666700  0.33333300  0.29797200  1
  Cs  Cs15  1  0.33333300  0.66666700  0.79797200  1
  Cs  Cs16  1  0.66666700  0.33333300  0.79797200  1
  Cs  Cs17  1  0.33333300  0.66666700  0.29797200  1
  As  As18  1  0.00000000  0.32806900  0.34436300  1
  As  As19  1  0.67193100  0.00000000  0.84436300  1
  As  As20  1  0.32806900  0.32806900  0.84436300  1
  As  As21  1  0.67193100  0.67193100  0.34436300  1
  As  As22  1  0.32806900  0.00000000  0.34436300  1
  As  As23  1  0.00000000  0.67193100  0.84436300  1
