# generated using pymatgen
data_Tb3(CuSn)4
_symmetry_space_group_name_H-M   'P 1'
_cell_length_a   8.45984065
_cell_length_b   8.45984065
_cell_length_c   8.45984065
_cell_angle_alpha   149.30091371
_cell_angle_beta   131.39258221
_cell_angle_gamma   58.59560123
_symmetry_Int_Tables_number   1
_chemical_formula_structural   Tb3(CuSn)4
_chemical_formula_sum   'Tb3 Cu4 Sn4'
_cell_volume   230.10155229
_cell_formula_units_Z   1
loop_
 _symmetry_equiv_pos_site_id
 _symmetry_equiv_pos_as_xyz
  1  'x, y, z'
loop_
 _atom_site_type_symbol
 _atom_site_label
 _atom_site_symmetry_multiplicity
 _atom_site_fract_x
 _atom_site_fract_y
 _atom_site_fract_z
 _atom_site_occupancy
  Tb  Tb0  1  0.36850000  0.86850000  0.50000000  1
  Tb  Tb1  1  0.00000000  0.00000000  0.00000000  1
  Tb  Tb2  1  0.63150000  0.13150000  0.50000000  1
  Cu  Cu3  1  0.98227000  0.67034600  0.31192400  1
  Cu  Cu4  1  0.64157900  0.32965400  0.31192400  1
  Cu  Cu5  1  0.35842100  0.67034600  0.68807600  1
  Cu  Cu6  1  0.01773000  0.32965400  0.68807600  1
  Sn  Sn7  1  0.70292300  0.50000000  0.20292300  1
  Sn  Sn8  1  0.29707700  0.50000000  0.79707700  1
  Sn  Sn9  1  0.78384300  0.78384300  0.00000000  1
  Sn  Sn10  1  0.21615700  0.21615700  0.00000000  1
