# generated using pymatgen
data_Sr4RhO6
_symmetry_space_group_name_H-M   'P 1'
_cell_length_a   6.93252043
_cell_length_b   6.93252043
_cell_length_c   6.93252044
_cell_angle_alpha   90.26093331
_cell_angle_beta   90.26093331
_cell_angle_gamma   90.26093859
_symmetry_Int_Tables_number   1
_chemical_formula_structural   Sr4RhO6
_chemical_formula_sum   'Sr8 Rh2 O12'
_cell_volume   333.16542319
_cell_formula_units_Z   2
loop_
 _symmetry_equiv_pos_site_id
 _symmetry_equiv_pos_as_xyz
  1  'x, y, z'
loop_
 _atom_site_type_symbol
 _atom_site_label
 _atom_site_symmetry_multiplicity
 _atom_site_fract_x
 _atom_site_fract_y
 _atom_site_fract_z
 _atom_site_occupancy
  Sr  Sr0  1  0.88298500  0.61701500  0.25000000  1
  Sr  Sr1  1  0.11701500  0.38298500  0.75000000  1
  Sr  Sr2  1  0.25000000  0.88298500  0.61701500  1
  Sr  Sr3  1  0.61701500  0.25000000  0.88298500  1
  Sr  Sr4  1  0.75000000  0.75000000  0.75000000  1
  Sr  Sr5  1  0.38298500  0.75000000  0.11701500  1
  Sr  Sr6  1  0.25000000  0.25000000  0.25000000  1
  Sr  Sr7  1  0.75000000  0.11701500  0.38298500  1
  Rh  Rh8  1  0.00000000  0.00000000  0.00000000  1
  Rh  Rh9  1  0.50000000  0.50000000  0.50000000  1
  O  O10  1  0.44257100  0.57130500  0.78539800  1
  O  O11  1  0.57130500  0.78539800  0.44257100  1
  O  O12  1  0.94257100  0.28539800  0.07130500  1
  O  O13  1  0.55742900  0.42869500  0.21460200  1
  O  O14  1  0.21460200  0.55742900  0.42869500  1
  O  O15  1  0.05742900  0.71460200  0.92869500  1
  O  O16  1  0.78539800  0.44257100  0.57130500  1
  O  O17  1  0.71460200  0.92869500  0.05742900  1
  O  O18  1  0.07130500  0.94257100  0.28539800  1
  O  O19  1  0.92869500  0.05742900  0.71460200  1
  O  O20  1  0.42869500  0.21460200  0.55742900  1
  O  O21  1  0.28539800  0.07130500  0.94257100  1
