# generated using pymatgen
data_NbTe4I
_symmetry_space_group_name_H-M   'P 1'
_cell_length_a   16.13728900
_cell_length_b   8.16977000
_cell_length_c   13.47251319
_cell_angle_alpha   81.01278109
_cell_angle_beta   90.00000000
_cell_angle_gamma   90.00000000
_symmetry_Int_Tables_number   1
_chemical_formula_structural   NbTe4I
_chemical_formula_sum   'Nb8 Te32 I8'
_cell_volume   1754.38249116
_cell_formula_units_Z   8
loop_
 _symmetry_equiv_pos_site_id
 _symmetry_equiv_pos_as_xyz
  1  'x, y, z'
loop_
 _atom_site_type_symbol
 _atom_site_label
 _atom_site_symmetry_multiplicity
 _atom_site_fract_x
 _atom_site_fract_y
 _atom_site_fract_z
 _atom_site_occupancy
  Nb  Nb0  1  0.74926900  0.24624000  0.50446500  1
  Nb  Nb1  1  0.24415100  0.75487200  0.24437200  1
  Nb  Nb2  1  0.75584900  0.24512800  0.75562800  1
  Nb  Nb3  1  0.75073100  0.24624000  0.00446500  1
  Nb  Nb4  1  0.24926900  0.75376000  0.99553500  1
  Nb  Nb5  1  0.25073100  0.75376000  0.49553500  1
  Nb  Nb6  1  0.25584900  0.75487200  0.74437200  1
  Nb  Nb7  1  0.74415100  0.24512800  0.25562800  1
  Te  Te8  1  0.21925200  0.47402900  0.64720700  1
  Te  Te9  1  0.78074800  0.52597100  0.35279300  1
  Te  Te10  1  0.16763300  0.98952800  0.83490400  1
  Te  Te11  1  0.89092100  0.25676700  0.37546900  1
  Te  Te12  1  0.66763300  0.01047200  0.66509600  1
  Te  Te13  1  0.10907900  0.74323300  0.62453100  1
  Te  Te14  1  0.66451800  0.47733500  0.60312000  1
  Te  Te15  1  0.71925200  0.52597100  0.85279300  1
  Te  Te16  1  0.79056700  0.96714500  0.90874300  1
  Te  Te17  1  0.34004400  0.52292800  0.88595200  1
  Te  Te18  1  0.34272000  0.98259200  0.86008700  1
  Te  Te19  1  0.83548200  0.47733500  0.10312000  1
  Te  Te20  1  0.60907900  0.25676700  0.87546900  1
  Te  Te21  1  0.70943300  0.96714500  0.40874300  1
  Te  Te22  1  0.29056700  0.03285500  0.59125700  1
  Te  Te23  1  0.16451800  0.52266500  0.89688000  1
  Te  Te24  1  0.33548200  0.52266500  0.39688000  1
  Te  Te25  1  0.84004400  0.47707200  0.61404800  1
  Te  Te26  1  0.15728000  0.98259200  0.36008700  1
  Te  Te27  1  0.89916000  0.24001700  0.88535300  1
  Te  Te28  1  0.39092100  0.74323300  0.12453100  1
  Te  Te29  1  0.84272000  0.01740800  0.63991300  1
  Te  Te30  1  0.65728000  0.01740800  0.13991300  1
  Te  Te31  1  0.20943300  0.03285500  0.09125700  1
  Te  Te32  1  0.33236700  0.98952800  0.33490400  1
  Te  Te33  1  0.15995600  0.52292800  0.38595200  1
  Te  Te34  1  0.10084000  0.75998300  0.11464700  1
  Te  Te35  1  0.28074800  0.47402900  0.14720700  1
  Te  Te36  1  0.39916000  0.75998300  0.61464700  1
  Te  Te37  1  0.60084000  0.24001700  0.38535300  1
  Te  Te38  1  0.83236700  0.01047200  0.16509600  1
  Te  Te39  1  0.65995600  0.47707200  0.11404800  1
  I  I40  1  0.96943000  0.62003700  0.85622400  1
  I  I41  1  0.03466200  0.12544100  0.61732400  1
  I  I42  1  0.53057000  0.62003700  0.35622400  1
  I  I43  1  0.46533800  0.12544100  0.11732400  1
  I  I44  1  0.46943000  0.37996300  0.64377600  1
  I  I45  1  0.53466200  0.87455900  0.88267600  1
  I  I46  1  0.03057000  0.37996300  0.14377600  1
  I  I47  1  0.96533800  0.87455900  0.38267600  1
