# generated using pymatgen
data_Na2SrV3O9
_symmetry_space_group_name_H-M   'P 1'
_cell_length_a   15.21248000
_cell_length_b   5.51257400
_cell_length_c   10.25788011
_cell_angle_alpha   82.25751790
_cell_angle_beta   90.00000000
_cell_angle_gamma   90.00000000
_symmetry_Int_Tables_number   1
_chemical_formula_structural   Na2SrV3O9
_chemical_formula_sum   'Na8 Sr4 V12 O36'
_cell_volume   852.38285327
_cell_formula_units_Z   4
loop_
 _symmetry_equiv_pos_site_id
 _symmetry_equiv_pos_as_xyz
  1  'x, y, z'
loop_
 _atom_site_type_symbol
 _atom_site_label
 _atom_site_symmetry_multiplicity
 _atom_site_fract_x
 _atom_site_fract_y
 _atom_site_fract_z
 _atom_site_occupancy
  Na  Na0  1  0.29182500  0.76535800  0.53051100  1
  Na  Na1  1  0.93338500  0.75158400  0.97762800  1
  Na  Na2  1  0.20817500  0.76535800  0.03051100  1
  Na  Na3  1  0.79182500  0.23464200  0.96948900  1
  Na  Na4  1  0.06661500  0.24841600  0.02237200  1
  Na  Na5  1  0.43338500  0.24841600  0.52237200  1
  Na  Na6  1  0.56661500  0.75158400  0.47762800  1
  Na  Na7  1  0.70817500  0.23464200  0.46948900  1
  Sr  Sr8  1  0.11390900  0.25931700  0.46793500  1
  Sr  Sr9  1  0.38609100  0.25931700  0.96793500  1
  Sr  Sr10  1  0.88609100  0.74068300  0.53206500  1
  Sr  Sr11  1  0.61390900  0.74068300  0.03206500  1
  V  V12  1  0.40068500  0.70917100  0.21553400  1
  V  V13  1  0.09931500  0.70917100  0.71553400  1
  V  V14  1  0.95257100  0.21117100  0.70449700  1
  V  V15  1  0.76328400  0.78551000  0.25555600  1
  V  V16  1  0.90068500  0.29082900  0.28446600  1
  V  V17  1  0.23671600  0.21449000  0.74444400  1
  V  V18  1  0.73671600  0.78551000  0.75555600  1
  V  V19  1  0.45257100  0.78882900  0.79550300  1
  V  V20  1  0.54742900  0.21117100  0.20449700  1
  V  V21  1  0.04742900  0.78882900  0.29550300  1
  V  V22  1  0.26328400  0.21449000  0.24444400  1
  V  V23  1  0.59931500  0.29082900  0.78446600  1
  O  O24  1  0.08975100  0.65496600  0.87868600  1
  O  O25  1  0.68730400  0.51719700  0.84223900  1
  O  O26  1  0.84707000  0.74996800  0.77796600  1
  O  O27  1  0.06033800  0.82451100  0.12961400  1
  O  O28  1  0.98483500  0.03040500  0.35389700  1
  O  O29  1  0.41024900  0.65496600  0.37868600  1
  O  O30  1  0.91024900  0.34503400  0.12131400  1
  O  O31  1  0.15293000  0.25003200  0.22203400  1
  O  O32  1  0.01516500  0.96959500  0.64610300  1
  O  O33  1  0.35877400  0.74974200  0.88812300  1
  O  O34  1  0.85877400  0.25025800  0.61187700  1
  O  O35  1  0.64122600  0.25025800  0.11187700  1
  O  O36  1  0.65293000  0.74996800  0.27796600  1
  O  O37  1  0.48483500  0.96959500  0.14610300  1
  O  O38  1  0.31269600  0.48280300  0.15776100  1
  O  O39  1  0.01378600  0.48334500  0.64904800  1
  O  O40  1  0.58975100  0.34503400  0.62131400  1
  O  O41  1  0.80905500  0.03415700  0.32960200  1
  O  O42  1  0.81269600  0.51719700  0.34223900  1
  O  O43  1  0.48621400  0.48334500  0.14904800  1
  O  O44  1  0.28201300  0.18978400  0.40983800  1
  O  O45  1  0.93966200  0.17548900  0.87038600  1
  O  O46  1  0.71798700  0.81021600  0.59016200  1
  O  O47  1  0.21798700  0.18978400  0.90983800  1
  O  O48  1  0.98621400  0.51665500  0.35095200  1
  O  O49  1  0.51516500  0.03040500  0.85389700  1
  O  O50  1  0.43966200  0.82451100  0.62961400  1
  O  O51  1  0.30905500  0.96584300  0.17039800  1
  O  O52  1  0.14122600  0.74974200  0.38812300  1
  O  O53  1  0.78201300  0.81021600  0.09016200  1
  O  O54  1  0.19094500  0.96584300  0.67039800  1
  O  O55  1  0.18730400  0.48280300  0.65776100  1
  O  O56  1  0.56033800  0.17548900  0.37038600  1
  O  O57  1  0.51378600  0.51665500  0.85095200  1
  O  O58  1  0.34707000  0.25003200  0.72203400  1
  O  O59  1  0.69094500  0.03415700  0.82960200  1
