# generated using pymatgen
data_TcBr4
_symmetry_space_group_name_H-M   'P 1'
_cell_length_a   6.48269300
_cell_length_b   13.64983100
_cell_length_c   15.99596600
_cell_angle_alpha   90.00000000
_cell_angle_beta   90.00000000
_cell_angle_gamma   90.00000000
_symmetry_Int_Tables_number   1
_chemical_formula_structural   TcBr4
_chemical_formula_sum   'Tc8 Br32'
_cell_volume   1415.44566276
_cell_formula_units_Z   8
loop_
 _symmetry_equiv_pos_site_id
 _symmetry_equiv_pos_as_xyz
  1  'x, y, z'
loop_
 _atom_site_type_symbol
 _atom_site_label
 _atom_site_symmetry_multiplicity
 _atom_site_fract_x
 _atom_site_fract_y
 _atom_site_fract_z
 _atom_site_occupancy
  Tc  Tc0  1  0.40195000  0.62935400  0.18302300  1
  Tc  Tc1  1  0.59805000  0.37064600  0.81697700  1
  Tc  Tc2  1  0.90195000  0.87064600  0.81697700  1
  Tc  Tc3  1  0.59805000  0.12935400  0.31697700  1
  Tc  Tc4  1  0.40195000  0.87064600  0.68302300  1
  Tc  Tc5  1  0.09805000  0.12935400  0.18302300  1
  Tc  Tc6  1  0.90195000  0.62935400  0.31697700  1
  Tc  Tc7  1  0.09805000  0.37064600  0.68302300  1
  Br  Br8  1  0.27131200  0.47474500  0.80444500  1
  Br  Br9  1  0.76058600  0.98234000  0.91980200  1
  Br  Br10  1  0.54126200  0.75870400  0.58000500  1
  Br  Br11  1  0.07619100  0.73360500  0.19624600  1
  Br  Br12  1  0.76058600  0.51766000  0.41980200  1
  Br  Br13  1  0.23941400  0.48234000  0.58019800  1
  Br  Br14  1  0.04126200  0.74129600  0.41999500  1
  Br  Br15  1  0.23941400  0.01766000  0.08019800  1
  Br  Br16  1  0.92380900  0.23360500  0.30375400  1
  Br  Br17  1  0.95873800  0.25870400  0.58000500  1
  Br  Br18  1  0.92380900  0.26639500  0.80375400  1
  Br  Br19  1  0.07619100  0.76639500  0.69624600  1
  Br  Br20  1  0.72868800  0.52525500  0.19555500  1
  Br  Br21  1  0.45873800  0.25870400  0.91999500  1
  Br  Br22  1  0.57619100  0.73360500  0.30375400  1
  Br  Br23  1  0.26058600  0.51766000  0.08019800  1
  Br  Br24  1  0.42380900  0.23360500  0.19624600  1
  Br  Br25  1  0.45873800  0.24129600  0.41999500  1
  Br  Br26  1  0.22868800  0.97474500  0.80444500  1
  Br  Br27  1  0.54126200  0.74129600  0.08000500  1
  Br  Br28  1  0.04126200  0.75870400  0.91999500  1
  Br  Br29  1  0.73941400  0.01766000  0.41980200  1
  Br  Br30  1  0.95873800  0.24129600  0.08000500  1
  Br  Br31  1  0.27131200  0.02525500  0.30444500  1
  Br  Br32  1  0.77131200  0.47474500  0.69555500  1
  Br  Br33  1  0.57619100  0.76639500  0.80375400  1
  Br  Br34  1  0.72868800  0.97474500  0.69555500  1
  Br  Br35  1  0.77131200  0.02525500  0.19555500  1
  Br  Br36  1  0.22868800  0.52525500  0.30444500  1
  Br  Br37  1  0.26058600  0.98234000  0.58019800  1
  Br  Br38  1  0.73941400  0.48234000  0.91980200  1
  Br  Br39  1  0.42380900  0.26639500  0.69624600  1
