# generated using pymatgen
data_NaMg4V3O12
_symmetry_space_group_name_H-M   'P 1'
_cell_length_a   10.92927811
_cell_length_b   10.92927811
_cell_length_c   10.92927811
_cell_angle_alpha   142.79590676
_cell_angle_beta   142.79590676
_cell_angle_gamma   53.63170189
_symmetry_Int_Tables_number   1
_chemical_formula_structural   NaMg4V3O12
_chemical_formula_sum   'Na2 Mg8 V6 O24'
_cell_volume   474.22718362
_cell_formula_units_Z   2
loop_
 _symmetry_equiv_pos_site_id
 _symmetry_equiv_pos_as_xyz
  1  'x, y, z'
loop_
 _atom_site_type_symbol
 _atom_site_label
 _atom_site_symmetry_multiplicity
 _atom_site_fract_x
 _atom_site_fract_y
 _atom_site_fract_z
 _atom_site_occupancy
  Na  Na0  1  0.25000000  0.75000000  0.50000000  1
  Na  Na1  1  0.50000000  0.50000000  0.00000000  1
  Mg  Mg2  1  0.97573800  0.47573800  0.50000000  1
  Mg  Mg3  1  0.52426200  0.02426200  0.50000000  1
  Mg  Mg4  1  0.77426200  0.77426200  0.00000000  1
  Mg  Mg5  1  0.22573800  0.22573800  0.00000000  1
  Mg  Mg6  1  0.11652000  0.12500000  0.49152000  1
  Mg  Mg7  1  0.87500000  0.36652000  0.99152000  1
  Mg  Mg8  1  0.37500000  0.88348000  0.00848000  1
  Mg  Mg9  1  0.63348000  0.62500000  0.50848000  1
  V  V10  1  0.75000000  0.25000000  0.50000000  1
  V  V11  1  0.00000000  0.00000000  0.00000000  1
  V  V12  1  0.22352500  0.62500000  0.09852500  1
  V  V13  1  0.37500000  0.47352500  0.59852500  1
  V  V14  1  0.87500000  0.77647500  0.40147500  1
  V  V15  1  0.52647500  0.12500000  0.90147500  1
  O  O16  1  0.85076300  0.08746500  0.34686600  1
  O  O17  1  0.91253500  0.25940200  0.76329900  1
  O  O18  1  0.49610300  0.14923700  0.23670100  1
  O  O19  1  0.89923700  0.74610300  0.73670100  1
  O  O20  1  0.00940200  0.16253500  0.26329900  1
  O  O21  1  0.74059800  0.50389700  0.65313400  1
  O  O22  1  0.25389700  0.99059800  0.15313400  1
  O  O23  1  0.83746500  0.10076300  0.84686600  1
  O  O24  1  0.07617500  0.80648400  0.18651400  1
  O  O25  1  0.19351600  0.38003100  0.26969200  1
  O  O26  1  0.11033900  0.92382500  0.73030800  1
  O  O27  1  0.67382500  0.36033900  0.23030800  1
  O  O28  1  0.13003100  0.44351600  0.76969200  1
  O  O29  1  0.61996900  0.88966100  0.81348600  1
  O  O30  1  0.63966100  0.86996900  0.31348600  1
  O  O31  1  0.55648400  0.32617500  0.68651400  1
  O  O32  1  0.29932800  0.10974000  0.79149500  1
  O  O33  1  0.89026000  0.68175500  0.18958800  1
  O  O34  1  0.49216700  0.70067200  0.81041200  1
  O  O35  1  0.45067200  0.74216700  0.31041200  1
  O  O36  1  0.43175500  0.14026000  0.68958800  1
  O  O37  1  0.31824500  0.50783300  0.20850500  1
  O  O38  1  0.25783300  0.56824500  0.70850500  1
  O  O39  1  0.85974000  0.54932800  0.29149500  1
