# generated using pymatgen
data_Er2Ni12P7
_symmetry_space_group_name_H-M   'P 1'
_cell_length_a   9.02165129
_cell_length_b   9.02165129
_cell_length_c   3.66604400
_cell_angle_alpha   90.00000000
_cell_angle_beta   90.00000000
_cell_angle_gamma   119.99999482
_symmetry_Int_Tables_number   1
_chemical_formula_structural   Er2Ni12P7
_chemical_formula_sum   'Er2 Ni12 P7'
_cell_volume   258.40469534
_cell_formula_units_Z   1
loop_
 _symmetry_equiv_pos_site_id
 _symmetry_equiv_pos_as_xyz
  1  'x, y, z'
loop_
 _atom_site_type_symbol
 _atom_site_label
 _atom_site_symmetry_multiplicity
 _atom_site_fract_x
 _atom_site_fract_y
 _atom_site_fract_z
 _atom_site_occupancy
  Er  Er0  1  0.00000000  0.00000000  0.00000000  1
  Er  Er1  1  0.33333300  0.66666700  0.50000000  1
  Ni  Ni2  1  0.10111700  0.39418200  0.00000000  1
  Ni  Ni3  1  0.29306500  0.89888300  0.00000000  1
  Ni  Ni4  1  0.60581800  0.70693500  0.00000000  1
  Ni  Ni5  1  0.81941400  0.60811400  0.00000000  1
  Ni  Ni6  1  0.78870000  0.18058600  0.00000000  1
  Ni  Ni7  1  0.39188600  0.21130000  0.00000000  1
  Ni  Ni8  1  0.04886500  0.76473600  0.50000000  1
  Ni  Ni9  1  0.71587100  0.95113500  0.50000000  1
  Ni  Ni10  1  0.23526400  0.28412900  0.50000000  1
  Ni  Ni11  1  0.88372200  0.42747100  0.50000000  1
  Ni  Ni12  1  0.54374900  0.11627800  0.50000000  1
  Ni  Ni13  1  0.57252900  0.45625100  0.50000000  1
  P  P14  1  0.07457300  0.62714000  0.00000000  1
  P  P15  1  0.55256700  0.92542700  0.00000000  1
  P  P16  1  0.37286000  0.44743300  0.00000000  1
  P  P17  1  0.77866500  0.73942000  0.50000000  1
  P  P18  1  0.96075500  0.22133500  0.50000000  1
  P  P19  1  0.26058000  0.03924500  0.50000000  1
  P  P20  1  0.66666700  0.33333300  0.00000000  1
