# generated using pymatgen
data_BaVOF4
_symmetry_space_group_name_H-M   'P 1'
_cell_length_a   14.65521853
_cell_length_b   14.59190452
_cell_length_c   5.49843459
_cell_angle_alpha   79.81266842
_cell_angle_beta   78.51665345
_cell_angle_gamma   21.67067813
_symmetry_Int_Tables_number   1
_chemical_formula_structural   BaVOF4
_chemical_formula_sum   'Ba4 V4 O4 F16'
_cell_volume   425.39965004
_cell_formula_units_Z   4
loop_
 _symmetry_equiv_pos_site_id
 _symmetry_equiv_pos_as_xyz
  1  'x, y, z'
loop_
 _atom_site_type_symbol
 _atom_site_label
 _atom_site_symmetry_multiplicity
 _atom_site_fract_x
 _atom_site_fract_y
 _atom_site_fract_z
 _atom_site_occupancy
  Ba  Ba0  1  0.18108100  0.70984500  0.29298500  1
  Ba  Ba1  1  0.81608900  0.29298500  0.70984500  1
  Ba  Ba2  1  0.95701500  0.43391100  0.06891900  1
  Ba  Ba3  1  0.54015500  0.06891900  0.43391100  1
  V  V4  1  0.42581500  0.91948700  0.58424500  1
  V  V5  1  0.33051300  0.82418500  0.17954800  1
  V  V6  1  0.07045200  0.58424500  0.91948700  1
  V  V7  1  0.66575500  0.17954800  0.82418500  1
  O  O8  1  0.46781300  0.43839600  0.69124200  1
  O  O9  1  0.40254800  0.69124200  0.43839600  1
  O  O10  1  0.81160400  0.78218700  0.84745200  1
  O  O11  1  0.55875800  0.84745200  0.78218700  1
  F  F12  1  0.55487100  0.88315800  0.28401300  1
  F  F13  1  0.92892400  0.83406400  0.01882700  1
  F  F14  1  0.12971800  0.27251000  0.56304200  1
  F  F15  1  0.96598700  0.97204200  0.69512900  1
  F  F16  1  0.03473000  0.56304200  0.27251000  1
  F  F17  1  0.36684200  0.69512900  0.97204200  1
  F  F18  1  0.68695800  0.21527000  0.12028200  1
  F  F19  1  0.22109100  0.50352600  0.59580800  1
  F  F20  1  0.97749000  0.12028200  0.21527000  1
  F  F21  1  0.67957500  0.59580800  0.50352600  1
  F  F22  1  0.41593600  0.32107600  0.03181500  1
  F  F23  1  0.74647400  0.02890900  0.57042500  1
  F  F24  1  0.23117300  0.03181500  0.32107600  1
  F  F25  1  0.21818500  0.01882700  0.83406400  1
  F  F26  1  0.65419200  0.57042500  0.02890900  1
  F  F27  1  0.27795800  0.28401300  0.88315800  1
