# generated using pymatgen
data_RbMn6As7O24
_symmetry_space_group_name_H-M   'P 1'
_cell_length_a   28.22500300
_cell_length_b   5.63490400
_cell_length_c   6.92742250
_cell_angle_alpha   72.28040804
_cell_angle_beta   90.00000000
_cell_angle_gamma   90.00000000
_symmetry_Int_Tables_number   1
_chemical_formula_structural   RbMn6As7O24
_chemical_formula_sum   'Rb2 Mn12 As14 O48'
_cell_volume   1049.50225955
_cell_formula_units_Z   2
loop_
 _symmetry_equiv_pos_site_id
 _symmetry_equiv_pos_as_xyz
  1  'x, y, z'
loop_
 _atom_site_type_symbol
 _atom_site_label
 _atom_site_symmetry_multiplicity
 _atom_site_fract_x
 _atom_site_fract_y
 _atom_site_fract_z
 _atom_site_occupancy
  Rb  Rb0  1  0.25000000  0.30213200  0.10184800  1
  Rb  Rb1  1  0.75000000  0.69786800  0.89815200  1
  Mn  Mn2  1  0.54329000  0.18334800  0.81973700  1
  Mn  Mn3  1  0.59819600  0.78592400  0.59944400  1
  Mn  Mn4  1  0.31559500  0.89400500  0.74846100  1
  Mn  Mn5  1  0.81559500  0.10599500  0.25153900  1
  Mn  Mn6  1  0.18440500  0.89400500  0.74846100  1
  Mn  Mn7  1  0.45671000  0.81665200  0.18026300  1
  Mn  Mn8  1  0.68440500  0.10599500  0.25153900  1
  Mn  Mn9  1  0.09819600  0.21407600  0.40055600  1
  Mn  Mn10  1  0.90180400  0.78592400  0.59944400  1
  Mn  Mn11  1  0.40180400  0.21407600  0.40055600  1
  Mn  Mn12  1  0.04329000  0.81665200  0.18026300  1
  Mn  Mn13  1  0.95671000  0.18334800  0.81973700  1
  As  As14  1  0.25000000  0.47523700  0.56679700  1
  As  As15  1  0.52264500  0.27431700  0.30165000  1
  As  As16  1  0.38702200  0.31553400  0.87348600  1
  As  As17  1  0.47735500  0.72568300  0.69835000  1
  As  As18  1  0.02264500  0.72568300  0.69835000  1
  As  As19  1  0.75000000  0.52476300  0.43320300  1
  As  As20  1  0.83663700  0.22622900  0.72626700  1
  As  As21  1  0.88702200  0.68446600  0.12651400  1
  As  As22  1  0.61297800  0.68446600  0.12651400  1
  As  As23  1  0.33663700  0.77377100  0.27373300  1
  As  As24  1  0.66336300  0.22622900  0.72626700  1
  As  As25  1  0.16336300  0.77377100  0.27373300  1
  As  As26  1  0.11297800  0.31553400  0.87348600  1
  As  As27  1  0.97735500  0.27431700  0.30165000  1
  O  O28  1  0.25000000  0.17020900  0.70353600  1
  O  O29  1  0.11305000  0.60816200  0.26854800  1
  O  O30  1  0.16318000  0.95678400  0.43129300  1
  O  O31  1  0.02940900  0.41808700  0.32475200  1
  O  O32  1  0.51992200  0.11171200  0.13014500  1
  O  O33  1  0.04772600  0.89356200  0.47349200  1
  O  O34  1  0.75000000  0.82979100  0.29646400  1
  O  O35  1  0.25000000  0.69257500  0.69144100  1
  O  O36  1  0.95227400  0.10643800  0.52650800  1
  O  O37  1  0.40128200  0.12089000  0.11041000  1
  O  O38  1  0.70072800  0.49565300  0.59464300  1
  O  O39  1  0.45227400  0.89356200  0.47349200  1
  O  O40  1  0.80704100  0.09853600  0.94529000  1
  O  O41  1  0.09871800  0.12089000  0.11041000  1
  O  O42  1  0.01992200  0.88828800  0.86985500  1
  O  O43  1  0.20072800  0.50434700  0.40535700  1
  O  O44  1  0.66318000  0.04321600  0.56870700  1
  O  O45  1  0.90128200  0.87911000  0.88959000  1
  O  O46  1  0.69295900  0.09853600  0.94529000  1
  O  O47  1  0.29927200  0.50434700  0.40535700  1
  O  O48  1  0.94387700  0.55151500  0.20190500  1
  O  O49  1  0.44387700  0.44848500  0.79809500  1
  O  O50  1  0.47059100  0.41808700  0.32475200  1
  O  O51  1  0.30704100  0.90146400  0.05471000  1
  O  O52  1  0.62362800  0.85190000  0.29182800  1
  O  O53  1  0.05612300  0.44848500  0.79809500  1
  O  O54  1  0.61305000  0.39183800  0.73145200  1
  O  O55  1  0.88695000  0.39183800  0.73145200  1
  O  O56  1  0.55612300  0.55151500  0.20190500  1
  O  O57  1  0.87637200  0.85190000  0.29182800  1
  O  O58  1  0.84384500  0.47781100  0.13005800  1
  O  O59  1  0.19295900  0.90146400  0.05471000  1
  O  O60  1  0.97059100  0.58191300  0.67524800  1
  O  O61  1  0.12362800  0.14810000  0.70817200  1
  O  O62  1  0.59871800  0.87911000  0.88959000  1
  O  O63  1  0.48007800  0.88828800  0.86985500  1
  O  O64  1  0.83682000  0.04321600  0.56870700  1
  O  O65  1  0.65615500  0.47781100  0.13005800  1
  O  O66  1  0.33682000  0.95678400  0.43129300  1
  O  O67  1  0.79927200  0.49565300  0.59464300  1
  O  O68  1  0.54772600  0.10643800  0.52650800  1
  O  O69  1  0.34384500  0.52218900  0.86994200  1
  O  O70  1  0.52940900  0.58191300  0.67524800  1
  O  O71  1  0.37637200  0.14810000  0.70817200  1
  O  O72  1  0.98007800  0.11171200  0.13014500  1
  O  O73  1  0.75000000  0.30742500  0.30855900  1
  O  O74  1  0.38695000  0.60816200  0.26854800  1
  O  O75  1  0.15615500  0.52218900  0.86994200  1
