# generated using pymatgen
data_BaV2(P2O7)2
_symmetry_space_group_name_H-M   'P 1'
_cell_length_a   6.26197366
_cell_length_b   12.58012869
_cell_length_c   8.06332339
_cell_angle_alpha   102.16835845
_cell_angle_beta   101.24456567
_cell_angle_gamma   77.31123211
_symmetry_Int_Tables_number   1
_chemical_formula_structural   BaV2(P2O7)2
_chemical_formula_sum   'Ba2 V4 P8 O28'
_cell_volume   598.35496302
_cell_formula_units_Z   2
loop_
 _symmetry_equiv_pos_site_id
 _symmetry_equiv_pos_as_xyz
  1  'x, y, z'
loop_
 _atom_site_type_symbol
 _atom_site_label
 _atom_site_symmetry_multiplicity
 _atom_site_fract_x
 _atom_site_fract_y
 _atom_site_fract_z
 _atom_site_occupancy
  Ba  Ba0  1  0.99998700  0.00005400  0.00006300  1
  Ba  Ba1  1  0.50006800  0.49997900  0.00009600  1
  V  V2  1  0.53333600  0.84617900  0.23062800  1
  V  V3  1  0.46668000  0.15379600  0.76935300  1
  V  V4  1  0.03347900  0.34626500  0.23049100  1
  V  V5  1  0.96670600  0.65369100  0.76951200  1
  P  P6  1  0.94977300  0.23610600  0.81006300  1
  P  P7  1  0.44986300  0.73597300  0.81026300  1
  P  P8  1  0.55020200  0.26405000  0.18979700  1
  P  P9  1  0.05009800  0.76394800  0.18992100  1
  P  P10  1  0.35714700  0.12291500  0.33361300  1
  P  P11  1  0.85734700  0.62268800  0.33371400  1
  P  P12  1  0.14268400  0.37726900  0.66628400  1
  P  P13  1  0.64289600  0.87705300  0.66638300  1
  O  O14  1  0.60145500  0.17673600  0.03176300  1
  O  O15  1  0.10146400  0.67667900  0.03201100  1
  O  O16  1  0.89833900  0.32336400  0.96801700  1
  O  O17  1  0.39855200  0.82325400  0.96834900  1
  O  O18  1  0.41865100  0.01034400  0.21919900  1
  O  O19  1  0.91920300  0.51019900  0.21908300  1
  O  O20  1  0.08112200  0.48976600  0.78086900  1
  O  O21  1  0.58162800  0.98972800  0.78055100  1
  O  O22  1  0.77307900  0.16511800  0.73954800  1
  O  O23  1  0.27308900  0.66506900  0.73952000  1
  O  O24  1  0.72694000  0.33499200  0.26042800  1
  O  O25  1  0.22679200  0.83494400  0.26028000  1
  O  O26  1  0.54138300  0.19735400  0.33827100  1
  O  O27  1  0.04137600  0.69721700  0.33843700  1
  O  O28  1  0.95848300  0.30285900  0.66160500  1
  O  O29  1  0.45843500  0.80278400  0.66190200  1
  O  O30  1  0.35664200  0.11678600  0.51845700  1
  O  O31  1  0.85654100  0.61634900  0.51849600  1
  O  O32  1  0.14347400  0.38357800  0.48153200  1
  O  O33  1  0.64323300  0.88297000  0.48146400  1
  O  O34  1  0.36550600  0.32052700  0.75870100  1
  O  O35  1  0.86575400  0.82020600  0.75858100  1
  O  O36  1  0.13421600  0.17978200  0.24147600  1
  O  O37  1  0.63443600  0.67937700  0.24122200  1
  O  O38  1  0.32567200  0.34345500  0.15763800  1
  O  O39  1  0.82551300  0.84337800  0.15801200  1
  O  O40  1  0.17436100  0.15667200  0.84208700  1
  O  O41  1  0.67439400  0.65655000  0.84232200  1
