# generated using pymatgen
data_BaNiF4
_symmetry_space_group_name_H-M   'P 1'
_cell_length_a   7.67984400
_cell_length_b   7.67984400
_cell_length_c   5.90878600
_cell_angle_alpha   90.00000000
_cell_angle_beta   90.00000000
_cell_angle_gamma   148.22837624
_symmetry_Int_Tables_number   1
_chemical_formula_structural   BaNiF4
_chemical_formula_sum   'Ba2 Ni2 F8'
_cell_volume   183.49749898
_cell_formula_units_Z   2
loop_
 _symmetry_equiv_pos_site_id
 _symmetry_equiv_pos_as_xyz
  1  'x, y, z'
loop_
 _atom_site_type_symbol
 _atom_site_label
 _atom_site_symmetry_multiplicity
 _atom_site_fract_x
 _atom_site_fract_y
 _atom_site_fract_z
 _atom_site_occupancy
  Ba  Ba0  1  0.14719000  0.85281000  0.04171900  1
  Ba  Ba1  1  0.85281000  0.14719000  0.54171900  1
  Ni  Ni2  1  0.41372000  0.58628000  0.99960600  1
  Ni  Ni3  1  0.58628000  0.41372000  0.49960600  1
  F  F4  1  0.33602200  0.66397800  0.27203000  1
  F  F5  1  0.07887700  0.92112300  0.48941500  1
  F  F6  1  0.47194600  0.52805400  0.68082200  1
  F  F7  1  0.52805400  0.47194600  0.18082200  1
  F  F8  1  0.30209100  0.69790900  0.80670800  1
  F  F9  1  0.69790900  0.30209100  0.30670800  1
  F  F10  1  0.66397800  0.33602200  0.77203000  1
  F  F11  1  0.92112300  0.07887700  0.98941500  1
