# generated using pymatgen
data_Li2Co3(SeO3)4
_symmetry_space_group_name_H-M   'P 1'
_cell_length_a   9.34648600
_cell_length_b   7.86681900
_cell_length_c   8.28138412
_cell_angle_alpha   64.54013486
_cell_angle_beta   90.00000000
_cell_angle_gamma   90.00000000
_symmetry_Int_Tables_number   1
_chemical_formula_structural   Li2Co3(SeO3)4
_chemical_formula_sum   'Li4 Co6 Se8 O24'
_cell_volume   549.77333134
_cell_formula_units_Z   2
loop_
 _symmetry_equiv_pos_site_id
 _symmetry_equiv_pos_as_xyz
  1  'x, y, z'
loop_
 _atom_site_type_symbol
 _atom_site_label
 _atom_site_symmetry_multiplicity
 _atom_site_fract_x
 _atom_site_fract_y
 _atom_site_fract_z
 _atom_site_occupancy
  Li  Li0  1  0.63905800  0.07528900  0.09933700  1
  Li  Li1  1  0.36094200  0.92471100  0.90066300  1
  Li  Li2  1  0.86094200  0.57528900  0.09933700  1
  Li  Li3  1  0.13905800  0.42471100  0.90066300  1
  Co  Co4  1  0.99368200  0.17142100  0.29654700  1
  Co  Co5  1  0.00631800  0.82857900  0.70345300  1
  Co  Co6  1  0.49368200  0.32857900  0.70345300  1
  Co  Co7  1  0.00000000  0.00000000  0.00000000  1
  Co  Co8  1  0.50000000  0.50000000  0.00000000  1
  Co  Co9  1  0.50631800  0.67142100  0.29654700  1
  Se  Se10  1  0.82747700  0.73561300  0.40119300  1
  Se  Se11  1  0.68400600  0.87468600  0.82408700  1
  Se  Se12  1  0.18400600  0.62531400  0.17591300  1
  Se  Se13  1  0.31599400  0.12531400  0.17591300  1
  Se  Se14  1  0.67252300  0.23561300  0.40119300  1
  Se  Se15  1  0.32747700  0.76438700  0.59880700  1
  Se  Se16  1  0.17252300  0.26438700  0.59880700  1
  Se  Se17  1  0.81599400  0.37468600  0.82408700  1
  O  O18  1  0.15277500  0.81544800  0.96769600  1
  O  O19  1  0.58181000  0.26276300  0.21104100  1
  O  O20  1  0.91819000  0.76276300  0.21104100  1
  O  O21  1  0.86824700  0.92146700  0.83510100  1
  O  O22  1  0.89632800  0.55308200  0.85834400  1
  O  O23  1  0.66221200  0.83672100  0.32177400  1
  O  O24  1  0.36824700  0.57853300  0.16489900  1
  O  O25  1  0.33778800  0.16327900  0.67822600  1
  O  O26  1  0.08181000  0.23723700  0.78895900  1
  O  O27  1  0.16221200  0.66327900  0.67822600  1
  O  O28  1  0.39632800  0.94691800  0.14165600  1
  O  O29  1  0.90056100  0.90870800  0.45592300  1
  O  O30  1  0.10367200  0.44691800  0.14165600  1
  O  O31  1  0.59943900  0.40870800  0.45592300  1
  O  O32  1  0.63175300  0.42146700  0.83510100  1
  O  O33  1  0.41819000  0.73723700  0.78895900  1
  O  O34  1  0.34722500  0.31544800  0.96769600  1
  O  O35  1  0.13175300  0.07853300  0.16489900  1
  O  O36  1  0.84722500  0.18455200  0.03230400  1
  O  O37  1  0.40056100  0.59129200  0.54407700  1
  O  O38  1  0.60367200  0.05308200  0.85834400  1
  O  O39  1  0.83778800  0.33672100  0.32177400  1
  O  O40  1  0.65277500  0.68455200  0.03230400  1
  O  O41  1  0.09943900  0.09129200  0.54407700  1
