# generated using pymatgen
data_Li2MgMn3O8
_symmetry_space_group_name_H-M   'P 1'
_cell_length_a   8.32995200
_cell_length_b   8.32995200
_cell_length_c   8.32995200
_cell_angle_alpha   90.00000000
_cell_angle_beta   90.00000000
_cell_angle_gamma   90.00000000
_symmetry_Int_Tables_number   1
_chemical_formula_structural   Li2MgMn3O8
_chemical_formula_sum   'Li8 Mg4 Mn12 O32'
_cell_volume   577.99954506
_cell_formula_units_Z   4
loop_
 _symmetry_equiv_pos_site_id
 _symmetry_equiv_pos_as_xyz
  1  'x, y, z'
loop_
 _atom_site_type_symbol
 _atom_site_label
 _atom_site_symmetry_multiplicity
 _atom_site_fract_x
 _atom_site_fract_y
 _atom_site_fract_z
 _atom_site_occupancy
  Li  Li0  1  0.49674200  0.99674200  0.50325800  1
  Li  Li1  1  0.24674200  0.24674200  0.24674200  1
  Li  Li2  1  0.25325800  0.75325800  0.74674200  1
  Li  Li3  1  0.74674200  0.25325800  0.75325800  1
  Li  Li4  1  0.99674200  0.50325800  0.49674200  1
  Li  Li5  1  0.75325800  0.74674200  0.25325800  1
  Li  Li6  1  0.50325800  0.49674200  0.99674200  1
  Li  Li7  1  0.00325800  0.00325800  0.00325800  1
  Mg  Mg8  1  0.37500000  0.12500000  0.87500000  1
  Mg  Mg9  1  0.12500000  0.87500000  0.37500000  1
  Mg  Mg10  1  0.87500000  0.37500000  0.12500000  1
  Mg  Mg11  1  0.62500000  0.62500000  0.62500000  1
  Mn  Mn12  1  0.12500000  0.38013600  0.86986400  1
  Mn  Mn13  1  0.37500000  0.61986400  0.36986400  1
  Mn  Mn14  1  0.63013600  0.87500000  0.88013600  1
  Mn  Mn15  1  0.61986400  0.36986400  0.37500000  1
  Mn  Mn16  1  0.38013600  0.86986400  0.12500000  1
  Mn  Mn17  1  0.88013600  0.63013600  0.87500000  1
  Mn  Mn18  1  0.87500000  0.88013600  0.63013600  1
  Mn  Mn19  1  0.62500000  0.11986400  0.13013600  1
  Mn  Mn20  1  0.11986400  0.13013600  0.62500000  1
  Mn  Mn21  1  0.13013600  0.62500000  0.11986400  1
  Mn  Mn22  1  0.36986400  0.37500000  0.61986400  1
  Mn  Mn23  1  0.86986400  0.12500000  0.38013600  1
  O  O24  1  0.12496400  0.39266400  0.09921100  1
  O  O25  1  0.60733600  0.59921100  0.37503600  1
  O  O26  1  0.39266400  0.09921100  0.12496400  1
  O  O27  1  0.62496400  0.10733600  0.90078900  1
  O  O28  1  0.09921100  0.12496400  0.39266400  1
  O  O29  1  0.36564600  0.63435400  0.13435400  1
  O  O30  1  0.15078900  0.85733600  0.12503600  1
  O  O31  1  0.87503600  0.89266400  0.40078900  1
  O  O32  1  0.40078900  0.87503600  0.89266400  1
  O  O33  1  0.59921100  0.37503600  0.60733600  1
  O  O34  1  0.38435400  0.38435400  0.38435400  1
  O  O35  1  0.37496400  0.84921100  0.35733600  1
  O  O36  1  0.90078900  0.62496400  0.10733600  1
  O  O37  1  0.85733600  0.12503600  0.15078900  1
  O  O38  1  0.89266400  0.40078900  0.87503600  1
  O  O39  1  0.14266400  0.62503600  0.34921100  1
  O  O40  1  0.65078900  0.64266400  0.87496400  1
  O  O41  1  0.61564600  0.88435400  0.11564600  1
  O  O42  1  0.35733600  0.37496400  0.84921100  1
  O  O43  1  0.87496400  0.65078900  0.64266400  1
  O  O44  1  0.62503600  0.34921100  0.14266400  1
  O  O45  1  0.63435400  0.13435400  0.36564600  1
  O  O46  1  0.84921100  0.35733600  0.37496400  1
  O  O47  1  0.88435400  0.11564600  0.61564600  1
  O  O48  1  0.11564600  0.61564600  0.88435400  1
  O  O49  1  0.37503600  0.60733600  0.59921100  1
  O  O50  1  0.10733600  0.90078900  0.62496400  1
  O  O51  1  0.34921100  0.14266400  0.62503600  1
  O  O52  1  0.13435400  0.36564600  0.63435400  1
  O  O53  1  0.64266400  0.87496400  0.65078900  1
  O  O54  1  0.86564600  0.86564600  0.86564600  1
  O  O55  1  0.12503600  0.15078900  0.85733600  1
