# generated using pymatgen
data_GdH3
_symmetry_space_group_name_H-M   'P 1'
_cell_length_a   6.43166811
_cell_length_b   6.43166811
_cell_length_c   6.68136300
_cell_angle_alpha   90.00000000
_cell_angle_beta   90.00000000
_cell_angle_gamma   120.00000110
_symmetry_Int_Tables_number   1
_chemical_formula_structural   GdH3
_chemical_formula_sum   'Gd6 H18'
_cell_volume   239.35524325
_cell_formula_units_Z   6
loop_
 _symmetry_equiv_pos_site_id
 _symmetry_equiv_pos_as_xyz
  1  'x, y, z'
loop_
 _atom_site_type_symbol
 _atom_site_label
 _atom_site_symmetry_multiplicity
 _atom_site_fract_x
 _atom_site_fract_y
 _atom_site_fract_z
 _atom_site_occupancy
  Gd  Gd0  1  0.33657500  0.00000000  0.25000000  1
  Gd  Gd1  1  0.00000000  0.33657500  0.25000000  1
  Gd  Gd2  1  0.66342500  0.66342500  0.25000000  1
  Gd  Gd3  1  0.66342500  0.00000000  0.75000000  1
  Gd  Gd4  1  0.00000000  0.66342500  0.75000000  1
  Gd  Gd5  1  0.33657500  0.33657500  0.75000000  1
  H  H6  1  0.00000000  0.00000000  0.25000000  1
  H  H7  1  0.00000000  0.00000000  0.75000000  1
  H  H8  1  0.33333300  0.66666700  0.18043600  1
  H  H9  1  0.66666700  0.33333300  0.31956400  1
  H  H10  1  0.66666700  0.33333300  0.81956400  1
  H  H11  1  0.33333300  0.66666700  0.68043600  1
  H  H12  1  0.34871400  0.32107300  0.09251700  1
  H  H13  1  0.67892700  0.02764100  0.09251700  1
  H  H14  1  0.97235900  0.65128600  0.09251700  1
  H  H15  1  0.02764100  0.67892700  0.40748300  1
  H  H16  1  0.65128600  0.97235900  0.40748300  1
  H  H17  1  0.32107300  0.34871400  0.40748300  1
  H  H18  1  0.65128600  0.67892700  0.90748300  1
  H  H19  1  0.32107300  0.97235900  0.90748300  1
  H  H20  1  0.02764100  0.34871400  0.90748300  1
  H  H21  1  0.97235900  0.32107300  0.59251700  1
  H  H22  1  0.34871400  0.02764100  0.59251700  1
  H  H23  1  0.67892700  0.65128600  0.59251700  1
