# generated using pymatgen
data_Ni3B7IO13
_symmetry_space_group_name_H-M   'P 1'
_cell_length_a   8.59676666
_cell_length_b   8.59676666
_cell_length_c   8.59676666
_cell_angle_alpha   60.00000000
_cell_angle_beta   60.00000000
_cell_angle_gamma   60.00000000
_symmetry_Int_Tables_number   1
_chemical_formula_structural   Ni3B7IO13
_chemical_formula_sum   'Ni6 B14 I2 O26'
_cell_volume   449.25241323
_cell_formula_units_Z   2
loop_
 _symmetry_equiv_pos_site_id
 _symmetry_equiv_pos_as_xyz
  1  'x, y, z'
loop_
 _atom_site_type_symbol
 _atom_site_label
 _atom_site_symmetry_multiplicity
 _atom_site_fract_x
 _atom_site_fract_y
 _atom_site_fract_z
 _atom_site_occupancy
  Ni  Ni0  1  0.50000000  0.00000000  0.00000000  1
  Ni  Ni1  1  0.00000000  0.50000000  0.00000000  1
  Ni  Ni2  1  0.50000000  0.00000000  0.50000000  1
  Ni  Ni3  1  0.50000000  0.50000000  0.00000000  1
  Ni  Ni4  1  0.00000000  0.00000000  0.50000000  1
  Ni  Ni5  1  0.00000000  0.50000000  0.50000000  1
  B  B6  1  0.25000000  0.75000000  0.25000000  1
  B  B7  1  0.25000000  0.75000000  0.75000000  1
  B  B8  1  0.75000000  0.25000000  0.25000000  1
  B  B9  1  0.75000000  0.75000000  0.25000000  1
  B  B10  1  0.25000000  0.25000000  0.75000000  1
  B  B11  1  0.75000000  0.25000000  0.75000000  1
  B  B12  1  0.08027000  0.08027000  0.08027000  1
  B  B13  1  0.25918900  0.58027000  0.58027000  1
  B  B14  1  0.58027000  0.25918900  0.58027000  1
  B  B15  1  0.58027000  0.58027000  0.25918900  1
  B  B16  1  0.08027000  0.75918900  0.08027000  1
  B  B17  1  0.08027000  0.08027000  0.75918900  1
  B  B18  1  0.75918900  0.08027000  0.08027000  1
  B  B19  1  0.58027000  0.58027000  0.58027000  1
  I  I20  1  0.25000000  0.25000000  0.25000000  1
  I  I21  1  0.75000000  0.75000000  0.75000000  1
  O  O22  1  0.00000000  0.00000000  0.00000000  1
  O  O23  1  0.50000000  0.50000000  0.50000000  1
  O  O24  1  0.10149500  0.93617800  0.25881400  1
  O  O25  1  0.20351300  0.75881400  0.60149500  1
  O  O26  1  0.75881400  0.20351300  0.43617800  1
  O  O27  1  0.43617800  0.75881400  0.20351300  1
  O  O28  1  0.20351300  0.60149500  0.43617800  1
  O  O29  1  0.75881400  0.60149500  0.20351300  1
  O  O30  1  0.43617800  0.20351300  0.60149500  1
  O  O31  1  0.25881400  0.10149500  0.93617800  1
  O  O32  1  0.93617800  0.25881400  0.10149500  1
  O  O33  1  0.10149500  0.70351300  0.93617800  1
  O  O34  1  0.10149500  0.25881400  0.70351300  1
  O  O35  1  0.93617800  0.70351300  0.25881400  1
  O  O36  1  0.70351300  0.10149500  0.25881400  1
  O  O37  1  0.70351300  0.93617800  0.10149500  1
  O  O38  1  0.25881400  0.93617800  0.70351300  1
  O  O39  1  0.93617800  0.10149500  0.70351300  1
  O  O40  1  0.25881400  0.70351300  0.10149500  1
  O  O41  1  0.70351300  0.25881400  0.93617800  1
  O  O42  1  0.60149500  0.20351300  0.75881400  1
  O  O43  1  0.60149500  0.43617800  0.20351300  1
  O  O44  1  0.20351300  0.43617800  0.75881400  1
  O  O45  1  0.60149500  0.75881400  0.43617800  1
  O  O46  1  0.43617800  0.60149500  0.75881400  1
  O  O47  1  0.75881400  0.43617800  0.60149500  1
