# generated using pymatgen
data_NaLi3GeO4
_symmetry_space_group_name_H-M   'P 1'
_cell_length_a   10.23593075
_cell_length_b   10.23593075
_cell_length_c   10.23593075
_cell_angle_alpha   113.62647814
_cell_angle_beta   113.62647814
_cell_angle_gamma   101.44662978
_symmetry_Int_Tables_number   1
_chemical_formula_structural   NaLi3GeO4
_chemical_formula_sum   'Na8 Li24 Ge8 O32'
_cell_volume   813.67825820
_cell_formula_units_Z   8
loop_
 _symmetry_equiv_pos_site_id
 _symmetry_equiv_pos_as_xyz
  1  'x, y, z'
loop_
 _atom_site_type_symbol
 _atom_site_label
 _atom_site_symmetry_multiplicity
 _atom_site_fract_x
 _atom_site_fract_y
 _atom_site_fract_z
 _atom_site_occupancy
  Na  Na0  1  0.55590000  0.01819300  0.01214200  1
  Na  Na1  1  0.19410000  0.23180700  0.48785800  1
  Na  Na2  1  0.98180700  0.99394900  0.53770700  1
  Na  Na3  1  0.00605100  0.54375800  0.98785800  1
  Na  Na4  1  0.74394900  0.70624200  0.51214200  1
  Na  Na5  1  0.29375800  0.80590000  0.03770700  1
  Na  Na6  1  0.76819300  0.25605100  0.96229300  1
  Na  Na7  1  0.45624200  0.44410000  0.46229300  1
  Li  Li8  1  0.41007900  0.58785700  0.13562000  1
  Li  Li9  1  0.44718700  0.31126500  0.14751000  1
  Li  Li10  1  0.22352900  0.09013200  0.19070800  1
  Li  Li11  1  0.85057600  0.21717900  0.69070800  1
  Li  Li12  1  0.68873500  0.83624500  0.13592200  1
  Li  Li13  1  0.90986800  0.10057600  0.13339700  1
  Li  Li14  1  0.30281300  0.93873500  0.35249000  1
  Li  Li15  1  0.72554100  0.58992100  0.17777800  1
  Li  Li16  1  0.06126500  0.41375500  0.36407800  1
  Li  Li17  1  0.33992100  0.66214300  0.36438000  1
  Li  Li18  1  0.41214300  0.54776300  0.82222200  1
  Li  Li19  1  0.96717900  0.77647100  0.86660300  1
  Li  Li20  1  0.70032300  0.55281300  0.86407800  1
  Li  Li21  1  0.45223700  0.27445900  0.86438000  1
  Li  Li22  1  0.89942400  0.03282100  0.80929200  1
  Li  Li23  1  0.04967700  0.69718700  0.63592200  1
  Li  Li24  1  0.29776300  0.97554100  0.63562000  1
  Li  Li25  1  0.16375500  0.29967700  0.85249000  1
  Li  Li26  1  0.52647100  0.15986800  0.30929200  1
  Li  Li27  1  0.02445900  0.66007900  0.32222200  1
  Li  Li28  1  0.84013200  0.14942400  0.36660300  1
  Li  Li29  1  0.33785700  0.70223700  0.67777800  1
  Li  Li30  1  0.58624500  0.95032300  0.64751000  1
  Li  Li31  1  0.78282100  0.47352900  0.63339700  1
  Ge  Ge32  1  0.21567600  0.00422500  0.85723800  1
  Ge  Ge33  1  0.75422500  0.39698700  0.28854800  1
  Ge  Ge34  1  0.14698700  0.35843900  0.14276200  1
  Ge  Ge35  1  0.53432400  0.24577500  0.64276200  1
  Ge  Ge36  1  0.60301300  0.89156100  0.35723800  1
  Ge  Ge37  1  0.99577500  0.85301300  0.21145200  1
  Ge  Ge38  1  0.10843900  0.46567600  0.71145200  1
  Ge  Ge39  1  0.64156100  0.78432400  0.78854800  1
  O  O40  1  0.47951100  0.72764700  0.58970400  1
  O  O41  1  0.73616300  0.65903200  0.74580800  1
  O  O42  1  0.50538800  0.10578800  0.70140600  1
  O  O43  1  0.64897600  0.38011400  0.38785200  1
  O  O44  1  0.75773800  0.98887600  0.88785200  1
  O  O45  1  0.01112400  0.89897600  0.76886200  1
  O  O46  1  0.01383700  0.59096800  0.75419200  1
  O  O47  1  0.99226200  0.26112400  0.61214800  1
  O  O48  1  0.27235300  0.86205700  0.75186400  1
  O  O49  1  0.73887600  0.35102400  0.73113800  1
  O  O50  1  0.27048900  0.52235300  0.91029600  1
  O  O51  1  0.83677600  0.25964500  0.24580800  1
  O  O52  1  0.19601800  0.49461200  0.60040000  1
  O  O53  1  0.40438200  0.80398200  0.29859400  1
  O  O54  1  0.11019300  0.52048900  0.24813600  1
  O  O55  1  0.61988600  0.00773800  0.26886200  1
  O  O56  1  0.10102400  0.86988600  0.11214800  1
  O  O57  1  0.24461200  0.14421200  0.79859400  1
  O  O58  1  0.34561800  0.44601800  0.20140600  1
  O  O59  1  0.34096800  0.08677600  0.07713100  1
  O  O60  1  0.55398200  0.75538800  0.89960000  1
  O  O61  1  0.61205700  0.36019300  0.08970400  1
  O  O62  1  0.89421200  0.59561800  0.39960000  1
  O  O63  1  0.63980700  0.72951100  0.25186400  1
  O  O64  1  0.40903200  0.16322400  0.42286900  1
  O  O65  1  0.13011400  0.24226200  0.23113800  1
  O  O66  1  0.47764700  0.38794300  0.74813600  1
  O  O67  1  0.00964500  0.26383700  0.92286900  1
  O  O68  1  0.13794300  0.88980700  0.41029600  1
  O  O69  1  0.74035500  0.98616300  0.57713100  1
  O  O70  1  0.85578800  0.65438200  0.10040000  1
  O  O71  1  0.91322400  0.99035500  0.25419200  1
