# generated using pymatgen
data_Mo(PO3)5
_symmetry_space_group_name_H-M   'P 1'
_cell_length_a   14.01765800
_cell_length_b   5.33455100
_cell_length_c   9.02242274
_cell_angle_alpha   76.25083421
_cell_angle_beta   90.00000000
_cell_angle_gamma   90.00000000
_symmetry_Int_Tables_number   1
_chemical_formula_structural   Mo(PO3)5
_chemical_formula_sum   'Mo2 P10 O30'
_cell_volume   655.34539083
_cell_formula_units_Z   2
loop_
 _symmetry_equiv_pos_site_id
 _symmetry_equiv_pos_as_xyz
  1  'x, y, z'
loop_
 _atom_site_type_symbol
 _atom_site_label
 _atom_site_symmetry_multiplicity
 _atom_site_fract_x
 _atom_site_fract_y
 _atom_site_fract_z
 _atom_site_occupancy
  Mo  Mo0  1  0.00000000  0.50000000  0.50000000  1
  Mo  Mo1  1  0.50000000  0.50000000  0.50000000  1
  P  P2  1  0.64254500  0.00745500  0.47556700  1
  P  P3  1  0.42171500  0.65013800  0.82024300  1
  P  P4  1  0.07828500  0.65013800  0.82024300  1
  P  P5  1  0.14254500  0.99254500  0.52443300  1
  P  P6  1  0.25000000  0.48510100  0.00835700  1
  P  P7  1  0.57828500  0.34986200  0.17975700  1
  P  P8  1  0.92171500  0.34986200  0.17975700  1
  P  P9  1  0.35745500  0.99254500  0.52443300  1
  P  P10  1  0.85745500  0.00745500  0.47556700  1
  P  P11  1  0.75000000  0.51489900  0.99164300  1
  O  O12  1  0.75000000  0.26662100  0.93867500  1
  O  O13  1  0.16331300  0.45967100  0.89693700  1
  O  O14  1  0.02933200  0.49330700  0.71809800  1
  O  O15  1  0.47066800  0.49330700  0.71809800  1
  O  O16  1  0.25000000  0.73337900  0.06132500  1
  O  O17  1  0.66331300  0.54032900  0.10306300  1
  O  O18  1  0.52933200  0.50669300  0.28190200  1
  O  O19  1  0.97066800  0.50669300  0.28190200  1
  O  O20  1  0.83668700  0.54032900  0.10306300  1
  O  O21  1  0.12065500  0.27984000  0.49352400  1
  O  O22  1  0.37934500  0.27984000  0.49352400  1
  O  O23  1  0.58133700  0.15860000  0.56089900  1
  O  O24  1  0.91866300  0.15860000  0.56089900  1
  O  O25  1  0.25000000  0.26578100  0.14953300  1
  O  O26  1  0.52196800  0.22985000  0.07943300  1
  O  O27  1  0.64314000  0.12739200  0.29809900  1
  O  O28  1  0.97803200  0.22985000  0.07943300  1
  O  O29  1  0.85686000  0.12739200  0.29809900  1
  O  O30  1  0.75000000  0.03540100  0.52614200  1
  O  O31  1  0.25000000  0.96459900  0.47385800  1
  O  O32  1  0.14314000  0.87260800  0.70190100  1
  O  O33  1  0.02196800  0.77015000  0.92056700  1
  O  O34  1  0.35686000  0.87260800  0.70190100  1
  O  O35  1  0.47803200  0.77015000  0.92056700  1
  O  O36  1  0.75000000  0.73421900  0.85046700  1
  O  O37  1  0.08133700  0.84140000  0.43910100  1
  O  O38  1  0.41866300  0.84140000  0.43910100  1
  O  O39  1  0.62065500  0.72016000  0.50647600  1
  O  O40  1  0.87934500  0.72016000  0.50647600  1
  O  O41  1  0.33668700  0.45967100  0.89693700  1
