# generated using pymatgen
data_CaBi6(PO5)4
_symmetry_space_group_name_H-M   'P 1'
_cell_length_a   6.98859100
_cell_length_b   7.70336210
_cell_length_c   9.31900542
_cell_angle_alpha   107.07992778
_cell_angle_beta   93.51508125
_cell_angle_gamma   112.48383501
_symmetry_Int_Tables_number   1
_chemical_formula_structural   CaBi6(PO5)4
_chemical_formula_sum   'Ca1 Bi6 P4 O20'
_cell_volume   434.46815987
_cell_formula_units_Z   1
loop_
 _symmetry_equiv_pos_site_id
 _symmetry_equiv_pos_as_xyz
  1  'x, y, z'
loop_
 _atom_site_type_symbol
 _atom_site_label
 _atom_site_symmetry_multiplicity
 _atom_site_fract_x
 _atom_site_fract_y
 _atom_site_fract_z
 _atom_site_occupancy
  Ca  Ca0  1  0.00000000  0.50000000  0.00000000  1
  Bi  Bi1  1  0.80924900  0.80353500  0.32255600  1
  Bi  Bi2  1  0.33601300  0.63167000  0.51341300  1
  Bi  Bi3  1  0.43315700  0.29042900  0.08468000  1
  Bi  Bi4  1  0.56684300  0.70957100  0.91532000  1
  Bi  Bi5  1  0.66398700  0.36833000  0.48658700  1
  Bi  Bi6  1  0.19075100  0.19646500  0.67744400  1
  P  P7  1  0.34084000  0.88943200  0.25177100  1
  P  P8  1  0.65916000  0.11056800  0.74822900  1
  P  P9  1  0.94865100  0.23374300  0.23892100  1
  P  P10  1  0.05134900  0.76625700  0.76107900  1
  O  O11  1  0.44797800  0.47228600  0.63747800  1
  O  O12  1  0.14874100  0.99908700  0.83249800  1
  O  O13  1  0.34586000  0.81213300  0.07934800  1
  O  O14  1  0.22511300  0.68545400  0.75957100  1
  O  O15  1  0.51732100  0.87530500  0.35195700  1
  O  O16  1  0.89090400  0.67136700  0.85427900  1
  O  O17  1  0.48267900  0.12469500  0.64804300  1
  O  O18  1  0.05366200  0.29755700  0.41017500  1
  O  O19  1  0.63528100  0.89122100  0.69413000  1
  O  O20  1  0.85125900  0.00091300  0.16750200  1
  O  O21  1  0.77488700  0.31454600  0.24042900  1
  O  O22  1  0.94633800  0.70244300  0.58982500  1
  O  O23  1  0.55202200  0.52771400  0.36252200  1
  O  O24  1  0.87940100  0.25216100  0.72994000  1
  O  O25  1  0.31758100  0.40891600  0.90469600  1
  O  O26  1  0.65414000  0.18786700  0.92065200  1
  O  O27  1  0.68241900  0.59108400  0.09530400  1
  O  O28  1  0.10909600  0.32863300  0.14572100  1
  O  O29  1  0.36471900  0.10877900  0.30587000  1
  O  O30  1  0.12059900  0.74783900  0.27006000  1
