# generated using pymatgen
data_Rb2NaAl6F21
_symmetry_space_group_name_H-M   'P 1'
_cell_length_a   7.07552163
_cell_length_b   7.07552163
_cell_length_c   10.35445545
_cell_angle_alpha   70.06415239
_cell_angle_beta   70.06415239
_cell_angle_gamma   60.05991163
_symmetry_Int_Tables_number   1
_chemical_formula_structural   Rb2NaAl6F21
_chemical_formula_sum   'Rb2 Na1 Al6 F21'
_cell_volume   412.89334330
_cell_formula_units_Z   1
loop_
 _symmetry_equiv_pos_site_id
 _symmetry_equiv_pos_as_xyz
  1  'x, y, z'
loop_
 _atom_site_type_symbol
 _atom_site_label
 _atom_site_symmetry_multiplicity
 _atom_site_fract_x
 _atom_site_fract_y
 _atom_site_fract_z
 _atom_site_occupancy
  Rb  Rb0  1  0.13416300  0.13689800  0.59350800  1
  Rb  Rb1  1  0.86310200  0.86583700  0.40649200  1
  Na  Na2  1  0.51407700  0.48592300  0.50000000  1
  Al  Al3  1  0.45653900  0.91477000  0.19212400  1
  Al  Al4  1  0.08523000  0.54346100  0.80787600  1
  Al  Al5  1  0.95900000  0.41605100  0.18998600  1
  Al  Al6  1  0.46087900  0.41156300  0.19076600  1
  Al  Al7  1  0.58843700  0.53912100  0.80923400  1
  Al  Al8  1  0.58394900  0.04100000  0.81001400  1
  F  F9  1  0.67978200  0.56710000  0.62487700  1
  F  F10  1  0.43290000  0.32021800  0.37512300  1
  F  F11  1  0.16573600  0.49007100  0.20394200  1
  F  F12  1  0.50992900  0.83426400  0.79605800  1
  F  F13  1  0.86970400  0.45637300  0.82888500  1
  F  F14  1  0.51286500  0.95741300  0.00071400  1
  F  F15  1  0.75640700  0.34293300  0.16870000  1
  F  F16  1  0.13717300  0.59538400  0.62203600  1
  F  F17  1  0.87555400  0.83238300  0.81191700  1
  F  F18  1  0.75045600  0.70858800  0.18605100  1
  F  F19  1  0.65706700  0.24359300  0.83130000  1
  F  F20  1  0.49272100  0.50727900  0.00000000  1
  F  F21  1  0.87911200  0.35029500  0.37441300  1
  F  F22  1  0.30192400  0.62577000  0.79481300  1
  F  F23  1  0.40461600  0.86282700  0.37796400  1
  F  F24  1  0.29141200  0.24954400  0.81394900  1
  F  F25  1  0.54362700  0.13029600  0.17111500  1
  F  F26  1  0.37423000  0.69807600  0.20518700  1
  F  F27  1  0.16761700  0.12444600  0.18808300  1
  F  F28  1  0.04258700  0.48713500  0.99928600  1
  F  F29  1  0.64970500  0.12088800  0.62558700  1
