# generated using pymatgen
data_K2LaP2Se7
_symmetry_space_group_name_H-M   'P 1'
_cell_length_a   7.34274900
_cell_length_b   9.61446800
_cell_length_c   22.32902640
_cell_angle_alpha   71.15978148
_cell_angle_beta   90.00000000
_cell_angle_gamma   90.00000000
_symmetry_Int_Tables_number   1
_chemical_formula_structural   K2LaP2Se7
_chemical_formula_sum   'K8 La4 P8 Se28'
_cell_volume   1491.89730332
_cell_formula_units_Z   4
loop_
 _symmetry_equiv_pos_site_id
 _symmetry_equiv_pos_as_xyz
  1  'x, y, z'
loop_
 _atom_site_type_symbol
 _atom_site_label
 _atom_site_symmetry_multiplicity
 _atom_site_fract_x
 _atom_site_fract_y
 _atom_site_fract_z
 _atom_site_occupancy
  K  K0  1  0.51006800  0.75299800  0.49090900  1
  K  K1  1  0.01006800  0.24700200  0.00909100  1
  K  K2  1  0.48993200  0.24700200  0.50909100  1
  K  K3  1  0.98993200  0.75299800  0.99090900  1
  K  K4  1  0.04940800  0.84152300  0.31696400  1
  K  K5  1  0.54940800  0.15847700  0.18303600  1
  K  K6  1  0.95059200  0.15847700  0.68303600  1
  K  K7  1  0.45059200  0.84152300  0.81696400  1
  La  La8  1  0.97059600  0.34453100  0.35007100  1
  La  La9  1  0.47059600  0.65546900  0.14992900  1
  La  La10  1  0.02940400  0.65546900  0.64992900  1
  La  La11  1  0.52940400  0.34453100  0.85007100  1
  P  P12  1  0.51578000  0.57403700  0.33046000  1
  P  P13  1  0.01578000  0.42596300  0.16954000  1
  P  P14  1  0.48422000  0.42596300  0.66954000  1
  P  P15  1  0.98422000  0.57403700  0.83046000  1
  P  P16  1  0.98851900  0.03812400  0.54258600  1
  P  P17  1  0.48851900  0.96187600  0.95741400  1
  P  P18  1  0.01148100  0.96187600  0.45741400  1
  P  P19  1  0.51148100  0.03812400  0.04258500  1
  Se  Se20  1  0.95565500  0.27783600  0.50270200  1
  Se  Se21  1  0.45565500  0.72216400  0.99729800  1
  Se  Se22  1  0.04434500  0.72216400  0.49729800  1
  Se  Se23  1  0.54434500  0.27783600  0.00270200  1
  Se  Se24  1  0.27691600  0.51337800  0.39505700  1
  Se  Se25  1  0.77691600  0.48662200  0.10494300  1
  Se  Se26  1  0.72308400  0.48662200  0.60494300  1
  Se  Se27  1  0.22308400  0.51337800  0.89505700  1
  Se  Se28  1  0.58800300  0.41347000  0.28011300  1
  Se  Se29  1  0.08800300  0.58653000  0.21988700  1
  Se  Se30  1  0.41199700  0.58653000  0.71988700  1
  Se  Se31  1  0.91199700  0.41347000  0.78011300  1
  Se  Se32  1  0.96741500  0.20931700  0.24352500  1
  Se  Se33  1  0.46741500  0.79068300  0.25647500  1
  Se  Se34  1  0.03258500  0.79068300  0.75647500  1
  Se  Se35  1  0.53258500  0.20931700  0.74352500  1
  Se  Se36  1  0.76414200  0.04349900  0.40022500  1
  Se  Se37  1  0.26414200  0.95650100  0.09977500  1
  Se  Se38  1  0.23585800  0.95650100  0.59977500  1
  Se  Se39  1  0.73585800  0.04349900  0.90022500  1
  Se  Se40  1  0.24946900  0.07656400  0.40344100  1
  Se  Se41  1  0.74946900  0.92343600  0.09655900  1
  Se  Se42  1  0.75053100  0.92343600  0.59655900  1
  Se  Se43  1  0.25053100  0.07656400  0.90344100  1
  Se  Se44  1  0.75284600  0.57947600  0.39150700  1
  Se  Se45  1  0.25284600  0.42052400  0.10849300  1
  Se  Se46  1  0.24715400  0.42052400  0.60849300  1
  Se  Se47  1  0.74715400  0.57947600  0.89150700  1
