# generated using pymatgen
data_Ba2CuTeO6
_symmetry_space_group_name_H-M   'P 1'
_cell_length_a   5.93820649
_cell_length_b   5.93820649
_cell_length_c   10.29171961
_cell_angle_alpha   74.08059767
_cell_angle_beta   74.08059767
_cell_angle_gamma   58.68273089
_symmetry_Int_Tables_number   1
_chemical_formula_structural   Ba2CuTeO6
_chemical_formula_sum   'Ba4 Cu2 Te2 O12'
_cell_volume   294.28723752
_cell_formula_units_Z   2
loop_
 _symmetry_equiv_pos_site_id
 _symmetry_equiv_pos_as_xyz
  1  'x, y, z'
loop_
 _atom_site_type_symbol
 _atom_site_label
 _atom_site_symmetry_multiplicity
 _atom_site_fract_x
 _atom_site_fract_y
 _atom_site_fract_z
 _atom_site_occupancy
  Ba  Ba0  1  0.87230300  0.87230300  0.37540100  1
  Ba  Ba1  1  0.12769600  0.12769700  0.62459900  1
  Ba  Ba2  1  0.28575800  0.28575800  0.14548300  1
  Ba  Ba3  1  0.71424200  0.71424200  0.85451700  1
  Cu  Cu4  1  0.40419200  0.40419200  0.78428100  1
  Cu  Cu5  1  0.59580800  0.59580800  0.21571900  1
  Te  Te6  1  0.00000000  0.00000000  0.00000000  1
  Te  Te7  1  0.50000000  0.50000000  0.50000000  1
  O  O8  1  0.63419100  0.63419100  0.59687300  1
  O  O9  1  0.36580900  0.36580900  0.40312700  1
  O  O10  1  0.19007800  0.71360300  0.88578500  1
  O  O11  1  0.37461900  0.83564900  0.36951300  1
  O  O12  1  0.18557000  0.18557000  0.87431500  1
  O  O13  1  0.28639700  0.80992200  0.11421500  1
  O  O14  1  0.83564900  0.37461900  0.36951300  1
  O  O15  1  0.71360300  0.19007800  0.88578500  1
  O  O16  1  0.62538100  0.16435100  0.63048700  1
  O  O17  1  0.80992200  0.28639700  0.11421500  1
  O  O18  1  0.81443000  0.81443000  0.12568500  1
  O  O19  1  0.16435100  0.62538100  0.63048700  1
