# generated using pymatgen
data_Rb7Au5O2
_symmetry_space_group_name_H-M   'P 1'
_cell_length_a   10.15256695
_cell_length_b   10.15256695
_cell_length_c   10.15256695
_cell_angle_alpha   146.74731743
_cell_angle_beta   124.34042448
_cell_angle_gamma   66.39873662
_symmetry_Int_Tables_number   1
_chemical_formula_structural   Rb7Au5O2
_chemical_formula_sum   'Rb7 Au5 O2'
_cell_volume   467.87483740
_cell_formula_units_Z   1
loop_
 _symmetry_equiv_pos_site_id
 _symmetry_equiv_pos_as_xyz
  1  'x, y, z'
loop_
 _atom_site_type_symbol
 _atom_site_label
 _atom_site_symmetry_multiplicity
 _atom_site_fract_x
 _atom_site_fract_y
 _atom_site_fract_z
 _atom_site_occupancy
  Rb  Rb0  1  0.61192100  0.83390100  0.77802000  1
  Rb  Rb1  1  0.78885700  0.50000000  0.28885700  1
  Rb  Rb2  1  0.05588100  0.83390100  0.22198000  1
  Rb  Rb3  1  0.38807900  0.16609900  0.22198000  1
  Rb  Rb4  1  0.94411900  0.16609900  0.77802000  1
  Rb  Rb5  1  0.21114300  0.50000000  0.71114300  1
  Rb  Rb6  1  0.50000000  0.00000000  0.50000000  1
  Au  Au7  1  0.65176200  0.65176200  0.00000000  1
  Au  Au8  1  0.80709000  0.30709000  0.50000000  1
  Au  Au9  1  0.00000000  0.00000000  0.00000000  1
  Au  Au10  1  0.34823800  0.34823800  0.00000000  1
  Au  Au11  1  0.19291000  0.69291000  0.50000000  1
  O  O12  1  0.78463200  0.00000000  0.78463200  1
  O  O13  1  0.21536800  0.00000000  0.21536800  1
