# generated using pymatgen
data_Tl5Se3
_symmetry_space_group_name_H-M   'P 1'
_cell_length_a   8.48954300
_cell_length_b   8.48954300
_cell_length_c   13.59182900
_cell_angle_alpha   90.00000000
_cell_angle_beta   90.00000000
_cell_angle_gamma   90.00000000
_symmetry_Int_Tables_number   1
_chemical_formula_structural   Tl5Se3
_chemical_formula_sum   'Tl20 Se12'
_cell_volume   979.59492565
_cell_formula_units_Z   4
loop_
 _symmetry_equiv_pos_site_id
 _symmetry_equiv_pos_as_xyz
  1  'x, y, z'
loop_
 _atom_site_type_symbol
 _atom_site_label
 _atom_site_symmetry_multiplicity
 _atom_site_fract_x
 _atom_site_fract_y
 _atom_site_fract_z
 _atom_site_occupancy
  Tl  Tl0  1  0.66874600  0.62540400  0.10024500  1
  Tl  Tl1  1  0.37858700  0.32438900  0.40128200  1
  Tl  Tl2  1  0.62540400  0.33125400  0.89975500  1
  Tl  Tl3  1  0.67561100  0.37858700  0.59871800  1
  Tl  Tl4  1  0.17561100  0.87858700  0.40128200  1
  Tl  Tl5  1  0.37459600  0.66874600  0.89975500  1
  Tl  Tl6  1  0.12141300  0.17561100  0.59871800  1
  Tl  Tl7  1  0.82438900  0.12141300  0.40128200  1
  Tl  Tl8  1  0.87858700  0.82438900  0.59871800  1
  Tl  Tl9  1  0.12540400  0.83125400  0.10024500  1
  Tl  Tl10  1  0.50000000  0.00000000  0.20837700  1
  Tl  Tl11  1  0.50000000  0.00000000  0.70897400  1
  Tl  Tl12  1  0.62141300  0.67561100  0.40128200  1
  Tl  Tl13  1  0.83125400  0.87459600  0.89975500  1
  Tl  Tl14  1  0.00000000  0.50000000  0.79162300  1
  Tl  Tl15  1  0.32438900  0.62141300  0.59871800  1
  Tl  Tl16  1  0.16874600  0.12540400  0.89975500  1
  Tl  Tl17  1  0.33125400  0.37459600  0.10024500  1
  Tl  Tl18  1  0.87459600  0.16874600  0.10024500  1
  Tl  Tl19  1  0.00000000  0.50000000  0.29102600  1
  Se  Se20  1  0.31933500  0.34940800  0.75350000  1
  Se  Se21  1  0.00000000  0.50000000  0.51566900  1
  Se  Se22  1  0.00000000  0.50000000  0.00146400  1
  Se  Se23  1  0.68066500  0.65059200  0.75350000  1
  Se  Se24  1  0.65059200  0.31933500  0.24650000  1
  Se  Se25  1  0.81933500  0.84940800  0.24650000  1
  Se  Se26  1  0.50000000  0.00000000  0.48433100  1
  Se  Se27  1  0.50000000  0.00000000  0.99853600  1
  Se  Se28  1  0.34940800  0.68066500  0.24650000  1
  Se  Se29  1  0.84940800  0.18066500  0.75350000  1
  Se  Se30  1  0.15059200  0.81933500  0.75350000  1
  Se  Se31  1  0.18066500  0.15059200  0.24650000  1
