# generated using pymatgen
data_YbNbO4
_symmetry_space_group_name_H-M   'P 1'
_cell_length_a   6.61655796
_cell_length_b   6.61655796
_cell_length_c   5.25443263
_cell_angle_alpha   66.94473154
_cell_angle_beta   66.94473154
_cell_angle_gamma   111.61952000
_symmetry_Int_Tables_number   1
_chemical_formula_structural   YbNbO4
_chemical_formula_sum   'Yb2 Nb2 O8'
_cell_volume   153.36628297
_cell_formula_units_Z   2
loop_
 _symmetry_equiv_pos_site_id
 _symmetry_equiv_pos_as_xyz
  1  'x, y, z'
loop_
 _atom_site_type_symbol
 _atom_site_label
 _atom_site_symmetry_multiplicity
 _atom_site_fract_x
 _atom_site_fract_y
 _atom_site_fract_z
 _atom_site_occupancy
  Yb  Yb0  1  0.37438700  0.62561300  0.25000000  1
  Yb  Yb1  1  0.62561300  0.37438700  0.75000000  1
  Nb  Nb2  1  0.87893500  0.12106500  0.25000000  1
  Nb  Nb3  1  0.12106500  0.87893500  0.75000000  1
  O  O4  1  0.60372100  0.03928200  0.18767900  1
  O  O5  1  0.96071800  0.39627900  0.31232100  1
  O  O6  1  0.39627900  0.96071800  0.81232100  1
  O  O7  1  0.03928200  0.60372100  0.68767900  1
  O  O8  1  0.79003400  0.72888400  0.17868900  1
  O  O9  1  0.27111600  0.20996600  0.32131100  1
  O  O10  1  0.20996600  0.27111600  0.82131100  1
  O  O11  1  0.72888400  0.79003400  0.67868900  1
