# generated using pymatgen
data_K2HoPWO8
_symmetry_space_group_name_H-M   'P 1'
_cell_length_a   12.23658708
_cell_length_b   12.23658708
_cell_length_c   12.23658708
_cell_angle_alpha   146.98740540
_cell_angle_beta   119.90070331
_cell_angle_gamma   70.30280252
_symmetry_Int_Tables_number   1
_chemical_formula_structural   K2HoPWO8
_chemical_formula_sum   'K8 Ho4 P4 W4 O32'
_cell_volume   852.55752428
_cell_formula_units_Z   4
loop_
 _symmetry_equiv_pos_site_id
 _symmetry_equiv_pos_as_xyz
  1  'x, y, z'
loop_
 _atom_site_type_symbol
 _atom_site_label
 _atom_site_symmetry_multiplicity
 _atom_site_fract_x
 _atom_site_fract_y
 _atom_site_fract_z
 _atom_site_occupancy
  K  K0  1  0.57757000  0.18669500  0.45135400  1
  K  K1  1  0.23534100  0.12621600  0.04864600  1
  K  K2  1  0.92243000  0.37378400  0.60912500  1
  K  K3  1  0.07757000  0.62621600  0.39087500  1
  K  K4  1  0.42243000  0.81330500  0.54864600  1
  K  K5  1  0.73534100  0.68669500  0.10912500  1
  K  K6  1  0.26465900  0.31330500  0.89087500  1
  K  K7  1  0.76465900  0.87378400  0.95135400  1
  Ho  Ho8  1  0.17437300  0.25000000  0.42437300  1
  Ho  Ho9  1  0.82562700  0.75000000  0.57562700  1
  Ho  Ho10  1  0.32562700  0.75000000  0.07562700  1
  Ho  Ho11  1  0.67437300  0.25000000  0.92437300  1
  P  P12  1  0.42971600  0.25000000  0.67971600  1
  P  P13  1  0.07028400  0.75000000  0.82028400  1
  P  P14  1  0.57028400  0.75000000  0.32028400  1
  P  P15  1  0.92971600  0.25000000  0.17971600  1
  W  W16  1  0.91425500  0.16425500  0.75000000  1
  W  W17  1  0.08574500  0.83574500  0.25000000  1
  W  W18  1  0.41425500  0.66425500  0.75000000  1
  W  W19  1  0.58574500  0.33574500  0.25000000  1
  O  O20  1  0.44464500  0.17137500  0.73845800  1
  O  O21  1  0.55535500  0.82862500  0.26154200  1
  O  O22  1  0.35618400  0.08408000  0.42568200  1
  O  O23  1  0.15091500  0.84256400  0.42473900  1
  O  O24  1  0.16783300  0.67541000  0.06905700  1
  O  O25  1  0.15839800  0.93050200  0.07431800  1
  O  O26  1  0.65091500  0.22617700  0.30835200  1
  O  O27  1  0.05535500  0.79381400  0.72673000  1
  O  O28  1  0.06708400  0.29381400  0.23845800  1
  O  O29  1  0.65839800  0.58408000  0.22789600  1
  O  O30  1  0.41782500  0.34256400  0.19164800  1
  O  O31  1  0.84908500  0.15743600  0.57526100  1
  O  O32  1  0.34160200  0.41592000  0.77210400  1
  O  O33  1  0.34908500  0.77382300  0.69164800  1
  O  O34  1  0.93291600  0.70618600  0.76154200  1
  O  O35  1  0.56708400  0.32862500  0.77327000  1
  O  O36  1  0.83216700  0.32459000  0.93094300  1
  O  O37  1  0.84160200  0.06949800  0.92568200  1
  O  O38  1  0.64381600  0.91592000  0.57431800  1
  O  O39  1  0.89364700  0.90122400  0.56905700  1
  O  O40  1  0.39364700  0.82459000  0.99242300  1
  O  O41  1  0.33216700  0.40122400  0.50757700  1
  O  O42  1  0.66783300  0.59877600  0.49242300  1
  O  O43  1  0.10635300  0.09877600  0.43094300  1
  O  O44  1  0.60635300  0.17541000  0.00757700  1
  O  O45  1  0.94464500  0.20618600  0.27327000  1
  O  O46  1  0.58217500  0.65743600  0.80835200  1
  O  O47  1  0.91782500  0.72617700  0.07526100  1
  O  O48  1  0.14381600  0.56949800  0.72789600  1
  O  O49  1  0.85618400  0.43050200  0.27210400  1
  O  O50  1  0.43291600  0.67137500  0.22673000  1
  O  O51  1  0.08217500  0.27382300  0.92473900  1
