# generated using pymatgen
data_Ba2MnSi2ClO7
_symmetry_space_group_name_H-M   'P 1'
_cell_length_a   8.61307400
_cell_length_b   8.61307800
_cell_length_c   11.02695700
_cell_angle_alpha   89.99999480
_cell_angle_beta   89.99998815
_cell_angle_gamma   90.00011974
_symmetry_Int_Tables_number   1
_chemical_formula_structural   Ba2MnSi2ClO7
_chemical_formula_sum   'Ba8 Mn4 Si8 Cl4 O28'
_cell_volume   818.03566715
_cell_formula_units_Z   4
loop_
 _symmetry_equiv_pos_site_id
 _symmetry_equiv_pos_as_xyz
  1  'x, y, z'
loop_
 _atom_site_type_symbol
 _atom_site_label
 _atom_site_symmetry_multiplicity
 _atom_site_fract_x
 _atom_site_fract_y
 _atom_site_fract_z
 _atom_site_occupancy
  Ba  Ba0  1  0.82947400  0.32947600  0.09001800  1
  Ba  Ba1  1  0.82947600  0.32947400  0.59001700  1
  Ba  Ba2  1  0.17052600  0.67052500  0.09001800  1
  Ba  Ba3  1  0.17052400  0.67052600  0.59001700  1
  Ba  Ba4  1  0.32947500  0.17052600  0.09001800  1
  Ba  Ba5  1  0.32947400  0.17052400  0.59001800  1
  Ba  Ba6  1  0.67052500  0.82947400  0.09001700  1
  Ba  Ba7  1  0.67052500  0.82947600  0.59001700  1
  Mn  Mn8  1  0.50000400  0.49999800  0.89752400  1
  Mn  Mn9  1  0.00000000  0.00000300  0.39752700  1
  Mn  Mn10  1  0.49999700  0.50000500  0.39753000  1
  Mn  Mn11  1  0.00000100  0.00000000  0.89752900  1
  Si  Si12  1  0.62942900  0.12942900  0.35107900  1
  Si  Si13  1  0.62942900  0.12942900  0.85107900  1
  Si  Si14  1  0.12942900  0.37057100  0.35107900  1
  Si  Si15  1  0.12942900  0.37057000  0.85107900  1
  Si  Si16  1  0.87057100  0.62942900  0.35107900  1
  Si  Si17  1  0.87057100  0.62942900  0.85107900  1
  Si  Si18  1  0.37057100  0.87057100  0.35107900  1
  Si  Si19  1  0.37057100  0.87057100  0.85107900  1
  Cl  Cl20  1  0.00000000  0.00000000  0.16461200  1
  Cl  Cl21  1  0.00000000  0.00000000  0.66461300  1
  Cl  Cl22  1  0.50000000  0.50000000  0.16461500  1
  Cl  Cl23  1  0.50000000  0.50000000  0.66461300  1
  O  O24  1  0.50000000  0.00000000  0.40575200  1
  O  O25  1  0.49999900  0.00000000  0.90575200  1
  O  O26  1  0.00000000  0.50000000  0.40575100  1
  O  O27  1  0.00000000  0.49999900  0.90575200  1
  O  O28  1  0.12949000  0.37051000  0.20524400  1
  O  O29  1  0.12949100  0.37050900  0.70524300  1
  O  O30  1  0.62949100  0.12949000  0.20524400  1
  O  O31  1  0.62949000  0.12949000  0.70524400  1
  O  O32  1  0.37050900  0.87051000  0.20524400  1
  O  O33  1  0.37050900  0.87050900  0.70524400  1
  O  O34  1  0.87050900  0.62949000  0.20524400  1
  O  O35  1  0.87050900  0.62949000  0.70524400  1
  O  O36  1  0.79204900  0.07949900  0.41942400  1
  O  O37  1  0.79205000  0.07949900  0.91942500  1
  O  O38  1  0.57949900  0.29204900  0.41942500  1
  O  O39  1  0.57949900  0.29205000  0.91942300  1
  O  O40  1  0.07949900  0.20795000  0.41942300  1
  O  O41  1  0.07949800  0.20795000  0.91942500  1
  O  O42  1  0.70795000  0.57949800  0.41942400  1
  O  O43  1  0.70794900  0.57949800  0.91942400  1
  O  O44  1  0.29204900  0.42050100  0.41942500  1
  O  O45  1  0.29205000  0.42050100  0.91942300  1
  O  O46  1  0.42050200  0.70795000  0.41942500  1
  O  O47  1  0.42050200  0.70795000  0.91942300  1
  O  O48  1  0.20795100  0.92050100  0.41942300  1
  O  O49  1  0.20795000  0.92050100  0.91942500  1
  O  O50  1  0.92050200  0.79204900  0.41942400  1
  O  O51  1  0.92050000  0.79205000  0.91942600  1
