# generated using pymatgen
data_Rb2(PSe2)3
_symmetry_space_group_name_H-M   'P 1'
_cell_length_a   10.85672400
_cell_length_b   15.60641800
_cell_length_c   16.99747600
_cell_angle_alpha   90.00000000
_cell_angle_beta   90.00000000
_cell_angle_gamma   90.00000000
_symmetry_Int_Tables_number   1
_chemical_formula_structural   Rb2(PSe2)3
_chemical_formula_sum   'Rb16 P24 Se48'
_cell_volume   2879.96008567
_cell_formula_units_Z   8
loop_
 _symmetry_equiv_pos_site_id
 _symmetry_equiv_pos_as_xyz
  1  'x, y, z'
loop_
 _atom_site_type_symbol
 _atom_site_label
 _atom_site_symmetry_multiplicity
 _atom_site_fract_x
 _atom_site_fract_y
 _atom_site_fract_z
 _atom_site_occupancy
  Rb  Rb0  1  0.23848700  0.30199200  0.52552300  1
  Rb  Rb1  1  0.23848700  0.80199200  0.97447700  1
  Rb  Rb2  1  0.27545800  0.54416700  0.27850800  1
  Rb  Rb3  1  0.76151300  0.30199200  0.02552300  1
  Rb  Rb4  1  0.72454200  0.54416700  0.77850800  1
  Rb  Rb5  1  0.76226900  0.01975200  0.16335400  1
  Rb  Rb6  1  0.76226900  0.51975200  0.33664600  1
  Rb  Rb7  1  0.26725900  0.84190000  0.41056000  1
  Rb  Rb8  1  0.72454200  0.04416700  0.72149200  1
  Rb  Rb9  1  0.23773100  0.51975200  0.83664600  1
  Rb  Rb10  1  0.23773100  0.01975200  0.66335400  1
  Rb  Rb11  1  0.27545800  0.04416700  0.22149200  1
  Rb  Rb12  1  0.73274100  0.34190000  0.58944000  1
  Rb  Rb13  1  0.76151300  0.80199200  0.47447700  1
  Rb  Rb14  1  0.73274100  0.84190000  0.91056000  1
  Rb  Rb15  1  0.26725900  0.34190000  0.08944000  1
  P  P16  1  0.93620800  0.06173900  0.53264300  1
  P  P17  1  0.80193200  0.16234100  0.32100300  1
  P  P18  1  0.70980000  0.19223700  0.43374800  1
  P  P19  1  0.04552300  0.55830200  0.08396500  1
  P  P20  1  0.70980000  0.69223700  0.06625200  1
  P  P21  1  0.06379200  0.06173900  0.03264300  1
  P  P22  1  0.29020000  0.19223700  0.93374800  1
  P  P23  1  0.04552300  0.05830200  0.41603500  1
  P  P24  1  0.46479700  0.79577800  0.16173100  1
  P  P25  1  0.93620800  0.56173900  0.96735700  1
  P  P26  1  0.46479700  0.29577800  0.33826900  1
  P  P27  1  0.53520300  0.79577800  0.66173100  1
  P  P28  1  0.19806800  0.16234100  0.82100300  1
  P  P29  1  0.95447700  0.05830200  0.91603500  1
  P  P30  1  0.42368900  0.79909800  0.77677000  1
  P  P31  1  0.80193200  0.66234100  0.17899700  1
  P  P32  1  0.57631100  0.29909800  0.22323000  1
  P  P33  1  0.19806800  0.66234100  0.67899700  1
  P  P34  1  0.95447700  0.55830200  0.58396500  1
  P  P35  1  0.29020000  0.69223700  0.56625200  1
  P  P36  1  0.57631100  0.79909800  0.27677000  1
  P  P37  1  0.06379200  0.56173900  0.46735700  1
  P  P38  1  0.53520300  0.29577800  0.83826900  1
  P  P39  1  0.42368900  0.29909800  0.72323000  1
  Se  Se40  1  0.04466800  0.43721200  0.41351900  1
  Se  Se41  1  0.76188500  0.57025300  0.55221400  1
  Se  Se42  1  0.76188500  0.07025300  0.94778600  1
  Se  Se43  1  0.51379200  0.16131900  0.38874300  1
  Se  Se44  1  0.99995300  0.19184100  0.86237400  1
  Se  Se45  1  0.48593000  0.39715200  0.91844900  1
  Se  Se46  1  0.95533200  0.43721200  0.91351900  1
  Se  Se47  1  0.43953200  0.92747800  0.82332200  1
  Se  Se48  1  0.52992700  0.19246700  0.14748500  1
  Se  Se49  1  0.04466800  0.93721200  0.08648100  1
  Se  Se50  1  0.73375600  0.55695100  0.01067300  1
  Se  Se51  1  0.78034500  0.79794700  0.23495800  1
  Se  Se52  1  0.27579600  0.28401000  0.30157300  1
  Se  Se53  1  0.00004700  0.69184100  0.13762600  1
  Se  Se54  1  0.51379200  0.66131900  0.11125700  1
  Se  Se55  1  0.95533200  0.93721200  0.58648100  1
  Se  Se56  1  0.21965500  0.79794700  0.73495800  1
  Se  Se57  1  0.48620800  0.16131900  0.88874300  1
  Se  Se58  1  0.51407000  0.39715200  0.41844900  1
  Se  Se59  1  0.00004700  0.19184100  0.36237400  1
  Se  Se60  1  0.98901800  0.45433300  0.15874200  1
  Se  Se61  1  0.02178400  0.67270100  0.39635400  1
  Se  Se62  1  0.99995300  0.69184100  0.63762600  1
  Se  Se63  1  0.26624400  0.05695100  0.98932700  1
  Se  Se64  1  0.47007300  0.69246700  0.85251500  1
  Se  Se65  1  0.98901800  0.95433300  0.34125800  1
  Se  Se66  1  0.97821600  0.67270100  0.89635400  1
  Se  Se67  1  0.01098200  0.95433300  0.84125800  1
  Se  Se68  1  0.56046800  0.42747800  0.17667800  1
  Se  Se69  1  0.48620800  0.66131900  0.61125700  1
  Se  Se70  1  0.73375600  0.05695100  0.48932700  1
  Se  Se71  1  0.26624400  0.55695100  0.51067300  1
  Se  Se72  1  0.23811500  0.57025300  0.05221400  1
  Se  Se73  1  0.97821600  0.17270100  0.60364600  1
  Se  Se74  1  0.72420400  0.28401000  0.80157300  1
  Se  Se75  1  0.52992700  0.69246700  0.35251500  1
  Se  Se76  1  0.01098200  0.45433300  0.65874200  1
  Se  Se77  1  0.72420400  0.78401000  0.69842700  1
  Se  Se78  1  0.78034500  0.29794700  0.26504200  1
  Se  Se79  1  0.21965500  0.29794700  0.76504200  1
  Se  Se80  1  0.23811500  0.07025300  0.44778600  1
  Se  Se81  1  0.43953200  0.42747800  0.67667800  1
  Se  Se82  1  0.02178400  0.17270100  0.10364600  1
  Se  Se83  1  0.51407000  0.89715200  0.08155100  1
  Se  Se84  1  0.56046800  0.92747800  0.32332200  1
  Se  Se85  1  0.48593000  0.89715200  0.58155100  1
  Se  Se86  1  0.27579600  0.78401000  0.19842700  1
  Se  Se87  1  0.47007300  0.19246700  0.64748500  1
