# generated using pymatgen
data_FeH12Pt(ClO)6
_symmetry_space_group_name_H-M   'P 1'
_cell_length_a   7.19848482
_cell_length_b   10.78860817
_cell_length_c   9.54371861
_cell_angle_alpha   89.95884623
_cell_angle_beta   100.16014847
_cell_angle_gamma   89.93157417
_symmetry_Int_Tables_number   1
_chemical_formula_structural   FeH12Pt(ClO)6
_chemical_formula_sum   'Fe2 H24 Pt2 Cl12 O12'
_cell_volume   729.55712194
_cell_formula_units_Z   2
loop_
 _symmetry_equiv_pos_site_id
 _symmetry_equiv_pos_as_xyz
  1  'x, y, z'
loop_
 _atom_site_type_symbol
 _atom_site_label
 _atom_site_symmetry_multiplicity
 _atom_site_fract_x
 _atom_site_fract_y
 _atom_site_fract_z
 _atom_site_occupancy
  Fe  Fe0  1  0.50001300  0.49974000  0.00025500  1
  Fe  Fe1  1  0.50029100  0.00022900  0.49989800  1
  H  H2  1  0.21155300  0.17659500  0.47999300  1
  H  H3  1  0.21696900  0.67712000  0.97907900  1
  H  H4  1  0.69803000  0.21916100  0.56279900  1
  H  H5  1  0.69971400  0.72182900  0.06613600  1
  H  H6  1  0.34337400  0.95572400  0.74002700  1
  H  H7  1  0.34540100  0.45750900  0.24060300  1
  H  H8  1  0.30205200  0.78105800  0.43725300  1
  H  H9  1  0.30012700  0.27804500  0.93365500  1
  H  H10  1  0.65670200  0.04436400  0.25983000  1
  H  H11  1  0.65432700  0.54230800  0.75961300  1
  H  H12  1  0.78835100  0.82339000  0.51992100  1
  H  H13  1  0.78313800  0.32279600  0.02094800  1
  H  H14  1  0.32893000  0.84171900  0.28997900  1
  H  H15  1  0.32638200  0.33784500  0.78686900  1
  H  H16  1  0.67118800  0.15845600  0.71009200  1
  H  H17  1  0.67372200  0.66229800  0.21311100  1
  H  H18  1  0.87338100  0.93850500  0.61260200  1
  H  H19  1  0.87230900  0.43898800  0.11126300  1
  H  H20  1  0.55180100  0.90076000  0.77187500  1
  H  H21  1  0.55331300  0.40098300  0.27070900  1
  H  H22  1  0.12674700  0.06144700  0.38735600  1
  H  H23  1  0.12775800  0.56096400  0.88875000  1
  H  H24  1  0.44834000  0.09932600  0.22803500  1
  H  H25  1  0.44634900  0.59880700  0.72961100  1
  Pt  Pt26  1  0.99999500  0.50003900  0.49994800  1
  Pt  Pt27  1  0.99997800  0.00000800  0.99993600  1
  Cl  Cl28  1  0.07569100  0.05083100  0.77717800  1
  Cl  Cl29  1  0.07383900  0.55041200  0.27635500  1
  Cl  Cl30  1  0.17302300  0.67301500  0.59963100  1
  Cl  Cl31  1  0.17061400  0.17336500  0.10079500  1
  Cl  Cl32  1  0.82698800  0.32704200  0.40031900  1
  Cl  Cl33  1  0.82929300  0.82664000  0.89908400  1
  Cl  Cl34  1  0.72630400  0.62293900  0.45226600  1
  Cl  Cl35  1  0.72621300  0.12295500  0.94913100  1
  Cl  Cl36  1  0.92422700  0.94915300  0.22274000  1
  Cl  Cl37  1  0.92615100  0.44964600  0.72360400  1
  Cl  Cl38  1  0.27366200  0.37711500  0.54765200  1
  Cl  Cl39  1  0.27371300  0.87707700  0.05076000  1
  O  O40  1  0.55431500  0.07841500  0.30445100  1
  O  O41  1  0.55305700  0.57673900  0.80524500  1
  O  O42  1  0.44598100  0.92197500  0.69549100  1
  O  O43  1  0.44644400  0.42263000  0.19507500  1
  O  O44  1  0.77858000  0.91378900  0.53011900  1
  O  O45  1  0.77241500  0.41306400  0.03272800  1
  O  O46  1  0.61754800  0.16342600  0.60786500  1
  O  O47  1  0.61704700  0.66837600  0.11174200  1
  O  O48  1  0.38256200  0.83672100  0.39217900  1
  O  O49  1  0.38292500  0.33158100  0.88825800  1
  O  O50  1  0.22151600  0.08623300  0.46983400  1
  O  O51  1  0.22766100  0.58684700  0.96734900  1
