# generated using pymatgen
data_Rb2MoAs2O9
_symmetry_space_group_name_H-M   'P 1'
_cell_length_a   7.66609300
_cell_length_b   7.79360989
_cell_length_c   9.23294708
_cell_angle_alpha   109.83136938
_cell_angle_beta   102.36523489
_cell_angle_gamma   87.98525874
_symmetry_Int_Tables_number   1
_chemical_formula_structural   Rb2MoAs2O9
_chemical_formula_sum   'Rb4 Mo2 As4 O18'
_cell_volume   506.46205442
_cell_formula_units_Z   2
loop_
 _symmetry_equiv_pos_site_id
 _symmetry_equiv_pos_as_xyz
  1  'x, y, z'
loop_
 _atom_site_type_symbol
 _atom_site_label
 _atom_site_symmetry_multiplicity
 _atom_site_fract_x
 _atom_site_fract_y
 _atom_site_fract_z
 _atom_site_occupancy
  Rb  Rb0  1  0.91635700  0.25257000  0.63454300  1
  Rb  Rb1  1  0.18956700  0.83135400  0.88117300  1
  Rb  Rb2  1  0.08364300  0.74743000  0.36545700  1
  Rb  Rb3  1  0.81043300  0.16864600  0.11882700  1
  Mo  Mo4  1  0.42611700  0.23668000  0.74526900  1
  Mo  Mo5  1  0.57388300  0.76332000  0.25473100  1
  As  As6  1  0.31661000  0.34801000  0.09816800  1
  As  As7  1  0.68339000  0.65199000  0.90183200  1
  As  As8  1  0.67229200  0.83595600  0.64232500  1
  As  As9  1  0.32770800  0.16404400  0.35767500  1
  O  O10  1  0.73090500  0.94751000  0.33543100  1
  O  O11  1  0.48295900  0.22235900  0.53733000  1
  O  O12  1  0.28699200  0.42189600  0.76726600  1
  O  O13  1  0.71300800  0.57810400  0.23273400  1
  O  O14  1  0.65513600  0.05985800  0.75457500  1
  O  O15  1  0.33083000  0.58074800  0.16059400  1
  O  O16  1  0.51704100  0.77764100  0.46267000  1
  O  O17  1  0.56899200  0.70336300  0.72945200  1
  O  O18  1  0.34486400  0.94014200  0.24542500  1
  O  O19  1  0.11286100  0.24865600  0.02479500  1
  O  O20  1  0.88713900  0.75134400  0.97520500  1
  O  O21  1  0.88086200  0.78068200  0.62439500  1
  O  O22  1  0.46140600  0.24676100  0.97251300  1
  O  O23  1  0.43100800  0.29663700  0.27054800  1
  O  O24  1  0.26909500  0.05249000  0.66456900  1
  O  O25  1  0.66917000  0.41925200  0.83940600  1
  O  O26  1  0.11913800  0.21931800  0.37560500  1
  O  O27  1  0.53859400  0.75323900  0.02748700  1
