# generated using pymatgen
data_Sm3OsO7
_symmetry_space_group_name_H-M   'P 1'
_cell_length_a   6.56989798
_cell_length_b   6.56989798
_cell_length_c   7.54655700
_cell_angle_alpha   90.00000000
_cell_angle_beta   90.00000000
_cell_angle_gamma   110.60406039
_symmetry_Int_Tables_number   1
_chemical_formula_structural   Sm3OsO7
_chemical_formula_sum   'Sm6 Os2 O14'
_cell_volume   304.90041175
_cell_formula_units_Z   2
loop_
 _symmetry_equiv_pos_site_id
 _symmetry_equiv_pos_as_xyz
  1  'x, y, z'
loop_
 _atom_site_type_symbol
 _atom_site_label
 _atom_site_symmetry_multiplicity
 _atom_site_fract_x
 _atom_site_fract_y
 _atom_site_fract_z
 _atom_site_occupancy
  Sm  Sm0  1  0.00000000  0.00000000  0.00000000  1
  Sm  Sm1  1  0.00000000  0.00000000  0.50000000  1
  Sm  Sm2  1  0.47779500  0.92635400  0.75000000  1
  Sm  Sm3  1  0.52220500  0.07364600  0.25000000  1
  Sm  Sm4  1  0.92635400  0.47779500  0.75000000  1
  Sm  Sm5  1  0.07364600  0.52220500  0.25000000  1
  Os  Os6  1  0.50000000  0.50000000  0.00000000  1
  Os  Os7  1  0.50000000  0.50000000  0.50000000  1
  O  O8  1  0.58622800  0.58622800  0.75000000  1
  O  O9  1  0.41377200  0.41377200  0.25000000  1
  O  O10  1  0.84397800  0.10898300  0.75000000  1
  O  O11  1  0.15602200  0.89101700  0.25000000  1
  O  O12  1  0.10898300  0.84397800  0.75000000  1
  O  O13  1  0.89101700  0.15602200  0.25000000  1
  O  O14  1  0.43837800  0.18530600  0.96225400  1
  O  O15  1  0.56162200  0.81469400  0.46225400  1
  O  O16  1  0.18530600  0.43837800  0.96225400  1
  O  O17  1  0.81469400  0.56162200  0.46225400  1
  O  O18  1  0.43837800  0.18530600  0.53774600  1
  O  O19  1  0.56162200  0.81469400  0.03774600  1
  O  O20  1  0.81469400  0.56162200  0.03774600  1
  O  O21  1  0.18530600  0.43837800  0.53774600  1
