# generated using pymatgen
data_CsBi3Se5
_symmetry_space_group_name_H-M   'P 1'
_cell_length_a   4.22005600
_cell_length_b   12.58137600
_cell_length_c   23.22580600
_cell_angle_alpha   90.00000000
_cell_angle_beta   90.00000000
_cell_angle_gamma   90.00000000
_symmetry_Int_Tables_number   1
_chemical_formula_structural   CsBi3Se5
_chemical_formula_sum   'Cs4 Bi12 Se20'
_cell_volume   1233.15352826
_cell_formula_units_Z   4
loop_
 _symmetry_equiv_pos_site_id
 _symmetry_equiv_pos_as_xyz
  1  'x, y, z'
loop_
 _atom_site_type_symbol
 _atom_site_label
 _atom_site_symmetry_multiplicity
 _atom_site_fract_x
 _atom_site_fract_y
 _atom_site_fract_z
 _atom_site_occupancy
  Cs  Cs0  1  0.25000000  0.98955400  0.28751900  1
  Cs  Cs1  1  0.75000000  0.48955400  0.21248100  1
  Cs  Cs2  1  0.75000000  0.01044600  0.71248100  1
  Cs  Cs3  1  0.25000000  0.51044600  0.78751900  1
  Bi  Bi4  1  0.75000000  0.80407200  0.12119100  1
  Bi  Bi5  1  0.25000000  0.40762600  0.57274900  1
  Bi  Bi6  1  0.25000000  0.19592800  0.87880900  1
  Bi  Bi7  1  0.75000000  0.59237400  0.42725100  1
  Bi  Bi8  1  0.25000000  0.09237400  0.07274900  1
  Bi  Bi9  1  0.25000000  0.63644200  0.97608100  1
  Bi  Bi10  1  0.25000000  0.30407200  0.37880900  1
  Bi  Bi11  1  0.25000000  0.86355800  0.47608100  1
  Bi  Bi12  1  0.75000000  0.90762600  0.92725100  1
  Bi  Bi13  1  0.75000000  0.69592800  0.62119100  1
  Bi  Bi14  1  0.75000000  0.36355800  0.02391900  1
  Bi  Bi15  1  0.75000000  0.13644200  0.52391900  1
  Se  Se16  1  0.25000000  0.75008000  0.69605000  1
  Se  Se17  1  0.75000000  0.13948300  0.98085000  1
  Se  Se18  1  0.25000000  0.30532200  0.10916600  1
  Se  Se19  1  0.75000000  0.58543400  0.06130700  1
  Se  Se20  1  0.25000000  0.08543400  0.43869300  1
  Se  Se21  1  0.75000000  0.91456600  0.56130700  1
  Se  Se22  1  0.25000000  0.41456600  0.93869300  1
  Se  Se23  1  0.25000000  0.86051700  0.01915000  1
  Se  Se24  1  0.75000000  0.36051700  0.48085000  1
  Se  Se25  1  0.75000000  0.25008000  0.80395000  1
  Se  Se26  1  0.25000000  0.52629100  0.34788800  1
  Se  Se27  1  0.25000000  0.97370900  0.84788800  1
  Se  Se28  1  0.75000000  0.80532200  0.39083400  1
  Se  Se29  1  0.75000000  0.47370900  0.65211200  1
  Se  Se30  1  0.25000000  0.19467800  0.60916600  1
  Se  Se31  1  0.25000000  0.74992000  0.19605000  1
  Se  Se32  1  0.75000000  0.02629100  0.15211200  1
  Se  Se33  1  0.75000000  0.24992000  0.30395000  1
  Se  Se34  1  0.75000000  0.69467800  0.89083400  1
  Se  Se35  1  0.25000000  0.63948300  0.51915000  1
