# generated using pymatgen
data_K4Sn(TeSe)2
_symmetry_space_group_name_H-M   'P 1'
_cell_length_a   8.56550900
_cell_length_b   10.83446200
_cell_length_c   15.24579000
_cell_angle_alpha   90.00000000
_cell_angle_beta   90.00000000
_cell_angle_gamma   90.00000000
_symmetry_Int_Tables_number   1
_chemical_formula_structural   K4Sn(TeSe)2
_chemical_formula_sum   'K16 Sn4 Te8 Se8'
_cell_volume   1414.85019772
_cell_formula_units_Z   4
loop_
 _symmetry_equiv_pos_site_id
 _symmetry_equiv_pos_as_xyz
  1  'x, y, z'
loop_
 _atom_site_type_symbol
 _atom_site_label
 _atom_site_symmetry_multiplicity
 _atom_site_fract_x
 _atom_site_fract_y
 _atom_site_fract_z
 _atom_site_occupancy
  K  K0  1  0.50000000  0.50000000  0.50000000  1
  K  K1  1  0.14491500  0.46315600  0.27134600  1
  K  K2  1  0.14491500  0.03684400  0.27134600  1
  K  K3  1  0.98175800  0.75000000  0.43507000  1
  K  K4  1  0.01824200  0.25000000  0.56493000  1
  K  K5  1  0.64491500  0.96315600  0.22865400  1
  K  K6  1  0.35508500  0.03684400  0.77134600  1
  K  K7  1  0.85508500  0.96315600  0.72865400  1
  K  K8  1  0.35508500  0.46315600  0.77134600  1
  K  K9  1  0.00000000  0.50000000  0.00000000  1
  K  K10  1  0.48175800  0.25000000  0.06493000  1
  K  K11  1  0.64491500  0.53684400  0.22865400  1
  K  K12  1  0.51824200  0.75000000  0.93507000  1
  K  K13  1  0.00000000  0.00000000  0.00000000  1
  K  K14  1  0.85508500  0.53684400  0.72865400  1
  K  K15  1  0.50000000  0.00000000  0.50000000  1
  Sn  Sn16  1  0.73738100  0.25000000  0.83831600  1
  Sn  Sn17  1  0.76261900  0.25000000  0.33831600  1
  Sn  Sn18  1  0.23738100  0.75000000  0.66168400  1
  Sn  Sn19  1  0.26261900  0.75000000  0.16168400  1
  Te  Te20  1  0.56403800  0.75000000  0.66589400  1
  Te  Te21  1  0.43596200  0.25000000  0.33410600  1
  Te  Te22  1  0.37320600  0.75000000  0.33517400  1
  Te  Te23  1  0.12679400  0.75000000  0.83517400  1
  Te  Te24  1  0.06403800  0.25000000  0.83410600  1
  Te  Te25  1  0.93596200  0.75000000  0.16589400  1
  Te  Te26  1  0.62679400  0.25000000  0.66482600  1
  Te  Te27  1  0.87320600  0.25000000  0.16482600  1
  Se  Se28  1  0.85554100  0.44495600  0.41583500  1
  Se  Se29  1  0.64445900  0.05504400  0.91583500  1
  Se  Se30  1  0.35554100  0.94495600  0.08416500  1
  Se  Se31  1  0.35554100  0.55504400  0.08416500  1
  Se  Se32  1  0.14445900  0.55504400  0.58416500  1
  Se  Se33  1  0.85554100  0.05504400  0.41583500  1
  Se  Se34  1  0.14445900  0.94495600  0.58416500  1
  Se  Se35  1  0.64445900  0.44495600  0.91583500  1
