# generated using pymatgen
data_Hg2PO3F
_symmetry_space_group_name_H-M   'P 1'
_cell_length_a   9.02679102
_cell_length_b   9.02679102
_cell_length_c   9.02679102
_cell_angle_alpha   121.27639100
_cell_angle_beta   115.62858838
_cell_angle_gamma   92.76831078
_symmetry_Int_Tables_number   1
_chemical_formula_structural   Hg2PO3F
_chemical_formula_sum   'Hg8 P4 O12 F4'
_cell_volume   530.06878056
_cell_formula_units_Z   4
loop_
 _symmetry_equiv_pos_site_id
 _symmetry_equiv_pos_as_xyz
  1  'x, y, z'
loop_
 _atom_site_type_symbol
 _atom_site_label
 _atom_site_symmetry_multiplicity
 _atom_site_fract_x
 _atom_site_fract_y
 _atom_site_fract_z
 _atom_site_occupancy
  Hg  Hg0  1  0.30647100  0.88068000  0.98230100  1
  Hg  Hg1  1  0.69352900  0.67583100  0.57421000  1
  Hg  Hg2  1  0.30647100  0.32416900  0.42579000  1
  Hg  Hg3  1  0.89837900  0.38068000  0.07421000  1
  Hg  Hg4  1  0.89837900  0.82416900  0.51769900  1
  Hg  Hg5  1  0.10162100  0.17583100  0.48230100  1
  Hg  Hg6  1  0.10162100  0.61932000  0.92579000  1
  Hg  Hg7  1  0.69352900  0.11932000  0.01769900  1
  P  P8  1  0.69290400  0.24158700  0.45131700  1
  P  P9  1  0.20972900  0.25841300  0.95131700  1
  P  P10  1  0.30709600  0.75841300  0.54868300  1
  P  P11  1  0.79027100  0.74158700  0.04868300  1
  O  O12  1  0.60134000  0.09209300  0.21809200  1
  O  O13  1  0.11002700  0.66878000  0.44124600  1
  O  O14  1  0.60134000  0.38324800  0.50924800  1
  O  O15  1  0.39866000  0.61675200  0.49075200  1
  O  O16  1  0.77246600  0.83122000  0.94124600  1
  O  O17  1  0.22753400  0.16878000  0.05875400  1
  O  O18  1  0.39866000  0.90790700  0.78190800  1
  O  O19  1  0.12600000  0.40790700  0.00924800  1
  O  O20  1  0.87400000  0.59209300  0.99075200  1
  O  O21  1  0.87400000  0.88324800  0.28190800  1
  O  O22  1  0.12600000  0.11675200  0.71809200  1
  O  O23  1  0.88997300  0.33122000  0.55875400  1
  F  F24  1  0.59668800  0.62994000  0.96674800  1
  F  F25  1  0.33680800  0.87006000  0.46674800  1
  F  F26  1  0.40331200  0.37006000  0.03325200  1
  F  F27  1  0.66319200  0.12994000  0.53325200  1
