# generated using pymatgen
data_MnF4
_symmetry_space_group_name_H-M   'P 1'
_cell_length_a   9.62885087
_cell_length_b   9.62885087
_cell_length_c   9.62885087
_cell_angle_alpha   96.13532507
_cell_angle_beta   96.13532507
_cell_angle_gamma   141.83604698
_symmetry_Int_Tables_number   1
_chemical_formula_structural   MnF4
_chemical_formula_sum   'Mn8 F32'
_cell_volume   521.32305354
_cell_formula_units_Z   8
loop_
 _symmetry_equiv_pos_site_id
 _symmetry_equiv_pos_as_xyz
  1  'x, y, z'
loop_
 _atom_site_type_symbol
 _atom_site_label
 _atom_site_symmetry_multiplicity
 _atom_site_fract_x
 _atom_site_fract_y
 _atom_site_fract_z
 _atom_site_occupancy
  Mn  Mn0  1  0.24317800  0.49348800  0.01068800  1
  Mn  Mn1  1  0.48248900  0.99317800  0.24969000  1
  Mn  Mn2  1  0.74348800  0.23280000  0.75031000  1
  Mn  Mn3  1  0.48280000  0.23248900  0.98931200  1
  Mn  Mn4  1  0.00682200  0.25651200  0.48931200  1
  Mn  Mn5  1  0.76751100  0.75682200  0.25031000  1
  Mn  Mn6  1  0.50651200  0.51720000  0.74969000  1
  Mn  Mn7  1  0.76720000  0.51751100  0.51068800  1
  F  F8  1  0.43486500  0.54196200  0.15895700  1
  F  F9  1  0.52590800  0.18486500  0.39290400  1
  F  F10  1  0.79196200  0.13300400  0.60709600  1
  F  F11  1  0.38300400  0.27590800  0.84104300  1
  F  F12  1  0.81513500  0.20803800  0.34104300  1
  F  F13  1  0.72409200  0.56513500  0.10709600  1
  F  F14  1  0.45803800  0.61699600  0.89290400  1
  F  F15  1  0.86699600  0.47409200  0.65895700  1
  F  F16  1  0.63748500  0.53551600  0.36508200  1
  F  F17  1  0.52240300  0.38748500  0.60196900  1
  F  F18  1  0.78551600  0.92043400  0.39803100  1
  F  F19  1  0.17043400  0.27240300  0.63491800  1
  F  F20  1  0.61251500  0.21448400  0.13491800  1
  F  F21  1  0.72759700  0.36251500  0.89803100  1
  F  F22  1  0.46448400  0.82956600  0.10196900  1
  F  F23  1  0.07956600  0.47759700  0.86508200  1
  F  F24  1  0.06892000  0.20855000  0.92049700  1
  F  F25  1  0.39842300  0.81892000  0.36037000  1
  F  F26  1  0.45855000  0.03805300  0.63963000  1
  F  F27  1  0.28805300  0.14842300  0.07950300  1
  F  F28  1  0.18108000  0.54145000  0.57950300  1
  F  F29  1  0.85157700  0.93108000  0.13963000  1
  F  F30  1  0.79145000  0.71194700  0.86037000  1
  F  F31  1  0.96194700  0.60157700  0.42049700  1
  F  F32  1  0.06515400  0.40653900  0.11904500  1
  F  F33  1  0.19610900  0.81515400  0.15861500  1
  F  F34  1  0.65653900  0.03749500  0.84138500  1
  F  F35  1  0.28749500  0.94610900  0.88095500  1
  F  F36  1  0.18484600  0.34346100  0.38095500  1
  F  F37  1  0.05389100  0.93484600  0.34138500  1
  F  F38  1  0.59346100  0.71250500  0.65861500  1
  F  F39  1  0.96250500  0.80389100  0.61904500  1
