# generated using pymatgen
data_KU2(PO4)3
_symmetry_space_group_name_H-M   'P 1'
_cell_length_a   9.92988224
_cell_length_b   9.92988224
_cell_length_c   9.92988320
_cell_angle_alpha   55.43019142
_cell_angle_beta   55.43019142
_cell_angle_gamma   55.43019141
_symmetry_Int_Tables_number   1
_chemical_formula_structural   KU2(PO4)3
_chemical_formula_sum   'K2 U4 P6 O24'
_cell_volume   618.85585592
_cell_formula_units_Z   2
loop_
 _symmetry_equiv_pos_site_id
 _symmetry_equiv_pos_as_xyz
  1  'x, y, z'
loop_
 _atom_site_type_symbol
 _atom_site_label
 _atom_site_symmetry_multiplicity
 _atom_site_fract_x
 _atom_site_fract_y
 _atom_site_fract_z
 _atom_site_occupancy
  K  K0  1  0.50000000  0.50000000  0.50000000  1
  K  K1  1  0.00000000  0.00000000  0.00000000  1
  U  U2  1  0.84971400  0.84971400  0.84971400  1
  U  U3  1  0.15028600  0.15028600  0.15028600  1
  U  U4  1  0.65028600  0.65028600  0.65028600  1
  U  U5  1  0.34971400  0.34971400  0.34971400  1
  P  P6  1  0.54381500  0.95618500  0.25000000  1
  P  P7  1  0.25000000  0.54381500  0.95618500  1
  P  P8  1  0.75000000  0.45618500  0.04381500  1
  P  P9  1  0.95618500  0.25000000  0.54381500  1
  P  P10  1  0.04381500  0.75000000  0.45618500  1
  P  P11  1  0.45618500  0.04381500  0.75000000  1
  O  O12  1  0.73194800  0.48592000  0.88281700  1
  O  O13  1  0.91485600  0.29100600  0.07209100  1
  O  O14  1  0.70899400  0.92790900  0.08514400  1
  O  O15  1  0.20899400  0.58514400  0.42790900  1
  O  O16  1  0.01408000  0.76805200  0.61718300  1
  O  O17  1  0.38281700  0.98592000  0.23194800  1
  O  O18  1  0.79100600  0.41485600  0.57209100  1
  O  O19  1  0.29100600  0.07209100  0.91485600  1
  O  O20  1  0.42790900  0.20899400  0.58514400  1
  O  O21  1  0.76805200  0.61718300  0.01408000  1
  O  O22  1  0.61718300  0.01408000  0.76805200  1
  O  O23  1  0.11718300  0.26805200  0.51408000  1
  O  O24  1  0.48592000  0.88281700  0.73194800  1
  O  O25  1  0.41485600  0.57209100  0.79100600  1
  O  O26  1  0.08514400  0.70899400  0.92790900  1
  O  O27  1  0.57209100  0.79100600  0.41485600  1
  O  O28  1  0.26805200  0.51408000  0.11718300  1
  O  O29  1  0.51408000  0.11718300  0.26805200  1
  O  O30  1  0.98592000  0.23194800  0.38281700  1
  O  O31  1  0.58514400  0.42790900  0.20899400  1
  O  O32  1  0.23194800  0.38281700  0.98592000  1
  O  O33  1  0.92790900  0.08514400  0.70899400  1
  O  O34  1  0.88281700  0.73194800  0.48592000  1
  O  O35  1  0.07209100  0.91485600  0.29100600  1
