# generated using pymatgen
data_Zr7P4
_symmetry_space_group_name_H-M   'P 1'
_cell_length_a   8.16755999
_cell_length_b   8.16755999
_cell_length_c   14.82302078
_cell_angle_alpha   75.48766866
_cell_angle_beta   75.48766866
_cell_angle_gamma   25.67429392
_symmetry_Int_Tables_number   1
_chemical_formula_structural   Zr7P4
_chemical_formula_sum   'Zr14 P8'
_cell_volume   414.02380701
_cell_formula_units_Z   2
loop_
 _symmetry_equiv_pos_site_id
 _symmetry_equiv_pos_as_xyz
  1  'x, y, z'
loop_
 _atom_site_type_symbol
 _atom_site_label
 _atom_site_symmetry_multiplicity
 _atom_site_fract_x
 _atom_site_fract_y
 _atom_site_fract_z
 _atom_site_occupancy
  Zr  Zr0  1  0.34017700  0.34017700  0.97054900  1
  Zr  Zr1  1  0.99559300  0.99559300  0.66753200  1
  Zr  Zr2  1  0.17588100  0.17588100  0.45859800  1
  Zr  Zr3  1  0.82411900  0.82411900  0.54140200  1
  Zr  Zr4  1  0.56816100  0.56816100  0.83121300  1
  Zr  Zr5  1  0.00000000  0.00000000  0.00000000  1
  Zr  Zr6  1  0.43183900  0.43183900  0.16878700  1
  Zr  Zr7  1  0.79492900  0.79492900  0.79697600  1
  Zr  Zr8  1  0.00440700  0.00440700  0.33246800  1
  Zr  Zr9  1  0.80396500  0.80396500  0.31073500  1
  Zr  Zr10  1  0.20507100  0.20507100  0.20302400  1
  Zr  Zr11  1  0.19603500  0.19603500  0.68926500  1
  Zr  Zr12  1  0.65982300  0.65982300  0.02945100  1
  Zr  Zr13  1  0.50000000  0.50000000  0.50000000  1
  P  P14  1  0.62528000  0.62528000  0.60190600  1
  P  P15  1  0.93696900  0.93696900  0.85247800  1
  P  P16  1  0.37472000  0.37472000  0.39809400  1
  P  P17  1  0.36960600  0.36960600  0.65964700  1
  P  P18  1  0.06303100  0.06303100  0.14752200  1
  P  P19  1  0.82342300  0.82342300  0.11200600  1
  P  P20  1  0.63039400  0.63039400  0.34035300  1
  P  P21  1  0.17657700  0.17657700  0.88799400  1
