# generated using pymatgen
data_RbNbS2O9
_symmetry_space_group_name_H-M   'P 1'
_cell_length_a   5.25480300
_cell_length_b   9.08004200
_cell_length_c   17.67494400
_cell_angle_alpha   90.00000000
_cell_angle_beta   90.00000000
_cell_angle_gamma   90.00000000
_symmetry_Int_Tables_number   1
_chemical_formula_structural   RbNbS2O9
_chemical_formula_sum   'Rb4 Nb4 S8 O36'
_cell_volume   843.33930760
_cell_formula_units_Z   4
loop_
 _symmetry_equiv_pos_site_id
 _symmetry_equiv_pos_as_xyz
  1  'x, y, z'
loop_
 _atom_site_type_symbol
 _atom_site_label
 _atom_site_symmetry_multiplicity
 _atom_site_fract_x
 _atom_site_fract_y
 _atom_site_fract_z
 _atom_site_occupancy
  Rb  Rb0  1  0.75000000  0.67110800  0.06502000  1
  Rb  Rb1  1  0.25000000  0.17110800  0.43498000  1
  Rb  Rb2  1  0.75000000  0.82889200  0.56502000  1
  Rb  Rb3  1  0.25000000  0.32889200  0.93498000  1
  Nb  Nb4  1  0.75000000  0.57934400  0.30967500  1
  Nb  Nb5  1  0.25000000  0.07934400  0.19032500  1
  Nb  Nb6  1  0.75000000  0.92065600  0.80967500  1
  Nb  Nb7  1  0.25000000  0.42065600  0.69032500  1
  S  S8  1  0.75000000  0.97724300  0.30485700  1
  S  S9  1  0.75000000  0.36906700  0.56957600  1
  S  S10  1  0.25000000  0.63093300  0.43042400  1
  S  S11  1  0.25000000  0.02275700  0.69514300  1
  S  S12  1  0.25000000  0.86906700  0.93042400  1
  S  S13  1  0.75000000  0.13093300  0.06957600  1
  S  S14  1  0.75000000  0.52275700  0.80485700  1
  S  S15  1  0.25000000  0.47724300  0.19514300  1
  O  O16  1  0.75000000  0.52124000  0.54657100  1
  O  O17  1  0.25000000  0.75727200  0.98888800  1
  O  O18  1  0.75000000  0.10159900  0.84042000  1
  O  O19  1  0.75000000  0.97876000  0.04657100  1
  O  O20  1  0.01949500  0.93619800  0.72307100  1
  O  O21  1  0.25000000  0.16827300  0.73132900  1
  O  O22  1  0.02305500  0.66286600  0.37779900  1
  O  O23  1  0.75000000  0.66827300  0.76867100  1
  O  O24  1  0.01949500  0.56380200  0.22307100  1
  O  O25  1  0.51949500  0.43619800  0.77692900  1
  O  O26  1  0.97694500  0.33713400  0.62220100  1
  O  O27  1  0.75000000  0.25727200  0.51111200  1
  O  O28  1  0.25000000  0.74272800  0.48888800  1
  O  O29  1  0.75000000  0.97903600  0.38678900  1
  O  O30  1  0.52305500  0.16286600  0.12220100  1
  O  O31  1  0.48050500  0.93619800  0.72307100  1
  O  O32  1  0.25000000  0.33172700  0.23132900  1
  O  O33  1  0.47694500  0.66286600  0.37779900  1
  O  O34  1  0.75000000  0.83172700  0.26867100  1
  O  O35  1  0.47694500  0.83713400  0.87779900  1
  O  O36  1  0.98050500  0.06380200  0.27692900  1
  O  O37  1  0.52305500  0.33713400  0.62220100  1
  O  O38  1  0.25000000  0.02096400  0.61321100  1
  O  O39  1  0.75000000  0.24272800  0.01111200  1
  O  O40  1  0.75000000  0.39840100  0.34042000  1
  O  O41  1  0.02305500  0.83713400  0.87779900  1
  O  O42  1  0.25000000  0.47876000  0.45342900  1
  O  O43  1  0.97694500  0.16286600  0.12220100  1
  O  O44  1  0.75000000  0.52096400  0.88678900  1
  O  O45  1  0.25000000  0.47903600  0.11321100  1
  O  O46  1  0.48050500  0.56380200  0.22307100  1
  O  O47  1  0.25000000  0.60159900  0.65958000  1
  O  O48  1  0.51949500  0.06380200  0.27692900  1
  O  O49  1  0.25000000  0.02124000  0.95342900  1
  O  O50  1  0.25000000  0.89840100  0.15958000  1
  O  O51  1  0.98050500  0.43619800  0.77692900  1
