# generated using pymatgen
data_Er3(CuSi)4
_symmetry_space_group_name_H-M   'P 1'
_cell_length_a   7.81160272
_cell_length_b   7.81160272
_cell_length_c   7.81160272
_cell_angle_alpha   149.47792737
_cell_angle_beta   130.72321034
_cell_angle_gamma   59.08011363
_symmetry_Int_Tables_number   1
_chemical_formula_structural   Er3(CuSi)4
_chemical_formula_sum   'Er3 Cu4 Si4'
_cell_volume   182.02907845
_cell_formula_units_Z   1
loop_
 _symmetry_equiv_pos_site_id
 _symmetry_equiv_pos_as_xyz
  1  'x, y, z'
loop_
 _atom_site_type_symbol
 _atom_site_label
 _atom_site_symmetry_multiplicity
 _atom_site_fract_x
 _atom_site_fract_y
 _atom_site_fract_z
 _atom_site_occupancy
  Er  Er0  1  0.87167000  0.87167000  0.00000000  1
  Er  Er1  1  0.12833000  0.12833000  0.00000000  1
  Er  Er2  1  0.50000000  0.00000000  0.50000000  1
  Cu  Cu3  1  0.52297400  0.33173000  0.19124400  1
  Cu  Cu4  1  0.85951400  0.66827000  0.19124400  1
  Cu  Cu5  1  0.14048600  0.33173000  0.80875600  1
  Cu  Cu6  1  0.47702600  0.66827000  0.80875600  1
  Si  Si7  1  0.81527600  0.50000000  0.31527600  1
  Si  Si8  1  0.18472400  0.50000000  0.68472400  1
  Si  Si9  1  0.28428700  0.78428700  0.50000000  1
  Si  Si10  1  0.71571300  0.21571300  0.50000000  1
