# generated using pymatgen
data_S3(NO7)2
_symmetry_space_group_name_H-M   'P 1'
_cell_length_a   10.57469493
_cell_length_b   10.57469493
_cell_length_c   7.75017974
_cell_angle_alpha   79.10242799
_cell_angle_beta   79.10242799
_cell_angle_gamma   40.78190607
_symmetry_Int_Tables_number   1
_chemical_formula_structural   S3(NO7)2
_chemical_formula_sum   'S6 N4 O28'
_cell_volume   554.45095416
_cell_formula_units_Z   2
loop_
 _symmetry_equiv_pos_site_id
 _symmetry_equiv_pos_as_xyz
  1  'x, y, z'
loop_
 _atom_site_type_symbol
 _atom_site_label
 _atom_site_symmetry_multiplicity
 _atom_site_fract_x
 _atom_site_fract_y
 _atom_site_fract_z
 _atom_site_occupancy
  S  S0  1  0.74731200  0.25266200  0.75045900  1
  S  S1  1  0.25266200  0.74731200  0.25045900  1
  S  S2  1  0.82767000  0.46422200  0.62175400  1
  S  S3  1  0.46422200  0.82767000  0.12175400  1
  S  S4  1  0.53628500  0.17188600  0.76848400  1
  S  S5  1  0.17188600  0.53628500  0.26848400  1
  N  N6  1  0.30643900  0.98725400  0.64319700  1
  N  N7  1  0.98725400  0.30643900  0.14319700  1
  N  N8  1  0.01207900  0.69441100  0.78275300  1
  N  N9  1  0.69441100  0.01207900  0.28275300  1
  O  O10  1  0.66508700  0.45657300  0.69538100  1
  O  O11  1  0.45657300  0.66508700  0.19538100  1
  O  O12  1  0.54329300  0.33485400  0.75405800  1
  O  O13  1  0.33485400  0.54329300  0.25405800  1
  O  O14  1  0.68851400  0.67234800  0.61182400  1
  O  O15  1  0.67234800  0.68851400  0.11182400  1
  O  O16  1  0.32830100  0.31107200  0.79371400  1
  O  O17  1  0.31107200  0.32830100  0.29371400  1
  O  O18  1  0.91692800  0.37633100  0.45438100  1
  O  O19  1  0.37633100  0.91692800  0.95438100  1
  O  O20  1  0.62360500  0.08267700  0.60155700  1
  O  O21  1  0.08267700  0.62360500  0.10155700  1
  O  O22  1  0.96316200  0.34924200  0.76007300  1
  O  O23  1  0.34924200  0.96316200  0.26007300  1
  O  O24  1  0.65174300  0.03630000  0.91636700  1
  O  O25  1  0.03630000  0.65174300  0.41636700  1
  O  O26  1  0.81216300  0.18577900  0.92494200  1
  O  O27  1  0.18577900  0.81216300  0.42494200  1
  O  O28  1  0.87481600  0.12635800  0.61018800  1
  O  O29  1  0.12635800  0.87481600  0.11018800  1
  O  O30  1  0.27285700  0.90533500  0.66485800  1
  O  O31  1  0.90533500  0.27285700  0.16485800  1
  O  O32  1  0.09484200  0.72715200  0.75849000  1
  O  O33  1  0.72715200  0.09484200  0.25849000  1
  O  O34  1  0.33083500  0.07766600  0.61351000  1
  O  O35  1  0.07766600  0.33083500  0.11351000  1
  O  O36  1  0.92287500  0.66907400  0.80101100  1
  O  O37  1  0.66907400  0.92287500  0.30101100  1
