# generated using pymatgen
data_Mg2BiPO6
_symmetry_space_group_name_H-M   'P 1'
_cell_length_a   5.33725900
_cell_length_b   7.90216100
_cell_length_c   12.11472300
_cell_angle_alpha   90.00000000
_cell_angle_beta   90.00000000
_cell_angle_gamma   90.00000000
_symmetry_Int_Tables_number   1
_chemical_formula_structural   Mg2BiPO6
_chemical_formula_sum   'Mg8 Bi4 P4 O24'
_cell_volume   510.94910247
_cell_formula_units_Z   4
loop_
 _symmetry_equiv_pos_site_id
 _symmetry_equiv_pos_as_xyz
  1  'x, y, z'
loop_
 _atom_site_type_symbol
 _atom_site_label
 _atom_site_symmetry_multiplicity
 _atom_site_fract_x
 _atom_site_fract_y
 _atom_site_fract_z
 _atom_site_occupancy
  Mg  Mg0  1  0.75000000  0.80580800  0.59975000  1
  Mg  Mg1  1  0.75000000  0.30160300  0.09534300  1
  Mg  Mg2  1  0.75000000  0.19839700  0.59534300  1
  Mg  Mg3  1  0.25000000  0.30580800  0.90025000  1
  Mg  Mg4  1  0.25000000  0.80160300  0.40465700  1
  Mg  Mg5  1  0.25000000  0.69839700  0.90465700  1
  Mg  Mg6  1  0.25000000  0.19419200  0.40025000  1
  Mg  Mg7  1  0.75000000  0.69419200  0.09975000  1
  Bi  Bi8  1  0.25000000  0.49349300  0.59600100  1
  Bi  Bi9  1  0.25000000  0.00650700  0.09600100  1
  Bi  Bi10  1  0.75000000  0.50650700  0.40399900  1
  Bi  Bi11  1  0.75000000  0.99349300  0.90399900  1
  P  P12  1  0.75000000  0.50954800  0.80147500  1
  P  P13  1  0.25000000  0.00954800  0.69852500  1
  P  P14  1  0.25000000  0.49045200  0.19852500  1
  P  P15  1  0.75000000  0.99045200  0.30147500  1
  O  O16  1  0.49931300  0.32707000  0.49671900  1
  O  O17  1  0.50068700  0.67293000  0.50328100  1
  O  O18  1  0.00068700  0.32707000  0.49671900  1
  O  O19  1  0.00754600  0.00198800  0.62506900  1
  O  O20  1  0.99245400  0.50198800  0.87493100  1
  O  O21  1  0.25000000  0.85845200  0.77825800  1
  O  O22  1  0.75000000  0.81980300  0.24025000  1
  O  O23  1  0.75000000  0.14154800  0.22174200  1
  O  O24  1  0.25000000  0.31980300  0.25975000  1
  O  O25  1  0.25000000  0.64154800  0.27825800  1
  O  O26  1  0.49245400  0.49801200  0.12506900  1
  O  O27  1  0.99931300  0.82707000  0.00328100  1
  O  O28  1  0.99931300  0.67293000  0.50328100  1
  O  O29  1  0.00754600  0.49801200  0.12506900  1
  O  O30  1  0.00068700  0.17293000  0.99671900  1
  O  O31  1  0.50754600  0.99801200  0.37493100  1
  O  O32  1  0.25000000  0.18019700  0.75975000  1
  O  O33  1  0.75000000  0.68019700  0.74025000  1
  O  O34  1  0.49931300  0.17293000  0.99671900  1
  O  O35  1  0.49245400  0.00198800  0.62506900  1
  O  O36  1  0.99245400  0.99801200  0.37493100  1
  O  O37  1  0.75000000  0.35845200  0.72174200  1
  O  O38  1  0.50754600  0.50198800  0.87493100  1
  O  O39  1  0.50068700  0.82707000  0.00328100  1
