# generated using pymatgen
data_Ba2Mn3(SeO3)6
_symmetry_space_group_name_H-M   'P 1'
_cell_length_a   9.24616600
_cell_length_b   5.56764100
_cell_length_c   18.18294658
_cell_angle_alpha   85.47909895
_cell_angle_beta   90.00000000
_cell_angle_gamma   90.00000000
_symmetry_Int_Tables_number   1
_chemical_formula_structural   Ba2Mn3(SeO3)6
_chemical_formula_sum   'Ba4 Mn6 Se12 O36'
_cell_volume   933.13359020
_cell_formula_units_Z   2
loop_
 _symmetry_equiv_pos_site_id
 _symmetry_equiv_pos_as_xyz
  1  'x, y, z'
loop_
 _atom_site_type_symbol
 _atom_site_label
 _atom_site_symmetry_multiplicity
 _atom_site_fract_x
 _atom_site_fract_y
 _atom_site_fract_z
 _atom_site_occupancy
  Ba  Ba0  1  0.33498700  0.98093000  0.79599300  1
  Ba  Ba1  1  0.16501300  0.98093000  0.29599300  1
  Ba  Ba2  1  0.66501300  0.01907000  0.20400700  1
  Ba  Ba3  1  0.83498700  0.01907000  0.70400700  1
  Mn  Mn4  1  0.50078500  0.51533100  0.33586100  1
  Mn  Mn5  1  0.00000000  0.00000000  0.50000000  1
  Mn  Mn6  1  0.49921500  0.48466900  0.66413900  1
  Mn  Mn7  1  0.50000000  0.00000000  0.00000000  1
  Mn  Mn8  1  0.99921500  0.51533100  0.83586100  1
  Mn  Mn9  1  0.00078500  0.48466900  0.16413900  1
  Se  Se10  1  0.85887600  0.01027900  0.93178100  1
  Se  Se11  1  0.64112400  0.01027900  0.43178100  1
  Se  Se12  1  0.70358100  0.49815300  0.04762300  1
  Se  Se13  1  0.29641900  0.50184700  0.95237700  1
  Se  Se14  1  0.20358100  0.50184700  0.45237700  1
  Se  Se15  1  0.14661100  0.50543800  0.68771000  1
  Se  Se16  1  0.14112400  0.98972100  0.06821900  1
  Se  Se17  1  0.85338900  0.49456200  0.31229000  1
  Se  Se18  1  0.79641900  0.49815300  0.54762300  1
  Se  Se19  1  0.35338900  0.50543800  0.18771000  1
  Se  Se20  1  0.35887600  0.98972100  0.56821900  1
  Se  Se21  1  0.64661100  0.49456200  0.81229000  1
  O  O22  1  0.56596000  0.28261200  0.75921200  1
  O  O23  1  0.04290000  0.71742700  0.08207000  1
  O  O24  1  0.18184400  0.90554400  0.57794600  1
  O  O25  1  0.68331200  0.39475200  0.62227700  1
  O  O26  1  0.32456000  0.55843800  0.71815900  1
  O  O27  1  0.61057300  0.86045400  0.35376900  1
  O  O28  1  0.82456000  0.44156200  0.78184100  1
  O  O29  1  0.56808300  0.29228900  0.06883000  1
  O  O30  1  0.11057300  0.13954600  0.14623100  1
  O  O31  1  0.93404000  0.28261200  0.25921200  1
  O  O32  1  0.63652400  0.76251000  0.07649500  1
  O  O33  1  0.45710000  0.71742700  0.58207000  1
  O  O34  1  0.36347600  0.23749000  0.92350500  1
  O  O35  1  0.06808300  0.70771100  0.43117000  1
  O  O36  1  0.06596000  0.71738800  0.74078800  1
  O  O37  1  0.59934000  0.73912100  0.75341200  1
  O  O38  1  0.67544000  0.44156200  0.28184100  1
  O  O39  1  0.43404000  0.71738800  0.24078800  1
  O  O40  1  0.40066000  0.26087900  0.24658800  1
  O  O41  1  0.18331200  0.60524800  0.87772300  1
  O  O42  1  0.90066000  0.73912100  0.25341200  1
  O  O43  1  0.38942700  0.13954600  0.64623100  1
  O  O44  1  0.86347600  0.76251000  0.57649500  1
  O  O45  1  0.93191700  0.29228900  0.56883000  1
  O  O46  1  0.81668800  0.39475200  0.12227700  1
  O  O47  1  0.31668800  0.60524800  0.37772300  1
  O  O48  1  0.31815600  0.90554400  0.07794600  1
  O  O49  1  0.54290000  0.28257300  0.41793000  1
  O  O50  1  0.17544000  0.55843800  0.21815900  1
  O  O51  1  0.13652400  0.23749000  0.42350500  1
  O  O52  1  0.88942700  0.86045400  0.85376900  1
  O  O53  1  0.09934000  0.26087900  0.74658800  1
  O  O54  1  0.68184400  0.09445600  0.92205400  1
  O  O55  1  0.43191700  0.70771100  0.93117000  1
  O  O56  1  0.81815600  0.09445600  0.42205400  1
  O  O57  1  0.95710000  0.28257300  0.91793000  1
