# generated using pymatgen
data_K2MnP2O7
_symmetry_space_group_name_H-M   'P 1'
_cell_length_a   5.60369800
_cell_length_b   9.69772500
_cell_length_c   14.05048674
_cell_angle_alpha   62.52771714
_cell_angle_beta   90.00000000
_cell_angle_gamma   90.00000000
_symmetry_Int_Tables_number   1
_chemical_formula_structural   K2MnP2O7
_chemical_formula_sum   'K8 Mn4 P8 O28'
_cell_volume   677.44521955
_cell_formula_units_Z   4
loop_
 _symmetry_equiv_pos_site_id
 _symmetry_equiv_pos_as_xyz
  1  'x, y, z'
loop_
 _atom_site_type_symbol
 _atom_site_label
 _atom_site_symmetry_multiplicity
 _atom_site_fract_x
 _atom_site_fract_y
 _atom_site_fract_z
 _atom_site_occupancy
  K  K0  1  0.26675800  0.49059300  0.13900600  1
  K  K1  1  0.23324200  0.49059300  0.63900600  1
  K  K2  1  0.72693500  0.96489700  0.67653300  1
  K  K3  1  0.73324200  0.50940700  0.86099400  1
  K  K4  1  0.27306500  0.03510300  0.32346700  1
  K  K5  1  0.76675800  0.50940700  0.36099400  1
  K  K6  1  0.77306500  0.96489700  0.17653300  1
  K  K7  1  0.22693500  0.03510300  0.82346700  1
  Mn  Mn8  1  0.24227700  0.23308400  0.01813300  1
  Mn  Mn9  1  0.74227700  0.76691600  0.48186700  1
  Mn  Mn10  1  0.25772300  0.23308400  0.51813300  1
  Mn  Mn11  1  0.75772300  0.76691600  0.98186700  1
  P  P12  1  0.25937500  0.66856400  0.36224200  1
  P  P13  1  0.24062500  0.66856400  0.86224200  1
  P  P14  1  0.22463200  0.82694300  0.62087500  1
  P  P15  1  0.75937500  0.33143600  0.13775800  1
  P  P16  1  0.77536800  0.17305700  0.37912500  1
  P  P17  1  0.27536800  0.82694300  0.12087500  1
  P  P18  1  0.72463200  0.17305700  0.87912500  1
  P  P19  1  0.74062500  0.33143600  0.63775800  1
  O  O20  1  0.04527300  0.74356000  0.38791700  1
  O  O21  1  0.49747500  0.75053600  0.35571900  1
  O  O22  1  0.95472700  0.25644000  0.61208300  1
  O  O23  1  0.02688600  0.21897700  0.39747600  1
  O  O24  1  0.97311400  0.78102300  0.60252400  1
  O  O25  1  0.73231900  0.02019900  0.87200800  1
  O  O26  1  0.22908600  0.49195300  0.92997600  1
  O  O27  1  0.26768100  0.97980100  0.12799200  1
  O  O28  1  0.00252500  0.75053600  0.85571900  1
  O  O29  1  0.19958100  0.68768700  0.24127800  1
  O  O30  1  0.91424200  0.19051200  0.95054300  1
  O  O31  1  0.76768100  0.02019900  0.37200800  1
  O  O32  1  0.50252500  0.24946400  0.64428100  1
  O  O33  1  0.23231900  0.97980100  0.62799200  1
  O  O34  1  0.30041900  0.68768700  0.74127800  1
  O  O35  1  0.80041900  0.31231300  0.75872200  1
  O  O36  1  0.27091400  0.49195300  0.42997600  1
  O  O37  1  0.54527300  0.25644000  0.11208300  1
  O  O38  1  0.77091400  0.50804700  0.07002400  1
  O  O39  1  0.72908600  0.50804700  0.57002400  1
  O  O40  1  0.99747500  0.24946400  0.14428100  1
  O  O41  1  0.69958100  0.31231300  0.25872200  1
  O  O42  1  0.58575800  0.19051200  0.45054300  1
  O  O43  1  0.47311400  0.21897700  0.89747600  1
  O  O44  1  0.41424200  0.80948800  0.54945700  1
  O  O45  1  0.52688600  0.78102300  0.10252400  1
  O  O46  1  0.45472700  0.74356000  0.88791700  1
  O  O47  1  0.08575800  0.80948800  0.04945700  1
