# generated using pymatgen
data_KTaTe3
_symmetry_space_group_name_H-M   'P 1'
_cell_length_a   14.26880900
_cell_length_b   7.98636500
_cell_length_c   31.32861614
_cell_angle_alpha   89.92458311
_cell_angle_beta   90.00000000
_cell_angle_gamma   90.00000000
_symmetry_Int_Tables_number   1
_chemical_formula_structural   KTaTe3
_chemical_formula_sum   'K20 Ta20 Te60'
_cell_volume   3570.07808121
_cell_formula_units_Z   20
loop_
 _symmetry_equiv_pos_site_id
 _symmetry_equiv_pos_as_xyz
  1  'x, y, z'
loop_
 _atom_site_type_symbol
 _atom_site_label
 _atom_site_symmetry_multiplicity
 _atom_site_fract_x
 _atom_site_fract_y
 _atom_site_fract_z
 _atom_site_occupancy
  K  K0  1  0.94819400  0.28141500  0.54955900  1
  K  K1  1  0.05180600  0.71858500  0.45044100  1
  K  K2  1  0.55180600  0.28141500  0.04955900  1
  K  K3  1  0.91031200  0.23662800  0.14120200  1
  K  K4  1  0.96531600  0.22425500  0.35150500  1
  K  K5  1  0.89234000  0.21169900  0.75027700  1
  K  K6  1  0.44819400  0.71858500  0.95044100  1
  K  K7  1  0.39234000  0.78830100  0.74972300  1
  K  K8  1  0.88060600  0.22701100  0.94925700  1
  K  K9  1  0.11939400  0.77298900  0.05074300  1
  K  K10  1  0.41031200  0.76337200  0.35879800  1
  K  K11  1  0.53468400  0.22425500  0.85150500  1
  K  K12  1  0.03468400  0.77574500  0.64849500  1
  K  K13  1  0.08968800  0.76337200  0.85879800  1
  K  K14  1  0.38060600  0.77298900  0.55074300  1
  K  K15  1  0.61939400  0.22701100  0.44925700  1
  K  K16  1  0.10766000  0.78830100  0.24972300  1
  K  K17  1  0.58968800  0.23662800  0.64120200  1
  K  K18  1  0.46531600  0.77574500  0.14849500  1
  K  K19  1  0.60766000  0.21169900  0.25027700  1
  Ta  Ta20  1  0.81711600  0.77527900  0.19512900  1
  Ta  Ta21  1  0.25682000  0.31362200  0.10367100  1
  Ta  Ta22  1  0.75790300  0.76636200  0.09125100  1
  Ta  Ta23  1  0.24318000  0.31362200  0.60367100  1
  Ta  Ta24  1  0.75682000  0.68637800  0.39632900  1
  Ta  Ta25  1  0.78628500  0.65043600  0.29821400  1
  Ta  Ta26  1  0.71371500  0.65043600  0.79821400  1
  Ta  Ta27  1  0.31711600  0.22472100  0.30487100  1
  Ta  Ta28  1  0.74669800  0.71982800  0.49185000  1
  Ta  Ta29  1  0.24209700  0.23363800  0.90874900  1
  Ta  Ta30  1  0.24669800  0.28017200  0.00815000  1
  Ta  Ta31  1  0.74318000  0.68637800  0.89632900  1
  Ta  Ta32  1  0.74209700  0.76636200  0.59125100  1
  Ta  Ta33  1  0.21371500  0.34956400  0.70178600  1
  Ta  Ta34  1  0.28628500  0.34956400  0.20178600  1
  Ta  Ta35  1  0.18288400  0.22472100  0.80487100  1
  Ta  Ta36  1  0.25790300  0.23363800  0.40874900  1
  Ta  Ta37  1  0.25330200  0.28017200  0.50815000  1
  Ta  Ta38  1  0.68288400  0.77527900  0.69512900  1
  Ta  Ta39  1  0.75330200  0.71982800  0.99185000  1
  Te  Te40  1  0.21617400  0.54206100  0.94608100  1
  Te  Te41  1  0.62159400  0.47718900  0.73627000  1
  Te  Te42  1  0.08891600  0.32069900  0.05936200  1
  Te  Te43  1  0.69072500  0.52551100  0.15309200  1
  Te  Te44  1  0.43073900  0.26352600  0.14991700  1
  Te  Te45  1  0.19797200  0.00209700  0.34837200  1
  Te  Te46  1  0.86187200  0.67914300  0.73634900  1
  Te  Te47  1  0.28382600  0.54206100  0.44608100  1
  Te  Te48  1  0.84557600  0.86587700  0.83265400  1
  Te  Te49  1  0.26835800  0.61497800  0.65479000  1
  Te  Te50  1  0.63480000  0.98347600  0.75597700  1
  Te  Te51  1  0.82596100  0.96154300  0.43911900  1
  Te  Te52  1  0.91108400  0.67930100  0.94063800  1
  Te  Te53  1  0.12186100  0.06728300  0.96241000  1
  Te  Te54  1  0.60280200  0.83861600  0.04497200  1
  Te  Te55  1  0.71617400  0.45793900  0.55391900  1
  Te  Te56  1  0.39719800  0.16138400  0.95502800  1
  Te  Te57  1  0.15442400  0.13412300  0.16734600  1
  Te  Te58  1  0.80202800  0.99790300  0.65162800  1
  Te  Te59  1  0.76835800  0.38502200  0.84521000  1
  Te  Te60  1  0.13480000  0.01652400  0.74402300  1
  Te  Te61  1  0.37840600  0.52281100  0.26373000  1
  Te  Te62  1  0.73164200  0.38502200  0.34521000  1
  Te  Te63  1  0.06926100  0.26352600  0.64991700  1
  Te  Te64  1  0.63812800  0.67914300  0.23634900  1
  Te  Te65  1  0.17403900  0.03845700  0.56088100  1
  Te  Te66  1  0.32596100  0.03845700  0.06088100  1
  Te  Te67  1  0.87813900  0.93271700  0.03759000  1
  Te  Te68  1  0.41108400  0.32069900  0.55936200  1
  Te  Te69  1  0.87840600  0.47718900  0.23627000  1
  Te  Te70  1  0.10280200  0.16138400  0.45502800  1
  Te  Te71  1  0.55287700  0.75088200  0.63571500  1
  Te  Te72  1  0.30202800  0.00209700  0.84837200  1
  Te  Te73  1  0.05287700  0.24911800  0.86428500  1
  Te  Te74  1  0.12159400  0.52281100  0.76373000  1
  Te  Te75  1  0.13812800  0.32085700  0.26365100  1
  Te  Te76  1  0.34557600  0.13412300  0.66734600  1
  Te  Te77  1  0.93073900  0.73647400  0.35008300  1
  Te  Te78  1  0.86520000  0.98347600  0.25597700  1
  Te  Te79  1  0.69797200  0.99790300  0.15162800  1
  Te  Te80  1  0.62186100  0.93271700  0.53759000  1
  Te  Te81  1  0.30927500  0.47448900  0.84690800  1
  Te  Te82  1  0.23164200  0.61497800  0.15479000  1
  Te  Te83  1  0.37813900  0.06728300  0.46241000  1
  Te  Te84  1  0.34261100  0.54139900  0.04798800  1
  Te  Te85  1  0.36187200  0.32085700  0.76365100  1
  Te  Te86  1  0.36520000  0.01652400  0.24402300  1
  Te  Te87  1  0.67403900  0.96154300  0.93911900  1
  Te  Te88  1  0.44712300  0.24911800  0.36428500  1
  Te  Te89  1  0.84261100  0.45860100  0.45201200  1
  Te  Te90  1  0.15738900  0.54139900  0.54798800  1
  Te  Te91  1  0.58891600  0.67930100  0.44063800  1
  Te  Te92  1  0.65738900  0.45860100  0.95201200  1
  Te  Te93  1  0.78382600  0.45793900  0.05391900  1
  Te  Te94  1  0.80927500  0.52551100  0.65309200  1
  Te  Te95  1  0.94712300  0.75088200  0.13571500  1
  Te  Te96  1  0.89719800  0.83861600  0.54497200  1
  Te  Te97  1  0.56926100  0.73647400  0.85008300  1
  Te  Te98  1  0.19072500  0.47448900  0.34690800  1
  Te  Te99  1  0.65442400  0.86587700  0.33265400  1
