# generated using pymatgen
data_ErAgGe
_symmetry_space_group_name_H-M   'P 1'
_cell_length_a   7.13425246
_cell_length_b   7.13425246
_cell_length_c   4.19799800
_cell_angle_alpha   90.00000000
_cell_angle_beta   90.00000000
_cell_angle_gamma   120.00000426
_symmetry_Int_Tables_number   1
_chemical_formula_structural   ErAgGe
_chemical_formula_sum   'Er3 Ag3 Ge3'
_cell_volume   185.04177584
_cell_formula_units_Z   3
loop_
 _symmetry_equiv_pos_site_id
 _symmetry_equiv_pos_as_xyz
  1  'x, y, z'
loop_
 _atom_site_type_symbol
 _atom_site_label
 _atom_site_symmetry_multiplicity
 _atom_site_fract_x
 _atom_site_fract_y
 _atom_site_fract_z
 _atom_site_occupancy
  Er  Er0  1  0.58385700  0.00000000  0.00000000  1
  Er  Er1  1  0.41614300  0.41614300  0.00000000  1
  Er  Er2  1  0.00000000  0.58385700  0.00000000  1
  Ag  Ag3  1  0.74870500  0.74870500  0.50000000  1
  Ag  Ag4  1  0.25129500  0.00000000  0.50000000  1
  Ag  Ag5  1  0.00000000  0.25129500  0.50000000  1
  Ge  Ge6  1  0.00000000  0.00000000  0.00000000  1
  Ge  Ge7  1  0.66666700  0.33333300  0.50000000  1
  Ge  Ge8  1  0.33333300  0.66666700  0.50000000  1
