# generated using pymatgen
data_Er2SiO5
_symmetry_space_group_name_H-M   'P 1'
_cell_length_a   7.97064335
_cell_length_b   7.97064335
_cell_length_c   10.38985403
_cell_angle_alpha   61.11898396
_cell_angle_beta   61.11898396
_cell_angle_gamma   49.98129137
_symmetry_Int_Tables_number   1
_chemical_formula_structural   Er2SiO5
_chemical_formula_sum   'Er8 Si4 O20'
_cell_volume   427.75850106
_cell_formula_units_Z   4
loop_
 _symmetry_equiv_pos_site_id
 _symmetry_equiv_pos_as_xyz
  1  'x, y, z'
loop_
 _atom_site_type_symbol
 _atom_site_label
 _atom_site_symmetry_multiplicity
 _atom_site_fract_x
 _atom_site_fract_y
 _atom_site_fract_z
 _atom_site_occupancy
  Er  Er0  1  0.48192800  0.23624100  0.33587300  1
  Er  Er1  1  0.21981100  0.70709000  0.46626200  1
  Er  Er2  1  0.51807200  0.76375900  0.66412700  1
  Er  Er3  1  0.23624100  0.48192800  0.83587300  1
  Er  Er4  1  0.76375900  0.51807200  0.16412700  1
  Er  Er5  1  0.78018900  0.29291000  0.53373800  1
  Er  Er6  1  0.70709000  0.21981100  0.96626200  1
  Er  Er7  1  0.29291000  0.78018900  0.03373800  1
  Si  Si8  1  0.72775800  0.90865400  0.80726600  1
  Si  Si9  1  0.27224200  0.09134600  0.19273400  1
  Si  Si10  1  0.09134600  0.27224200  0.69273400  1
  Si  Si11  1  0.90865400  0.72775800  0.30726600  1
  O  O12  1  0.44453700  0.15080400  0.17567600  1
  O  O13  1  0.83085500  0.40749000  0.67844100  1
  O  O14  1  0.91438700  0.90866500  0.13936000  1
  O  O15  1  0.27199700  0.13082100  0.56188500  1
  O  O16  1  0.55546300  0.84919600  0.82432400  1
  O  O17  1  0.38609100  0.57823200  0.89764800  1
  O  O18  1  0.15080400  0.44453700  0.67567600  1
  O  O19  1  0.40749000  0.83085500  0.17844100  1
  O  O20  1  0.72800300  0.86917900  0.43811500  1
  O  O21  1  0.57823200  0.38609100  0.39764800  1
  O  O22  1  0.42176800  0.61390900  0.60235200  1
  O  O23  1  0.09133500  0.08561300  0.36064000  1
  O  O24  1  0.16914500  0.59251000  0.32155900  1
  O  O25  1  0.86917900  0.72800300  0.93811500  1
  O  O26  1  0.90866500  0.91438700  0.63936000  1
  O  O27  1  0.84919600  0.55546300  0.32432400  1
  O  O28  1  0.08561300  0.09133500  0.86064000  1
  O  O29  1  0.61390900  0.42176800  0.10235200  1
  O  O30  1  0.59251000  0.16914500  0.82155900  1
  O  O31  1  0.13082100  0.27199700  0.06188500  1
