# generated using pymatgen
data_NaNiF3
_symmetry_space_group_name_H-M   'P 1'
_cell_length_a   5.40053500
_cell_length_b   5.60652500
_cell_length_c   7.76219500
_cell_angle_alpha   90.00000000
_cell_angle_beta   90.00000000
_cell_angle_gamma   90.00000000
_symmetry_Int_Tables_number   1
_chemical_formula_structural   NaNiF3
_chemical_formula_sum   'Na4 Ni4 F12'
_cell_volume   235.02556037
_cell_formula_units_Z   4
loop_
 _symmetry_equiv_pos_site_id
 _symmetry_equiv_pos_as_xyz
  1  'x, y, z'
loop_
 _atom_site_type_symbol
 _atom_site_label
 _atom_site_symmetry_multiplicity
 _atom_site_fract_x
 _atom_site_fract_y
 _atom_site_fract_z
 _atom_site_occupancy
  Na  Na0  1  0.01642400  0.94045200  0.75000000  1
  Na  Na1  1  0.51642400  0.55954800  0.25000000  1
  Na  Na2  1  0.48357700  0.44045200  0.75000000  1
  Na  Na3  1  0.98357600  0.05954800  0.25000000  1
  Ni  Ni4  1  0.50000000  0.00000000  0.50000000  1
  Ni  Ni5  1  0.00000000  0.50000000  0.50000000  1
  Ni  Ni6  1  0.00000000  0.50000000  0.00000000  1
  Ni  Ni7  1  0.50000000  0.00000000  0.00000000  1
  F  F8  1  0.69600400  0.29999200  0.44551100  1
  F  F9  1  0.19600400  0.20000800  0.55448900  1
  F  F10  1  0.80399600  0.79999200  0.05448900  1
  F  F11  1  0.30399600  0.70000800  0.94551100  1
  F  F12  1  0.30399600  0.70000800  0.55448900  1
  F  F13  1  0.80399600  0.79999200  0.44551100  1
  F  F14  1  0.19600400  0.20000800  0.94551100  1
  F  F15  1  0.69600400  0.29999200  0.05448900  1
  F  F16  1  0.10493800  0.46349000  0.25000000  1
  F  F17  1  0.60493800  0.03651000  0.75000000  1
  F  F18  1  0.39506200  0.96349000  0.25000000  1
  F  F19  1  0.89506200  0.53651000  0.75000000  1
