# generated using pymatgen
data_K2(ReSe2)3
_symmetry_space_group_name_H-M   'P 1'
_cell_length_a   10.14793211
_cell_length_b   10.14793211
_cell_length_c   12.52955622
_cell_angle_alpha   88.65268257
_cell_angle_beta   88.65268257
_cell_angle_gamma   60.64482492
_symmetry_Int_Tables_number   1
_chemical_formula_structural   K2(ReSe2)3
_chemical_formula_sum   'K8 Re12 Se24'
_cell_volume   1124.20533398
_cell_formula_units_Z   4
loop_
 _symmetry_equiv_pos_site_id
 _symmetry_equiv_pos_as_xyz
  1  'x, y, z'
loop_
 _atom_site_type_symbol
 _atom_site_label
 _atom_site_symmetry_multiplicity
 _atom_site_fract_x
 _atom_site_fract_y
 _atom_site_fract_z
 _atom_site_occupancy
  K  K0  1  0.60261100  0.39738900  0.75000000  1
  K  K1  1  0.39738900  0.60261100  0.25000000  1
  K  K2  1  0.21640600  0.78359400  0.75000000  1
  K  K3  1  0.78359400  0.21640600  0.25000000  1
  K  K4  1  0.12212400  0.64881100  0.01686400  1
  K  K5  1  0.35118900  0.87787600  0.48313600  1
  K  K6  1  0.87787600  0.35118900  0.98313600  1
  K  K7  1  0.64881100  0.12212400  0.51686400  1
  Re  Re8  1  0.00347800  0.31565000  0.52583100  1
  Re  Re9  1  0.68435000  0.99652200  0.97416900  1
  Re  Re10  1  0.99652200  0.68435000  0.47416900  1
  Re  Re11  1  0.31565000  0.00347800  0.02583100  1
  Re  Re12  1  0.11262700  0.46999100  0.62558400  1
  Re  Re13  1  0.53000900  0.88737300  0.87441600  1
  Re  Re14  1  0.88737300  0.53000900  0.37441600  1
  Re  Re15  1  0.46999100  0.11262700  0.12558400  1
  Re  Re16  1  0.81839700  0.60095100  0.58127600  1
  Re  Re17  1  0.39904900  0.18160300  0.91872400  1
  Re  Re18  1  0.18160300  0.39904900  0.41872400  1
  Re  Re19  1  0.60095100  0.81839700  0.08127600  1
  Se  Se20  1  0.07192700  0.25381400  0.33051800  1
  Se  Se21  1  0.74618600  0.92807300  0.16948200  1
  Se  Se22  1  0.92807300  0.74618600  0.66948200  1
  Se  Se23  1  0.25381400  0.07192700  0.83051800  1
  Se  Se24  1  0.79916900  0.71513500  0.93081900  1
  Se  Se25  1  0.28486500  0.20083100  0.56918100  1
  Se  Se26  1  0.20083100  0.28486500  0.06918100  1
  Se  Se27  1  0.71513500  0.79916900  0.43081900  1
  Se  Se28  1  0.05991700  0.61071700  0.27910800  1
  Se  Se29  1  0.38928300  0.94008300  0.22089200  1
  Se  Se30  1  0.94008300  0.38928300  0.72089200  1
  Se  Se31  1  0.61071700  0.05991700  0.77910800  1
  Se  Se32  1  0.28024000  0.55138600  0.51853400  1
  Se  Se33  1  0.44861400  0.71976000  0.98146600  1
  Se  Se34  1  0.71976000  0.44861400  0.48146600  1
  Se  Se35  1  0.55138600  0.28024000  0.01853400  1
  Se  Se36  1  0.06853600  0.99592300  0.08110900  1
  Se  Se37  1  0.00407700  0.93146400  0.41889100  1
  Se  Se38  1  0.93146400  0.00407700  0.91889100  1
  Se  Se39  1  0.99592300  0.06853600  0.58110900  1
  Se  Se40  1  0.26487500  0.43853300  0.80404000  1
  Se  Se41  1  0.56146700  0.73512500  0.69596000  1
  Se  Se42  1  0.73512500  0.56146700  0.19596000  1
  Se  Se43  1  0.43853300  0.26487500  0.30404000  1
