# generated using pymatgen
data_Sr3GaSb3
_symmetry_space_group_name_H-M   'P 1'
_cell_length_a   14.78414400
_cell_length_b   11.83728700
_cell_length_c   13.61216072
_cell_angle_alpha   55.01654222
_cell_angle_beta   90.00000000
_cell_angle_gamma   90.00000000
_symmetry_Int_Tables_number   1
_chemical_formula_structural   Sr3GaSb3
_chemical_formula_sum   'Sr24 Ga8 Sb24'
_cell_volume   1951.76587084
_cell_formula_units_Z   8
loop_
 _symmetry_equiv_pos_site_id
 _symmetry_equiv_pos_as_xyz
  1  'x, y, z'
loop_
 _atom_site_type_symbol
 _atom_site_label
 _atom_site_symmetry_multiplicity
 _atom_site_fract_x
 _atom_site_fract_y
 _atom_site_fract_z
 _atom_site_occupancy
  Sr  Sr0  1  0.56680200  0.92271900  0.66414000  1
  Sr  Sr1  1  0.71665300  0.59602700  0.09141200  1
  Sr  Sr2  1  0.28334700  0.40397300  0.90858800  1
  Sr  Sr3  1  0.74987300  0.13671400  0.34199900  1
  Sr  Sr4  1  0.42455300  0.64999000  0.02295300  1
  Sr  Sr5  1  0.24987300  0.86328600  0.15800100  1
  Sr  Sr6  1  0.92888600  0.86065900  0.68163800  1
  Sr  Sr7  1  0.43319800  0.07728100  0.33586000  1
  Sr  Sr8  1  0.09542500  0.61843800  0.03806000  1
  Sr  Sr9  1  0.75012700  0.13671400  0.84199900  1
  Sr  Sr10  1  0.40457500  0.61843800  0.53806000  1
  Sr  Sr11  1  0.78334700  0.59602700  0.59141200  1
  Sr  Sr12  1  0.07111400  0.13934100  0.31836200  1
  Sr  Sr13  1  0.90457500  0.38156200  0.96194000  1
  Sr  Sr14  1  0.07544700  0.64999000  0.52295300  1
  Sr  Sr15  1  0.92455300  0.35001000  0.47704700  1
  Sr  Sr16  1  0.25012700  0.86328600  0.65800100  1
  Sr  Sr17  1  0.57111400  0.86065900  0.18163800  1
  Sr  Sr18  1  0.06680200  0.07728100  0.83586000  1
  Sr  Sr19  1  0.93319800  0.92271900  0.16414000  1
  Sr  Sr20  1  0.57544700  0.35001000  0.97704700  1
  Sr  Sr21  1  0.59542500  0.38156200  0.46194000  1
  Sr  Sr22  1  0.21665300  0.40397300  0.40858800  1
  Sr  Sr23  1  0.42888600  0.13934100  0.81836200  1
  Ga  Ga24  1  0.24506900  0.12952000  0.67833700  1
  Ga  Ga25  1  0.40876600  0.37153700  0.31153300  1
  Ga  Ga26  1  0.59123400  0.62846300  0.68846700  1
  Ga  Ga27  1  0.09123400  0.37153700  0.81153300  1
  Ga  Ga28  1  0.74506900  0.87048000  0.82166300  1
  Ga  Ga29  1  0.75493100  0.87048000  0.32166300  1
  Ga  Ga30  1  0.25493100  0.12952000  0.17833700  1
  Ga  Ga31  1  0.90876600  0.62846300  0.18846700  1
  Sb  Sb32  1  0.90053800  0.84489100  0.94956100  1
  Sb  Sb33  1  0.09356600  0.60945000  0.79558400  1
  Sb  Sb34  1  0.59037800  0.88536200  0.92650000  1
  Sb  Sb35  1  0.25852000  0.88959200  0.89945100  1
  Sb  Sb36  1  0.24148000  0.88959200  0.39945100  1
  Sb  Sb37  1  0.90962200  0.88536200  0.42650000  1
  Sb  Sb38  1  0.09946200  0.15510900  0.05043900  1
  Sb  Sb39  1  0.06736900  0.65019000  0.27358200  1
  Sb  Sb40  1  0.56736900  0.34981000  0.22641800  1
  Sb  Sb41  1  0.73767800  0.63326200  0.82085000  1
  Sb  Sb42  1  0.09037800  0.11463800  0.57350000  1
  Sb  Sb43  1  0.23767800  0.36673800  0.67915000  1
  Sb  Sb44  1  0.76232200  0.63326200  0.32085000  1
  Sb  Sb45  1  0.74148000  0.11040800  0.10054900  1
  Sb  Sb46  1  0.40643400  0.60945000  0.29558400  1
  Sb  Sb47  1  0.40962200  0.11463800  0.07350000  1
  Sb  Sb48  1  0.59946200  0.84489100  0.44956100  1
  Sb  Sb49  1  0.40053800  0.15510900  0.55043900  1
  Sb  Sb50  1  0.59356600  0.39055000  0.70441600  1
  Sb  Sb51  1  0.43263100  0.65019000  0.77358200  1
  Sb  Sb52  1  0.75852000  0.11040800  0.60054900  1
  Sb  Sb53  1  0.90643400  0.39055000  0.20441600  1
  Sb  Sb54  1  0.26232200  0.36673800  0.17915000  1
  Sb  Sb55  1  0.93263100  0.34981000  0.72641800  1
