# generated using pymatgen
data_Ce3CuSiS7
_symmetry_space_group_name_H-M   'P 1'
_cell_length_a   10.20840023
_cell_length_b   10.20840023
_cell_length_c   5.78174800
_cell_angle_alpha   90.00000000
_cell_angle_beta   90.00000000
_cell_angle_gamma   120.00000150
_symmetry_Int_Tables_number   1
_chemical_formula_structural   Ce3CuSiS7
_chemical_formula_sum   'Ce6 Cu2 Si2 S14'
_cell_volume   521.80130558
_cell_formula_units_Z   2
loop_
 _symmetry_equiv_pos_site_id
 _symmetry_equiv_pos_as_xyz
  1  'x, y, z'
loop_
 _atom_site_type_symbol
 _atom_site_label
 _atom_site_symmetry_multiplicity
 _atom_site_fract_x
 _atom_site_fract_y
 _atom_site_fract_z
 _atom_site_occupancy
  Ce  Ce0  1  0.23230000  0.35607300  0.75048000  1
  Ce  Ce1  1  0.35607300  0.12377400  0.25048000  1
  Ce  Ce2  1  0.87622600  0.23230000  0.25048000  1
  Ce  Ce3  1  0.12377400  0.76770000  0.75048000  1
  Ce  Ce4  1  0.76770000  0.64392700  0.25048000  1
  Ce  Ce5  1  0.64392700  0.87622600  0.75048000  1
  Cu  Cu6  1  0.00000000  0.00000000  0.77388600  1
  Cu  Cu7  1  0.00000000  0.00000000  0.27388600  1
  Si  Si8  1  0.33333300  0.66666700  0.16441600  1
  Si  Si9  1  0.66666700  0.33333300  0.66441600  1
  S  S10  1  0.25030500  0.08603700  0.76247800  1
  S  S11  1  0.52434100  0.41206500  0.52236300  1
  S  S12  1  0.41206500  0.88772400  0.02236300  1
  S  S13  1  0.11227600  0.52434100  0.02236300  1
  S  S14  1  0.88772400  0.47565900  0.52236300  1
  S  S15  1  0.08603700  0.83573100  0.26247800  1
  S  S16  1  0.16426900  0.25030500  0.26247800  1
  S  S17  1  0.74969500  0.91396300  0.26247800  1
  S  S18  1  0.58793500  0.11227600  0.52236300  1
  S  S19  1  0.83573100  0.74969500  0.76247800  1
  S  S20  1  0.47565900  0.58793500  0.02236300  1
  S  S21  1  0.66666700  0.33333300  0.02980100  1
  S  S22  1  0.33333300  0.66666700  0.52980100  1
  S  S23  1  0.91396300  0.16426900  0.76247800  1
