# generated using pymatgen
data_Na4Ni5(P3O11)2
_symmetry_space_group_name_H-M   'P 1'
_cell_length_a   6.66106600
_cell_length_b   10.67394800
_cell_length_c   12.65768996
_cell_angle_alpha   76.30538039
_cell_angle_beta   90.00000000
_cell_angle_gamma   90.00000000
_symmetry_Int_Tables_number   1
_chemical_formula_structural   Na4Ni5(P3O11)2
_chemical_formula_sum   'Na8 Ni10 P12 O44'
_cell_volume   874.37549111
_cell_formula_units_Z   2
loop_
 _symmetry_equiv_pos_site_id
 _symmetry_equiv_pos_as_xyz
  1  'x, y, z'
loop_
 _atom_site_type_symbol
 _atom_site_label
 _atom_site_symmetry_multiplicity
 _atom_site_fract_x
 _atom_site_fract_y
 _atom_site_fract_z
 _atom_site_occupancy
  Na  Na0  1  0.09028600  0.54378700  0.84109900  1
  Na  Na1  1  0.59028600  0.95621300  0.15890100  1
  Na  Na2  1  0.51916100  0.86352600  0.64782000  1
  Na  Na3  1  0.90971400  0.45621300  0.15890100  1
  Na  Na4  1  0.40971400  0.04378700  0.84109900  1
  Na  Na5  1  0.01916100  0.63647400  0.35218000  1
  Na  Na6  1  0.98083900  0.36352600  0.64782000  1
  Na  Na7  1  0.48083900  0.13647400  0.35218000  1
  Ni  Ni8  1  0.00794500  0.19596600  0.33345900  1
  Ni  Ni9  1  0.50794500  0.30403400  0.66654100  1
  Ni  Ni10  1  0.26023700  0.71803600  0.13265600  1
  Ni  Ni11  1  0.73976300  0.28196400  0.86734400  1
  Ni  Ni12  1  0.49205500  0.69596600  0.33345900  1
  Ni  Ni13  1  0.76023700  0.78196400  0.86734400  1
  Ni  Ni14  1  0.23976300  0.21803600  0.13265600  1
  Ni  Ni15  1  0.50000000  0.50000000  0.00000000  1
  Ni  Ni16  1  0.00000000  0.00000000  0.00000000  1
  Ni  Ni17  1  0.99205500  0.80403400  0.66654100  1
  P  P18  1  0.23593300  0.27388800  0.91499200  1
  P  P19  1  0.26406700  0.77388800  0.91499200  1
  P  P20  1  0.38723000  0.43309300  0.25515500  1
  P  P21  1  0.20213500  0.09091900  0.58257600  1
  P  P22  1  0.73593300  0.22611200  0.08500800  1
  P  P23  1  0.70213500  0.40908100  0.41742400  1
  P  P24  1  0.61277000  0.56690700  0.74484500  1
  P  P25  1  0.11277000  0.93309300  0.25515500  1
  P  P26  1  0.29786500  0.59091900  0.58257600  1
  P  P27  1  0.79786500  0.90908100  0.41742400  1
  P  P28  1  0.76406700  0.72611200  0.08500800  1
  P  P29  1  0.88723000  0.06690700  0.74484500  1
  O  O30  1  0.04385200  0.04742600  0.83358100  1
  O  O31  1  0.79797800  0.05723400  0.39061700  1
  O  O32  1  0.62827600  0.85964000  0.35653100  1
  O  O33  1  0.71296800  0.36046600  0.00119200  1
  O  O34  1  0.80273100  0.84461900  0.53786100  1
  O  O35  1  0.99072000  0.13548900  0.63043700  1
  O  O36  1  0.49072000  0.36451100  0.36956300  1
  O  O37  1  0.27118400  0.36578700  0.99398200  1
  O  O38  1  0.28703200  0.63953400  0.99880800  1
  O  O39  1  0.29797800  0.44276600  0.60938300  1
  O  O40  1  0.91848000  0.23423700  0.15962800  1
  O  O41  1  0.37172400  0.14036000  0.64346900  1
  O  O42  1  0.72459600  0.16528500  0.75790700  1
  O  O43  1  0.54844000  0.18002100  0.15499900  1
  O  O44  1  0.22881600  0.86578700  0.99398200  1
  O  O45  1  0.20421300  0.06171700  0.26875900  1
  O  O46  1  0.20202200  0.94276600  0.60938300  1
  O  O47  1  0.77118400  0.13421300  0.00601800  1
  O  O48  1  0.30273100  0.65538100  0.46213900  1
  O  O49  1  0.12827600  0.64036000  0.64346900  1
  O  O50  1  0.87172400  0.35964000  0.35653100  1
  O  O51  1  0.45614800  0.54742600  0.83358100  1
  O  O52  1  0.00928000  0.86451100  0.36956300  1
  O  O53  1  0.04844000  0.31997900  0.84500100  1
  O  O54  1  0.19726900  0.15538100  0.46213900  1
  O  O55  1  0.50928000  0.63548900  0.63043700  1
  O  O56  1  0.78703200  0.86046600  0.00119200  1
  O  O57  1  0.70202200  0.55723400  0.39061700  1
  O  O58  1  0.58152000  0.73423700  0.15962800  1
  O  O59  1  0.72881600  0.63421300  0.00601800  1
  O  O60  1  0.29578700  0.56171700  0.26875900  1
  O  O61  1  0.27540400  0.83471500  0.24209300  1
  O  O62  1  0.77540400  0.66528500  0.75790700  1
  O  O63  1  0.54385200  0.45257400  0.16641900  1
  O  O64  1  0.70421300  0.43828300  0.73124100  1
  O  O65  1  0.21296800  0.13953400  0.99880800  1
  O  O66  1  0.95156000  0.68002100  0.15499900  1
  O  O67  1  0.95614800  0.95257400  0.16641900  1
  O  O68  1  0.69726900  0.34461900  0.53786100  1
  O  O69  1  0.08152000  0.76576300  0.84037200  1
  O  O70  1  0.45156000  0.81997900  0.84500100  1
  O  O71  1  0.79578700  0.93828300  0.73124100  1
  O  O72  1  0.22459600  0.33471500  0.24209300  1
  O  O73  1  0.41848000  0.26576300  0.84037200  1
