# generated using pymatgen
data_Al22Mo5
_symmetry_space_group_name_H-M   'P 1'
_cell_length_a   37.24076100
_cell_length_b   37.03889062
_cell_length_c   5.21760406
_cell_angle_alpha   88.18694789
_cell_angle_beta   83.76320846
_cell_angle_gamma   8.04984365
_symmetry_Int_Tables_number   1
_chemical_formula_structural   Al22Mo5
_chemical_formula_sum   'Al44 Mo10'
_cell_volume   839.70217371
_cell_formula_units_Z   2
loop_
 _symmetry_equiv_pos_site_id
 _symmetry_equiv_pos_as_xyz
  1  'x, y, z'
loop_
 _atom_site_type_symbol
 _atom_site_label
 _atom_site_symmetry_multiplicity
 _atom_site_fract_x
 _atom_site_fract_y
 _atom_site_fract_z
 _atom_site_occupancy
  Al  Al0  1  0.93923300  0.76942200  0.60346400  1
  Al  Al1  1  0.40030500  0.26728900  0.04940300  1
  Al  Al2  1  0.54697500  0.93559200  0.40872200  1
  Al  Al3  1  0.72304000  0.40540500  0.44146900  1
  Al  Al4  1  0.39170600  0.55270600  0.25622900  1
  Al  Al5  1  0.69729400  0.85829400  0.45064000  1
  Al  Al6  1  0.28300300  0.04940300  0.26728900  1
  Al  Al7  1  0.99377100  0.45064000  0.85829400  1
  Al  Al8  1  0.40800000  0.99770600  0.34656900  1
  Al  Al9  1  0.79936000  0.25622900  0.55270600  1
  Al  Al10  1  0.43956100  0.02276600  0.98089600  1
  Al  Al11  1  0.12075100  0.12367100  0.79239200  1
  Al  Al12  1  0.84662000  0.83623300  0.16013100  1
  Al  Al13  1  0.64653600  0.56211900  0.31076700  1
  Al  Al14  1  0.14250900  0.43088600  0.56791000  1
  Al  Al15  1  0.55677700  0.98089600  0.02276600  1
  Al  Al16  1  0.68209000  0.39130600  0.10749100  1
  Al  Al17  1  0.84459500  0.52696000  0.81991400  1
  Al  Al18  1  0.68788100  0.60346400  0.76942200  1
  Al  Al19  1  0.48057800  0.31076700  0.56211900  1
  Al  Al20  1  0.96318600  0.79239200  0.12367100  1
  Al  Al21  1  0.10871000  0.40872200  0.93559200  1
  Al  Al22  1  0.26910400  0.69322300  0.81043900  1
  Al  Al23  1  0.84127800  0.14129000  0.70302500  1
  Al  Al24  1  0.41376700  0.40338000  0.09298400  1
  Al  Al25  1  0.15701600  0.16013100  0.83623300  1
  Al  Al26  1  0.63379700  0.51489900  0.99992800  1
  Al  Al27  1  0.22723400  0.81043900  0.69322300  1
  Al  Al28  1  0.85869400  0.56791000  0.43088600  1
  Al  Al29  1  0.98271100  0.84969500  0.96699700  1
  Al  Al30  1  0.81911400  0.10749100  0.39130600  1
  Al  Al31  1  0.31440800  0.70302500  0.14129000  1
  Al  Al32  1  0.25007200  0.39862400  0.61620300  1
  Al  Al33  1  0.12632900  0.12924900  0.28681400  1
  Al  Al34  1  0.80853100  0.81991400  0.52696000  1
  Al  Al35  1  0.85137600  0.99992800  0.51489900  1
  Al  Al36  1  0.25229400  0.84200000  0.00227500  1
  Al  Al37  1  0.90343100  0.00227500  0.84200000  1
  Al  Al38  1  0.20059700  0.96699700  0.84969500  1
  Al  Al39  1  0.24772500  0.34656900  0.99770600  1
  Al  Al40  1  0.45760800  0.28681400  0.12924900  1
  Al  Al41  1  0.08986900  0.09298400  0.40338000  1
  Al  Al42  1  0.73510100  0.61620300  0.39862400  1
  Al  Al43  1  0.43008600  0.44146900  0.40540500  1
  Mo  Mo44  1  0.94226400  0.83970500  0.63208500  1
  Mo  Mo45  1  0.30176200  0.08853200  0.90962200  1
  Mo  Mo46  1  0.34037800  0.54991600  0.94823800  1
  Mo  Mo47  1  0.61791500  0.66405400  0.30773600  1
  Mo  Mo48  1  0.58594600  0.63208500  0.83970500  1
  Mo  Mo49  1  0.00043300  0.49956700  0.49956700  1
  Mo  Mo50  1  0.41029500  0.30773600  0.66405400  1
  Mo  Mo51  1  0.16146800  0.94823800  0.54991600  1
  Mo  Mo52  1  0.70008400  0.90962200  0.08853200  1
  Mo  Mo53  1  0.75043300  0.24956700  0.24956700  1
