# generated using pymatgen
data_KSrB5O9
_symmetry_space_group_name_H-M   'P 1'
_cell_length_a   8.07329700
_cell_length_b   6.74487500
_cell_length_c   14.39827797
_cell_angle_alpha   86.94040013
_cell_angle_beta   90.00000000
_cell_angle_gamma   90.00000000
_symmetry_Int_Tables_number   1
_chemical_formula_structural   KSrB5O9
_chemical_formula_sum   'K4 Sr4 B20 O36'
_cell_volume   782.91728921
_cell_formula_units_Z   4
loop_
 _symmetry_equiv_pos_site_id
 _symmetry_equiv_pos_as_xyz
  1  'x, y, z'
loop_
 _atom_site_type_symbol
 _atom_site_label
 _atom_site_symmetry_multiplicity
 _atom_site_fract_x
 _atom_site_fract_y
 _atom_site_fract_z
 _atom_site_occupancy
  K  K0  1  0.65510000  0.50133400  0.09933700  1
  K  K1  1  0.15510000  0.49866600  0.40066300  1
  K  K2  1  0.84490000  0.50133400  0.59933700  1
  K  K3  1  0.34490000  0.49866600  0.90066300  1
  Sr  Sr4  1  0.48359000  0.92255000  0.26024500  1
  Sr  Sr5  1  0.98359000  0.07745000  0.23975500  1
  Sr  Sr6  1  0.51641000  0.07745000  0.73975500  1
  Sr  Sr7  1  0.01641000  0.92255000  0.76024500  1
  B  B8  1  0.71595800  0.06092800  0.06152000  1
  B  B9  1  0.00652300  0.61577500  0.19380800  1
  B  B10  1  0.78383700  0.53556800  0.32726200  1
  B  B11  1  0.28404200  0.93907200  0.93848000  1
  B  B12  1  0.77867900  0.19249600  0.89671500  1
  B  B13  1  0.49347700  0.61577500  0.69380800  1
  B  B14  1  0.19756500  0.16734400  0.56523300  1
  B  B15  1  0.50652300  0.38422500  0.30619200  1
  B  B16  1  0.30243500  0.16734400  0.06523300  1
  B  B17  1  0.72132100  0.19249600  0.39671500  1
  B  B18  1  0.22132100  0.80750400  0.10328500  1
  B  B19  1  0.21616300  0.46443200  0.67273800  1
  B  B20  1  0.21595800  0.93907200  0.43848000  1
  B  B21  1  0.28383700  0.46443200  0.17273800  1
  B  B22  1  0.69756500  0.83265600  0.93476700  1
  B  B23  1  0.80243500  0.83265600  0.43476700  1
  B  B24  1  0.27867900  0.80750400  0.60328500  1
  B  B25  1  0.78404200  0.06092800  0.56152000  1
  B  B26  1  0.71616300  0.53556800  0.82726200  1
  B  B27  1  0.99347700  0.38422500  0.80619200  1
  O  O28  1  0.39882200  0.44432700  0.69716200  1
  O  O29  1  0.29638400  0.91006500  0.84699700  1
  O  O30  1  0.76295900  0.98256100  0.36926300  1
  O  O31  1  0.54810600  0.22154300  0.36341700  1
  O  O32  1  0.32551500  0.12663500  0.97272500  1
  O  O33  1  0.17448500  0.12663500  0.47272500  1
  O  O34  1  0.95189400  0.22154300  0.86341700  1
  O  O35  1  0.76770100  0.20821900  0.99708500  1
  O  O36  1  0.82140700  0.63985900  0.41313000  1
  O  O37  1  0.20361600  0.91006500  0.34699700  1
  O  O38  1  0.83193800  0.32801500  0.34243700  1
  O  O39  1  0.23229900  0.79178100  0.00291500  1
  O  O40  1  0.70361600  0.08993500  0.15300300  1
  O  O41  1  0.73229900  0.20821900  0.49708500  1
  O  O42  1  0.82551500  0.87336500  0.52727500  1
  O  O43  1  0.67859300  0.63985900  0.91313000  1
  O  O44  1  0.23704100  0.01743900  0.63073700  1
  O  O45  1  0.33193800  0.67198500  0.15756300  1
  O  O46  1  0.89882200  0.55567300  0.80283800  1
  O  O47  1  0.79638400  0.08993500  0.65300300  1
  O  O48  1  0.17859300  0.36014100  0.58687000  1
  O  O49  1  0.67448500  0.87336500  0.02727500  1
  O  O50  1  0.32140700  0.36014100  0.08687000  1
  O  O51  1  0.66806200  0.32801500  0.84243700  1
  O  O52  1  0.60117800  0.55567300  0.30283800  1
  O  O53  1  0.86821400  0.63802600  0.24711000  1
  O  O54  1  0.04810600  0.77845700  0.13658300  1
  O  O55  1  0.10117800  0.44432700  0.19716200  1
  O  O56  1  0.13178600  0.36197400  0.75289000  1
  O  O57  1  0.63178600  0.63802600  0.74711000  1
  O  O58  1  0.36821400  0.36197400  0.25289000  1
  O  O59  1  0.73704100  0.98256100  0.86926300  1
  O  O60  1  0.26770100  0.79178100  0.50291500  1
  O  O61  1  0.16806200  0.67198500  0.65756300  1
  O  O62  1  0.26295900  0.01743900  0.13073700  1
  O  O63  1  0.45189400  0.77845700  0.63658300  1
