# generated using pymatgen
data_KTaN2
_symmetry_space_group_name_H-M   'P 1'
_cell_length_a   5.99214400
_cell_length_b   12.02712500
_cell_length_c   16.69091000
_cell_angle_alpha   90.00000000
_cell_angle_beta   90.00000000
_cell_angle_gamma   90.00000000
_symmetry_Int_Tables_number   1
_chemical_formula_structural   KTaN2
_chemical_formula_sum   'K16 Ta16 N32'
_cell_volume   1202.88492340
_cell_formula_units_Z   16
loop_
 _symmetry_equiv_pos_site_id
 _symmetry_equiv_pos_as_xyz
  1  'x, y, z'
loop_
 _atom_site_type_symbol
 _atom_site_label
 _atom_site_symmetry_multiplicity
 _atom_site_fract_x
 _atom_site_fract_y
 _atom_site_fract_z
 _atom_site_occupancy
  K  K0  1  0.73986000  0.99419500  0.43720200  1
  K  K1  1  0.23986000  0.50580500  0.56279800  1
  K  K2  1  0.26014000  0.49419500  0.06279800  1
  K  K3  1  0.76014000  0.00580500  0.93720200  1
  K  K4  1  0.26014000  0.00580500  0.56279800  1
  K  K5  1  0.76014000  0.49419500  0.43720200  1
  K  K6  1  0.73986000  0.50580500  0.93720200  1
  K  K7  1  0.23986000  0.99419500  0.06279800  1
  K  K8  1  0.81049900  0.26135700  0.31229400  1
  K  K9  1  0.31049900  0.23864300  0.68770600  1
  K  K10  1  0.18950100  0.76135700  0.18770600  1
  K  K11  1  0.68950100  0.73864300  0.81229400  1
  K  K12  1  0.18950100  0.73864300  0.68770600  1
  K  K13  1  0.68950100  0.76135700  0.31229400  1
  K  K14  1  0.81049900  0.23864300  0.81229400  1
  K  K15  1  0.31049900  0.26135700  0.18770600  1
  Ta  Ta16  1  0.22857400  0.01193500  0.31249000  1
  Ta  Ta17  1  0.72857400  0.48806500  0.68751000  1
  Ta  Ta18  1  0.77142600  0.51193500  0.18751000  1
  Ta  Ta19  1  0.27142600  0.98806500  0.81249000  1
  Ta  Ta20  1  0.77142600  0.98806500  0.68751000  1
  Ta  Ta21  1  0.27142600  0.51193500  0.31249000  1
  Ta  Ta22  1  0.22857400  0.48806500  0.81249000  1
  Ta  Ta23  1  0.72857400  0.01193500  0.18751000  1
  Ta  Ta24  1  0.29233300  0.26724700  0.43775900  1
  Ta  Ta25  1  0.79233300  0.23275300  0.56224100  1
  Ta  Ta26  1  0.70766700  0.76724700  0.06224100  1
  Ta  Ta27  1  0.20766700  0.73275300  0.93775900  1
  Ta  Ta28  1  0.70766700  0.73275300  0.56224100  1
  Ta  Ta29  1  0.20766700  0.76724700  0.43775900  1
  Ta  Ta30  1  0.29233300  0.23275300  0.93775900  1
  Ta  Ta31  1  0.79233300  0.26724700  0.06224100  1
  N  N32  1  0.60409900  0.27398900  0.47152600  1
  N  N33  1  0.10409900  0.22601100  0.52847400  1
  N  N34  1  0.39590100  0.77398900  0.02847400  1
  N  N35  1  0.89590100  0.72601100  0.97152600  1
  N  N36  1  0.39590100  0.72601100  0.52847400  1
  N  N37  1  0.89590100  0.77398900  0.47152600  1
  N  N38  1  0.60409900  0.22601100  0.97152600  1
  N  N39  1  0.10409900  0.27398900  0.02847400  1
  N  N40  1  0.19921300  0.41404700  0.40207500  1
  N  N41  1  0.69921300  0.08595300  0.59792500  1
  N  N42  1  0.80078700  0.91404700  0.09792500  1
  N  N43  1  0.30078700  0.58595300  0.90207500  1
  N  N44  1  0.80078700  0.58595300  0.59792500  1
  N  N45  1  0.30078700  0.91404700  0.40207500  1
  N  N46  1  0.19921300  0.08595300  0.90207500  1
  N  N47  1  0.69921300  0.41404700  0.09792500  1
  N  N48  1  0.25835700  0.16558900  0.34737500  1
  N  N49  1  0.75835700  0.33441100  0.65262500  1
  N  N50  1  0.74164300  0.66558900  0.15262500  1
  N  N51  1  0.24164300  0.83441100  0.84737500  1
  N  N52  1  0.74164300  0.83441100  0.65262500  1
  N  N53  1  0.24164300  0.66558900  0.34737500  1
  N  N54  1  0.25835700  0.33441100  0.84737500  1
  N  N55  1  0.75835700  0.16558900  0.15262500  1
  N  N56  1  0.07662400  0.48323800  0.22134300  1
  N  N57  1  0.57662400  0.01676200  0.77865700  1
  N  N58  1  0.92337600  0.98323800  0.27865700  1
  N  N59  1  0.42337600  0.51676200  0.72134300  1
  N  N60  1  0.92337600  0.51676200  0.77865700  1
  N  N61  1  0.42337600  0.98323800  0.22134300  1
  N  N62  1  0.07662400  0.01676200  0.72134300  1
  N  N63  1  0.57662400  0.48323800  0.27865700  1
