# generated using pymatgen
data_Sm3Ge5
_symmetry_space_group_name_H-M   'P 1'
_cell_length_a   7.02149745
_cell_length_b   7.02149745
_cell_length_c   8.56832000
_cell_angle_alpha   90.00000000
_cell_angle_beta   90.00000000
_cell_angle_gamma   119.99999477
_symmetry_Int_Tables_number   1
_chemical_formula_structural   Sm3Ge5
_chemical_formula_sum   'Sm6 Ge10'
_cell_volume   365.83547494
_cell_formula_units_Z   2
loop_
 _symmetry_equiv_pos_site_id
 _symmetry_equiv_pos_as_xyz
  1  'x, y, z'
loop_
 _atom_site_type_symbol
 _atom_site_label
 _atom_site_symmetry_multiplicity
 _atom_site_fract_x
 _atom_site_fract_y
 _atom_site_fract_z
 _atom_site_occupancy
  Sm  Sm0  1  0.33140100  0.00000000  0.00000000  1
  Sm  Sm1  1  0.33140100  0.00000000  0.50000000  1
  Sm  Sm2  1  0.00000000  0.33140100  0.50000000  1
  Sm  Sm3  1  0.00000000  0.33140100  0.00000000  1
  Sm  Sm4  1  0.66859900  0.66859900  0.00000000  1
  Sm  Sm5  1  0.66859900  0.66859900  0.50000000  1
  Ge  Ge6  1  0.39583500  0.33134400  0.25000000  1
  Ge  Ge7  1  0.66865600  0.06449100  0.25000000  1
  Ge  Ge8  1  0.93550900  0.60416500  0.25000000  1
  Ge  Ge9  1  0.60416500  0.93550900  0.75000000  1
  Ge  Ge10  1  0.00000000  0.00000000  0.25000000  1
  Ge  Ge11  1  0.66666700  0.33333300  0.75000000  1
  Ge  Ge12  1  0.06449100  0.66865600  0.75000000  1
  Ge  Ge13  1  0.33134400  0.39583500  0.75000000  1
  Ge  Ge14  1  0.33333300  0.66666700  0.25000000  1
  Ge  Ge15  1  0.00000000  0.00000000  0.75000000  1
