# generated using pymatgen
data_KCrF3
_symmetry_space_group_name_H-M   'P 1'
_cell_length_a   5.99177582
_cell_length_b   5.99177582
_cell_length_c   5.95453140
_cell_angle_alpha   62.20016126
_cell_angle_beta   62.20016126
_cell_angle_gamma   93.94683315
_symmetry_Int_Tables_number   1
_chemical_formula_structural   KCrF3
_chemical_formula_sum   'K2 Cr2 F6'
_cell_volume   155.67385534
_cell_formula_units_Z   2
loop_
 _symmetry_equiv_pos_site_id
 _symmetry_equiv_pos_as_xyz
  1  'x, y, z'
loop_
 _atom_site_type_symbol
 _atom_site_label
 _atom_site_symmetry_multiplicity
 _atom_site_fract_x
 _atom_site_fract_y
 _atom_site_fract_z
 _atom_site_occupancy
  K  K0  1  0.74866200  0.25133800  0.00000000  1
  K  K1  1  0.25133800  0.74866200  0.00000000  1
  Cr  Cr2  1  0.50000000  0.50000000  0.50000000  1
  Cr  Cr3  1  0.00000000  0.00000000  0.50000000  1
  F  F4  1  0.73019100  0.26980900  0.50000000  1
  F  F5  1  0.71937100  0.71937100  0.56186900  1
  F  F6  1  0.28062900  0.28062900  0.43813100  1
  F  F7  1  0.80000200  0.80000200  0.96039100  1
  F  F8  1  0.26980900  0.73019100  0.50000000  1
  F  F9  1  0.19999800  0.19999800  0.03960900  1
