# generated using pymatgen
data_CaInPt
_symmetry_space_group_name_H-M   'P 1'
_cell_length_a   4.41140000
_cell_length_b   7.32808500
_cell_length_c   8.52922500
_cell_angle_alpha   90.00000000
_cell_angle_beta   90.00000000
_cell_angle_gamma   90.00000000
_symmetry_Int_Tables_number   1
_chemical_formula_structural   CaInPt
_chemical_formula_sum   'Ca4 In4 Pt4'
_cell_volume   275.72523035
_cell_formula_units_Z   4
loop_
 _symmetry_equiv_pos_site_id
 _symmetry_equiv_pos_as_xyz
  1  'x, y, z'
loop_
 _atom_site_type_symbol
 _atom_site_label
 _atom_site_symmetry_multiplicity
 _atom_site_fract_x
 _atom_site_fract_y
 _atom_site_fract_z
 _atom_site_occupancy
  Ca  Ca0  1  0.25000000  0.02974600  0.32227700  1
  Ca  Ca1  1  0.25000000  0.52974600  0.17772300  1
  Ca  Ca2  1  0.75000000  0.97025400  0.67772300  1
  Ca  Ca3  1  0.75000000  0.47025400  0.82227700  1
  In  In4  1  0.75000000  0.35053300  0.43463200  1
  In  In5  1  0.25000000  0.14946700  0.93463200  1
  In  In6  1  0.75000000  0.85053300  0.06536800  1
  In  In7  1  0.25000000  0.64946700  0.56536800  1
  Pt  Pt8  1  0.75000000  0.23241200  0.12384400  1
  Pt  Pt9  1  0.75000000  0.73241200  0.37615600  1
  Pt  Pt10  1  0.25000000  0.76758800  0.87615600  1
  Pt  Pt11  1  0.25000000  0.26758800  0.62384400  1
