# generated using pymatgen
data_CrF3
_symmetry_space_group_name_H-M   'P 1'
_cell_length_a   5.08029549
_cell_length_b   5.40501204
_cell_length_c   5.08007547
_cell_angle_alpha   61.97233815
_cell_angle_beta   119.99558022
_cell_angle_gamma   118.02846963
_symmetry_Int_Tables_number   1
_chemical_formula_structural   CrF3
_chemical_formula_sum   'Cr2 F6'
_cell_volume   101.47919491
_cell_formula_units_Z   2
loop_
 _symmetry_equiv_pos_site_id
 _symmetry_equiv_pos_as_xyz
  1  'x, y, z'
loop_
 _atom_site_type_symbol
 _atom_site_label
 _atom_site_symmetry_multiplicity
 _atom_site_fract_x
 _atom_site_fract_y
 _atom_site_fract_z
 _atom_site_occupancy
  Cr  Cr0  1  0.99999200  0.00000800  0.99998600  1
  Cr  Cr1  1  0.50000500  0.49999300  0.50001300  1
  F  F2  1  0.13359100  0.24996900  0.63357300  1
  F  F3  1  0.36641000  0.25000800  0.25000700  1
  F  F4  1  0.25001000  0.75000600  0.13359700  1
  F  F5  1  0.63359300  0.74999000  0.74999000  1
  F  F6  1  0.86640700  0.75003200  0.36642900  1
  F  F7  1  0.74999300  0.24999400  0.86640500  1
