# generated using pymatgen
data_Hg6BiSb4Br7
_symmetry_space_group_name_H-M   'P 1'
_cell_length_a   13.39019800
_cell_length_b   13.39019800
_cell_length_c   13.39019800
_cell_angle_alpha   90.00000000
_cell_angle_beta   90.00000000
_cell_angle_gamma   90.00000000
_symmetry_Int_Tables_number   1
_chemical_formula_structural   Hg6BiSb4Br7
_chemical_formula_sum   'Hg24 Bi4 Sb16 Br28'
_cell_volume   2400.82772008
_cell_formula_units_Z   4
loop_
 _symmetry_equiv_pos_site_id
 _symmetry_equiv_pos_as_xyz
  1  'x, y, z'
loop_
 _atom_site_type_symbol
 _atom_site_label
 _atom_site_symmetry_multiplicity
 _atom_site_fract_x
 _atom_site_fract_y
 _atom_site_fract_z
 _atom_site_occupancy
  Hg  Hg0  1  0.18585200  0.30045000  0.44746000  1
  Hg  Hg1  1  0.31414800  0.69955000  0.94746000  1
  Hg  Hg2  1  0.19955000  0.55254000  0.68585200  1
  Hg  Hg3  1  0.80045000  0.05254000  0.81414800  1
  Hg  Hg4  1  0.44746000  0.18585200  0.30045000  1
  Hg  Hg5  1  0.55254000  0.81414800  0.69955000  1
  Hg  Hg6  1  0.94746000  0.18585200  0.19955000  1
  Hg  Hg7  1  0.30045000  0.44746000  0.18585200  1
  Hg  Hg8  1  0.81414800  0.69955000  0.55254000  1
  Hg  Hg9  1  0.05254000  0.68585200  0.30045000  1
  Hg  Hg10  1  0.68585200  0.19955000  0.55254000  1
  Hg  Hg11  1  0.94746000  0.31414800  0.69955000  1
  Hg  Hg12  1  0.81414800  0.80045000  0.05254000  1
  Hg  Hg13  1  0.68585200  0.30045000  0.05254000  1
  Hg  Hg14  1  0.80045000  0.44746000  0.31414800  1
  Hg  Hg15  1  0.18585200  0.19955000  0.94746000  1
  Hg  Hg16  1  0.30045000  0.05254000  0.68585200  1
  Hg  Hg17  1  0.69955000  0.55254000  0.81414800  1
  Hg  Hg18  1  0.05254000  0.81414800  0.80045000  1
  Hg  Hg19  1  0.44746000  0.31414800  0.80045000  1
  Hg  Hg20  1  0.55254000  0.68585200  0.19955000  1
  Hg  Hg21  1  0.31414800  0.80045000  0.44746000  1
  Hg  Hg22  1  0.69955000  0.94746000  0.31414800  1
  Hg  Hg23  1  0.19955000  0.94746000  0.18585200  1
  Bi  Bi24  1  0.00000000  0.50000000  0.00000000  1
  Bi  Bi25  1  0.50000000  0.50000000  0.50000000  1
  Bi  Bi26  1  0.00000000  0.00000000  0.50000000  1
  Bi  Bi27  1  0.50000000  0.00000000  0.00000000  1
  Sb  Sb28  1  0.26184200  0.23815800  0.76184200  1
  Sb  Sb29  1  0.86424900  0.63575100  0.36424900  1
  Sb  Sb30  1  0.23815800  0.76184200  0.26184200  1
  Sb  Sb31  1  0.73815800  0.73815800  0.73815800  1
  Sb  Sb32  1  0.13575100  0.36424900  0.63575100  1
  Sb  Sb33  1  0.63575100  0.36424900  0.86424900  1
  Sb  Sb34  1  0.36424900  0.86424900  0.63575100  1
  Sb  Sb35  1  0.63575100  0.13575100  0.36424900  1
  Sb  Sb36  1  0.36424900  0.63575100  0.13575100  1
  Sb  Sb37  1  0.73815800  0.76184200  0.23815800  1
  Sb  Sb38  1  0.23815800  0.73815800  0.76184200  1
  Sb  Sb39  1  0.76184200  0.23815800  0.73815800  1
  Sb  Sb40  1  0.86424900  0.86424900  0.86424900  1
  Sb  Sb41  1  0.13575100  0.13575100  0.13575100  1
  Sb  Sb42  1  0.76184200  0.26184200  0.23815800  1
  Sb  Sb43  1  0.26184200  0.26184200  0.26184200  1
  Br  Br44  1  0.70599200  0.45548400  0.55012400  1
  Br  Br45  1  0.45548400  0.55012400  0.70599200  1
  Br  Br46  1  0.54451600  0.05012400  0.79400800  1
  Br  Br47  1  0.44987600  0.20599200  0.04451600  1
  Br  Br48  1  0.54451600  0.44987600  0.29400800  1
  Br  Br49  1  0.00000000  0.00000000  0.00000000  1
  Br  Br50  1  0.45548400  0.94987600  0.20599200  1
  Br  Br51  1  0.70599200  0.04451600  0.05012400  1
  Br  Br52  1  0.29400800  0.95548400  0.94987600  1
  Br  Br53  1  0.95548400  0.94987600  0.29400800  1
  Br  Br54  1  0.05012400  0.70599200  0.04451600  1
  Br  Br55  1  0.50000000  0.00000000  0.50000000  1
  Br  Br56  1  0.44987600  0.29400800  0.54451600  1
  Br  Br57  1  0.00000000  0.50000000  0.50000000  1
  Br  Br58  1  0.05012400  0.79400800  0.54451600  1
  Br  Br59  1  0.04451600  0.05012400  0.70599200  1
  Br  Br60  1  0.29400800  0.54451600  0.44987600  1
  Br  Br61  1  0.20599200  0.04451600  0.44987600  1
  Br  Br62  1  0.20599200  0.45548400  0.94987600  1
  Br  Br63  1  0.94987600  0.29400800  0.95548400  1
  Br  Br64  1  0.79400800  0.54451600  0.05012400  1
  Br  Br65  1  0.04451600  0.44987600  0.20599200  1
  Br  Br66  1  0.55012400  0.70599200  0.45548400  1
  Br  Br67  1  0.95548400  0.55012400  0.79400800  1
  Br  Br68  1  0.79400800  0.95548400  0.55012400  1
  Br  Br69  1  0.55012400  0.79400800  0.95548400  1
  Br  Br70  1  0.94987600  0.20599200  0.45548400  1
  Br  Br71  1  0.50000000  0.50000000  0.00000000  1
