# generated using pymatgen
data_Ca3Co(SeO3)4
_symmetry_space_group_name_H-M   'P 1'
_cell_length_a   12.64725199
_cell_length_b   12.64725199
_cell_length_c   12.64725199
_cell_angle_alpha   144.53397681
_cell_angle_beta   144.53397681
_cell_angle_gamma   51.02955192
_symmetry_Int_Tables_number   1
_chemical_formula_structural   Ca3Co(SeO3)4
_chemical_formula_sum   'Ca6 Co2 Se8 O24'
_cell_volume   677.47221739
_cell_formula_units_Z   2
loop_
 _symmetry_equiv_pos_site_id
 _symmetry_equiv_pos_as_xyz
  1  'x, y, z'
loop_
 _atom_site_type_symbol
 _atom_site_label
 _atom_site_symmetry_multiplicity
 _atom_site_fract_x
 _atom_site_fract_y
 _atom_site_fract_z
 _atom_site_occupancy
  Ca  Ca0  1  0.07360200  0.57360200  0.50000000  1
  Ca  Ca1  1  0.50000000  0.50000000  0.00000000  1
  Ca  Ca2  1  0.67639800  0.67639800  0.00000000  1
  Ca  Ca3  1  0.42639800  0.92639800  0.50000000  1
  Ca  Ca4  1  0.32360200  0.32360200  0.00000000  1
  Ca  Ca5  1  0.25000000  0.75000000  0.50000000  1
  Co  Co6  1  0.75000000  0.25000000  0.50000000  1
  Co  Co7  1  0.00000000  0.00000000  0.00000000  1
  Se  Se8  1  0.38747000  0.23562500  0.48981700  1
  Se  Se9  1  0.76437500  0.25419200  0.15184500  1
  Se  Se10  1  0.98562500  0.99580800  0.34815500  1
  Se  Se11  1  0.10234700  0.61253000  0.84815500  1
  Se  Se12  1  0.64765300  0.63747000  0.65184500  1
  Se  Se13  1  0.00419200  0.35234700  0.98981700  1
  Se  Se14  1  0.74580800  0.89765300  0.51018300  1
  Se  Se15  1  0.36253000  0.01437500  0.01018300  1
  O  O16  1  0.00949900  0.52680000  0.22633500  1
  O  O17  1  0.76212100  0.04958600  0.91071200  1
  O  O18  1  0.53316400  0.25949900  0.98269800  1
  O  O19  1  0.94656200  0.82966700  0.27605400  1
  O  O20  1  0.60140900  0.01212100  0.21253500  1
  O  O21  1  0.30046500  0.78316400  0.77366500  1
  O  O22  1  0.55361400  0.67050900  0.72394600  1
  O  O23  1  0.98787900  0.20041400  0.58928800  1
  O  O24  1  0.21683600  0.99050100  0.51730200  1
  O  O25  1  0.42050900  0.19656200  0.61689500  1
  O  O26  1  0.57966700  0.80361400  0.38310500  1
  O  O27  1  0.44953500  0.46683600  0.72633500  1
  O  O28  1  0.17033300  0.44638600  0.11689500  1
  O  O29  1  0.47320000  0.69953500  0.48269800  1
  O  O30  1  0.79958600  0.38887400  0.78746500  1
  O  O31  1  0.95041400  0.86112600  0.71253500  1
  O  O32  1  0.32949100  0.05343800  0.88310500  1
  O  O33  1  0.80343800  0.42033300  0.22394600  1
  O  O34  1  0.61112600  0.39859100  0.41071200  1
  O  O35  1  0.13887400  0.85140900  0.08928800  1
  O  O36  1  0.74050100  0.72320000  0.27366500  1
  O  O37  1  0.14859100  0.23787900  0.28746500  1
  O  O38  1  0.19638600  0.57949100  0.77605400  1
  O  O39  1  0.27680000  0.55046500  0.01730200  1
