# generated using pymatgen
data_Rb2Ge2S5
_symmetry_space_group_name_H-M   'P 1'
_cell_length_a   11.20735812
_cell_length_b   11.20735812
_cell_length_c   9.30532497
_cell_angle_alpha   79.58785690
_cell_angle_beta   79.58785690
_cell_angle_gamma   90.22607298
_symmetry_Int_Tables_number   1
_chemical_formula_structural   Rb2Ge2S5
_chemical_formula_sum   'Rb8 Ge8 S20'
_cell_volume   1129.80857127
_cell_formula_units_Z   4
loop_
 _symmetry_equiv_pos_site_id
 _symmetry_equiv_pos_as_xyz
  1  'x, y, z'
loop_
 _atom_site_type_symbol
 _atom_site_label
 _atom_site_symmetry_multiplicity
 _atom_site_fract_x
 _atom_site_fract_y
 _atom_site_fract_z
 _atom_site_occupancy
  Rb  Rb0  1  0.47483800  0.21059000  0.87411400  1
  Rb  Rb1  1  0.78941000  0.52516200  0.62588600  1
  Rb  Rb2  1  0.52516200  0.78941000  0.12588600  1
  Rb  Rb3  1  0.21059000  0.47483800  0.37411400  1
  Rb  Rb4  1  0.79138200  0.94040400  0.62743200  1
  Rb  Rb5  1  0.05959600  0.20861800  0.87256800  1
  Rb  Rb6  1  0.20861800  0.05959600  0.37256800  1
  Rb  Rb7  1  0.94040400  0.79138200  0.12743200  1
  Ge  Ge8  1  0.52715300  0.26716400  0.39907200  1
  Ge  Ge9  1  0.73283600  0.47284700  0.10092800  1
  Ge  Ge10  1  0.47284700  0.73283600  0.60092800  1
  Ge  Ge11  1  0.26716400  0.52715300  0.89907200  1
  Ge  Ge12  1  0.27016100  0.86218400  0.88504500  1
  Ge  Ge13  1  0.13781600  0.72983900  0.61495500  1
  Ge  Ge14  1  0.72983900  0.13781600  0.11495500  1
  Ge  Ge15  1  0.86218400  0.27016100  0.38504500  1
  S  S16  1  0.54406200  0.11751600  0.26015400  1
  S  S17  1  0.88248400  0.45593800  0.23984600  1
  S  S18  1  0.45593800  0.88248400  0.73984600  1
  S  S19  1  0.11751600  0.54406200  0.76015400  1
  S  S20  1  0.32295900  0.75515200  0.46236400  1
  S  S21  1  0.24484800  0.67704100  0.03763600  1
  S  S22  1  0.67704100  0.24484800  0.53763600  1
  S  S23  1  0.75515200  0.32295900  0.96236400  1
  S  S24  1  0.35463600  0.24361800  0.54513600  1
  S  S25  1  0.75638200  0.64536400  0.95486400  1
  S  S26  1  0.64536400  0.75638200  0.45486400  1
  S  S27  1  0.24361800  0.35463600  0.04513600  1
  S  S28  1  0.75285600  0.00380100  0.97574500  1
  S  S29  1  0.99619900  0.24714400  0.52425500  1
  S  S30  1  0.24714400  0.99619900  0.02425500  1
  S  S31  1  0.00380100  0.75285600  0.47574500  1
  S  S32  1  0.88106600  0.11893400  0.25000000  1
  S  S33  1  0.11893400  0.88106600  0.75000000  1
  S  S34  1  0.54732400  0.45267600  0.25000000  1
  S  S35  1  0.45267600  0.54732400  0.75000000  1
