# generated using pymatgen
data_BaGaF5
_symmetry_space_group_name_H-M   'P 1'
_cell_length_a   5.09273800
_cell_length_b   5.76035900
_cell_length_c   14.18373300
_cell_angle_alpha   90.00000000
_cell_angle_beta   90.00000000
_cell_angle_gamma   90.00000000
_symmetry_Int_Tables_number   1
_chemical_formula_structural   BaGaF5
_chemical_formula_sum   'Ba4 Ga4 F20'
_cell_volume   416.09397956
_cell_formula_units_Z   4
loop_
 _symmetry_equiv_pos_site_id
 _symmetry_equiv_pos_as_xyz
  1  'x, y, z'
loop_
 _atom_site_type_symbol
 _atom_site_label
 _atom_site_symmetry_multiplicity
 _atom_site_fract_x
 _atom_site_fract_y
 _atom_site_fract_z
 _atom_site_occupancy
  Ba  Ba0  1  0.72911500  0.65781000  0.65732700  1
  Ba  Ba1  1  0.22911500  0.84219000  0.34267300  1
  Ba  Ba2  1  0.27088500  0.15781000  0.84267300  1
  Ba  Ba3  1  0.77088500  0.34219000  0.15732700  1
  Ga  Ga4  1  0.31506900  0.14600400  0.58568300  1
  Ga  Ga5  1  0.81506900  0.35399600  0.41431700  1
  Ga  Ga6  1  0.68493100  0.64600400  0.91431700  1
  Ga  Ga7  1  0.18493100  0.85399600  0.08568300  1
  F  F8  1  0.95240500  0.60841900  0.48130000  1
  F  F9  1  0.45240500  0.89158100  0.51870000  1
  F  F10  1  0.04759500  0.10841900  0.01870000  1
  F  F11  1  0.54759500  0.39158100  0.98130000  1
  F  F12  1  0.64639500  0.56110000  0.32797400  1
  F  F13  1  0.14639500  0.93890000  0.67202600  1
  F  F14  1  0.35360500  0.06110000  0.17202600  1
  F  F15  1  0.85360500  0.43890000  0.82797400  1
  F  F16  1  0.19125400  0.40800000  0.65213700  1
  F  F17  1  0.69125400  0.09200000  0.34786300  1
  F  F18  1  0.80874600  0.90800000  0.84786300  1
  F  F19  1  0.30874600  0.59200000  0.15213700  1
  F  F20  1  0.60573500  0.14818500  0.67225300  1
  F  F21  1  0.10573500  0.35181500  0.32774700  1
  F  F22  1  0.39426500  0.64818500  0.82774700  1
  F  F23  1  0.89426500  0.85181500  0.17225300  1
  F  F24  1  0.51838300  0.35929800  0.50271100  1
  F  F25  1  0.01838300  0.14070200  0.49728900  1
  F  F26  1  0.48161700  0.85929800  0.99728900  1
  F  F27  1  0.98161700  0.64070200  0.00271100  1
