# generated using pymatgen
data_Er(Al3Ni)3
_symmetry_space_group_name_H-M   'P 1'
_cell_length_a   10.04334236
_cell_length_b   10.04334236
_cell_length_c   10.04334302
_cell_angle_alpha   42.46378416
_cell_angle_beta   42.46378416
_cell_angle_gamma   42.46378647
_symmetry_Int_Tables_number   1
_chemical_formula_structural   Er(Al3Ni)3
_chemical_formula_sum   'Er2 Al18 Ni6'
_cell_volume   418.07055474
_cell_formula_units_Z   2
loop_
 _symmetry_equiv_pos_site_id
 _symmetry_equiv_pos_as_xyz
  1  'x, y, z'
loop_
 _atom_site_type_symbol
 _atom_site_label
 _atom_site_symmetry_multiplicity
 _atom_site_fract_x
 _atom_site_fract_y
 _atom_site_fract_z
 _atom_site_occupancy
  Er  Er0  1  0.16691600  0.16691600  0.16691600  1
  Er  Er1  1  0.83308400  0.83308400  0.83308400  1
  Al  Al2  1  0.10266600  0.43292900  0.76311900  1
  Al  Al3  1  0.43292900  0.76311900  0.10266600  1
  Al  Al4  1  0.56707100  0.89733400  0.23688100  1
  Al  Al5  1  0.94810000  0.94810000  0.94810000  1
  Al  Al6  1  0.05190000  0.05190000  0.05190000  1
  Al  Al7  1  0.29080500  0.70919500  0.50000000  1
  Al  Al8  1  0.89733400  0.23688100  0.56707100  1
  Al  Al9  1  0.38694600  0.38694600  0.38694600  1
  Al  Al10  1  0.50000000  0.29080500  0.70919500  1
  Al  Al11  1  0.23688100  0.56707100  0.89733400  1
  Al  Al12  1  0.71803300  0.71803300  0.71803300  1
  Al  Al13  1  0.61305400  0.61305400  0.61305400  1
  Al  Al14  1  0.33388400  0.00000000  0.66611600  1
  Al  Al15  1  0.70919500  0.50000000  0.29080500  1
  Al  Al16  1  0.66611600  0.33388400  0.00000000  1
  Al  Al17  1  0.28196700  0.28196700  0.28196700  1
  Al  Al18  1  0.00000000  0.66611600  0.33388400  1
  Al  Al19  1  0.76311900  0.10266600  0.43292900  1
  Ni  Ni20  1  0.41840500  0.07847700  0.75845800  1
  Ni  Ni21  1  0.58159500  0.24154200  0.92152300  1
  Ni  Ni22  1  0.07847700  0.75845800  0.41840500  1
  Ni  Ni23  1  0.75845800  0.41840500  0.07847700  1
  Ni  Ni24  1  0.92152300  0.58159500  0.24154200  1
  Ni  Ni25  1  0.24154200  0.92152300  0.58159500  1
