# generated using pymatgen
data_La4MgCo
_symmetry_space_group_name_H-M   'P 1'
_cell_length_a   10.04521126
_cell_length_b   10.04521126
_cell_length_c   10.04521126
_cell_angle_alpha   60.00000000
_cell_angle_beta   60.00000000
_cell_angle_gamma   60.00000000
_symmetry_Int_Tables_number   1
_chemical_formula_structural   La4MgCo
_chemical_formula_sum   'La16 Mg4 Co4'
_cell_volume   716.74096399
_cell_formula_units_Z   4
loop_
 _symmetry_equiv_pos_site_id
 _symmetry_equiv_pos_as_xyz
  1  'x, y, z'
loop_
 _atom_site_type_symbol
 _atom_site_label
 _atom_site_symmetry_multiplicity
 _atom_site_fract_x
 _atom_site_fract_y
 _atom_site_fract_z
 _atom_site_occupancy
  La  La0  1  0.56023500  0.93976500  0.56023500  1
  La  La1  1  0.18810200  0.18810200  0.81189800  1
  La  La2  1  0.56023500  0.56023500  0.93976500  1
  La  La3  1  0.96835800  0.34388100  0.34388100  1
  La  La4  1  0.81189800  0.18810200  0.81189800  1
  La  La5  1  0.18810200  0.81189800  0.18810200  1
  La  La6  1  0.34388100  0.34388100  0.96835800  1
  La  La7  1  0.34388100  0.96835800  0.34388100  1
  La  La8  1  0.93976500  0.93976500  0.56023500  1
  La  La9  1  0.93976500  0.56023500  0.56023500  1
  La  La10  1  0.34388100  0.34388100  0.34388100  1
  La  La11  1  0.81189800  0.81189800  0.18810200  1
  La  La12  1  0.81189800  0.18810200  0.18810200  1
  La  La13  1  0.56023500  0.93976500  0.93976500  1
  La  La14  1  0.93976500  0.56023500  0.93976500  1
  La  La15  1  0.18810200  0.81189800  0.81189800  1
  Mg  Mg16  1  0.57819300  0.57819300  0.57819300  1
  Mg  Mg17  1  0.57819300  0.26542200  0.57819300  1
  Mg  Mg18  1  0.57819300  0.57819300  0.26542200  1
  Mg  Mg19  1  0.26542200  0.57819300  0.57819300  1
  Co  Co20  1  0.14024900  0.57925400  0.14024900  1
  Co  Co21  1  0.57925400  0.14024900  0.14024900  1
  Co  Co22  1  0.14024900  0.14024900  0.57925400  1
  Co  Co23  1  0.14024900  0.14024900  0.14024900  1
