# generated using pymatgen
data_Tl2Ni4P4O15
_symmetry_space_group_name_H-M   'P 1'
_cell_length_a   8.75320536
_cell_length_b   8.75320536
_cell_length_c   18.40634365
_cell_angle_alpha   82.09039851
_cell_angle_beta   82.09039851
_cell_angle_gamma   106.28228202
_symmetry_Int_Tables_number   1
_chemical_formula_structural   Tl2Ni4P4O15
_chemical_formula_sum   'Tl8 Ni16 P16 O60'
_cell_volume   1317.60193869
_cell_formula_units_Z   4
loop_
 _symmetry_equiv_pos_site_id
 _symmetry_equiv_pos_as_xyz
  1  'x, y, z'
loop_
 _atom_site_type_symbol
 _atom_site_label
 _atom_site_symmetry_multiplicity
 _atom_site_fract_x
 _atom_site_fract_y
 _atom_site_fract_z
 _atom_site_occupancy
  Tl  Tl0  1  0.41233200  0.88855600  0.29987600  1
  Tl  Tl1  1  0.45033200  0.64947800  0.05120700  1
  Tl  Tl2  1  0.35052200  0.54966800  0.44879300  1
  Tl  Tl3  1  0.58766800  0.11144400  0.70012400  1
  Tl  Tl4  1  0.54966800  0.35052200  0.94879300  1
  Tl  Tl5  1  0.88855600  0.41233200  0.79987600  1
  Tl  Tl6  1  0.11144400  0.58766800  0.20012400  1
  Tl  Tl7  1  0.64947800  0.45033200  0.55120700  1
  Ni  Ni8  1  0.73005700  0.08641800  0.06824200  1
  Ni  Ni9  1  0.03887800  0.15134100  0.93250500  1
  Ni  Ni10  1  0.53955700  0.46044300  0.25000000  1
  Ni  Ni11  1  0.82793800  0.17206200  0.25000000  1
  Ni  Ni12  1  0.46044300  0.53955700  0.75000000  1
  Ni  Ni13  1  0.50000000  0.00000000  0.50000000  1
  Ni  Ni14  1  0.96112200  0.84865900  0.06749500  1
  Ni  Ni15  1  0.08641800  0.73005700  0.56824200  1
  Ni  Ni16  1  0.84865900  0.96112200  0.56749500  1
  Ni  Ni17  1  0.04644300  0.95355700  0.25000000  1
  Ni  Ni18  1  0.17206200  0.82793800  0.75000000  1
  Ni  Ni19  1  0.15134100  0.03887800  0.43250500  1
  Ni  Ni20  1  0.95355700  0.04644300  0.75000000  1
  Ni  Ni21  1  0.00000000  0.50000000  0.00000000  1
  Ni  Ni22  1  0.91358200  0.26994300  0.43175800  1
  Ni  Ni23  1  0.26994300  0.91358200  0.93175800  1
  P  P24  1  0.22757900  0.55782600  0.87884000  1
  P  P25  1  0.77955200  0.89772100  0.40251400  1
  P  P26  1  0.31250500  0.01303600  0.09794800  1
  P  P27  1  0.98696400  0.68749500  0.40205200  1
  P  P28  1  0.10227900  0.22044800  0.09748600  1
  P  P29  1  0.72325400  0.83982100  0.17888300  1
  P  P30  1  0.16017900  0.27674600  0.32111700  1
  P  P31  1  0.77242100  0.44217400  0.12116000  1
  P  P32  1  0.89772100  0.77955200  0.90251400  1
  P  P33  1  0.83982100  0.72325400  0.67888300  1
  P  P34  1  0.27674600  0.16017900  0.82111700  1
  P  P35  1  0.22044800  0.10227900  0.59748600  1
  P  P36  1  0.68749500  0.98696400  0.90205200  1
  P  P37  1  0.55782600  0.22757900  0.37884000  1
  P  P38  1  0.01303600  0.31250500  0.59794800  1
  P  P39  1  0.44217400  0.77242100  0.62116000  1
  O  O40  1  0.60075200  0.86809100  0.42924800  1
  O  O41  1  0.66945300  0.21832300  0.43845400  1
  O  O42  1  0.40910600  0.29702300  0.76734400  1
  O  O43  1  0.94941900  0.25155200  0.68130700  1
  O  O44  1  0.05058100  0.74844800  0.31869300  1
  O  O45  1  0.54237300  0.39909600  0.35910000  1
  O  O46  1  0.25155200  0.94941900  0.18130700  1
  O  O47  1  0.82746700  0.38566100  0.19324300  1
  O  O48  1  0.49159200  0.05406600  0.07104500  1
  O  O49  1  0.61433900  0.17253300  0.30675700  1
  O  O50  1  0.38566100  0.82746700  0.69324300  1
  O  O51  1  0.16348800  0.03982600  0.68159800  1
  O  O52  1  0.70283800  0.00931600  0.18747100  1
  O  O53  1  0.50840800  0.94593400  0.92895500  1
  O  O54  1  0.74844800  0.05058100  0.81869300  1
  O  O55  1  0.03982600  0.16348800  0.18159800  1
  O  O56  1  0.00793000  0.88867100  0.94871200  1
  O  O57  1  0.96017400  0.83651200  0.81840200  1
  O  O58  1  0.09547900  0.39496700  0.92043400  1
  O  O59  1  0.99068400  0.29716200  0.31252900  1
  O  O60  1  0.21275100  0.90055700  0.05068900  1
  O  O61  1  0.72435900  0.81168300  0.92088900  1
  O  O62  1  0.09944300  0.78724900  0.44931100  1
  O  O63  1  0.21832300  0.66945300  0.93845400  1
  O  O64  1  0.89757800  0.82970200  0.18363200  1
  O  O65  1  0.17253300  0.61433900  0.80675700  1
  O  O66  1  0.83907100  0.71573000  0.59297800  1
  O  O67  1  0.29716200  0.99068400  0.81252900  1
  O  O68  1  0.81168300  0.72435900  0.42088900  1
  O  O69  1  0.39496700  0.09547900  0.42043400  1
  O  O70  1  0.99207000  0.11132900  0.05128800  1
  O  O71  1  0.90055700  0.21275100  0.55069000  1
  O  O72  1  0.27564100  0.18831700  0.07911100  1
  O  O73  1  0.33054700  0.78167700  0.56154600  1
  O  O74  1  0.00931600  0.70283800  0.68747100  1
  O  O75  1  0.82970200  0.89757800  0.68363200  1
  O  O76  1  0.86809100  0.60075200  0.92924800  1
  O  O77  1  0.16092900  0.28427000  0.40702200  1
  O  O78  1  0.59089400  0.70297700  0.23265600  1
  O  O79  1  0.28427000  0.16092900  0.90702200  1
  O  O80  1  0.18831700  0.27564100  0.57911100  1
  O  O81  1  0.60503300  0.90452100  0.57956600  1
  O  O82  1  0.78167700  0.33054700  0.06154600  1
  O  O83  1  0.29702300  0.40910600  0.26734400  1
  O  O84  1  0.11132900  0.99207000  0.55128800  1
  O  O85  1  0.90452100  0.60503300  0.07956600  1
  O  O86  1  0.39924800  0.13190900  0.57075200  1
  O  O87  1  0.10242200  0.17029800  0.81636800  1
  O  O88  1  0.71573000  0.83907100  0.09297800  1
  O  O89  1  0.05406600  0.49159200  0.57104500  1
  O  O90  1  0.13190900  0.39924800  0.07075200  1
  O  O91  1  0.83651200  0.96017400  0.31840200  1
  O  O92  1  0.39909600  0.54237300  0.85910000  1
  O  O93  1  0.94593400  0.50840800  0.42895500  1
  O  O94  1  0.88867100  0.00793000  0.44871200  1
  O  O95  1  0.60090400  0.45762700  0.14090000  1
  O  O96  1  0.45762700  0.60090400  0.64090000  1
  O  O97  1  0.70297700  0.59089400  0.73265600  1
  O  O98  1  0.17029800  0.10242200  0.31636800  1
  O  O99  1  0.78724900  0.09944300  0.94931000  1
