# generated using pymatgen
data_Cs2AgSbS4
_symmetry_space_group_name_H-M   'P 1'
_cell_length_a   7.09673100
_cell_length_b   7.54271203
_cell_length_c   11.28954208
_cell_angle_alpha   73.20390707
_cell_angle_beta   75.56293074
_cell_angle_gamma   72.07257340
_symmetry_Int_Tables_number   1
_chemical_formula_structural   Cs2AgSbS4
_chemical_formula_sum   'Cs4 Ag2 Sb2 S8'
_cell_volume   541.84484993
_cell_formula_units_Z   2
loop_
 _symmetry_equiv_pos_site_id
 _symmetry_equiv_pos_as_xyz
  1  'x, y, z'
loop_
 _atom_site_type_symbol
 _atom_site_label
 _atom_site_symmetry_multiplicity
 _atom_site_fract_x
 _atom_site_fract_y
 _atom_site_fract_z
 _atom_site_occupancy
  Cs  Cs0  1  0.71740000  0.75628100  0.59458200  1
  Cs  Cs1  1  0.28260000  0.24371900  0.40541800  1
  Cs  Cs2  1  0.76446600  0.51051700  0.18840200  1
  Cs  Cs3  1  0.23553400  0.48948300  0.81159800  1
  Ag  Ag4  1  0.62115900  0.09110000  0.07243100  1
  Ag  Ag5  1  0.37884100  0.90890000  0.92756900  1
  Sb  Sb6  1  0.86962900  0.13221700  0.76437100  1
  Sb  Sb7  1  0.13037100  0.86778300  0.23562900  1
  S  S8  1  0.26505300  0.63855300  0.11033800  1
  S  S9  1  0.77152200  0.94832600  0.26938500  1
  S  S10  1  0.75476300  0.26152200  0.57190300  1
  S  S11  1  0.73494700  0.36144700  0.88966200  1
  S  S12  1  0.23838700  0.14876700  0.11795900  1
  S  S13  1  0.24523700  0.73847800  0.42809700  1
  S  S14  1  0.76161300  0.85123300  0.88204100  1
  S  S15  1  0.22847800  0.05167400  0.73061500  1
