# generated using pymatgen
data_Sr14MnSb11
_symmetry_space_group_name_H-M   'P 1'
_cell_length_a   17.08800931
_cell_length_b   17.08800931
_cell_length_c   17.08800931
_cell_angle_alpha   117.77309907
_cell_angle_beta   117.77309907
_cell_angle_gamma   93.90242179
_symmetry_Int_Tables_number   1
_chemical_formula_structural   Sr14MnSb11
_chemical_formula_sum   'Sr56 Mn4 Sb44'
_cell_volume   3637.88196826
_cell_formula_units_Z   4
loop_
 _symmetry_equiv_pos_site_id
 _symmetry_equiv_pos_as_xyz
  1  'x, y, z'
loop_
 _atom_site_type_symbol
 _atom_site_label
 _atom_site_symmetry_multiplicity
 _atom_site_fract_x
 _atom_site_fract_y
 _atom_site_fract_z
 _atom_site_occupancy
  Sr  Sr0  1  0.35084000  0.68779500  0.97523200  1
  Sr  Sr1  1  0.93779500  0.10084000  0.47523200  1
  Sr  Sr2  1  0.77544800  0.49655900  0.36663200  1
  Sr  Sr3  1  0.12500000  0.51909300  0.89409300  1
  Sr  Sr4  1  0.62500000  0.23090700  0.10590700  1
  Sr  Sr5  1  0.71256300  0.37560800  0.02476800  1
  Sr  Sr6  1  0.00344100  0.72455200  0.63336800  1
  Sr  Sr7  1  0.85084000  0.87560800  0.66304500  1
  Sr  Sr8  1  0.12560800  0.60084000  0.16304500  1
  Sr  Sr9  1  0.49727200  0.14429000  0.39624400  1
  Sr  Sr10  1  0.89429000  0.99804700  0.14701900  1
  Sr  Sr11  1  0.35571000  0.00272800  0.60375600  1
  Sr  Sr12  1  0.97455200  0.75344100  0.13336800  1
  Sr  Sr13  1  0.03743700  0.87439200  0.47523200  1
  Sr  Sr14  1  0.53743700  0.06220500  0.16304500  1
  Sr  Sr15  1  0.47455200  0.34118300  0.22111100  1
  Sr  Sr16  1  0.39897200  0.75195300  0.39624400  1
  Sr  Sr17  1  0.39429000  0.24727200  0.89624400  1
  Sr  Sr18  1  0.89916000  0.37439200  0.83695500  1
  Sr  Sr19  1  0.35102800  0.49804700  0.10375600  1
  Sr  Sr20  1  0.48090700  0.37500000  0.60590700  1
  Sr  Sr21  1  0.43779500  0.96256300  0.83695500  1
  Sr  Sr22  1  0.62992700  0.99655900  0.72111100  1
  Sr  Sr23  1  0.75272800  0.64897200  0.14701900  1
  Sr  Sr24  1  0.31220500  0.28743700  0.66304500  1
  Sr  Sr25  1  0.12439200  0.78743700  0.97523200  1
  Sr  Sr26  1  0.24655900  0.37992700  0.22111100  1
  Sr  Sr27  1  0.50195300  0.60571000  0.85298100  1
  Sr  Sr28  1  0.81220500  0.14916000  0.02476800  1
  Sr  Sr29  1  0.76909300  0.87500000  0.39409300  1
  Sr  Sr30  1  0.65881700  0.87992700  0.13336800  1
  Sr  Sr31  1  0.15881700  0.02544800  0.77888900  1
  Sr  Sr32  1  0.99727200  0.60102800  0.35298100  1
  Sr  Sr33  1  0.59118300  0.22455200  0.72111100  1
  Sr  Sr34  1  0.85102800  0.74727200  0.85298100  1
  Sr  Sr35  1  0.62007300  0.84118300  0.86663200  1
  Sr  Sr36  1  0.62560800  0.46256300  0.52476800  1
  Sr  Sr37  1  0.26909300  0.87500000  0.89409300  1
  Sr  Sr38  1  0.27544800  0.90881700  0.27888900  1
  Sr  Sr39  1  0.74655900  0.52544800  0.86663200  1
  Sr  Sr40  1  0.89897200  0.50272800  0.64701900  1
  Sr  Sr41  1  0.12500000  0.01909300  0.39409300  1
  Sr  Sr42  1  0.24804700  0.64429000  0.64701900  1
  Sr  Sr43  1  0.74804700  0.10102800  0.60375600  1
  Sr  Sr44  1  0.98090700  0.37500000  0.10590700  1
  Sr  Sr45  1  0.00195300  0.14897200  0.89624400  1
  Sr  Sr46  1  0.21256300  0.18779500  0.33695500  1
  Sr  Sr47  1  0.62500000  0.73090700  0.60590700  1
  Sr  Sr48  1  0.85571000  0.25195300  0.35298100  1
  Sr  Sr49  1  0.12007300  0.25344100  0.77888900  1
  Sr  Sr50  1  0.50344100  0.87007300  0.27888900  1
  Sr  Sr51  1  0.12992700  0.40881700  0.63336800  1
  Sr  Sr52  1  0.62439200  0.64916000  0.33695500  1
  Sr  Sr53  1  0.25272800  0.10571000  0.10375600  1
  Sr  Sr54  1  0.09118300  0.37007300  0.36663200  1
  Sr  Sr55  1  0.39916000  0.56220500  0.52476800  1
  Mn  Mn56  1  0.50000000  0.50000000  0.00000000  1
  Mn  Mn57  1  0.75000000  0.25000000  0.50000000  1
  Mn  Mn58  1  0.25000000  0.75000000  0.50000000  1
  Mn  Mn59  1  0.00000000  0.00000000  0.00000000  1
  Sb  Sb60  1  0.89706300  0.54122300  0.09426700  1
  Sb  Sb61  1  0.44673700  0.80856300  0.63186200  1
  Sb  Sb62  1  0.85293700  0.70877700  0.40573300  1
  Sb  Sb63  1  0.69143700  0.05326300  0.36813800  1
  Sb  Sb64  1  0.55279600  0.14706300  0.85583900  1
  Sb  Sb65  1  0.55856300  0.42670100  0.86182600  1
  Sb  Sb66  1  0.88267800  0.88267800  0.26535500  1
  Sb  Sb67  1  0.80304300  0.20877700  0.85583900  1
  Sb  Sb68  1  0.50000000  0.00000000  0.50000000  1
  Sb  Sb69  1  0.67670100  0.30856300  0.36182600  1
  Sb  Sb70  1  0.07329900  0.94143700  0.13817400  1
  Sb  Sb71  1  0.29122300  0.69695700  0.14416100  1
  Sb  Sb72  1  0.57329900  0.43512500  0.13186200  1
  Sb  Sb73  1  0.19720400  0.10293700  0.64416100  1
  Sb  Sb74  1  0.75000000  0.75000000  0.00000000  1
  Sb  Sb75  1  0.11732200  0.38267800  0.00000000  1
  Sb  Sb76  1  0.06487500  0.92670100  0.86813800  1
  Sb  Sb77  1  0.17670100  0.81487500  0.36813800  1
  Sb  Sb78  1  0.80326300  0.93512500  0.86182600  1
  Sb  Sb79  1  0.45877700  0.55304300  0.35583900  1
  Sb  Sb80  1  0.19143700  0.82329900  0.63817400  1
  Sb  Sb81  1  0.94695700  0.04122300  0.64416100  1
  Sb  Sb82  1  0.25000000  0.25000000  0.00000000  1
  Sb  Sb83  1  0.05856300  0.19673700  0.13186200  1
  Sb  Sb84  1  0.13267800  0.63267800  0.76535500  1
  Sb  Sb85  1  0.18512500  0.55326300  0.36182600  1
  Sb  Sb86  1  0.95877700  0.60293700  0.90573300  1
  Sb  Sb87  1  0.56487500  0.69673700  0.13817400  1
  Sb  Sb88  1  0.30304300  0.44720400  0.59426700  1
  Sb  Sb89  1  0.86732200  0.36732200  0.23464500  1
  Sb  Sb90  1  0.61732200  0.61732200  0.73464500  1
  Sb  Sb91  1  0.35293700  0.94720400  0.14416100  1
  Sb  Sb92  1  0.36732200  0.13267800  0.50000000  1
  Sb  Sb93  1  0.39706300  0.30279600  0.35583900  1
  Sb  Sb94  1  0.30326300  0.44143700  0.86813800  1
  Sb  Sb95  1  0.69720400  0.05304300  0.09426700  1
  Sb  Sb96  1  0.44695700  0.80279600  0.90573300  1
  Sb  Sb97  1  0.63267800  0.86732200  0.50000000  1
  Sb  Sb98  1  0.00000000  0.50000000  0.50000000  1
  Sb  Sb99  1  0.38267800  0.11732200  0.00000000  1
  Sb  Sb100  1  0.94673700  0.31487500  0.63817400  1
  Sb  Sb101  1  0.05279600  0.19695700  0.40573300  1
  Sb  Sb102  1  0.68512500  0.32329900  0.63186200  1
  Sb  Sb103  1  0.79122300  0.64706300  0.59426700  1
