# generated using pymatgen
data_Dy2Te
_symmetry_space_group_name_H-M   'P 1'
_cell_length_a   4.06698700
_cell_length_b   11.54166600
_cell_length_c   22.20945200
_cell_angle_alpha   90.00000000
_cell_angle_beta   90.00000000
_cell_angle_gamma   90.00000000
_symmetry_Int_Tables_number   1
_chemical_formula_structural   Dy2Te
_chemical_formula_sum   'Dy24 Te12'
_cell_volume   1042.50735893
_cell_formula_units_Z   12
loop_
 _symmetry_equiv_pos_site_id
 _symmetry_equiv_pos_as_xyz
  1  'x, y, z'
loop_
 _atom_site_type_symbol
 _atom_site_label
 _atom_site_symmetry_multiplicity
 _atom_site_fract_x
 _atom_site_fract_y
 _atom_site_fract_z
 _atom_site_occupancy
  Dy  Dy0  1  0.25000000  0.15175700  0.39141000  1
  Dy  Dy1  1  0.75000000  0.84824300  0.60859000  1
  Dy  Dy2  1  0.75000000  0.65175700  0.10859000  1
  Dy  Dy3  1  0.25000000  0.34824300  0.89141000  1
  Dy  Dy4  1  0.25000000  0.45595500  0.33996400  1
  Dy  Dy5  1  0.75000000  0.54404500  0.66003600  1
  Dy  Dy6  1  0.75000000  0.95595500  0.16003600  1
  Dy  Dy7  1  0.25000000  0.04404500  0.83996400  1
  Dy  Dy8  1  0.25000000  0.73462700  0.23339900  1
  Dy  Dy9  1  0.75000000  0.26537300  0.76660100  1
  Dy  Dy10  1  0.75000000  0.23462700  0.26660100  1
  Dy  Dy11  1  0.25000000  0.76537300  0.73339900  1
  Dy  Dy12  1  0.25000000  0.11612400  0.03424700  1
  Dy  Dy13  1  0.75000000  0.88387600  0.96575300  1
  Dy  Dy14  1  0.75000000  0.61612400  0.46575300  1
  Dy  Dy15  1  0.25000000  0.38387600  0.53424700  1
  Dy  Dy16  1  0.25000000  0.41513900  0.14672900  1
  Dy  Dy17  1  0.75000000  0.58486100  0.85327100  1
  Dy  Dy18  1  0.75000000  0.91513900  0.35327100  1
  Dy  Dy19  1  0.25000000  0.08486100  0.64672900  1
  Dy  Dy20  1  0.25000000  0.61309300  0.98310100  1
  Dy  Dy21  1  0.75000000  0.38690700  0.01689900  1
  Dy  Dy22  1  0.75000000  0.11309300  0.51689900  1
  Dy  Dy23  1  0.25000000  0.88690700  0.48310100  1
  Te  Te24  1  0.25000000  0.85069400  0.06888400  1
  Te  Te25  1  0.75000000  0.14930600  0.93111600  1
  Te  Te26  1  0.75000000  0.35069400  0.43111600  1
  Te  Te27  1  0.25000000  0.64930600  0.56888400  1
  Te  Te28  1  0.25000000  0.71193800  0.37263100  1
  Te  Te29  1  0.75000000  0.28806200  0.62736900  1
  Te  Te30  1  0.75000000  0.21193800  0.12736900  1
  Te  Te31  1  0.25000000  0.78806200  0.87263100  1
  Te  Te32  1  0.25000000  0.02036800  0.26083700  1
  Te  Te33  1  0.75000000  0.97963200  0.73916300  1
  Te  Te34  1  0.75000000  0.52036800  0.23916300  1
  Te  Te35  1  0.25000000  0.47963200  0.76083700  1
