# generated using pymatgen
data_Dy2Hf2(MoO4)7
_symmetry_space_group_name_H-M   'P 1'
_cell_length_a   11.68564793
_cell_length_b   11.68564793
_cell_length_c   14.04043762
_cell_angle_alpha   69.56274600
_cell_angle_beta   69.56274600
_cell_angle_gamma   50.46471034
_symmetry_Int_Tables_number   1
_chemical_formula_structural   Dy2Hf2(MoO4)7
_chemical_formula_sum   'Dy4 Hf4 Mo14 O56'
_cell_volume   1364.06496585
_cell_formula_units_Z   2
loop_
 _symmetry_equiv_pos_site_id
 _symmetry_equiv_pos_as_xyz
  1  'x, y, z'
loop_
 _atom_site_type_symbol
 _atom_site_label
 _atom_site_symmetry_multiplicity
 _atom_site_fract_x
 _atom_site_fract_y
 _atom_site_fract_z
 _atom_site_occupancy
  Dy  Dy0  1  0.35217300  0.37565000  0.93603600  1
  Dy  Dy1  1  0.64782700  0.62435000  0.06396400  1
  Dy  Dy2  1  0.37565000  0.35217300  0.43603600  1
  Dy  Dy3  1  0.62435000  0.64782700  0.56396400  1
  Hf  Hf4  1  0.91782100  0.84814900  0.18797100  1
  Hf  Hf5  1  0.15185100  0.08217900  0.31202900  1
  Hf  Hf6  1  0.08217900  0.15185100  0.81202900  1
  Hf  Hf7  1  0.84814900  0.91782100  0.68797100  1
  Mo  Mo8  1  0.27456600  0.04399000  0.02345000  1
  Mo  Mo9  1  0.04399000  0.27456600  0.52345000  1
  Mo  Mo10  1  0.56725900  0.31162000  0.64657100  1
  Mo  Mo11  1  0.51357300  0.99883400  0.32921000  1
  Mo  Mo12  1  0.79421500  0.20578500  0.25000000  1
  Mo  Mo13  1  0.00116600  0.48642700  0.17079000  1
  Mo  Mo14  1  0.48642700  0.00116600  0.67079000  1
  Mo  Mo15  1  0.72543400  0.95601000  0.97655000  1
  Mo  Mo16  1  0.20578500  0.79421500  0.75000000  1
  Mo  Mo17  1  0.31162000  0.56725900  0.14657100  1
  Mo  Mo18  1  0.99883400  0.51357300  0.82921000  1
  Mo  Mo19  1  0.43274100  0.68838000  0.35342900  1
  Mo  Mo20  1  0.95601000  0.72543400  0.47655000  1
  Mo  Mo21  1  0.68838000  0.43274100  0.85342900  1
  O  O22  1  0.30118300  0.49144900  0.28075000  1
  O  O23  1  0.46854700  0.57396700  0.10286400  1
  O  O24  1  0.57396700  0.46854700  0.60286400  1
  O  O25  1  0.63192200  0.24514300  0.34404600  1
  O  O26  1  0.94082700  0.14337500  0.31540500  1
  O  O27  1  0.49144900  0.30118300  0.78075000  1
  O  O28  1  0.75485700  0.36807800  0.15595400  1
  O  O29  1  0.62669900  0.98501500  0.71533800  1
  O  O30  1  0.86975200  0.89400600  0.04485700  1
  O  O31  1  0.05303600  0.19782700  0.66014800  1
  O  O32  1  0.05917300  0.85662500  0.68459500  1
  O  O33  1  0.08140600  0.30570800  0.25840600  1
  O  O34  1  0.37330100  0.01498500  0.28466200  1
  O  O35  1  0.98501500  0.62669900  0.21533800  1
  O  O36  1  0.85662500  0.05917300  0.18459500  1
  O  O37  1  0.10599400  0.13024800  0.45514300  1
  O  O38  1  0.56755400  0.14199100  0.99415100  1
  O  O39  1  0.23750400  0.86111900  0.37331700  1
  O  O40  1  0.80217300  0.94696400  0.83985200  1
  O  O41  1  0.13024800  0.10599400  0.95514300  1
  O  O42  1  0.16678600  0.32892300  0.47263800  1
  O  O43  1  0.45803400  0.11559500  0.54760000  1
  O  O44  1  0.36807800  0.75485700  0.65595400  1
  O  O45  1  0.44804800  0.33386400  0.57950500  1
  O  O46  1  0.44486500  0.17975400  0.33832500  1
  O  O47  1  0.50855100  0.69881700  0.21925000  1
  O  O48  1  0.42603300  0.53145300  0.39713600  1
  O  O49  1  0.14337500  0.94082700  0.81540500  1
  O  O50  1  0.89400600  0.86975200  0.54485700  1
  O  O51  1  0.67107700  0.83321400  0.02736200  1
  O  O52  1  0.43244600  0.85800900  0.00584900  1
  O  O53  1  0.55513500  0.82024600  0.66167500  1
  O  O54  1  0.86111900  0.23750400  0.87331700  1
  O  O55  1  0.55195200  0.66613600  0.42049500  1
  O  O56  1  0.32892300  0.16678600  0.97263800  1
  O  O57  1  0.88440500  0.54196600  0.95240000  1
  O  O58  1  0.82024600  0.55513500  0.16167500  1
  O  O59  1  0.54196600  0.88440500  0.45240000  1
  O  O60  1  0.14199100  0.56755400  0.49415100  1
  O  O61  1  0.01498500  0.37330100  0.78466200  1
  O  O62  1  0.30570800  0.08140600  0.75840600  1
  O  O63  1  0.69429200  0.91859400  0.24159400  1
  O  O64  1  0.19782700  0.05303600  0.16014800  1
  O  O65  1  0.91859400  0.69429200  0.74159400  1
  O  O66  1  0.85800900  0.43244600  0.50584900  1
  O  O67  1  0.53145300  0.42603300  0.89713600  1
  O  O68  1  0.11559500  0.45803400  0.04760000  1
  O  O69  1  0.66613600  0.55195200  0.92049500  1
  O  O70  1  0.17975400  0.44486500  0.83832500  1
  O  O71  1  0.13888100  0.76249600  0.12668300  1
  O  O72  1  0.76249600  0.13888100  0.62668300  1
  O  O73  1  0.33386400  0.44804800  0.07950500  1
  O  O74  1  0.94696400  0.80217300  0.33985200  1
  O  O75  1  0.24514300  0.63192200  0.84404600  1
  O  O76  1  0.83321400  0.67107700  0.52736200  1
  O  O77  1  0.69881700  0.50855100  0.71925000  1
