# generated using pymatgen
data_Rb2YGa(SiO3)4
_symmetry_space_group_name_H-M   'P 1'
_cell_length_a   14.12240590
_cell_length_b   14.12240590
_cell_length_c   15.04578255
_cell_angle_alpha   58.03765784
_cell_angle_beta   58.03765784
_cell_angle_gamma   30.22308391
_symmetry_Int_Tables_number   1
_chemical_formula_structural   Rb2YGa(SiO3)4
_chemical_formula_sum   'Rb8 Y4 Ga4 Si16 O48'
_cell_volume   1263.17271768
_cell_formula_units_Z   4
loop_
 _symmetry_equiv_pos_site_id
 _symmetry_equiv_pos_as_xyz
  1  'x, y, z'
loop_
 _atom_site_type_symbol
 _atom_site_label
 _atom_site_symmetry_multiplicity
 _atom_site_fract_x
 _atom_site_fract_y
 _atom_site_fract_z
 _atom_site_occupancy
  Rb  Rb0  1  0.29806200  0.77078700  0.54853800  1
  Rb  Rb1  1  0.31317500  0.30420200  0.96577400  1
  Rb  Rb2  1  0.30420200  0.31317500  0.46577400  1
  Rb  Rb3  1  0.22921300  0.70193800  0.95146200  1
  Rb  Rb4  1  0.70193800  0.22921300  0.45146200  1
  Rb  Rb5  1  0.77078700  0.29806200  0.04853800  1
  Rb  Rb6  1  0.69579800  0.68682500  0.53422600  1
  Rb  Rb7  1  0.68682500  0.69579800  0.03422600  1
  Y  Y8  1  0.48617200  0.05094900  0.74990800  1
  Y  Y9  1  0.51382800  0.94905100  0.25009200  1
  Y  Y10  1  0.94905100  0.51382800  0.75009200  1
  Y  Y11  1  0.05094900  0.48617200  0.24990800  1
  Ga  Ga12  1  0.77115200  0.36830900  0.77430600  1
  Ga  Ga13  1  0.36830900  0.77115200  0.27430600  1
  Ga  Ga14  1  0.22884800  0.63169100  0.22569400  1
  Ga  Ga15  1  0.63169100  0.22884800  0.72569400  1
  Si  Si16  1  0.13943800  0.18687200  0.20329800  1
  Si  Si17  1  0.18687200  0.13943800  0.70329800  1
  Si  Si18  1  0.85912400  0.80356500  0.01066600  1
  Si  Si19  1  0.75922600  0.48028700  0.33876400  1
  Si  Si20  1  0.24077400  0.51971300  0.66123600  1
  Si  Si21  1  0.19643500  0.14087600  0.48933400  1
  Si  Si22  1  0.28984300  0.83495100  0.07744600  1
  Si  Si23  1  0.51971300  0.24077400  0.16123600  1
  Si  Si24  1  0.48028700  0.75922600  0.83876400  1
  Si  Si25  1  0.16504900  0.71015700  0.42255400  1
  Si  Si26  1  0.83495100  0.28984300  0.57744600  1
  Si  Si27  1  0.80356500  0.85912400  0.51066600  1
  Si  Si28  1  0.14087600  0.19643500  0.98933400  1
  Si  Si29  1  0.81312800  0.86056200  0.29670200  1
  Si  Si30  1  0.71015700  0.16504900  0.92255400  1
  Si  Si31  1  0.86056200  0.81312800  0.79670200  1
  O  O32  1  0.17621200  0.83442100  0.37892100  1
  O  O33  1  0.75848800  0.79608000  0.29686400  1
  O  O34  1  0.25321000  0.56357700  0.53257200  1
  O  O35  1  0.32999800  0.95240300  0.22872000  1
  O  O36  1  0.35069000  0.07472200  0.92306100  1
  O  O37  1  0.70672800  0.42873500  0.65810200  1
  O  O38  1  0.29327200  0.57126500  0.34189800  1
  O  O39  1  0.43714500  0.41763200  0.16516400  1
  O  O40  1  0.57126500  0.29327200  0.84189800  1
  O  O41  1  0.91509300  0.72935500  0.91310000  1
  O  O42  1  0.58236800  0.56285500  0.33483600  1
  O  O43  1  0.42873500  0.70672800  0.15810200  1
  O  O44  1  0.04487300  0.72810200  0.70331600  1
  O  O45  1  0.24151200  0.20392000  0.70313600  1
  O  O46  1  0.93853300  0.86515400  0.44353900  1
  O  O47  1  0.20392000  0.24151200  0.20313600  1
  O  O48  1  0.41763200  0.43714500  0.66516400  1
  O  O49  1  0.95512700  0.27189800  0.29668400  1
  O  O50  1  0.61949100  0.03227300  0.57786700  1
  O  O51  1  0.95240300  0.32999800  0.72872000  1
  O  O52  1  0.79608000  0.75848800  0.79686400  1
  O  O53  1  0.23881600  0.38617800  0.72580700  1
  O  O54  1  0.64931000  0.92527800  0.07693900  1
  O  O55  1  0.56357700  0.25321000  0.03257200  1
  O  O56  1  0.06146700  0.13484600  0.55646100  1
  O  O57  1  0.27064500  0.08490700  0.58690000  1
  O  O58  1  0.72810200  0.04487300  0.20331600  1
  O  O59  1  0.13484600  0.06146700  0.05646100  1
  O  O60  1  0.92527800  0.64931000  0.57693900  1
  O  O61  1  0.38050900  0.96772700  0.42213300  1
  O  O62  1  0.76118400  0.61382200  0.27419300  1
  O  O63  1  0.43642300  0.74679000  0.96742800  1
  O  O64  1  0.04759700  0.67000200  0.27128000  1
  O  O65  1  0.27189800  0.95512700  0.79668400  1
  O  O66  1  0.74679000  0.43642300  0.46742800  1
  O  O67  1  0.03227300  0.61949100  0.07786700  1
  O  O68  1  0.56285500  0.58236800  0.83483600  1
  O  O69  1  0.61382200  0.76118400  0.77419300  1
  O  O70  1  0.67000200  0.04759700  0.77128000  1
  O  O71  1  0.07472200  0.35069000  0.42306100  1
  O  O72  1  0.86515400  0.93853300  0.94353900  1
  O  O73  1  0.16557900  0.82378800  0.12107900  1
  O  O74  1  0.72935500  0.91509300  0.41310000  1
  O  O75  1  0.08490700  0.27064500  0.08690000  1
  O  O76  1  0.96772700  0.38050900  0.92213300  1
  O  O77  1  0.38617800  0.23881600  0.22580700  1
  O  O78  1  0.82378800  0.16557900  0.62107900  1
  O  O79  1  0.83442100  0.17621200  0.87892100  1
