# generated using pymatgen
data_Ca4Si6Pb6Cl2O21
_symmetry_space_group_name_H-M   'P 1'
_cell_length_a   10.27248031
_cell_length_b   10.27248031
_cell_length_c   13.44940300
_cell_angle_alpha   90.00000000
_cell_angle_beta   90.00000000
_cell_angle_gamma   120.00000201
_symmetry_Int_Tables_number   1
_chemical_formula_structural   Ca4Si6Pb6Cl2O21
_chemical_formula_sum   'Ca8 Si12 Pb12 Cl4 O42'
_cell_volume   1229.09164109
_cell_formula_units_Z   2
loop_
 _symmetry_equiv_pos_site_id
 _symmetry_equiv_pos_as_xyz
  1  'x, y, z'
loop_
 _atom_site_type_symbol
 _atom_site_label
 _atom_site_symmetry_multiplicity
 _atom_site_fract_x
 _atom_site_fract_y
 _atom_site_fract_z
 _atom_site_occupancy
  Ca  Ca0  1  0.33333300  0.66666700  0.99344000  1
  Ca  Ca1  1  0.66666700  0.33333300  0.00656000  1
  Ca  Ca2  1  0.66666700  0.33333300  0.49344000  1
  Ca  Ca3  1  0.66666700  0.33333300  0.25000000  1
  Ca  Ca4  1  0.33333300  0.66666700  0.50656000  1
  Ca  Ca5  1  0.33333300  0.66666700  0.25000000  1
  Ca  Ca6  1  0.66666700  0.33333300  0.75000000  1
  Ca  Ca7  1  0.33333300  0.66666700  0.75000000  1
  Si  Si8  1  0.97470900  0.57773300  0.63646800  1
  Si  Si9  1  0.57773300  0.60302400  0.13646800  1
  Si  Si10  1  0.60302400  0.02529100  0.86353200  1
  Si  Si11  1  0.42226700  0.39697600  0.86353200  1
  Si  Si12  1  0.39697600  0.97470900  0.36353200  1
  Si  Si13  1  0.57773300  0.60302400  0.36353200  1
  Si  Si14  1  0.39697600  0.97470900  0.13646800  1
  Si  Si15  1  0.02529100  0.42226700  0.13646800  1
  Si  Si16  1  0.02529100  0.42226700  0.36353200  1
  Si  Si17  1  0.42226700  0.39697600  0.63646800  1
  Si  Si18  1  0.60302400  0.02529100  0.63646800  1
  Si  Si19  1  0.97470900  0.57773300  0.86353200  1
  Pb  Pb20  1  0.98765000  0.25530300  0.89240400  1
  Pb  Pb21  1  0.01235000  0.74469700  0.39240400  1
  Pb  Pb22  1  0.73234700  0.98765000  0.39240400  1
  Pb  Pb23  1  0.73234700  0.98765000  0.10759600  1
  Pb  Pb24  1  0.74469700  0.73234700  0.89240400  1
  Pb  Pb25  1  0.25530300  0.26765300  0.39240400  1
  Pb  Pb26  1  0.26765300  0.01235000  0.89240400  1
  Pb  Pb27  1  0.25530300  0.26765300  0.10759600  1
  Pb  Pb28  1  0.26765300  0.01235000  0.60759600  1
  Pb  Pb29  1  0.74469700  0.73234700  0.60759600  1
  Pb  Pb30  1  0.01235000  0.74469700  0.10759600  1
  Pb  Pb31  1  0.98765000  0.25530300  0.60759600  1
  Cl  Cl32  1  0.00000000  0.00000000  0.25000000  1
  Cl  Cl33  1  0.00000000  0.00000000  0.75000000  1
  Cl  Cl34  1  0.00000000  0.00000000  0.50000000  1
  Cl  Cl35  1  0.00000000  0.00000000  0.00000000  1
  O  O36  1  0.92939600  0.61420200  0.75000000  1
  O  O37  1  0.07323200  0.33031300  0.05664500  1
  O  O38  1  0.07060400  0.38579800  0.25000000  1
  O  O39  1  0.14894000  0.62383300  0.62850500  1
  O  O40  1  0.46382300  0.85909000  0.12115700  1
  O  O41  1  0.31519400  0.92939600  0.25000000  1
  O  O42  1  0.33031300  0.25708100  0.94335500  1
  O  O43  1  0.60473300  0.46382300  0.87884300  1
  O  O44  1  0.25708100  0.92676800  0.44335500  1
  O  O45  1  0.39526700  0.53617700  0.37884300  1
  O  O46  1  0.85909000  0.39526700  0.87884300  1
  O  O47  1  0.74291900  0.07323200  0.55664500  1
  O  O48  1  0.66968700  0.74291900  0.44335500  1
  O  O49  1  0.46382300  0.85909000  0.37884300  1
  O  O50  1  0.53617700  0.14091000  0.62115700  1
  O  O51  1  0.62383300  0.47489300  0.37149500  1
  O  O52  1  0.47489300  0.85106000  0.87149500  1
  O  O53  1  0.74291900  0.07323200  0.94335500  1
  O  O54  1  0.66968700  0.74291900  0.05664500  1
  O  O55  1  0.14091000  0.60473300  0.37884300  1
  O  O56  1  0.85106000  0.37616700  0.37149500  1
  O  O57  1  0.14894000  0.62383300  0.87149500  1
  O  O58  1  0.38579800  0.31519400  0.75000000  1
  O  O59  1  0.52510700  0.14894000  0.37149500  1
  O  O60  1  0.14091000  0.60473300  0.12115700  1
  O  O61  1  0.07323200  0.33031300  0.44335500  1
  O  O62  1  0.92676800  0.66968700  0.55664500  1
  O  O63  1  0.39526700  0.53617700  0.12115700  1
  O  O64  1  0.62383300  0.47489300  0.12850500  1
  O  O65  1  0.85106000  0.37616700  0.12850500  1
  O  O66  1  0.53617700  0.14091000  0.87884300  1
  O  O67  1  0.68480600  0.07060400  0.75000000  1
  O  O68  1  0.33031300  0.25708100  0.55664500  1
  O  O69  1  0.47489300  0.85106000  0.62850500  1
  O  O70  1  0.52510700  0.14894000  0.12850500  1
  O  O71  1  0.85909000  0.39526700  0.62115700  1
  O  O72  1  0.25708100  0.92676800  0.05664500  1
  O  O73  1  0.37616700  0.52510700  0.87149500  1
  O  O74  1  0.60473300  0.46382300  0.62115700  1
  O  O75  1  0.61420200  0.68480600  0.25000000  1
  O  O76  1  0.37616700  0.52510700  0.62850500  1
  O  O77  1  0.92676800  0.66968700  0.94335500  1
