# generated using pymatgen
data_RbTb(PO3)4
_symmetry_space_group_name_H-M   'P 1'
_cell_length_a   8.99621800
_cell_length_b   10.45852900
_cell_length_c   12.91241586
_cell_angle_alpha   55.47648860
_cell_angle_beta   90.00000000
_cell_angle_gamma   90.00000000
_symmetry_Int_Tables_number   1
_chemical_formula_structural   RbTb(PO3)4
_chemical_formula_sum   'Rb4 Tb4 P16 O48'
_cell_volume   1000.94279834
_cell_formula_units_Z   4
loop_
 _symmetry_equiv_pos_site_id
 _symmetry_equiv_pos_as_xyz
  1  'x, y, z'
loop_
 _atom_site_type_symbol
 _atom_site_label
 _atom_site_symmetry_multiplicity
 _atom_site_fract_x
 _atom_site_fract_y
 _atom_site_fract_z
 _atom_site_occupancy
  Rb  Rb0  1  0.93341800  0.26453800  0.54192300  1
  Rb  Rb1  1  0.06658200  0.73546200  0.45807700  1
  Rb  Rb2  1  0.43341800  0.73546200  0.95807700  1
  Rb  Rb3  1  0.56658200  0.26453800  0.04192300  1
  Tb  Tb4  1  0.77309300  0.81560000  0.18304300  1
  Tb  Tb5  1  0.22690700  0.18440000  0.81695700  1
  Tb  Tb6  1  0.72690700  0.81560000  0.68304300  1
  Tb  Tb7  1  0.27309300  0.18440000  0.31695700  1
  P  P8  1  0.89087700  0.69858300  0.97708400  1
  P  P9  1  0.82845700  0.17581600  0.86419900  1
  P  P10  1  0.32845700  0.82418400  0.63580100  1
  P  P11  1  0.02580600  0.52575700  0.22201900  1
  P  P12  1  0.60912300  0.69858300  0.47708400  1
  P  P13  1  0.40787100  0.88811700  0.25871200  1
  P  P14  1  0.97419400  0.47424300  0.77798100  1
  P  P15  1  0.47419400  0.52575700  0.72201900  1
  P  P16  1  0.39087700  0.30141700  0.52291600  1
  P  P17  1  0.59212900  0.11188300  0.74128800  1
  P  P18  1  0.67154300  0.17581600  0.36419900  1
  P  P19  1  0.52580600  0.47424300  0.27798100  1
  P  P20  1  0.90787100  0.11188300  0.24128800  1
  P  P21  1  0.17154300  0.82418400  0.13580100  1
  P  P22  1  0.10912300  0.30141700  0.02291600  1
  P  P23  1  0.09212900  0.88811700  0.75871200  1
  O  O24  1  0.28831300  0.33658500  0.59549500  1
  O  O25  1  0.17642900  0.02008400  0.74537800  1
  O  O26  1  0.32357100  0.02008400  0.24537800  1
  O  O27  1  0.20853400  0.77882600  0.74594900  1
  O  O28  1  0.21168700  0.33658500  0.09549500  1
  O  O29  1  0.95194300  0.23405200  0.09616500  1
  O  O30  1  0.08486900  0.42909700  0.71648500  1
  O  O31  1  0.04032600  0.07603000  0.32422900  1
  O  O32  1  0.65779000  0.34523900  0.34108800  1
  O  O33  1  0.67642900  0.97991600  0.75462200  1
  O  O34  1  0.45194300  0.76594800  0.40383500  1
  O  O35  1  0.91513100  0.57090300  0.28351500  1
  O  O36  1  0.78831300  0.66341500  0.90450500  1
  O  O37  1  0.54032600  0.92397000  0.17577100  1
  O  O38  1  0.25844900  0.92888300  0.50916400  1
  O  O39  1  0.02921400  0.86656500  0.16971400  1
  O  O40  1  0.70853400  0.22117400  0.75405100  1
  O  O41  1  0.75844900  0.07111700  0.99083600  1
  O  O42  1  0.40573900  0.36778200  0.80227000  1
  O  O43  1  0.84221000  0.34523900  0.84108800  1
  O  O44  1  0.52921400  0.13343500  0.33028600  1
  O  O45  1  0.41513100  0.42909700  0.21648500  1
  O  O46  1  0.58486900  0.57090300  0.78351500  1
  O  O47  1  0.24155100  0.92888300  0.00916400  1
  O  O48  1  0.54676100  0.53903500  0.60074500  1
  O  O49  1  0.95323900  0.53903500  0.10074500  1
  O  O50  1  0.74155100  0.07111700  0.49083600  1
  O  O51  1  0.33437600  0.20172000  0.48220400  1
  O  O52  1  0.15779000  0.65476100  0.15891200  1
  O  O53  1  0.04805700  0.76594800  0.90383500  1
  O  O54  1  0.82357100  0.97991600  0.25462200  1
  O  O55  1  0.59426100  0.63221800  0.19773000  1
  O  O56  1  0.34221000  0.65476100  0.65891200  1
  O  O57  1  0.09426100  0.36778200  0.30227000  1
  O  O58  1  0.90573900  0.63221800  0.69773000  1
  O  O59  1  0.47078600  0.86656500  0.66971400  1
  O  O60  1  0.83437600  0.79828000  0.01779600  1
  O  O61  1  0.45967400  0.07603000  0.82422900  1
  O  O62  1  0.95967400  0.92397000  0.67577100  1
  O  O63  1  0.16562400  0.20172000  0.98220400  1
  O  O64  1  0.54805700  0.23405200  0.59616500  1
  O  O65  1  0.04676100  0.46096500  0.89925500  1
  O  O66  1  0.71168700  0.66341500  0.40450500  1
  O  O67  1  0.29146600  0.77882600  0.24594900  1
  O  O68  1  0.79146600  0.22117400  0.25405100  1
  O  O69  1  0.45323900  0.46096500  0.39925500  1
  O  O70  1  0.66562400  0.79828000  0.51779600  1
  O  O71  1  0.97078600  0.13343500  0.83028600  1
