# generated using pymatgen
data_Cs3Fe4(PO4)5
_symmetry_space_group_name_H-M   'P 1'
_cell_length_a   9.99154801
_cell_length_b   14.17832635
_cell_length_c   14.45948553
_cell_angle_alpha   90.00000000
_cell_angle_beta   90.00000000
_cell_angle_gamma   90.00000000
_symmetry_Int_Tables_number   1
_chemical_formula_structural   Cs3Fe4(PO4)5
_chemical_formula_sum   'Cs12 Fe16 P20 O80'
_cell_volume   2048.38029348
_cell_formula_units_Z   4
loop_
 _symmetry_equiv_pos_site_id
 _symmetry_equiv_pos_as_xyz
  1  'x, y, z'
loop_
 _atom_site_type_symbol
 _atom_site_label
 _atom_site_symmetry_multiplicity
 _atom_site_fract_x
 _atom_site_fract_y
 _atom_site_fract_z
 _atom_site_occupancy
  Cs  Cs0  1  0.18873906  0.60953016  0.62683048  1
  Cs  Cs1  1  0.31126094  0.89046984  0.62683048  1
  Cs  Cs2  1  0.68873906  0.39046984  0.87316952  1
  Cs  Cs3  1  0.81126094  0.10953016  0.87316952  1
  Cs  Cs4  1  0.81126094  0.39046984  0.37316952  1
  Cs  Cs5  1  0.68873906  0.10953016  0.37316952  1
  Cs  Cs6  1  0.31126094  0.60953016  0.12683048  1
  Cs  Cs7  1  0.18873906  0.89046984  0.12683048  1
  Cs  Cs8  1  0.25000000  0.25000000  0.76384633  1
  Cs  Cs9  1  0.75000000  0.75000000  0.73615367  1
  Cs  Cs10  1  0.75000000  0.75000000  0.23615367  1
  Cs  Cs11  1  0.25000000  0.25000000  0.26384633  1
  Fe  Fe12  1  0.12482744  0.95495567  0.85027552  1
  Fe  Fe13  1  0.37517256  0.54504433  0.85027552  1
  Fe  Fe14  1  0.62482744  0.04504433  0.64972448  1
  Fe  Fe15  1  0.87517256  0.45495567  0.64972448  1
  Fe  Fe16  1  0.87517256  0.04504433  0.14972448  1
  Fe  Fe17  1  0.62482744  0.45495567  0.14972448  1
  Fe  Fe18  1  0.37517256  0.95495567  0.35027552  1
  Fe  Fe19  1  0.12482744  0.54504433  0.35027552  1
  Fe  Fe20  1  0.46216431  0.16199705  0.00916072  1
  Fe  Fe21  1  0.03783569  0.33800295  0.00916072  1
  Fe  Fe22  1  0.96216431  0.83800295  0.49083928  1
  Fe  Fe23  1  0.53783569  0.66199705  0.49083928  1
  Fe  Fe24  1  0.53783569  0.83800295  0.99083928  1
  Fe  Fe25  1  0.96216431  0.66199705  0.99083928  1
  Fe  Fe26  1  0.03783569  0.16199705  0.50916072  1
  Fe  Fe27  1  0.46216431  0.33800295  0.50916072  1
  P  P28  1  0.36082899  0.12161931  0.52195340  1
  P  P29  1  0.13917101  0.37838069  0.52195340  1
  P  P30  1  0.86082899  0.87838069  0.97804660  1
  P  P31  1  0.63917101  0.62161931  0.97804660  1
  P  P32  1  0.63917101  0.87838069  0.47804660  1
  P  P33  1  0.86082899  0.62161931  0.47804660  1
  P  P34  1  0.13917101  0.12161931  0.02195340  1
  P  P35  1  0.36082899  0.37838069  0.02195340  1
  P  P36  1  0.44313060  0.01541981  0.84271102  1
  P  P37  1  0.05686940  0.48458019  0.84271102  1
  P  P38  1  0.94313060  0.98458019  0.65728898  1
  P  P39  1  0.55686940  0.51541981  0.65728898  1
  P  P40  1  0.55686940  0.98458019  0.15728898  1
  P  P41  1  0.94313060  0.51541981  0.15728898  1
  P  P42  1  0.05686940  0.01541981  0.34271102  1
  P  P43  1  0.44313060  0.48458019  0.34271102  1
  P  P44  1  0.25000000  0.75000000  0.90262970  1
  P  P45  1  0.75000000  0.25000000  0.59737030  1
  P  P46  1  0.75000000  0.25000000  0.09737030  1
  P  P47  1  0.25000000  0.75000000  0.40262970  1
  O  O48  1  0.37130475  0.03386087  0.45802567  1
  O  O49  1  0.12869525  0.46613913  0.45802567  1
  O  O50  1  0.87130475  0.96613913  0.04197433  1
  O  O51  1  0.62869525  0.53386087  0.04197433  1
  O  O52  1  0.62869525  0.96613913  0.54197433  1
  O  O53  1  0.87130475  0.53386087  0.54197433  1
  O  O54  1  0.12869525  0.03386087  0.95802567  1
  O  O55  1  0.37130475  0.46613913  0.95802567  1
  O  O56  1  0.21533669  0.13074269  0.55865000  1
  O  O57  1  0.28466331  0.36925731  0.55865000  1
  O  O58  1  0.71533669  0.86925731  0.94135000  1
  O  O59  1  0.78466331  0.63074269  0.94135000  1
  O  O60  1  0.78466331  0.86925731  0.44135000  1
  O  O61  1  0.71533669  0.63074269  0.44135000  1
  O  O62  1  0.28466331  0.13074269  0.05865000  1
  O  O63  1  0.21533669  0.36925731  0.05865000  1
  O  O64  1  0.40110303  0.20998619  0.46560633  1
  O  O65  1  0.09889697  0.29001381  0.46560633  1
  O  O66  1  0.90110303  0.79001381  0.03439367  1
  O  O67  1  0.59889697  0.70998619  0.03439367  1
  O  O68  1  0.59889697  0.79001381  0.53439367  1
  O  O69  1  0.90110303  0.70998619  0.53439367  1
  O  O70  1  0.09889697  0.20998619  0.96560633  1
  O  O71  1  0.40110303  0.29001381  0.96560633  1
  O  O72  1  0.45239464  0.10563028  0.60691706  1
  O  O73  1  0.04760536  0.39436972  0.60691706  1
  O  O74  1  0.95239464  0.89436972  0.89308294  1
  O  O75  1  0.54760536  0.60563028  0.89308294  1
  O  O76  1  0.54760536  0.89436972  0.39308294  1
  O  O77  1  0.95239464  0.60563028  0.39308294  1
  O  O78  1  0.04760536  0.10563028  0.10691706  1
  O  O79  1  0.45239464  0.39436972  0.10691706  1
  O  O80  1  0.46211271  0.93943079  0.91620159  1
  O  O81  1  0.03788729  0.56056921  0.91620159  1
  O  O82  1  0.96211271  0.06056921  0.58379841  1
  O  O83  1  0.53788729  0.43943079  0.58379841  1
  O  O84  1  0.53788729  0.06056921  0.08379841  1
  O  O85  1  0.96211271  0.43943079  0.08379841  1
  O  O86  1  0.03788729  0.93943079  0.41620159  1
  O  O87  1  0.46211271  0.56056921  0.41620159  1
  O  O88  1  0.48075265  0.11423300  0.88428714  1
  O  O89  1  0.01924735  0.38576700  0.88428714  1
  O  O90  1  0.98075265  0.88576700  0.61571286  1
  O  O91  1  0.51924735  0.61423300  0.61571286  1
  O  O92  1  0.51924735  0.88576700  0.11571286  1
  O  O93  1  0.98075265  0.61423300  0.11571286  1
  O  O94  1  0.01924735  0.11423300  0.38428714  1
  O  O95  1  0.48075265  0.38576700  0.38428714  1
  O  O96  1  0.53963036  0.99678545  0.76010451  1
  O  O97  1  0.96036964  0.50321455  0.76010451  1
  O  O98  1  0.03963036  0.00321455  0.73989549  1
  O  O99  1  0.46036964  0.49678545  0.73989549  1
  O  O100  1  0.46036964  0.00321455  0.23989549  1
  O  O101  1  0.03963036  0.49678545  0.23989549  1
  O  O102  1  0.96036964  0.99678545  0.26010451  1
  O  O103  1  0.53963036  0.50321455  0.26010451  1
  O  O104  1  0.29760852  0.01767141  0.80685141  1
  O  O105  1  0.20239148  0.48232859  0.80685141  1
  O  O106  1  0.79760852  0.98232859  0.69314859  1
  O  O107  1  0.70239148  0.51767141  0.69314859  1
  O  O108  1  0.70239148  0.98232859  0.19314859  1
  O  O109  1  0.79760852  0.51767141  0.19314859  1
  O  O110  1  0.20239148  0.01767141  0.30685141  1
  O  O111  1  0.29760852  0.48232859  0.30685141  1
  O  O112  1  0.21212111  0.83305743  0.83778611  1
  O  O113  1  0.28787889  0.66694257  0.83778611  1
  O  O114  1  0.71212111  0.16694257  0.66221389  1
  O  O115  1  0.78787889  0.33305743  0.66221389  1
  O  O116  1  0.78787889  0.16694257  0.16221389  1
  O  O117  1  0.71212111  0.33305743  0.16221389  1
  O  O118  1  0.28787889  0.83305743  0.33778611  1
  O  O119  1  0.21212111  0.66694257  0.33778611  1
  O  O120  1  0.13348548  0.72650894  0.96855733  1
  O  O121  1  0.36651452  0.77349106  0.96855733  1
  O  O122  1  0.63348548  0.27349106  0.53144267  1
  O  O123  1  0.86651452  0.22650894  0.53144267  1
  O  O124  1  0.86651452  0.27349106  0.03144267  1
  O  O125  1  0.63348548  0.22650894  0.03144267  1
  O  O126  1  0.36651452  0.72650894  0.46855733  1
  O  O127  1  0.13348548  0.77349106  0.46855733  1
