# generated using pymatgen
data_KW3Br7
_symmetry_space_group_name_H-M   'P 1'
_cell_length_a   14.13441400
_cell_length_b   14.39811700
_cell_length_c   14.41957700
_cell_angle_alpha   90.00000000
_cell_angle_beta   90.00000000
_cell_angle_gamma   90.00000000
_symmetry_Int_Tables_number   1
_chemical_formula_structural   KW3Br7
_chemical_formula_sum   'K8 W24 Br56'
_cell_volume   2934.51292422
_cell_formula_units_Z   8
loop_
 _symmetry_equiv_pos_site_id
 _symmetry_equiv_pos_as_xyz
  1  'x, y, z'
loop_
 _atom_site_type_symbol
 _atom_site_label
 _atom_site_symmetry_multiplicity
 _atom_site_fract_x
 _atom_site_fract_y
 _atom_site_fract_z
 _atom_site_occupancy
  K  K0  1  0.50000000  0.00000000  0.00000000  1
  K  K1  1  0.00000000  0.50000000  0.00000000  1
  K  K2  1  0.25000000  0.75000000  0.25000000  1
  K  K3  1  0.75000000  0.25000000  0.25000000  1
  K  K4  1  0.50000000  0.50000000  0.50000000  1
  K  K5  1  0.00000000  0.00000000  0.50000000  1
  K  K6  1  0.75000000  0.25000000  0.75000000  1
  K  K7  1  0.25000000  0.75000000  0.75000000  1
  W  W8  1  0.62252000  0.54003000  0.02935000  1
  W  W9  1  0.87748000  0.95997000  0.02935000  1
  W  W10  1  0.53052400  0.37953200  0.04094500  1
  W  W11  1  0.96947600  0.12046800  0.04094500  1
  W  W12  1  0.04089000  0.96832700  0.12007000  1
  W  W13  1  0.45911000  0.53167300  0.12007000  1
  W  W14  1  0.45911000  0.96832700  0.37993000  1
  W  W15  1  0.04089000  0.53167300  0.37993000  1
  W  W16  1  0.53052400  0.12046800  0.45905500  1
  W  W17  1  0.96947600  0.37953200  0.45905500  1
  W  W18  1  0.87748000  0.54003000  0.47065000  1
  W  W19  1  0.62252000  0.95997000  0.47065000  1
  W  W20  1  0.37748000  0.04003000  0.52935000  1
  W  W21  1  0.12252000  0.45997000  0.52935000  1
  W  W22  1  0.03052400  0.62046800  0.54094500  1
  W  W23  1  0.46947600  0.87953200  0.54094500  1
  W  W24  1  0.95911000  0.46832700  0.62007000  1
  W  W25  1  0.54089000  0.03167300  0.62007000  1
  W  W26  1  0.54089000  0.46832700  0.87993000  1
  W  W27  1  0.95911000  0.03167300  0.87993000  1
  W  W28  1  0.46947600  0.62046800  0.95905500  1
  W  W29  1  0.03052400  0.87953200  0.95905500  1
  W  W30  1  0.12252000  0.04003000  0.97065000  1
  W  W31  1  0.37748000  0.45997000  0.97065000  1
  Br  Br32  1  0.19392400  0.88766100  0.04912000  1
  Br  Br33  1  0.30607600  0.61233900  0.04912000  1
  Br  Br34  1  0.79380700  0.59281900  0.07121300  1
  Br  Br35  1  0.70619300  0.90718100  0.07121300  1
  Br  Br36  1  0.57618800  0.20966800  0.09637300  1
  Br  Br37  1  0.92381200  0.29033200  0.09637300  1
  Br  Br38  1  0.55197100  0.69115200  0.10820800  1
  Br  Br39  1  0.94802900  0.80884800  0.10820800  1
  Br  Br40  1  0.36786800  0.37063000  0.13194400  1
  Br  Br41  1  0.13213200  0.12937000  0.13194400  1
  Br  Br42  1  0.88823600  0.04783200  0.19140900  1
  Br  Br43  1  0.61176400  0.45216800  0.19140900  1
  Br  Br44  1  0.09644800  0.57707500  0.21035300  1
  Br  Br45  1  0.40355200  0.92292500  0.21035300  1
  Br  Br46  1  0.40355200  0.57707500  0.28964700  1
  Br  Br47  1  0.09644800  0.92292500  0.28964700  1
  Br  Br48  1  0.61176400  0.04783200  0.30859100  1
  Br  Br49  1  0.88823600  0.45216800  0.30859100  1
  Br  Br50  1  0.36786800  0.12937000  0.36805600  1
  Br  Br51  1  0.13213200  0.37063000  0.36805600  1
  Br  Br52  1  0.94802900  0.69115200  0.39179200  1
  Br  Br53  1  0.55197100  0.80884800  0.39179200  1
  Br  Br54  1  0.92381200  0.20966800  0.40362700  1
  Br  Br55  1  0.57618800  0.29033200  0.40362700  1
  Br  Br56  1  0.70619300  0.59281900  0.42878700  1
  Br  Br57  1  0.79380700  0.90718100  0.42878700  1
  Br  Br58  1  0.19392400  0.61233900  0.45088000  1
  Br  Br59  1  0.30607600  0.88766100  0.45088000  1
  Br  Br60  1  0.69392400  0.11233900  0.54912000  1
  Br  Br61  1  0.80607600  0.38766100  0.54912000  1
  Br  Br62  1  0.20619300  0.09281900  0.57121300  1
  Br  Br63  1  0.29380700  0.40718100  0.57121300  1
  Br  Br64  1  0.42381200  0.70966800  0.59637300  1
  Br  Br65  1  0.07618800  0.79033200  0.59637300  1
  Br  Br66  1  0.44802900  0.19115200  0.60820800  1
  Br  Br67  1  0.05197100  0.30884800  0.60820800  1
  Br  Br68  1  0.86786800  0.62937000  0.63194400  1
  Br  Br69  1  0.63213200  0.87063000  0.63194400  1
  Br  Br70  1  0.38823600  0.95216800  0.69140900  1
  Br  Br71  1  0.11176400  0.54783200  0.69140900  1
  Br  Br72  1  0.90355200  0.07707500  0.71035300  1
  Br  Br73  1  0.59644800  0.42292500  0.71035300  1
  Br  Br74  1  0.59644800  0.07707500  0.78964700  1
  Br  Br75  1  0.90355200  0.42292500  0.78964700  1
  Br  Br76  1  0.38823600  0.54783200  0.80859100  1
  Br  Br77  1  0.11176400  0.95216800  0.80859100  1
  Br  Br78  1  0.86786800  0.87063000  0.86805600  1
  Br  Br79  1  0.63213200  0.62937000  0.86805600  1
  Br  Br80  1  0.05197100  0.19115200  0.89179200  1
  Br  Br81  1  0.44802900  0.30884800  0.89179200  1
  Br  Br82  1  0.07618800  0.70966800  0.90362700  1
  Br  Br83  1  0.42381200  0.79033200  0.90362700  1
  Br  Br84  1  0.29380700  0.09281900  0.92878700  1
  Br  Br85  1  0.20619300  0.40718100  0.92878700  1
  Br  Br86  1  0.69392400  0.38766100  0.95088000  1
  Br  Br87  1  0.80607600  0.11233900  0.95088000  1
