# generated using pymatgen
data_Rb2Pb4O7
_symmetry_space_group_name_H-M   'P 1'
_cell_length_a   6.79955000
_cell_length_b   7.47978123
_cell_length_c   10.64965172
_cell_angle_alpha   102.01456282
_cell_angle_beta   99.17555157
_cell_angle_gamma   90.01417882
_symmetry_Int_Tables_number   1
_chemical_formula_structural   Rb2Pb4O7
_chemical_formula_sum   'Rb4 Pb8 O14'
_cell_volume   522.67515995
_cell_formula_units_Z   2
loop_
 _symmetry_equiv_pos_site_id
 _symmetry_equiv_pos_as_xyz
  1  'x, y, z'
loop_
 _atom_site_type_symbol
 _atom_site_label
 _atom_site_symmetry_multiplicity
 _atom_site_fract_x
 _atom_site_fract_y
 _atom_site_fract_z
 _atom_site_occupancy
  Rb  Rb0  1  0.91805100  0.16940500  0.68517700  1
  Rb  Rb1  1  0.08194900  0.83059500  0.31482300  1
  Rb  Rb2  1  0.42482900  0.17064100  0.68599900  1
  Rb  Rb3  1  0.57517100  0.82935900  0.31400100  1
  Pb  Pb4  1  0.90440800  0.64986500  0.62387900  1
  Pb  Pb5  1  0.09559200  0.35013500  0.37612100  1
  Pb  Pb6  1  0.40809000  0.64967000  0.62488100  1
  Pb  Pb7  1  0.59191000  0.35033000  0.37511900  1
  Pb  Pb8  1  0.74267200  0.60799400  0.96575000  1
  Pb  Pb9  1  0.25732800  0.39200600  0.03425000  1
  Pb  Pb10  1  0.23405900  0.83749400  0.93631700  1
  Pb  Pb11  1  0.76594100  0.16250600  0.06368300  1
  O  O12  1  0.64971800  0.43651200  0.59577700  1
  O  O13  1  0.35028200  0.56348800  0.40422300  1
  O  O14  1  0.14808100  0.43669000  0.59542600  1
  O  O15  1  0.85191900  0.56331000  0.40457400  1
  O  O16  1  0.65480100  0.83830100  0.62055200  1
  O  O17  1  0.34519900  0.16169900  0.37944800  1
  O  O18  1  0.15973900  0.84108600  0.63615600  1
  O  O19  1  0.84026100  0.15891400  0.36384400  1
  O  O20  1  0.96146900  0.65707300  0.83260200  1
  O  O21  1  0.03853100  0.34292700  0.16739800  1
  O  O22  1  0.45500000  0.65526700  0.83323800  1
  O  O23  1  0.54500000  0.34473300  0.16676200  1
  O  O24  1  0.73000800  0.30975100  0.90451200  1
  O  O25  1  0.26999200  0.69024900  0.09548800  1
