# generated using pymatgen
data_Li5SbS3I2
_symmetry_space_group_name_H-M   'P 1'
_cell_length_a   7.61569000
_cell_length_b   10.48105800
_cell_length_c   13.58059300
_cell_angle_alpha   90.00000000
_cell_angle_beta   90.00000000
_cell_angle_gamma   90.00000000
_symmetry_Int_Tables_number   1
_chemical_formula_structural   Li5SbS3I2
_chemical_formula_sum   'Li20 Sb4 S12 I8'
_cell_volume   1084.00956874
_cell_formula_units_Z   4
loop_
 _symmetry_equiv_pos_site_id
 _symmetry_equiv_pos_as_xyz
  1  'x, y, z'
loop_
 _atom_site_type_symbol
 _atom_site_label
 _atom_site_symmetry_multiplicity
 _atom_site_fract_x
 _atom_site_fract_y
 _atom_site_fract_z
 _atom_site_occupancy
  Li  Li0  1  0.23070000  0.06120700  0.09777400  1
  Li  Li1  1  0.26930000  0.56120700  0.40222600  1
  Li  Li2  1  0.50000000  0.31306800  0.96153800  1
  Li  Li3  1  0.73070000  0.56120700  0.40222600  1
  Li  Li4  1  0.24322700  0.30465700  0.25165600  1
  Li  Li5  1  0.76930000  0.93879300  0.90222600  1
  Li  Li6  1  0.50000000  0.68693200  0.03846200  1
  Li  Li7  1  0.75677300  0.30465700  0.25165600  1
  Li  Li8  1  0.75677300  0.69534300  0.74834400  1
  Li  Li9  1  0.26930000  0.43879300  0.59777400  1
  Li  Li10  1  0.76930000  0.06120700  0.09777400  1
  Li  Li11  1  0.25677300  0.19534300  0.75165600  1
  Li  Li12  1  0.25677300  0.80465700  0.24834400  1
  Li  Li13  1  0.24322700  0.69534300  0.74834400  1
  Li  Li14  1  0.00000000  0.18693200  0.46153800  1
  Li  Li15  1  0.23070000  0.93879300  0.90222600  1
  Li  Li16  1  0.74322700  0.80465700  0.24834400  1
  Li  Li17  1  0.74322700  0.19534300  0.75165600  1
  Li  Li18  1  0.00000000  0.81306800  0.53846200  1
  Li  Li19  1  0.73070000  0.43879300  0.59777400  1
  Sb  Sb20  1  0.00000000  0.30053800  0.99346300  1
  Sb  Sb21  1  0.50000000  0.80053800  0.50653700  1
  Sb  Sb22  1  0.50000000  0.19946200  0.49346300  1
  Sb  Sb23  1  0.00000000  0.69946200  0.00653700  1
  S  S24  1  0.00000000  0.79896300  0.84035800  1
  S  S25  1  0.74918300  0.67164100  0.56695200  1
  S  S26  1  0.24918300  0.17164100  0.93304800  1
  S  S27  1  0.75081700  0.17164100  0.93304800  1
  S  S28  1  0.50000000  0.70103700  0.34035800  1
  S  S29  1  0.74918300  0.32835900  0.43304800  1
  S  S30  1  0.50000000  0.29896300  0.65964200  1
  S  S31  1  0.75081700  0.82835900  0.06695200  1
  S  S32  1  0.24918300  0.82835900  0.06695200  1
  S  S33  1  0.25081700  0.67164100  0.56695200  1
  S  S34  1  0.00000000  0.20103700  0.15964200  1
  S  S35  1  0.25081700  0.32835900  0.43304800  1
  I  I36  1  0.00000000  0.42967000  0.73750500  1
  I  I37  1  0.00000000  0.94176400  0.35776600  1
  I  I38  1  0.00000000  0.05823600  0.64223400  1
  I  I39  1  0.50000000  0.07033000  0.23750500  1
  I  I40  1  0.50000000  0.92967000  0.76249500  1
  I  I41  1  0.50000000  0.55823600  0.85776600  1
  I  I42  1  0.00000000  0.57033000  0.26249500  1
  I  I43  1  0.50000000  0.44176400  0.14223400  1
