# generated using pymatgen
data_K2RuI5NO
_symmetry_space_group_name_H-M   'P 1'
_cell_length_a   7.95313400
_cell_length_b   11.78730900
_cell_length_c   15.33482600
_cell_angle_alpha   90.00000000
_cell_angle_beta   90.00000000
_cell_angle_gamma   90.00000000
_symmetry_Int_Tables_number   1
_chemical_formula_structural   K2RuI5NO
_chemical_formula_sum   'K8 Ru4 I20 N4 O4'
_cell_volume   1437.57933391
_cell_formula_units_Z   4
loop_
 _symmetry_equiv_pos_site_id
 _symmetry_equiv_pos_as_xyz
  1  'x, y, z'
loop_
 _atom_site_type_symbol
 _atom_site_label
 _atom_site_symmetry_multiplicity
 _atom_site_fract_x
 _atom_site_fract_y
 _atom_site_fract_z
 _atom_site_occupancy
  K  K0  1  0.65654300  0.00058800  0.14298300  1
  K  K1  1  0.34345700  0.99941200  0.85701700  1
  K  K2  1  0.15654300  0.50058800  0.35701700  1
  K  K3  1  0.84345700  0.00058800  0.64298300  1
  K  K4  1  0.84345700  0.49941200  0.64298300  1
  K  K5  1  0.15654300  0.99941200  0.35701700  1
  K  K6  1  0.34345700  0.50058800  0.85701700  1
  K  K7  1  0.65654300  0.49941200  0.14298300  1
  Ru  Ru8  1  0.18425300  0.25000000  0.10919300  1
  Ru  Ru9  1  0.81574700  0.75000000  0.89080700  1
  Ru  Ru10  1  0.31574700  0.25000000  0.60919300  1
  Ru  Ru11  1  0.68425300  0.75000000  0.39080700  1
  I  I12  1  0.08685900  0.75000000  0.77838000  1
  I  I13  1  0.19210300  0.48370100  0.11252400  1
  I  I14  1  0.39129100  0.25000000  0.25341700  1
  I  I15  1  0.58685900  0.25000000  0.72162000  1
  I  I16  1  0.96583500  0.75000000  0.49646500  1
  I  I17  1  0.89129100  0.75000000  0.24658300  1
  I  I18  1  0.80789700  0.51629900  0.88747600  1
  I  I19  1  0.03416500  0.25000000  0.50353500  1
  I  I20  1  0.60870900  0.75000000  0.74658300  1
  I  I21  1  0.69210300  0.98370100  0.38747600  1
  I  I22  1  0.19210300  0.01629900  0.11252400  1
  I  I23  1  0.53416500  0.75000000  0.99646500  1
  I  I24  1  0.30789700  0.01629900  0.61252400  1
  I  I25  1  0.91314100  0.25000000  0.22162000  1
  I  I26  1  0.46583500  0.25000000  0.00353500  1
  I  I27  1  0.41314100  0.75000000  0.27838000  1
  I  I28  1  0.69210300  0.51629900  0.38747600  1
  I  I29  1  0.30789700  0.48370100  0.61252400  1
  I  I30  1  0.10870900  0.25000000  0.75341700  1
  I  I31  1  0.80789700  0.98370100  0.88747600  1
  N  N32  1  0.95752900  0.75000000  0.97731900  1
  N  N33  1  0.54247100  0.75000000  0.47731900  1
  N  N34  1  0.04247100  0.25000000  0.02268100  1
  N  N35  1  0.45752900  0.25000000  0.52268100  1
  O  O36  1  0.06089200  0.75000000  0.03165600  1
  O  O37  1  0.56089200  0.25000000  0.46834400  1
  O  O38  1  0.43910800  0.75000000  0.53165600  1
  O  O39  1  0.93910800  0.25000000  0.96834400  1
