# generated using pymatgen
data_SnICl
_symmetry_space_group_name_H-M   'P 1'
_cell_length_a   4.43198500
_cell_length_b   9.01465300
_cell_length_c   10.51022400
_cell_angle_alpha   90.00000000
_cell_angle_beta   90.00000000
_cell_angle_gamma   90.00000000
_symmetry_Int_Tables_number   1
_chemical_formula_structural   SnICl
_chemical_formula_sum   'Sn4 I4 Cl4'
_cell_volume   419.91294970
_cell_formula_units_Z   4
loop_
 _symmetry_equiv_pos_site_id
 _symmetry_equiv_pos_as_xyz
  1  'x, y, z'
loop_
 _atom_site_type_symbol
 _atom_site_label
 _atom_site_symmetry_multiplicity
 _atom_site_fract_x
 _atom_site_fract_y
 _atom_site_fract_z
 _atom_site_occupancy
  Sn  Sn0  1  0.75000000  0.13451200  0.35470700  1
  Sn  Sn1  1  0.25000000  0.86548800  0.64529300  1
  Sn  Sn2  1  0.75000000  0.63451200  0.14529300  1
  Sn  Sn3  1  0.25000000  0.36548800  0.85470700  1
  I  I4  1  0.75000000  0.48283100  0.67554000  1
  I  I5  1  0.25000000  0.01716900  0.17554000  1
  I  I6  1  0.75000000  0.98283100  0.82446000  1
  I  I7  1  0.25000000  0.51716900  0.32446000  1
  Cl  Cl8  1  0.25000000  0.13717900  0.55308100  1
  Cl  Cl9  1  0.75000000  0.36282100  0.05308100  1
  Cl  Cl10  1  0.25000000  0.63717900  0.94691900  1
  Cl  Cl11  1  0.75000000  0.86282100  0.44691900  1
