# generated using pymatgen
data_DyPO4
_symmetry_space_group_name_H-M   'P 1'
_cell_length_a   5.78268927
_cell_length_b   5.78268927
_cell_length_c   5.78268927
_cell_angle_alpha   105.94148727
_cell_angle_beta   105.94148727
_cell_angle_gamma   116.78789375
_symmetry_Int_Tables_number   1
_chemical_formula_structural   DyPO4
_chemical_formula_sum   'Dy2 P2 O8'
_cell_volume   147.01377990
_cell_formula_units_Z   2
loop_
 _symmetry_equiv_pos_site_id
 _symmetry_equiv_pos_as_xyz
  1  'x, y, z'
loop_
 _atom_site_type_symbol
 _atom_site_label
 _atom_site_symmetry_multiplicity
 _atom_site_fract_x
 _atom_site_fract_y
 _atom_site_fract_z
 _atom_site_occupancy
  Dy  Dy0  1  0.00000000  0.00000000  0.00000000  1
  Dy  Dy1  1  0.25000000  0.75000000  0.50000000  1
  P  P2  1  0.75000000  0.25000000  0.50000000  1
  P  P3  1  0.50000000  0.50000000  0.00000000  1
  O  O4  1  0.33982000  0.16545800  0.82563800  1
  O  O5  1  0.76418200  0.08982000  0.67436200  1
  O  O6  1  0.41545800  0.08982000  0.32563800  1
  O  O7  1  0.33982000  0.51418200  0.17436200  1
  O  O8  1  0.48581800  0.66018000  0.82563800  1
  O  O9  1  0.91018000  0.58454200  0.67436200  1
  O  O10  1  0.91018000  0.23581800  0.32563800  1
  O  O11  1  0.83454200  0.66018000  0.17436200  1
