# generated using pymatgen
data_Pr6S4BrN3
_symmetry_space_group_name_H-M   'P 1'
_cell_length_a   4.06881100
_cell_length_b   11.61117300
_cell_length_c   27.60688100
_cell_angle_alpha   90.00000000
_cell_angle_beta   90.00000000
_cell_angle_gamma   90.00000000
_symmetry_Int_Tables_number   1
_chemical_formula_structural   Pr6S4BrN3
_chemical_formula_sum   'Pr24 S16 Br4 N12'
_cell_volume   1304.25033222
_cell_formula_units_Z   4
loop_
 _symmetry_equiv_pos_site_id
 _symmetry_equiv_pos_as_xyz
  1  'x, y, z'
loop_
 _atom_site_type_symbol
 _atom_site_label
 _atom_site_symmetry_multiplicity
 _atom_site_fract_x
 _atom_site_fract_y
 _atom_site_fract_z
 _atom_site_occupancy
  Pr  Pr0  1  0.75000000  0.25479100  0.17100600  1
  Pr  Pr1  1  0.25000000  0.24846500  0.93597900  1
  Pr  Pr2  1  0.25000000  0.74846500  0.56402100  1
  Pr  Pr3  1  0.25000000  0.37426400  0.28322500  1
  Pr  Pr4  1  0.25000000  0.90047000  0.96449800  1
  Pr  Pr5  1  0.25000000  0.40047000  0.53550200  1
  Pr  Pr6  1  0.25000000  0.24520900  0.67100600  1
  Pr  Pr7  1  0.25000000  0.44127900  0.07797700  1
  Pr  Pr8  1  0.25000000  0.87426400  0.21677500  1
  Pr  Pr9  1  0.75000000  0.75153500  0.06402100  1
  Pr  Pr10  1  0.25000000  0.74520900  0.82899400  1
  Pr  Pr11  1  0.75000000  0.06106900  0.30757500  1
  Pr  Pr12  1  0.75000000  0.75479100  0.32899400  1
  Pr  Pr13  1  0.75000000  0.25153500  0.43597900  1
  Pr  Pr14  1  0.25000000  0.43893100  0.80757500  1
  Pr  Pr15  1  0.75000000  0.59953000  0.46449800  1
  Pr  Pr16  1  0.25000000  0.93893100  0.69242500  1
  Pr  Pr17  1  0.75000000  0.56106900  0.19242500  1
  Pr  Pr18  1  0.75000000  0.62573600  0.71677500  1
  Pr  Pr19  1  0.75000000  0.55872100  0.92202300  1
  Pr  Pr20  1  0.75000000  0.12573600  0.78322500  1
  Pr  Pr21  1  0.75000000  0.09953000  0.03550200  1
  Pr  Pr22  1  0.75000000  0.05872100  0.57797700  1
  Pr  Pr23  1  0.25000000  0.94127900  0.42202300  1
  S  S24  1  0.75000000  0.80987800  0.63761600  1
  S  S25  1  0.75000000  0.79365500  0.89748800  1
  S  S26  1  0.25000000  0.20634500  0.10251200  1
  S  S27  1  0.75000000  0.85618200  0.50582500  1
  S  S28  1  0.25000000  0.19012200  0.36238400  1
  S  S29  1  0.25000000  0.14381800  0.49417500  1
  S  S30  1  0.75000000  0.29365500  0.60251200  1
  S  S31  1  0.25000000  0.70634500  0.39748800  1
  S  S32  1  0.75000000  0.35618200  0.99417500  1
  S  S33  1  0.25000000  0.13482100  0.23587600  1
  S  S34  1  0.75000000  0.36517900  0.73587600  1
  S  S35  1  0.25000000  0.64381800  0.00582500  1
  S  S36  1  0.25000000  0.69012200  0.13761600  1
  S  S37  1  0.25000000  0.63482100  0.26412400  1
  S  S38  1  0.75000000  0.86517900  0.76412400  1
  S  S39  1  0.75000000  0.30987800  0.86238400  1
  Br  Br40  1  0.75000000  0.96112300  0.13744800  1
  Br  Br41  1  0.25000000  0.53887700  0.63744800  1
  Br  Br42  1  0.25000000  0.03887700  0.86255200  1
  Br  Br43  1  0.75000000  0.46112300  0.36255200  1
  N  N44  1  0.25000000  0.06248900  0.62512300  1
  N  N45  1  0.75000000  0.38630300  0.23764000  1
  N  N46  1  0.25000000  0.09836200  0.98620700  1
  N  N47  1  0.25000000  0.61369700  0.76236000  1
  N  N48  1  0.75000000  0.93751100  0.37487700  1
  N  N49  1  0.75000000  0.90163800  0.01379300  1
  N  N50  1  0.75000000  0.40163800  0.48620700  1
  N  N51  1  0.25000000  0.11369700  0.73764000  1
  N  N52  1  0.75000000  0.88630300  0.26236000  1
  N  N53  1  0.25000000  0.56248900  0.87487700  1
  N  N54  1  0.25000000  0.59836200  0.51379300  1
  N  N55  1  0.75000000  0.43751100  0.12512300  1
