# generated using pymatgen
data_Mg2Mn(PO4)2
_symmetry_space_group_name_H-M   'P 1'
_cell_length_a   9.09055542
_cell_length_b   9.95562858
_cell_length_c   9.64697135
_cell_angle_alpha   72.39012023
_cell_angle_beta   113.50424462
_cell_angle_gamma   74.73371000
_symmetry_Int_Tables_number   1
_chemical_formula_structural   Mg2Mn(PO4)2
_chemical_formula_sum   'Mg8 Mn4 P8 O32'
_cell_volume   685.54203435
_cell_formula_units_Z   4
loop_
 _symmetry_equiv_pos_site_id
 _symmetry_equiv_pos_as_xyz
  1  'x, y, z'
loop_
 _atom_site_type_symbol
 _atom_site_label
 _atom_site_symmetry_multiplicity
 _atom_site_fract_x
 _atom_site_fract_y
 _atom_site_fract_z
 _atom_site_occupancy
  Mg  Mg0  1  0.52938100  0.64103000  0.42107400  1
  Mg  Mg1  1  0.02937000  0.64098800  0.92104300  1
  Mg  Mg2  1  0.42034900  0.85897200  0.81199300  1
  Mg  Mg3  1  0.92029400  0.85892700  0.31197800  1
  Mg  Mg4  1  0.97072100  0.35888400  0.07901500  1
  Mg  Mg5  1  0.47074700  0.35887000  0.57906000  1
  Mg  Mg6  1  0.07963100  0.14114600  0.68798800  1
  Mg  Mg7  1  0.57957000  0.14113700  0.18793200  1
  Mn  Mn8  1  0.99988500  0.50003600  0.49980600  1
  Mn  Mn9  1  0.24977000  0.00001800  0.24983800  1
  Mn  Mn10  1  0.49990100  0.49997200  0.99990200  1
  Mn  Mn11  1  0.74999800  0.99994400  0.74997300  1
  P  P12  1  0.76894400  0.69827400  0.06324300  1
  P  P13  1  0.26900700  0.69825300  0.56330300  1
  P  P14  1  0.21731100  0.80169600  0.01159400  1
  P  P15  1  0.71729400  0.80170100  0.51157500  1
  P  P16  1  0.73101600  0.30172000  0.43672600  1
  P  P17  1  0.23102600  0.30174800  0.93672800  1
  P  P18  1  0.28275600  0.19828300  0.48843400  1
  P  P19  1  0.78269400  0.19832300  0.98842300  1
  O  O20  1  0.61688500  0.65187200  0.05546800  1
  O  O21  1  0.11686400  0.65178700  0.55545800  1
  O  O22  1  0.51871600  0.84815000  0.45723700  1
  O  O23  1  0.01868400  0.84815500  0.95724800  1
  O  O24  1  0.88314200  0.34818600  0.44459800  1
  O  O25  1  0.38316300  0.34822300  0.94465800  1
  O  O26  1  0.98127700  0.15184000  0.04275900  1
  O  O27  1  0.48130200  0.15181200  0.54278400  1
  O  O28  1  0.86918200  0.70653800  0.23010900  1
  O  O29  1  0.36913800  0.70646900  0.73013800  1
  O  O30  1  0.32564800  0.79348500  0.18665000  1
  O  O31  1  0.82566100  0.79345900  0.68662000  1
  O  O32  1  0.63093700  0.29344900  0.26994400  1
  O  O33  1  0.13098200  0.29355000  0.76987000  1
  O  O34  1  0.17438100  0.20650100  0.31336200  1
  O  O35  1  0.67432100  0.20655500  0.81336100  1
  O  O36  1  0.66662800  0.86180200  0.90205600  1
  O  O37  1  0.16663900  0.86177600  0.40214000  1
  O  O38  1  0.77845800  0.63817000  0.51395300  1
  O  O39  1  0.27848200  0.63815300  0.01402200  1
  O  O40  1  0.83343600  0.13820400  0.59798100  1
  O  O41  1  0.33336400  0.13821800  0.09789500  1
  O  O42  1  0.72156000  0.36182400  0.98607100  1
  O  O43  1  0.22154500  0.36185500  0.48600400  1
  O  O44  1  0.90599700  0.57950900  0.04873200  1
  O  O45  1  0.40602500  0.57949600  0.54876900  1
  O  O46  1  0.23553000  0.92047500  0.87826200  1
  O  O47  1  0.73552800  0.92048800  0.37822700  1
  O  O48  1  0.59399800  0.42048700  0.45127000  1
  O  O49  1  0.09397000  0.42051100  0.95122000  1
  O  O50  1  0.26446200  0.07953500  0.62175700  1
  O  O51  1  0.76443200  0.07954400  0.12174800  1
