# generated using pymatgen
data_Sr17(Ta5S21)2
_symmetry_space_group_name_H-M   'P 1'
_cell_length_a   12.31903300
_cell_length_b   12.36066420
_cell_length_c   12.37403445
_cell_angle_alpha   96.32883626
_cell_angle_beta   96.50422006
_cell_angle_gamma   96.31732064
_symmetry_Int_Tables_number   1
_chemical_formula_structural   Sr17(Ta5S21)2
_chemical_formula_sum   'Sr17 Ta10 S42'
_cell_volume   1846.29805382
_cell_formula_units_Z   1
loop_
 _symmetry_equiv_pos_site_id
 _symmetry_equiv_pos_as_xyz
  1  'x, y, z'
loop_
 _atom_site_type_symbol
 _atom_site_label
 _atom_site_symmetry_multiplicity
 _atom_site_fract_x
 _atom_site_fract_y
 _atom_site_fract_z
 _atom_site_occupancy
  Sr  Sr0  1  0.07855500  0.93770600  0.70078200  1
  Sr  Sr1  1  0.04601700  0.27098100  0.90083300  1
  Sr  Sr2  1  0.04991200  0.41812500  0.28663500  1
  Sr  Sr3  1  0.26814900  0.90343400  0.04153100  1
  Sr  Sr4  1  0.36650600  0.73065900  0.60315800  1
  Sr  Sr5  1  0.28508700  0.05397700  0.42153000  1
  Sr  Sr6  1  0.37005300  0.60670000  0.23306100  1
  Sr  Sr7  1  0.41840200  0.28574900  0.05165200  1
  Sr  Sr8  1  0.58038600  0.71810800  0.95065500  1
  Sr  Sr9  1  0.58980400  0.36758400  0.73306800  1
  Sr  Sr10  1  0.71569700  0.95216800  0.58108300  1
  Sr  Sr11  1  0.60878300  0.23873600  0.36660900  1
  Sr  Sr12  1  0.70218000  0.07647600  0.93752700  1
  Sr  Sr13  1  0.73143300  0.59947000  0.36923100  1
  Sr  Sr14  1  0.95164700  0.57468000  0.71486000  1
  Sr  Sr15  1  0.93826600  0.69929700  0.07360900  1
  Sr  Sr16  1  0.90512400  0.04401700  0.26932400  1
  Ta  Ta17  1  0.04274600  0.72190100  0.38030200  1
  Ta  Ta18  1  0.21925000  0.54487100  0.88370200  1
  Ta  Ta19  1  0.16856700  0.16724800  0.16527200  1
  Ta  Ta20  1  0.34785800  0.35552800  0.36447200  1
  Ta  Ta21  1  0.38273200  0.04094900  0.72218700  1
  Ta  Ta22  1  0.54447200  0.88450800  0.21928900  1
  Ta  Ta23  1  0.66706200  0.66622000  0.66682000  1
  Ta  Ta24  1  0.85467300  0.85399600  0.85325400  1
  Ta  Ta25  1  0.72154100  0.38223500  0.04267500  1
  Ta  Ta26  1  0.88420500  0.22019000  0.54637200  1
  S  S27  1  0.03714700  0.81468400  0.89522100  1
  S  S28  1  0.04849300  0.51946800  0.94211300  1
  S  S29  1  0.97489700  0.57647700  0.46098700  1
  S  S30  1  0.00298200  0.33638100  0.66941700  1
  S  S31  1  0.12346000  0.98719700  0.20915300  1
  S  S32  1  0.12514600  0.65618700  0.23397600  1
  S  S33  1  0.16875600  0.83950100  0.50056200  1
  S  S34  1  0.19555100  0.60717600  0.71772300  1
  S  S35  1  0.21024700  0.12263900  0.98499300  1
  S  S36  1  0.16777100  0.24242800  0.36968200  1
  S  S37  1  0.27903900  0.37808600  0.86537900  1
  S  S38  1  0.23792000  0.12342200  0.65899300  1
  S  S39  1  0.31346700  0.89110700  0.79813900  1
  S  S40  1  0.24033900  0.37441900  0.16595000  1
  S  S41  1  0.29382000  0.51941900  0.43413900  1
  S  S42  1  0.37565000  0.85935300  0.27750000  1
  S  S43  1  0.33864800  0.67134300  0.00467800  1
  S  S44  1  0.37567800  0.16489200  0.24113500  1
  S  S45  1  0.43811200  0.28967400  0.51340500  1
  S  S46  1  0.50676600  0.59062300  0.72878100  1
  S  S47  1  0.46149800  0.97402000  0.57392200  1
  S  S48  1  0.50320800  0.16777600  0.84091000  1
  S  S49  1  0.52007100  0.94365000  0.05072400  1
  S  S50  1  0.58758400  0.72649800  0.50569600  1
  S  S51  1  0.51101600  0.43302500  0.28734100  1
  S  S52  1  0.64824700  0.85800400  0.78026900  1
  S  S53  1  0.60224700  0.71450500  0.19708900  1
  S  S54  1  0.57454200  0.46350100  0.97741200  1
  S  S55  1  0.78132100  0.64860700  0.85615800  1
  S  S56  1  0.71142800  0.19840500  0.60032300  1
  S  S57  1  0.65833100  0.23459300  0.12455900  1
  S  S58  1  0.72340500  0.50379900  0.58743800  1
  S  S59  1  0.66967400  0.00473500  0.33779200  1
  S  S60  1  0.79596900  0.31392900  0.89274300  1
  S  S61  1  0.85724000  0.77944500  0.64903900  1
  S  S62  1  0.81141100  0.89185000  0.03533200  1
  S  S63  1  0.89280500  0.79749600  0.31079600  1
  S  S64  1  0.83898100  0.50295600  0.16903000  1
  S  S65  1  0.86064700  0.27881100  0.37648200  1
  S  S66  1  0.89339800  0.03588000  0.81136300  1
  S  S67  1  0.94235300  0.04972700  0.52088600  1
  S  S68  1  0.98632900  0.20750000  0.12097700  1
