# generated using pymatgen
data_Rb2Ti(GeO3)3
_symmetry_space_group_name_H-M   'P 1'
_cell_length_a   12.46049593
_cell_length_b   12.46049593
_cell_length_c   10.28620000
_cell_angle_alpha   90.00000000
_cell_angle_beta   90.00000000
_cell_angle_gamma   119.99999963
_symmetry_Int_Tables_number   1
_chemical_formula_structural   Rb2Ti(GeO3)3
_chemical_formula_sum   'Rb12 Ti6 Ge18 O54'
_cell_volume   1383.10850847
_cell_formula_units_Z   6
loop_
 _symmetry_equiv_pos_site_id
 _symmetry_equiv_pos_as_xyz
  1  'x, y, z'
loop_
 _atom_site_type_symbol
 _atom_site_label
 _atom_site_symmetry_multiplicity
 _atom_site_fract_x
 _atom_site_fract_y
 _atom_site_fract_z
 _atom_site_occupancy
  Rb  Rb0  1  0.00313800  0.33723100  0.43055600  1
  Rb  Rb1  1  0.66590700  0.66276900  0.06944400  1
  Rb  Rb2  1  0.33723100  0.33409300  0.56944400  1
  Rb  Rb3  1  0.66590700  0.00313800  0.56944400  1
  Rb  Rb4  1  0.33723100  0.00313800  0.06944400  1
  Rb  Rb5  1  0.33409300  0.33723100  0.93055600  1
  Rb  Rb6  1  0.00313800  0.66590700  0.93055600  1
  Rb  Rb7  1  0.99686200  0.33409300  0.06944400  1
  Rb  Rb8  1  0.33409300  0.99686200  0.43055600  1
  Rb  Rb9  1  0.99686200  0.66276900  0.56944400  1
  Rb  Rb10  1  0.66276900  0.99686200  0.93055600  1
  Rb  Rb11  1  0.66276900  0.66590700  0.43055600  1
  Ti  Ti12  1  0.33333300  0.66666700  0.47135100  1
  Ti  Ti13  1  0.66666700  0.33333300  0.52864900  1
  Ti  Ti14  1  0.66666700  0.33333300  0.02864900  1
  Ti  Ti15  1  0.33333300  0.66666700  0.97135100  1
  Ti  Ti16  1  0.00000000  0.00000000  0.50000000  1
  Ti  Ti17  1  0.00000000  0.00000000  0.00000000  1
  Ge  Ge18  1  0.33238100  0.47939500  0.22185100  1
  Ge  Ge19  1  0.47939500  0.33238100  0.27814900  1
  Ge  Ge20  1  0.00000000  0.82024000  0.25000000  1
  Ge  Ge21  1  0.52060500  0.66761900  0.72185100  1
  Ge  Ge22  1  0.85298600  0.52060500  0.27814900  1
  Ge  Ge23  1  0.85298600  0.33238100  0.77814900  1
  Ge  Ge24  1  0.14701400  0.66761900  0.22185100  1
  Ge  Ge25  1  0.33238100  0.85298600  0.72185100  1
  Ge  Ge26  1  0.82024000  0.82024000  0.75000000  1
  Ge  Ge27  1  0.52060500  0.85298600  0.22185100  1
  Ge  Ge28  1  0.66761900  0.52060500  0.77814900  1
  Ge  Ge29  1  0.17976000  0.00000000  0.75000000  1
  Ge  Ge30  1  0.47939500  0.14701400  0.77814900  1
  Ge  Ge31  1  0.00000000  0.17976000  0.75000000  1
  Ge  Ge32  1  0.14701400  0.47939500  0.72185100  1
  Ge  Ge33  1  0.82024000  0.00000000  0.25000000  1
  Ge  Ge34  1  0.17976000  0.17976000  0.25000000  1
  Ge  Ge35  1  0.66761900  0.14701400  0.27814900  1
  O  O36  1  0.88497900  0.21036100  0.82241500  1
  O  O37  1  0.27723200  0.51683700  0.35949400  1
  O  O38  1  0.62049400  0.43219100  0.92021500  1
  O  O39  1  0.81169700  0.43219100  0.42021500  1
  O  O40  1  0.72276800  0.23960500  0.14050600  1
  O  O41  1  0.00000000  0.47038400  0.75000000  1
  O  O42  1  0.37950600  0.81169700  0.57978500  1
  O  O43  1  0.23960500  0.72276800  0.35949400  1
  O  O44  1  0.08110100  0.14862200  0.38397800  1
  O  O45  1  0.48316300  0.72276800  0.85949400  1
  O  O46  1  0.62049400  0.18830300  0.42021500  1
  O  O47  1  0.78963900  0.67461900  0.82241500  1
  O  O48  1  0.48316300  0.76039500  0.35949400  1
  O  O49  1  0.23960500  0.51683700  0.85949400  1
  O  O50  1  0.91889900  0.06752100  0.11602200  1
  O  O51  1  0.14862200  0.08110100  0.11602200  1
  O  O52  1  0.67461900  0.78963900  0.67758500  1
  O  O53  1  0.43219100  0.62049400  0.57978500  1
  O  O54  1  0.93247900  0.85137800  0.11602200  1
  O  O55  1  0.11502100  0.32538100  0.67758500  1
  O  O56  1  0.27723200  0.76039500  0.85949400  1
  O  O57  1  0.52961600  0.00000000  0.25000000  1
  O  O58  1  0.76039500  0.27723200  0.64050600  1
  O  O59  1  0.47038400  0.00000000  0.75000000  1
  O  O60  1  0.21036100  0.32538100  0.17758500  1
  O  O61  1  0.14862200  0.06752100  0.61602200  1
  O  O62  1  0.93247900  0.08110100  0.61602200  1
  O  O63  1  0.88497900  0.67461900  0.32241500  1
  O  O64  1  0.47038400  0.47038400  0.25000000  1
  O  O65  1  0.51683700  0.23960500  0.64050600  1
  O  O66  1  0.56780900  0.37950600  0.42021500  1
  O  O67  1  0.78963900  0.11502100  0.32241500  1
  O  O68  1  0.32538100  0.21036100  0.32241500  1
  O  O69  1  0.85137800  0.91889900  0.88397800  1
  O  O70  1  0.72276800  0.48316300  0.64050600  1
  O  O71  1  0.00000000  0.52961600  0.25000000  1
  O  O72  1  0.51683700  0.27723200  0.14050600  1
  O  O73  1  0.32538100  0.11502100  0.82241500  1
  O  O74  1  0.76039500  0.48316300  0.14050600  1
  O  O75  1  0.56780900  0.18830300  0.92021500  1
  O  O76  1  0.43219100  0.81169700  0.07978500  1
  O  O77  1  0.81169700  0.37950600  0.92021500  1
  O  O78  1  0.06752100  0.14862200  0.88397800  1
  O  O79  1  0.08110100  0.93247900  0.88397800  1
  O  O80  1  0.67461900  0.88497900  0.17758500  1
  O  O81  1  0.18830300  0.62049400  0.07978500  1
  O  O82  1  0.21036100  0.88497900  0.67758500  1
  O  O83  1  0.11502100  0.78963900  0.17758500  1
  O  O84  1  0.91889900  0.85137800  0.61602200  1
  O  O85  1  0.52961600  0.52961600  0.75000000  1
  O  O86  1  0.37950600  0.56780900  0.07978500  1
  O  O87  1  0.18830300  0.56780900  0.57978500  1
  O  O88  1  0.06752100  0.91889900  0.38397800  1
  O  O89  1  0.85137800  0.93247900  0.38397800  1
