# generated using pymatgen
data_Bi6Cl3O7F
_symmetry_space_group_name_H-M   'P 1'
_cell_length_a   3.85596400
_cell_length_b   15.65218500
_cell_length_c   20.62387900
_cell_angle_alpha   90.00000000
_cell_angle_beta   90.00000000
_cell_angle_gamma   90.00000000
_symmetry_Int_Tables_number   1
_chemical_formula_structural   Bi6Cl3O7F
_chemical_formula_sum   'Bi24 Cl12 O28 F4'
_cell_volume   1244.73899418
_cell_formula_units_Z   4
loop_
 _symmetry_equiv_pos_site_id
 _symmetry_equiv_pos_as_xyz
  1  'x, y, z'
loop_
 _atom_site_type_symbol
 _atom_site_label
 _atom_site_symmetry_multiplicity
 _atom_site_fract_x
 _atom_site_fract_y
 _atom_site_fract_z
 _atom_site_occupancy
  Bi  Bi0  1  0.75000000  0.56061900  0.56307700  1
  Bi  Bi1  1  0.75000000  0.08809000  0.24168900  1
  Bi  Bi2  1  0.25000000  0.06233600  0.55602100  1
  Bi  Bi3  1  0.25000000  0.58809000  0.25831100  1
  Bi  Bi4  1  0.75000000  0.27048700  0.92213000  1
  Bi  Bi5  1  0.25000000  0.28609700  0.27000500  1
  Bi  Bi6  1  0.25000000  0.43938100  0.43692300  1
  Bi  Bi7  1  0.25000000  0.21390300  0.77000500  1
  Bi  Bi8  1  0.75000000  0.93938100  0.06307700  1
  Bi  Bi9  1  0.25000000  0.72951300  0.07787000  1
  Bi  Bi10  1  0.75000000  0.93766400  0.44397900  1
  Bi  Bi11  1  0.75000000  0.41191000  0.74168900  1
  Bi  Bi12  1  0.25000000  0.06061900  0.93692300  1
  Bi  Bi13  1  0.75000000  0.22951300  0.42213000  1
  Bi  Bi14  1  0.25000000  0.34320500  0.59768800  1
  Bi  Bi15  1  0.75000000  0.71390300  0.72999500  1
  Bi  Bi16  1  0.75000000  0.65679500  0.40231200  1
  Bi  Bi17  1  0.75000000  0.78609700  0.22999500  1
  Bi  Bi18  1  0.75000000  0.56233600  0.94397900  1
  Bi  Bi19  1  0.75000000  0.84320500  0.90231200  1
  Bi  Bi20  1  0.25000000  0.43766400  0.05602100  1
  Bi  Bi21  1  0.25000000  0.77048700  0.57787000  1
  Bi  Bi22  1  0.25000000  0.15679500  0.09768800  1
  Bi  Bi23  1  0.25000000  0.91191000  0.75831100  1
  Cl  Cl24  1  0.75000000  0.94738600  0.63955100  1
  Cl  Cl25  1  0.25000000  0.44738600  0.86044900  1
  Cl  Cl26  1  0.75000000  0.31267100  0.14308100  1
  Cl  Cl27  1  0.25000000  0.56273800  0.69726000  1
  Cl  Cl28  1  0.25000000  0.81267100  0.35691900  1
  Cl  Cl29  1  0.75000000  0.43726200  0.30274000  1
  Cl  Cl30  1  0.25000000  0.93726200  0.19726000  1
  Cl  Cl31  1  0.75000000  0.18732900  0.64308100  1
  Cl  Cl32  1  0.75000000  0.55261400  0.13955100  1
  Cl  Cl33  1  0.25000000  0.68732900  0.85691900  1
  Cl  Cl34  1  0.75000000  0.06273800  0.80274000  1
  Cl  Cl35  1  0.25000000  0.05261400  0.36044900  1
  O  O36  1  0.75000000  0.53422400  0.45697400  1
  O  O37  1  0.25000000  0.03422400  0.04302600  1
  O  O38  1  0.75000000  0.35224500  0.47089000  1
  O  O39  1  0.25000000  0.90488200  0.86793500  1
  O  O40  1  0.25000000  0.15585600  0.21263900  1
  O  O41  1  0.75000000  0.71401800  0.62178900  1
  O  O42  1  0.75000000  0.09511800  0.13206500  1
  O  O43  1  0.25000000  0.78363700  0.70407100  1
  O  O44  1  0.25000000  0.93855100  0.50138200  1
  O  O45  1  0.25000000  0.71636300  0.20407100  1
  O  O46  1  0.75000000  0.84414400  0.78736100  1
  O  O47  1  0.75000000  0.28363700  0.79592900  1
  O  O48  1  0.75000000  0.14775500  0.97089000  1
  O  O49  1  0.25000000  0.59511800  0.36793500  1
  O  O50  1  0.75000000  0.40488200  0.63206500  1
  O  O51  1  0.25000000  0.56144900  0.00138200  1
  O  O52  1  0.25000000  0.85224500  0.02911000  1
  O  O53  1  0.25000000  0.64775500  0.52911000  1
  O  O54  1  0.75000000  0.65585600  0.28736100  1
  O  O55  1  0.75000000  0.78598200  0.12178900  1
  O  O56  1  0.25000000  0.21401800  0.87821100  1
  O  O57  1  0.75000000  0.06144900  0.49861800  1
  O  O58  1  0.25000000  0.46577600  0.54302600  1
  O  O59  1  0.75000000  0.43855100  0.99861800  1
  O  O60  1  0.25000000  0.34414400  0.71263900  1
  O  O61  1  0.75000000  0.96577600  0.95697400  1
  O  O62  1  0.75000000  0.21636300  0.29592900  1
  O  O63  1  0.25000000  0.28598200  0.37821100  1
  F  F64  1  0.75000000  0.69745900  0.99577900  1
  F  F65  1  0.25000000  0.30254100  0.00422100  1
  F  F66  1  0.25000000  0.19745900  0.50422100  1
  F  F67  1  0.75000000  0.80254100  0.49577900  1
