# generated using pymatgen
data_Na2Th(PO4)2
_symmetry_space_group_name_H-M   'P 1'
_cell_length_a   22.01863900
_cell_length_b   7.11375400
_cell_length_c   9.26446987
_cell_angle_alpha   68.49086393
_cell_angle_beta   90.00000000
_cell_angle_gamma   90.00000000
_symmetry_Int_Tables_number   1
_chemical_formula_structural   Na2Th(PO4)2
_chemical_formula_sum   'Na16 Th8 P16 O64'
_cell_volume   1350.08311168
_cell_formula_units_Z   8
loop_
 _symmetry_equiv_pos_site_id
 _symmetry_equiv_pos_as_xyz
  1  'x, y, z'
loop_
 _atom_site_type_symbol
 _atom_site_label
 _atom_site_symmetry_multiplicity
 _atom_site_fract_x
 _atom_site_fract_y
 _atom_site_fract_z
 _atom_site_occupancy
  Na  Na0  1  0.93908300  0.14786900  0.46076000  1
  Na  Na1  1  0.06091700  0.85213100  0.53924000  1
  Na  Na2  1  0.56001100  0.35696600  0.54227000  1
  Na  Na3  1  0.43908300  0.85213100  0.03924000  1
  Na  Na4  1  0.68701800  0.62929000  0.50451100  1
  Na  Na5  1  0.31290800  0.11965800  0.98721800  1
  Na  Na6  1  0.68709200  0.88034200  0.01278200  1
  Na  Na7  1  0.31298200  0.37071000  0.49548900  1
  Na  Na8  1  0.18701800  0.37071000  0.99548900  1
  Na  Na9  1  0.56091700  0.14786900  0.96076000  1
  Na  Na10  1  0.93998900  0.35696600  0.04227000  1
  Na  Na11  1  0.18709200  0.11965800  0.48721800  1
  Na  Na12  1  0.81290800  0.88034200  0.51278200  1
  Na  Na13  1  0.81298200  0.62929000  0.00451200  1
  Na  Na14  1  0.06001100  0.64303400  0.95773000  1
  Na  Na15  1  0.43998900  0.64303400  0.45773000  1
  Th  Th16  1  0.04649200  0.24256300  0.75285100  1
  Th  Th17  1  0.32130900  0.74476700  0.74393800  1
  Th  Th18  1  0.54649200  0.75743700  0.74714900  1
  Th  Th19  1  0.17869100  0.74476700  0.24393800  1
  Th  Th20  1  0.67869100  0.25523300  0.25606200  1
  Th  Th21  1  0.82130900  0.25523300  0.75606200  1
  Th  Th22  1  0.45350800  0.24256300  0.25285100  1
  Th  Th23  1  0.95350800  0.75743700  0.24714900  1
  P  P24  1  0.18329300  0.92659300  0.87291300  1
  P  P25  1  0.31541800  0.55789000  0.11448500  1
  P  P26  1  0.44130100  0.43425900  0.85090800  1
  P  P27  1  0.68329300  0.07340700  0.62708700  1
  P  P28  1  0.55869900  0.56574100  0.14909200  1
  P  P29  1  0.81541800  0.44211000  0.38551500  1
  P  P30  1  0.18458200  0.55789000  0.61448500  1
  P  P31  1  0.05869900  0.43425900  0.35090800  1
  P  P32  1  0.06247100  0.06965300  0.14457700  1
  P  P33  1  0.81670700  0.07340700  0.12708700  1
  P  P34  1  0.94130100  0.56574100  0.64909200  1
  P  P35  1  0.93752900  0.93034700  0.85542300  1
  P  P36  1  0.31670700  0.92659300  0.37291300  1
  P  P37  1  0.68458200  0.44211000  0.88551500  1
  P  P38  1  0.43752900  0.06965300  0.64457700  1
  P  P39  1  0.56247100  0.93034700  0.35542300  1
  O  O40  1  0.83174800  0.22179900  0.49099500  1
  O  O41  1  0.44480700  0.89502300  0.58066800  1
  O  O42  1  0.37089800  0.45974400  0.21913200  1
  O  O43  1  0.38310500  0.46022900  0.75302100  1
  O  O44  1  0.05519300  0.89502300  0.08066800  1
  O  O45  1  0.70013900  0.54810200  0.00076700  1
  O  O46  1  0.11689500  0.46022900  0.25302100  1
  O  O47  1  0.88310500  0.53977100  0.74697900  1
  O  O48  1  0.33228800  0.70675300  0.48121000  1
  O  O49  1  0.93734400  0.72555800  0.99514100  1
  O  O50  1  0.43734400  0.27444200  0.50485900  1
  O  O51  1  0.50572100  0.94777700  0.25032500  1
  O  O52  1  0.99928500  0.55114500  0.74990300  1
  O  O53  1  0.50071500  0.55114500  0.24990300  1
  O  O54  1  0.20013900  0.45189800  0.49923300  1
  O  O55  1  0.94013000  0.76741300  0.50647600  1
  O  O56  1  0.00572100  0.05222300  0.24967500  1
  O  O57  1  0.87089800  0.54025600  0.28086800  1
  O  O58  1  0.12162200  0.03885300  0.23915800  1
  O  O59  1  0.49928500  0.44885500  0.75009700  1
  O  O60  1  0.30114600  0.03634400  0.48577600  1
  O  O61  1  0.99427900  0.94777700  0.75032500  1
  O  O62  1  0.12910200  0.45974400  0.71913200  1
  O  O63  1  0.49427900  0.05222300  0.74967500  1
  O  O64  1  0.56265600  0.72555800  0.49514100  1
  O  O65  1  0.61689500  0.53977100  0.24697900  1
  O  O66  1  0.33174800  0.77820100  0.00900500  1
  O  O67  1  0.37837800  0.03885300  0.73915800  1
  O  O68  1  0.05987000  0.23258700  0.49352400  1
  O  O69  1  0.16771200  0.70675300  0.98121000  1
  O  O70  1  0.94480700  0.10497700  0.91933200  1
  O  O71  1  0.66825200  0.22179900  0.99099500  1
  O  O72  1  0.26259600  0.93868100  0.26341400  1
  O  O73  1  0.16825200  0.77820100  0.50900500  1
  O  O74  1  0.55285100  0.38296800  0.09432700  1
  O  O75  1  0.23740400  0.93868100  0.76341400  1
  O  O76  1  0.44714900  0.61703200  0.90567300  1
  O  O77  1  0.00071500  0.44885500  0.25009700  1
  O  O78  1  0.05285100  0.61703200  0.40567300  1
  O  O79  1  0.29986100  0.45189800  0.99923300  1
  O  O80  1  0.06265600  0.27444200  0.00485900  1
  O  O81  1  0.44013000  0.23258700  0.99352400  1
  O  O82  1  0.37292700  0.01953900  0.26914900  1
  O  O83  1  0.26107800  0.54541500  0.22338800  1
  O  O84  1  0.87837800  0.96114700  0.76084200  1
  O  O85  1  0.79986100  0.54810200  0.50076700  1
  O  O86  1  0.55519300  0.10497700  0.41933200  1
  O  O87  1  0.66771200  0.29324700  0.51879000  1
  O  O88  1  0.80114600  0.96365600  0.01422400  1
  O  O89  1  0.87292700  0.98046100  0.23085100  1
  O  O90  1  0.94714900  0.38296800  0.59432700  1
  O  O91  1  0.69885400  0.96365600  0.51422400  1
  O  O92  1  0.83228800  0.29324700  0.01879000  1
  O  O93  1  0.76259600  0.06131900  0.23658600  1
  O  O94  1  0.19885400  0.03634400  0.98577600  1
  O  O95  1  0.62910200  0.54025600  0.78086800  1
  O  O96  1  0.73892200  0.45458500  0.77661200  1
  O  O97  1  0.73740400  0.06131900  0.73658600  1
  O  O98  1  0.76107800  0.45458500  0.27661200  1
  O  O99  1  0.62162200  0.96114700  0.26084200  1
  O  O100  1  0.55987000  0.76741300  0.00647600  1
  O  O101  1  0.62707300  0.98046100  0.73085100  1
  O  O102  1  0.12707300  0.01953900  0.76914900  1
  O  O103  1  0.23892200  0.54541500  0.72338800  1
