# generated using pymatgen
data_USeO6
_symmetry_space_group_name_H-M   'P 1'
_cell_length_a   5.74059800
_cell_length_b   6.98045800
_cell_length_c   13.49384560
_cell_angle_alpha   75.68054179
_cell_angle_beta   90.00000000
_cell_angle_gamma   90.00000000
_symmetry_Int_Tables_number   1
_chemical_formula_structural   USeO6
_chemical_formula_sum   'U4 Se4 O24'
_cell_volume   523.92605463
_cell_formula_units_Z   4
loop_
 _symmetry_equiv_pos_site_id
 _symmetry_equiv_pos_as_xyz
  1  'x, y, z'
loop_
 _atom_site_type_symbol
 _atom_site_label
 _atom_site_symmetry_multiplicity
 _atom_site_fract_x
 _atom_site_fract_y
 _atom_site_fract_z
 _atom_site_occupancy
  U  U0  1  0.21108800  0.33684800  0.85031800  1
  U  U1  1  0.71108800  0.66315200  0.64968200  1
  U  U2  1  0.78891200  0.66315200  0.14968200  1
  U  U3  1  0.28891200  0.33684800  0.35031800  1
  Se  Se4  1  0.04969800  0.79767900  0.38723500  1
  Se  Se5  1  0.45030200  0.79767900  0.88723500  1
  Se  Se6  1  0.95030200  0.20232100  0.61276500  1
  Se  Se7  1  0.54969800  0.20232100  0.11276500  1
  O  O8  1  0.48209500  0.42928700  0.77984900  1
  O  O9  1  0.28230500  0.65252200  0.38618100  1
  O  O10  1  0.06421400  0.73272600  0.08895900  1
  O  O11  1  0.43578600  0.73272600  0.58895900  1
  O  O12  1  0.56421400  0.26727400  0.41104100  1
  O  O13  1  0.60483700  0.82453700  0.77979200  1
  O  O14  1  0.51790500  0.57071300  0.22015100  1
  O  O15  1  0.35689800  0.01790900  0.89673900  1
  O  O16  1  0.10483700  0.17546300  0.72020800  1
  O  O17  1  0.78230500  0.34747800  0.11381900  1
  O  O18  1  0.93578600  0.26727400  0.91104100  1
  O  O19  1  0.85689800  0.98209100  0.60326100  1
  O  O20  1  0.98209500  0.57071300  0.72015100  1
  O  O21  1  0.64310200  0.98209100  0.10326100  1
  O  O22  1  0.39516300  0.17546300  0.22020800  1
  O  O23  1  0.87755200  0.70097200  0.48607500  1
  O  O24  1  0.14310200  0.01790900  0.39673900  1
  O  O25  1  0.12244800  0.29902800  0.51392500  1
  O  O26  1  0.21769500  0.65252200  0.88618100  1
  O  O27  1  0.62244800  0.70097200  0.98607500  1
  O  O28  1  0.89516300  0.82453700  0.27979200  1
  O  O29  1  0.37755200  0.29902800  0.01392500  1
  O  O30  1  0.01790500  0.42928700  0.27984900  1
  O  O31  1  0.71769500  0.34747800  0.61381900  1
