# generated using pymatgen
data_Na4TiSe4
_symmetry_space_group_name_H-M   'P 1'
_cell_length_a   14.60421782
_cell_length_b   14.60421782
_cell_length_c   21.71078902
_cell_angle_alpha   57.52998944
_cell_angle_beta   57.52998944
_cell_angle_gamma   29.37949095
_symmetry_Int_Tables_number   1
_chemical_formula_structural   Na4TiSe4
_chemical_formula_sum   'Na32 Ti8 Se32'
_cell_volume   1889.72242085
_cell_formula_units_Z   8
loop_
 _symmetry_equiv_pos_site_id
 _symmetry_equiv_pos_as_xyz
  1  'x, y, z'
loop_
 _atom_site_type_symbol
 _atom_site_label
 _atom_site_symmetry_multiplicity
 _atom_site_fract_x
 _atom_site_fract_y
 _atom_site_fract_z
 _atom_site_occupancy
  Na  Na0  1  0.65543100  0.67350400  0.81548200  1
  Na  Na1  1  0.32649600  0.34456900  0.68451800  1
  Na  Na2  1  0.34456900  0.32649600  0.18451800  1
  Na  Na3  1  0.67350400  0.65543100  0.31548200  1
  Na  Na4  1  0.82217300  0.86712900  0.67366600  1
  Na  Na5  1  0.13287100  0.17782700  0.82633400  1
  Na  Na6  1  0.17782700  0.13287100  0.32633400  1
  Na  Na7  1  0.86712900  0.82217300  0.17366600  1
  Na  Na8  1  0.57973100  0.11836500  0.93667300  1
  Na  Na9  1  0.88163500  0.42026900  0.56332700  1
  Na  Na10  1  0.42026900  0.88163500  0.06332700  1
  Na  Na11  1  0.11836500  0.57973100  0.43667300  1
  Na  Na12  1  0.56761700  0.80260600  0.63597600  1
  Na  Na13  1  0.19739400  0.43238300  0.86402400  1
  Na  Na14  1  0.43238300  0.19739400  0.36402400  1
  Na  Na15  1  0.80260600  0.56761700  0.13597600  1
  Na  Na16  1  0.06648300  0.59296400  0.02011200  1
  Na  Na17  1  0.40703600  0.93351700  0.47988800  1
  Na  Na18  1  0.93351700  0.40703600  0.97988800  1
  Na  Na19  1  0.59296400  0.06648300  0.52011200  1
  Na  Na20  1  0.03002400  0.11517000  0.22321600  1
  Na  Na21  1  0.88483000  0.96997600  0.27678400  1
  Na  Na22  1  0.96997600  0.88483000  0.77678400  1
  Na  Na23  1  0.11517000  0.03002400  0.72321600  1
  Na  Na24  1  0.61612800  0.46060900  0.78897800  1
  Na  Na25  1  0.53939100  0.38387200  0.71102200  1
  Na  Na26  1  0.38387200  0.53939100  0.21102200  1
  Na  Na27  1  0.46060900  0.61612800  0.28897800  1
  Na  Na28  1  0.68725900  0.21491400  0.00712400  1
  Na  Na29  1  0.78508600  0.31274100  0.49287600  1
  Na  Na30  1  0.31274100  0.78508600  0.99287600  1
  Na  Na31  1  0.21491400  0.68725900  0.50712400  1
  Ti  Ti32  1  0.16855200  0.77471500  0.90319800  1
  Ti  Ti33  1  0.22528500  0.83144800  0.59680200  1
  Ti  Ti34  1  0.83144800  0.22528500  0.09680200  1
  Ti  Ti35  1  0.77471500  0.16855200  0.40319800  1
  Ti  Ti36  1  0.32531600  0.15488500  0.12806800  1
  Ti  Ti37  1  0.84511500  0.67468400  0.37193200  1
  Ti  Ti38  1  0.67468400  0.84511500  0.87193200  1
  Ti  Ti39  1  0.15488500  0.32531600  0.62806800  1
  Se  Se40  1  0.80309700  0.33958200  0.33704300  1
  Se  Se41  1  0.66041800  0.19690300  0.16295700  1
  Se  Se42  1  0.19690300  0.66041800  0.66295700  1
  Se  Se43  1  0.33958200  0.80309700  0.83704300  1
  Se  Se44  1  0.07466100  0.85620600  0.36978800  1
  Se  Se45  1  0.14379400  0.92533900  0.13021200  1
  Se  Se46  1  0.92533900  0.14379400  0.63021200  1
  Se  Se47  1  0.85620600  0.07466100  0.86978800  1
  Se  Se48  1  0.16880800  0.68902600  0.03278700  1
  Se  Se49  1  0.31097400  0.83119200  0.46721300  1
  Se  Se50  1  0.83119200  0.31097400  0.96721300  1
  Se  Se51  1  0.68902600  0.16880800  0.53278700  1
  Se  Se52  1  0.30465800  0.54108300  0.86253300  1
  Se  Se53  1  0.45891700  0.69534200  0.63746700  1
  Se  Se54  1  0.69534200  0.45891700  0.13746700  1
  Se  Se55  1  0.54108300  0.30465800  0.36253300  1
  Se  Se56  1  0.22394700  0.25437900  0.02441500  1
  Se  Se57  1  0.74562100  0.77605300  0.47558500  1
  Se  Se58  1  0.77605300  0.74562100  0.97558500  1
  Se  Se59  1  0.25437900  0.22394700  0.52441500  1
  Se  Se60  1  0.43062900  0.05985300  0.68719500  1
  Se  Se61  1  0.94014700  0.56937100  0.81280500  1
  Se  Se62  1  0.56937100  0.94014700  0.31280500  1
  Se  Se63  1  0.05985300  0.43062900  0.18719500  1
  Se  Se64  1  0.90055200  0.40413300  0.71146200  1
  Se  Se65  1  0.59586700  0.09944800  0.78853800  1
  Se  Se66  1  0.09944800  0.59586700  0.28853800  1
  Se  Se67  1  0.40413300  0.90055200  0.21146200  1
  Se  Se68  1  0.05707100  0.58751500  0.58715900  1
  Se  Se69  1  0.41248500  0.94292900  0.91284100  1
  Se  Se70  1  0.94292900  0.41248500  0.41284100  1
  Se  Se71  1  0.58751500  0.05707100  0.08715900  1
