# generated using pymatgen
data_LaPb6BrO7
_symmetry_space_group_name_H-M   'P 1'
_cell_length_a   9.70373959
_cell_length_b   9.70373959
_cell_length_c   8.27108200
_cell_angle_alpha   90.00000000
_cell_angle_beta   90.00000000
_cell_angle_gamma   118.81560317
_symmetry_Int_Tables_number   1
_chemical_formula_structural   LaPb6BrO7
_chemical_formula_sum   'La2 Pb12 Br2 O14'
_cell_volume   682.38846168
_cell_formula_units_Z   2
loop_
 _symmetry_equiv_pos_site_id
 _symmetry_equiv_pos_as_xyz
  1  'x, y, z'
loop_
 _atom_site_type_symbol
 _atom_site_label
 _atom_site_symmetry_multiplicity
 _atom_site_fract_x
 _atom_site_fract_y
 _atom_site_fract_z
 _atom_site_occupancy
  La  La0  1  0.00000000  0.00000000  0.50000000  1
  La  La1  1  0.00000000  0.00000000  0.00000000  1
  Pb  Pb2  1  0.61434400  0.81267300  0.75000000  1
  Pb  Pb3  1  0.81267300  0.61434400  0.25000000  1
  Pb  Pb4  1  0.38565600  0.18732700  0.25000000  1
  Pb  Pb5  1  0.18732700  0.38565600  0.75000000  1
  Pb  Pb6  1  0.36627400  0.10462800  0.75000000  1
  Pb  Pb7  1  0.22767000  0.77233000  0.01426300  1
  Pb  Pb8  1  0.22767000  0.77233000  0.48573700  1
  Pb  Pb9  1  0.89537200  0.63372600  0.75000000  1
  Pb  Pb10  1  0.77233000  0.22767000  0.51426300  1
  Pb  Pb11  1  0.63372600  0.89537200  0.25000000  1
  Pb  Pb12  1  0.77233000  0.22767000  0.98573700  1
  Pb  Pb13  1  0.10462800  0.36627400  0.25000000  1
  Br  Br14  1  0.50000000  0.50000000  0.50000000  1
  Br  Br15  1  0.50000000  0.50000000  0.00000000  1
  O  O16  1  0.86043000  0.84204400  0.75000000  1
  O  O17  1  0.02073500  0.27907900  0.52881700  1
  O  O18  1  0.02073500  0.27907900  0.97118300  1
  O  O19  1  0.13957000  0.15795600  0.25000000  1
  O  O20  1  0.72092100  0.97926500  0.52881700  1
  O  O21  1  0.19293500  0.80706500  0.75000000  1
  O  O22  1  0.97926500  0.72092100  0.47118300  1
  O  O23  1  0.84204400  0.86043000  0.25000000  1
  O  O24  1  0.15795600  0.13957000  0.75000000  1
  O  O25  1  0.72092100  0.97926500  0.97118300  1
  O  O26  1  0.97926500  0.72092100  0.02881700  1
  O  O27  1  0.27907900  0.02073500  0.02881700  1
  O  O28  1  0.80706500  0.19293500  0.25000000  1
  O  O29  1  0.27907900  0.02073500  0.47118300  1
