# generated using pymatgen
data_DySCl
_symmetry_space_group_name_H-M   'P 1'
_cell_length_a   6.69578200
_cell_length_b   6.66744300
_cell_length_c   6.81031119
_cell_angle_alpha   79.11846113
_cell_angle_beta   90.00000000
_cell_angle_gamma   90.00000000
_symmetry_Int_Tables_number   1
_chemical_formula_structural   DySCl
_chemical_formula_sum   'Dy4 S4 Cl4'
_cell_volume   298.57107062
_cell_formula_units_Z   4
loop_
 _symmetry_equiv_pos_site_id
 _symmetry_equiv_pos_as_xyz
  1  'x, y, z'
loop_
 _atom_site_type_symbol
 _atom_site_label
 _atom_site_symmetry_multiplicity
 _atom_site_fract_x
 _atom_site_fract_y
 _atom_site_fract_z
 _atom_site_occupancy
  Dy  Dy0  1  0.54396800  0.68832300  0.20607100  1
  Dy  Dy1  1  0.45603200  0.31167700  0.79392900  1
  Dy  Dy2  1  0.95603200  0.68832300  0.70607100  1
  Dy  Dy3  1  0.04396800  0.31167700  0.29392900  1
  S  S4  1  0.24193300  0.56228300  0.98865900  1
  S  S5  1  0.25806700  0.56228300  0.48865900  1
  S  S6  1  0.75806700  0.43771700  0.01134100  1
  S  S7  1  0.74193300  0.43771700  0.51134100  1
  Cl  Cl8  1  0.33826900  0.06509400  0.16447600  1
  Cl  Cl9  1  0.83826900  0.93490600  0.33552400  1
  Cl  Cl10  1  0.66173100  0.93490600  0.83552400  1
  Cl  Cl11  1  0.16173100  0.06509400  0.66447600  1
