# generated using pymatgen
data_RbMnCl3
_symmetry_space_group_name_H-M   'P 1'
_cell_length_a   7.23357190
_cell_length_b   7.23357190
_cell_length_c   17.97433500
_cell_angle_alpha   90.00000000
_cell_angle_beta   90.00000000
_cell_angle_gamma   119.99999911
_symmetry_Int_Tables_number   1
_chemical_formula_structural   RbMnCl3
_chemical_formula_sum   'Rb6 Mn6 Cl18'
_cell_volume   814.49621941
_cell_formula_units_Z   6
loop_
 _symmetry_equiv_pos_site_id
 _symmetry_equiv_pos_as_xyz
  1  'x, y, z'
loop_
 _atom_site_type_symbol
 _atom_site_label
 _atom_site_symmetry_multiplicity
 _atom_site_fract_x
 _atom_site_fract_y
 _atom_site_fract_z
 _atom_site_occupancy
  Rb  Rb0  1  0.00000000  0.00000000  0.25000000  1
  Rb  Rb1  1  0.33333300  0.66666700  0.41668300  1
  Rb  Rb2  1  0.66666700  0.33333300  0.58331700  1
  Rb  Rb3  1  0.00000000  0.00000000  0.75000000  1
  Rb  Rb4  1  0.66666700  0.33333300  0.91668300  1
  Rb  Rb5  1  0.33333300  0.66666700  0.08331700  1
  Mn  Mn6  1  0.33333300  0.66666700  0.66135200  1
  Mn  Mn7  1  0.66666700  0.33333300  0.16135200  1
  Mn  Mn8  1  0.33333300  0.66666700  0.83864800  1
  Mn  Mn9  1  0.00000000  0.00000000  0.00000000  1
  Mn  Mn10  1  0.66666700  0.33333300  0.33864800  1
  Mn  Mn11  1  0.00000000  0.00000000  0.50000000  1
  Cl  Cl12  1  0.16552600  0.83447400  0.91780000  1
  Cl  Cl13  1  0.16552600  0.33105200  0.58220000  1
  Cl  Cl14  1  0.83447400  0.16552600  0.08220000  1
  Cl  Cl15  1  0.01661900  0.50830900  0.75000000  1
  Cl  Cl16  1  0.66894800  0.83447400  0.58220000  1
  Cl  Cl17  1  0.50830900  0.49169100  0.25000000  1
  Cl  Cl18  1  0.83447400  0.66894800  0.41780000  1
  Cl  Cl19  1  0.33105200  0.16552600  0.08220000  1
  Cl  Cl20  1  0.33105200  0.16552600  0.41780000  1
  Cl  Cl21  1  0.98338100  0.49169100  0.25000000  1
  Cl  Cl22  1  0.49169100  0.98338100  0.75000000  1
  Cl  Cl23  1  0.83447400  0.66894800  0.08220000  1
  Cl  Cl24  1  0.83447400  0.16552600  0.41780000  1
  Cl  Cl25  1  0.66894800  0.83447400  0.91780000  1
  Cl  Cl26  1  0.49169100  0.50830900  0.75000000  1
  Cl  Cl27  1  0.16552600  0.33105200  0.91780000  1
  Cl  Cl28  1  0.16552600  0.83447400  0.58220000  1
  Cl  Cl29  1  0.50830900  0.01661900  0.25000000  1
