# generated using pymatgen
data_Ba4CeMn3O12
_symmetry_space_group_name_H-M   'P 1'
_cell_length_a   10.32576580
_cell_length_b   10.32576580
_cell_length_c   10.32576641
_cell_angle_alpha   33.13734107
_cell_angle_beta   33.13734107
_cell_angle_gamma   33.13734224
_symmetry_Int_Tables_number   1
_chemical_formula_structural   Ba4CeMn3O12
_chemical_formula_sum   'Ba4 Ce1 Mn3 O12'
_cell_volume   292.83755863
_cell_formula_units_Z   1
loop_
 _symmetry_equiv_pos_site_id
 _symmetry_equiv_pos_as_xyz
  1  'x, y, z'
loop_
 _atom_site_type_symbol
 _atom_site_label
 _atom_site_symmetry_multiplicity
 _atom_site_fract_x
 _atom_site_fract_y
 _atom_site_fract_z
 _atom_site_occupancy
  Ba  Ba0  1  0.28148700  0.28148700  0.28148700  1
  Ba  Ba1  1  0.13083400  0.13083400  0.13083400  1
  Ba  Ba2  1  0.71851300  0.71851300  0.71851300  1
  Ba  Ba3  1  0.86916600  0.86916600  0.86916600  1
  Ce  Ce4  1  0.00000000  0.00000000  0.00000000  1
  Mn  Mn5  1  0.41254000  0.41254000  0.41254000  1
  Mn  Mn6  1  0.58746000  0.58746000  0.58746000  1
  Mn  Mn7  1  0.50000000  0.50000000  0.50000000  1
  O  O8  1  0.77948300  0.77948300  0.30769800  1
  O  O9  1  0.22051700  0.22051700  0.69230200  1
  O  O10  1  0.77948300  0.30769800  0.77948300  1
  O  O11  1  0.83514700  0.39563300  0.39563300  1
  O  O12  1  0.22051700  0.69230200  0.22051700  1
  O  O13  1  0.39563300  0.83514700  0.39563300  1
  O  O14  1  0.39563300  0.39563300  0.83514700  1
  O  O15  1  0.60436700  0.16485300  0.60436700  1
  O  O16  1  0.60436700  0.60436700  0.16485300  1
  O  O17  1  0.30769800  0.77948300  0.77948300  1
  O  O18  1  0.16485300  0.60436700  0.60436700  1
  O  O19  1  0.69230200  0.22051700  0.22051700  1
