# generated using pymatgen
data_Nb3Sb2Te5
_symmetry_space_group_name_H-M   'P 1'
_cell_length_a   8.59213941
_cell_length_b   8.59213941
_cell_length_c   8.59213941
_cell_angle_alpha   109.47122063
_cell_angle_beta   109.47122063
_cell_angle_gamma   109.47122063
_symmetry_Int_Tables_number   1
_chemical_formula_structural   Nb3Sb2Te5
_chemical_formula_sum   'Nb6 Sb4 Te10'
_cell_volume   488.29474878
_cell_formula_units_Z   2
loop_
 _symmetry_equiv_pos_site_id
 _symmetry_equiv_pos_as_xyz
  1  'x, y, z'
loop_
 _atom_site_type_symbol
 _atom_site_label
 _atom_site_symmetry_multiplicity
 _atom_site_fract_x
 _atom_site_fract_y
 _atom_site_fract_z
 _atom_site_occupancy
  Nb  Nb0  1  0.34270900  0.00000000  0.34270900  1
  Nb  Nb1  1  0.00000000  0.34270900  0.34270900  1
  Nb  Nb2  1  0.00000000  0.65729100  0.65729100  1
  Nb  Nb3  1  0.34270900  0.34270900  0.00000000  1
  Nb  Nb4  1  0.65729100  0.65729100  0.00000000  1
  Nb  Nb5  1  0.65729100  0.00000000  0.65729100  1
  Sb  Sb6  1  0.67025800  0.00000000  0.00000000  1
  Sb  Sb7  1  0.00000000  0.67025800  0.00000000  1
  Sb  Sb8  1  0.00000000  0.00000000  0.67025800  1
  Sb  Sb9  1  0.32974200  0.32974200  0.32974200  1
  Te  Te10  1  0.00000000  0.00000000  0.32790800  1
  Te  Te11  1  0.25000000  0.75000000  0.50000000  1
  Te  Te12  1  0.00000000  0.32790800  0.00000000  1
  Te  Te13  1  0.75000000  0.50000000  0.25000000  1
  Te  Te14  1  0.75000000  0.25000000  0.50000000  1
  Te  Te15  1  0.25000000  0.50000000  0.75000000  1
  Te  Te16  1  0.32790800  0.00000000  0.00000000  1
  Te  Te17  1  0.67209200  0.67209200  0.67209200  1
  Te  Te18  1  0.50000000  0.25000000  0.75000000  1
  Te  Te19  1  0.50000000  0.75000000  0.25000000  1
