# generated using pymatgen
data_Ba(PO3)2
_symmetry_space_group_name_H-M   'P 1'
_cell_length_a   6.99006000
_cell_length_b   7.67385100
_cell_length_c   11.97878343
_cell_angle_alpha   55.09010552
_cell_angle_beta   90.00000000
_cell_angle_gamma   90.00000000
_symmetry_Int_Tables_number   1
_chemical_formula_structural   Ba(PO3)2
_chemical_formula_sum   'Ba4 P8 O24'
_cell_volume   526.92515552
_cell_formula_units_Z   4
loop_
 _symmetry_equiv_pos_site_id
 _symmetry_equiv_pos_as_xyz
  1  'x, y, z'
loop_
 _atom_site_type_symbol
 _atom_site_label
 _atom_site_symmetry_multiplicity
 _atom_site_fract_x
 _atom_site_fract_y
 _atom_site_fract_z
 _atom_site_occupancy
  Ba  Ba0  1  0.09734800  0.31967100  0.82553300  1
  Ba  Ba1  1  0.40265200  0.31967100  0.32553300  1
  Ba  Ba2  1  0.59734800  0.68032900  0.67446700  1
  Ba  Ba3  1  0.90265200  0.68032900  0.17446700  1
  P  P4  1  0.10528500  0.95590400  0.66408700  1
  P  P5  1  0.20491000  0.70798100  0.42062700  1
  P  P6  1  0.60528500  0.04409600  0.83591300  1
  P  P7  1  0.79509000  0.29201900  0.57937300  1
  P  P8  1  0.70491000  0.29201900  0.07937300  1
  P  P9  1  0.29509000  0.70798100  0.92062700  1
  P  P10  1  0.39471500  0.95590400  0.16408700  1
  P  P11  1  0.89471500  0.04409600  0.33591300  1
  O  O12  1  0.22432900  0.61417900  0.06210300  1
  O  O13  1  0.03134300  0.20963900  0.31655900  1
  O  O14  1  0.49817100  0.18115200  0.10229300  1
  O  O15  1  0.99817100  0.81884800  0.39770700  1
  O  O16  1  0.15758700  0.90654500  0.81466000  1
  O  O17  1  0.34241300  0.90654500  0.31466000  1
  O  O18  1  0.00182900  0.18115200  0.60229300  1
  O  O19  1  0.81814600  0.43208500  0.62919300  1
  O  O20  1  0.72432900  0.38582100  0.43789700  1
  O  O21  1  0.84241300  0.09345500  0.18534000  1
  O  O22  1  0.77567100  0.38582100  0.93789700  1
  O  O23  1  0.78942600  0.00144000  0.91256700  1
  O  O24  1  0.27567100  0.61417900  0.56210300  1
  O  O25  1  0.18185400  0.56791500  0.37080700  1
  O  O26  1  0.53134300  0.79036100  0.18344100  1
  O  O27  1  0.71057400  0.00144000  0.41256700  1
  O  O28  1  0.28942600  0.99856000  0.58743300  1
  O  O29  1  0.65758700  0.09345500  0.68534000  1
  O  O30  1  0.46865700  0.20963900  0.81655900  1
  O  O31  1  0.50182900  0.81884800  0.89770700  1
  O  O32  1  0.21057400  0.99856000  0.08743300  1
  O  O33  1  0.31814600  0.56791500  0.87080700  1
  O  O34  1  0.96865700  0.79036100  0.68344100  1
  O  O35  1  0.68185400  0.43208500  0.12919300  1
