# generated using pymatgen
data_Ti(TlSe)4
_symmetry_space_group_name_H-M   'P 1'
_cell_length_a   8.69324400
_cell_length_b   8.78125700
_cell_length_c   16.31243455
_cell_angle_alpha   75.11654359
_cell_angle_beta   90.00000000
_cell_angle_gamma   90.00000000
_symmetry_Int_Tables_number   1
_chemical_formula_structural   Ti(TlSe)4
_chemical_formula_sum   'Ti4 Tl16 Se16'
_cell_volume   1203.47440236
_cell_formula_units_Z   4
loop_
 _symmetry_equiv_pos_site_id
 _symmetry_equiv_pos_as_xyz
  1  'x, y, z'
loop_
 _atom_site_type_symbol
 _atom_site_label
 _atom_site_symmetry_multiplicity
 _atom_site_fract_x
 _atom_site_fract_y
 _atom_site_fract_z
 _atom_site_occupancy
  Ti  Ti0  1  0.88847800  0.20863700  0.62283900  1
  Ti  Ti1  1  0.38847800  0.79136300  0.87716100  1
  Ti  Ti2  1  0.11152200  0.79136300  0.37716100  1
  Ti  Ti3  1  0.61152200  0.20863700  0.12283900  1
  Tl  Tl4  1  0.71927500  0.61209300  0.36166200  1
  Tl  Tl5  1  0.21927500  0.38790700  0.13833800  1
  Tl  Tl6  1  0.28072500  0.38790700  0.63833800  1
  Tl  Tl7  1  0.78072500  0.61209300  0.86166200  1
  Tl  Tl8  1  0.89868100  0.18056400  0.37686400  1
  Tl  Tl9  1  0.39868100  0.81943600  0.12313600  1
  Tl  Tl10  1  0.10131900  0.81943600  0.62313600  1
  Tl  Tl11  1  0.60131900  0.18056400  0.87686400  1
  Tl  Tl12  1  0.31725400  0.41102700  0.39021100  1
  Tl  Tl13  1  0.81725400  0.58897300  0.10978900  1
  Tl  Tl14  1  0.68274600  0.58897300  0.60978900  1
  Tl  Tl15  1  0.18274600  0.41102700  0.89021100  1
  Tl  Tl16  1  0.49382800  0.02976200  0.36685700  1
  Tl  Tl17  1  0.99382800  0.97023800  0.13314300  1
  Tl  Tl18  1  0.50617200  0.97023800  0.63314300  1
  Tl  Tl19  1  0.00617200  0.02976200  0.86685700  1
  Se  Se20  1  0.11095500  0.18213000  0.53819000  1
  Se  Se21  1  0.61095500  0.81787000  0.96181000  1
  Se  Se22  1  0.88904500  0.81787000  0.46181000  1
  Se  Se23  1  0.38904500  0.18213000  0.03819000  1
  Se  Se24  1  0.66800200  0.29738000  0.53555800  1
  Se  Se25  1  0.16800200  0.70262000  0.96444200  1
  Se  Se26  1  0.33199800  0.70262000  0.46444200  1
  Se  Se27  1  0.83199800  0.29738000  0.03555800  1
  Se  Se28  1  0.94698600  0.38911400  0.70706200  1
  Se  Se29  1  0.44698600  0.61088600  0.79293800  1
  Se  Se30  1  0.05301400  0.61088600  0.29293800  1
  Se  Se31  1  0.55301400  0.38911400  0.20706200  1
  Se  Se32  1  0.83126700  0.95110200  0.71348200  1
  Se  Se33  1  0.33126700  0.04889800  0.78651800  1
  Se  Se34  1  0.16873300  0.04889800  0.28651800  1
  Se  Se35  1  0.66873300  0.95110200  0.21348200  1
