# generated using pymatgen
data_SrCr2O4
_symmetry_space_group_name_H-M   'P 1'
_cell_length_a   5.18671500
_cell_length_b   6.03187800
_cell_length_c   11.74896200
_cell_angle_alpha   89.99969197
_cell_angle_beta   90.00042934
_cell_angle_gamma   89.99986723
_symmetry_Int_Tables_number   1
_chemical_formula_structural   SrCr2O4
_chemical_formula_sum   'Sr4 Cr8 O16'
_cell_volume   367.57370269
_cell_formula_units_Z   4
loop_
 _symmetry_equiv_pos_site_id
 _symmetry_equiv_pos_as_xyz
  1  'x, y, z'
loop_
 _atom_site_type_symbol
 _atom_site_label
 _atom_site_symmetry_multiplicity
 _atom_site_fract_x
 _atom_site_fract_y
 _atom_site_fract_z
 _atom_site_occupancy
  Sr  Sr0  1  0.85890100  0.25000500  0.74999900  1
  Sr  Sr1  1  0.14109800  0.75000700  0.25000300  1
  Sr  Sr2  1  0.54415200  0.24999000  0.24999400  1
  Sr  Sr3  1  0.45583000  0.74999800  0.75000000  1
  Cr  Cr4  1  0.50485500  0.75000500  0.00718400  1
  Cr  Cr5  1  0.49513600  0.25000100  0.99282300  1
  Cr  Cr6  1  0.99995800  0.50008700  0.49999500  1
  Cr  Cr7  1  0.99995300  0.99990400  0.49999900  1
  Cr  Cr8  1  0.50484300  0.75002300  0.49281700  1
  Cr  Cr9  1  0.49523200  0.24999300  0.50718600  1
  Cr  Cr10  1  0.00002300  0.00000000  0.00000200  1
  Cr  Cr11  1  0.00000300  0.50000400  0.99999800  1
  O  O12  1  0.83847400  0.74999500  0.40782600  1
  O  O13  1  0.83846600  0.75000600  0.09218300  1
  O  O14  1  0.16153700  0.24999800  0.59217900  1
  O  O15  1  0.16153300  0.25000800  0.90782200  1
  O  O16  1  0.17243500  0.74999300  0.58516300  1
  O  O17  1  0.17243200  0.74999600  0.91484200  1
  O  O18  1  0.82756400  0.24999800  0.41483400  1
  O  O19  1  0.82756300  0.25000000  0.08516100  1
  O  O20  1  0.66364400  0.50286200  0.59477200  1
  O  O21  1  0.66364700  0.99712100  0.90522400  1
  O  O22  1  0.33635700  0.00288000  0.40522600  1
  O  O23  1  0.33636300  0.49711700  0.09477500  1
  O  O24  1  0.33635500  0.49711700  0.40522400  1
  O  O25  1  0.33635500  0.00287900  0.09476900  1
  O  O26  1  0.66364000  0.99713200  0.59477200  1
  O  O27  1  0.66365000  0.50288200  0.90522600  1
