# generated using pymatgen
data_LiV3(TeO6)2
_symmetry_space_group_name_H-M   'P 1'
_cell_length_a   6.30189400
_cell_length_b   7.24644170
_cell_length_c   10.80606882
_cell_angle_alpha   91.42453925
_cell_angle_beta   93.23646218
_cell_angle_gamma   104.89916714
_symmetry_Int_Tables_number   1
_chemical_formula_structural   LiV3(TeO6)2
_chemical_formula_sum   'Li2 V6 Te4 O24'
_cell_volume   475.72531632
_cell_formula_units_Z   2
loop_
 _symmetry_equiv_pos_site_id
 _symmetry_equiv_pos_as_xyz
  1  'x, y, z'
loop_
 _atom_site_type_symbol
 _atom_site_label
 _atom_site_symmetry_multiplicity
 _atom_site_fract_x
 _atom_site_fract_y
 _atom_site_fract_z
 _atom_site_occupancy
  Li  Li0  1  0.78988800  0.77469600  0.10903400  1
  Li  Li1  1  0.21011200  0.22530400  0.89096600  1
  V  V2  1  0.38194800  0.80595500  0.57860900  1
  V  V3  1  0.61880300  0.22923500  0.08416000  1
  V  V4  1  0.38119700  0.77076500  0.91584000  1
  V  V5  1  0.65930500  0.21115200  0.75478100  1
  V  V6  1  0.61805200  0.19404500  0.42139100  1
  V  V7  1  0.34069500  0.78884800  0.24521900  1
  Te  Te8  1  0.16652600  0.21541200  0.59229400  1
  Te  Te9  1  0.85770300  0.81723000  0.78787700  1
  Te  Te10  1  0.83347400  0.78458800  0.40770600  1
  Te  Te11  1  0.14229700  0.18277000  0.21212300  1
  O  O12  1  0.09167100  0.90563800  0.21438200  1
  O  O13  1  0.48191800  0.84289800  0.74582300  1
  O  O14  1  0.37948500  0.88139500  0.40830700  1
  O  O15  1  0.29986200  0.22315100  0.06540300  1
  O  O16  1  0.70013800  0.77684900  0.93459700  1
  O  O17  1  0.20971600  0.59356600  0.57541200  1
  O  O18  1  0.18154300  0.57221800  0.24393600  1
  O  O19  1  0.79028400  0.40643400  0.42458800  1
  O  O20  1  0.85313600  0.05839000  0.40523600  1
  O  O21  1  0.14686400  0.94161000  0.59476400  1
  O  O22  1  0.26726200  0.54234200  0.90517200  1
  O  O23  1  0.90832900  0.09436200  0.78561800  1
  O  O24  1  0.51808200  0.15710200  0.25417700  1
  O  O25  1  0.81845700  0.42778200  0.75606400  1
  O  O26  1  0.62051500  0.11860500  0.59169300  1
  O  O27  1  0.73273800  0.45765800  0.09482800  1
  O  O28  1  0.62577300  0.73095200  0.26701400  1
  O  O29  1  0.41523800  0.83885900  0.08088200  1
  O  O30  1  0.85773600  0.12643100  0.11730000  1
  O  O31  1  0.14226400  0.87356900  0.88270000  1
  O  O32  1  0.37422700  0.26904800  0.73298600  1
  O  O33  1  0.35547100  0.26573000  0.45763200  1
  O  O34  1  0.64452900  0.73427000  0.54236800  1
  O  O35  1  0.58476200  0.16114100  0.91911800  1
