# generated using pymatgen
data_Th(TeO3)2
_symmetry_space_group_name_H-M   'P 1'
_cell_length_a   11.42985000
_cell_length_b   7.27245300
_cell_length_c   8.84018059
_cell_angle_alpha   55.70365632
_cell_angle_beta   90.00000000
_cell_angle_gamma   90.00000000
_symmetry_Int_Tables_number   1
_chemical_formula_structural   Th(TeO3)2
_chemical_formula_sum   'Th4 Te8 O24'
_cell_volume   607.06224133
_cell_formula_units_Z   4
loop_
 _symmetry_equiv_pos_site_id
 _symmetry_equiv_pos_as_xyz
  1  'x, y, z'
loop_
 _atom_site_type_symbol
 _atom_site_label
 _atom_site_symmetry_multiplicity
 _atom_site_fract_x
 _atom_site_fract_y
 _atom_site_fract_z
 _atom_site_occupancy
  Th  Th0  1  0.09139700  0.25350500  0.00364900  1
  Th  Th1  1  0.59139700  0.74649500  0.49635100  1
  Th  Th2  1  0.90860300  0.74649500  0.99635100  1
  Th  Th3  1  0.40860300  0.25350500  0.50364900  1
  Te  Te4  1  0.27859300  0.80897000  0.42481000  1
  Te  Te5  1  0.77859300  0.19103000  0.07519000  1
  Te  Te6  1  0.72140700  0.19103000  0.57519000  1
  Te  Te7  1  0.22140700  0.80897000  0.92481000  1
  Te  Te8  1  0.92156900  0.72566800  0.54937200  1
  Te  Te9  1  0.42156900  0.27433200  0.95062800  1
  Te  Te10  1  0.07843100  0.27433200  0.45062800  1
  Te  Te11  1  0.57843100  0.72566800  0.04937200  1
  O  O12  1  0.24977200  0.96551000  0.17035800  1
  O  O13  1  0.74977200  0.03449000  0.32964200  1
  O  O14  1  0.75022800  0.03449000  0.82964200  1
  O  O15  1  0.25022800  0.96551000  0.67035800  1
  O  O16  1  0.40247700  0.99853000  0.40879700  1
  O  O17  1  0.90247700  0.00147000  0.09120300  1
  O  O18  1  0.59752300  0.00147000  0.59120300  1
  O  O19  1  0.09752300  0.99853000  0.90879700  1
  O  O20  1  0.40217900  0.61344800  0.45340400  1
  O  O21  1  0.90217900  0.38655200  0.04659600  1
  O  O22  1  0.59782100  0.38655200  0.54659600  1
  O  O23  1  0.09782100  0.61344800  0.95340400  1
  O  O24  1  0.01673000  0.47213200  0.70972200  1
  O  O25  1  0.51673000  0.52786800  0.79027800  1
  O  O26  1  0.98327000  0.52786800  0.29027800  1
  O  O27  1  0.48327000  0.47213200  0.20972200  1
  O  O28  1  0.90175400  0.85370900  0.68719800  1
  O  O29  1  0.40175400  0.14629100  0.81280200  1
  O  O30  1  0.09824600  0.14629100  0.31280200  1
  O  O31  1  0.59824600  0.85370900  0.18719800  1
  O  O32  1  0.77619400  0.57365100  0.61378400  1
  O  O33  1  0.27619400  0.42634900  0.88621600  1
  O  O34  1  0.22380600  0.42634900  0.38621600  1
  O  O35  1  0.72380600  0.57365100  0.11378400  1
