# generated using pymatgen
data_RbGd(PO3)4
_symmetry_space_group_name_H-M   'P 1'
_cell_length_a   9.05160400
_cell_length_b   10.51824400
_cell_length_c   12.96664480
_cell_angle_alpha   55.34479801
_cell_angle_beta   90.00000000
_cell_angle_gamma   90.00000000
_symmetry_Int_Tables_number   1
_chemical_formula_structural   RbGd(PO3)4
_chemical_formula_sum   'Rb4 Gd4 P16 O48'
_cell_volume   1015.49839808
_cell_formula_units_Z   4
loop_
 _symmetry_equiv_pos_site_id
 _symmetry_equiv_pos_as_xyz
  1  'x, y, z'
loop_
 _atom_site_type_symbol
 _atom_site_label
 _atom_site_symmetry_multiplicity
 _atom_site_fract_x
 _atom_site_fract_y
 _atom_site_fract_z
 _atom_site_occupancy
  Rb  Rb0  1  0.93231400  0.23657600  0.95819700  1
  Rb  Rb1  1  0.56768600  0.23657600  0.45819700  1
  Rb  Rb2  1  0.06768600  0.76342400  0.04180300  1
  Rb  Rb3  1  0.43231400  0.76342400  0.54180300  1
  Gd  Gd4  1  0.22681900  0.31576900  0.68313700  1
  Gd  Gd5  1  0.72681900  0.68423100  0.81686300  1
  Gd  Gd6  1  0.77318100  0.68423100  0.31686300  1
  Gd  Gd7  1  0.27318100  0.31576900  0.18313700  1
  P  P8  1  0.10739200  0.19858300  0.47749700  1
  P  P9  1  0.60739200  0.80141700  0.02250300  1
  P  P10  1  0.89260800  0.80141700  0.52250300  1
  P  P11  1  0.59277100  0.38702600  0.75904200  1
  P  P12  1  0.90722900  0.38702600  0.25904200  1
  P  P13  1  0.40722900  0.61297400  0.24095800  1
  P  P14  1  0.32780500  0.67714600  0.86266400  1
  P  P15  1  0.82780500  0.32285400  0.63733600  1
  P  P16  1  0.97376900  0.02603100  0.72262700  1
  P  P17  1  0.17219500  0.67714600  0.36266400  1
  P  P18  1  0.39260800  0.19858300  0.97749700  1
  P  P19  1  0.47376900  0.97396900  0.77737300  1
  P  P20  1  0.52623100  0.02603100  0.22262700  1
  P  P21  1  0.09277100  0.61297400  0.74095800  1
  P  P22  1  0.67219500  0.32285400  0.13733600  1
  P  P23  1  0.02623100  0.97396900  0.27737300  1
  O  O24  1  0.79004200  0.83743700  0.59370200  1
  O  O25  1  0.45484600  0.04011800  0.10127400  1
  O  O26  1  0.91574300  0.92995900  0.21588900  1
  O  O27  1  0.79223200  0.27753700  0.24665300  1
  O  O28  1  0.84238400  0.15437500  0.66042000  1
  O  O29  1  0.04515400  0.04011800  0.60127400  1
  O  O30  1  0.20776800  0.72246300  0.75334700  1
  O  O31  1  0.54861000  0.26519300  0.90376600  1
  O  O32  1  0.95484600  0.95988200  0.39872600  1
  O  O33  1  0.65761600  0.15437500  0.16042000  1
  O  O34  1  0.45139000  0.73480700  0.09623400  1
  O  O35  1  0.24156100  0.57303800  0.48919400  1
  O  O36  1  0.08425700  0.07004100  0.78411100  1
  O  O37  1  0.25843900  0.57303800  0.98919400  1
  O  O38  1  0.67726400  0.51787600  0.74590800  1
  O  O39  1  0.83712100  0.70094900  0.48305800  1
  O  O40  1  0.41574300  0.07004100  0.28411100  1
  O  O41  1  0.16287900  0.29905100  0.51694200  1
  O  O42  1  0.74156100  0.42696200  0.01080600  1
  O  O43  1  0.66287900  0.70094900  0.98305800  1
  O  O44  1  0.75843900  0.42696200  0.51080600  1
  O  O45  1  0.29004200  0.16256300  0.90629800  1
  O  O46  1  0.53870500  0.57586400  0.32417900  1
  O  O47  1  0.70776800  0.27753700  0.74665300  1
  O  O48  1  0.59410900  0.86855900  0.30265100  1
  O  O49  1  0.20995800  0.16256300  0.40629800  1
  O  O50  1  0.29223200  0.72246300  0.25334700  1
  O  O51  1  0.03870500  0.42413600  0.17582100  1
  O  O52  1  0.04861000  0.73480700  0.59623400  1
  O  O53  1  0.96871900  0.36550100  0.67143800  1
  O  O54  1  0.96129500  0.57586400  0.82417900  1
  O  O55  1  0.03128100  0.63449900  0.32856200  1
  O  O56  1  0.15761600  0.84562500  0.33958000  1
  O  O57  1  0.09410900  0.13144100  0.19734900  1
  O  O58  1  0.53128100  0.36550100  0.17143800  1
  O  O59  1  0.90589100  0.86855900  0.80265100  1
  O  O60  1  0.33712100  0.29905100  0.01694200  1
  O  O61  1  0.40589100  0.13144100  0.69734900  1
  O  O62  1  0.34238400  0.84562500  0.83958000  1
  O  O63  1  0.95139000  0.26519300  0.40376600  1
  O  O64  1  0.17726400  0.48212400  0.75409200  1
  O  O65  1  0.82273600  0.51787600  0.24590800  1
  O  O66  1  0.46129500  0.42413600  0.67582100  1
  O  O67  1  0.58425700  0.92995900  0.71588900  1
  O  O68  1  0.32273600  0.48212400  0.25409200  1
  O  O69  1  0.70995800  0.83743700  0.09370200  1
  O  O70  1  0.46871900  0.63449900  0.82856200  1
  O  O71  1  0.54515400  0.95988200  0.89872600  1
