# generated using pymatgen
data_CsTa2P5O18
_symmetry_space_group_name_H-M   'P 1'
_cell_length_a   5.21568600
_cell_length_b   11.08139115
_cell_length_c   14.62809170
_cell_angle_alpha   82.94516527
_cell_angle_beta   87.14543443
_cell_angle_gamma   85.12354571
_symmetry_Int_Tables_number   1
_chemical_formula_structural   CsTa2P5O18
_chemical_formula_sum   'Cs2 Ta4 P10 O36'
_cell_volume   835.36001588
_cell_formula_units_Z   2
loop_
 _symmetry_equiv_pos_site_id
 _symmetry_equiv_pos_as_xyz
  1  'x, y, z'
loop_
 _atom_site_type_symbol
 _atom_site_label
 _atom_site_symmetry_multiplicity
 _atom_site_fract_x
 _atom_site_fract_y
 _atom_site_fract_z
 _atom_site_occupancy
  Cs  Cs0  1  0.71354400  0.90336800  0.62087400  1
  Cs  Cs1  1  0.28645600  0.09663200  0.37912600  1
  Ta  Ta2  1  0.70543500  0.71012800  0.99108100  1
  Ta  Ta3  1  0.74994200  0.44262200  0.64684700  1
  Ta  Ta4  1  0.25005800  0.55737800  0.35315300  1
  Ta  Ta5  1  0.29456500  0.28987200  0.00891900  1
  P  P6  1  0.22346000  0.62838500  0.57743900  1
  P  P7  1  0.80305800  0.15033800  0.13902000  1
  P  P8  1  0.21313800  0.55440500  0.11179900  1
  P  P9  1  0.77654000  0.37161500  0.42256100  1
  P  P10  1  0.70745900  0.76874900  0.33156100  1
  P  P11  1  0.29254100  0.23125100  0.66843900  1
  P  P12  1  0.60125000  0.91304900  0.15354900  1
  P  P13  1  0.78686200  0.44559500  0.88820100  1
  P  P14  1  0.19694200  0.84966200  0.86098000  1
  P  P15  1  0.39875000  0.08695100  0.84645100  1
  O  O16  1  0.18660100  0.42597200  0.08385500  1
  O  O17  1  0.68457200  0.86139900  0.39660000  1
  O  O18  1  0.81590800  0.15537400  0.23868400  1
  O  O19  1  0.96050500  0.80708600  0.92275100  1
  O  O20  1  0.81339900  0.57402800  0.91614500  1
  O  O21  1  0.43960300  0.55558700  0.63843400  1
  O  O22  1  0.96347400  0.58425000  0.62311100  1
  O  O23  1  0.23665100  0.76217000  0.56538500  1
  O  O24  1  0.97487900  0.63893900  0.08118800  1
  O  O25  1  0.64817000  0.03804700  0.80938900  1
  O  O26  1  0.56328800  0.22561600  0.09349900  1
  O  O27  1  0.76334900  0.23783000  0.43461500  1
  O  O28  1  0.35183000  0.96195300  0.19061100  1
  O  O29  1  0.54190400  0.39677400  0.93781500  1
  O  O30  1  0.22474600  0.17194300  0.77398400  1
  O  O31  1  0.25416700  0.57023400  0.48349100  1
  O  O32  1  0.03949500  0.19291400  0.07724900  1
  O  O33  1  0.93645700  0.66988800  0.34478500  1
  O  O34  1  0.53592300  0.30112500  0.67662400  1
  O  O35  1  0.03652600  0.41575000  0.37688900  1
  O  O36  1  0.21057300  0.98512200  0.88984800  1
  O  O37  1  0.06354300  0.33011200  0.65521500  1
  O  O38  1  0.77525400  0.82805700  0.22601600  1
  O  O39  1  0.78942700  0.01487800  0.11015200  1
  O  O40  1  0.45809600  0.60322600  0.06218500  1
  O  O41  1  0.74583300  0.42976600  0.51650900  1
  O  O42  1  0.76262000  0.45422800  0.78419500  1
  O  O43  1  0.60020800  0.83603300  0.07134400  1
  O  O44  1  0.23738000  0.54577200  0.21580500  1
  O  O45  1  0.02512100  0.36106100  0.91881200  1
  O  O46  1  0.31542800  0.13860100  0.60340000  1
  O  O47  1  0.18409200  0.84462600  0.76131600  1
  O  O48  1  0.39979200  0.16396700  0.92865600  1
  O  O49  1  0.43671200  0.77438400  0.90650100  1
  O  O50  1  0.46407700  0.69887500  0.32337600  1
  O  O51  1  0.56039700  0.44441300  0.36156600  1
