# generated using pymatgen
data_Rb4V5CdClO15
_symmetry_space_group_name_H-M   'P 1'
_cell_length_a   9.28674300
_cell_length_b   9.28674300
_cell_length_c   5.78633300
_cell_angle_alpha   90.00000000
_cell_angle_beta   90.00000000
_cell_angle_gamma   90.00000000
_symmetry_Int_Tables_number   1
_chemical_formula_structural   Rb4V5CdClO15
_chemical_formula_sum   'Rb4 V5 Cd1 Cl1 O15'
_cell_volume   499.03416296
_cell_formula_units_Z   1
loop_
 _symmetry_equiv_pos_site_id
 _symmetry_equiv_pos_as_xyz
  1  'x, y, z'
loop_
 _atom_site_type_symbol
 _atom_site_label
 _atom_site_symmetry_multiplicity
 _atom_site_fract_x
 _atom_site_fract_y
 _atom_site_fract_z
 _atom_site_occupancy
  Rb  Rb0  1  0.67648600  0.83523900  0.93796600  1
  Rb  Rb1  1  0.16476100  0.67648600  0.93796600  1
  Rb  Rb2  1  0.32351400  0.16476100  0.93796600  1
  Rb  Rb3  1  0.83523900  0.32351400  0.93796600  1
  V  V4  1  0.61763800  0.14266300  0.46111500  1
  V  V5  1  0.14266300  0.38236200  0.46111500  1
  V  V6  1  0.38236200  0.85733700  0.46111500  1
  V  V7  1  0.50000000  0.50000000  0.48879300  1
  V  V8  1  0.85733700  0.61763800  0.46111500  1
  Cd  Cd9  1  0.00000000  0.00000000  0.48957500  1
  Cl  Cl10  1  0.00000000  0.00000000  0.04385800  1
  O  O11  1  0.14302800  0.38528100  0.17268700  1
  O  O12  1  0.00000000  0.50000000  0.57203300  1
  O  O13  1  0.78735100  0.11229100  0.56235100  1
  O  O14  1  0.11229100  0.21264900  0.56235100  1
  O  O15  1  0.61471900  0.14302800  0.17268700  1
  O  O16  1  0.50000000  0.50000000  0.20819600  1
  O  O17  1  0.21264900  0.88770900  0.56235100  1
  O  O18  1  0.44575500  0.68982600  0.57563500  1
  O  O19  1  0.68982600  0.55424500  0.57563500  1
  O  O20  1  0.31017400  0.44575500  0.57563500  1
  O  O21  1  0.50000000  0.00000000  0.57203300  1
  O  O22  1  0.38528100  0.85697200  0.17268700  1
  O  O23  1  0.88770900  0.78735100  0.56235100  1
  O  O24  1  0.85697200  0.61471900  0.17268700  1
  O  O25  1  0.55424500  0.31017400  0.57563500  1
