# generated using pymatgen
data_Rb3Hg2S3ClO12
_symmetry_space_group_name_H-M   'P 1'
_cell_length_a   10.04379600
_cell_length_b   8.08149000
_cell_length_c   10.24350348
_cell_angle_alpha   69.11744565
_cell_angle_beta   90.00000000
_cell_angle_gamma   90.00000000
_symmetry_Int_Tables_number   1
_chemical_formula_structural   Rb3Hg2S3ClO12
_chemical_formula_sum   'Rb6 Hg4 S6 Cl2 O24'
_cell_volume   776.83763636
_cell_formula_units_Z   2
loop_
 _symmetry_equiv_pos_site_id
 _symmetry_equiv_pos_as_xyz
  1  'x, y, z'
loop_
 _atom_site_type_symbol
 _atom_site_label
 _atom_site_symmetry_multiplicity
 _atom_site_fract_x
 _atom_site_fract_y
 _atom_site_fract_z
 _atom_site_occupancy
  Rb  Rb0  1  0.75039700  0.90181100  0.26787400  1
  Rb  Rb1  1  0.44591200  0.32409100  0.30134000  1
  Rb  Rb2  1  0.25039700  0.09818900  0.73212600  1
  Rb  Rb3  1  0.94591200  0.67590900  0.69866000  1
  Rb  Rb4  1  0.11843000  0.68355600  0.13105100  1
  Rb  Rb5  1  0.61843000  0.31644400  0.86894900  1
  Hg  Hg6  1  0.57292300  0.75985400  0.95277300  1
  Hg  Hg7  1  0.85135400  0.26483900  0.50050500  1
  Hg  Hg8  1  0.35135400  0.73516100  0.49949500  1
  Hg  Hg9  1  0.07292300  0.24014600  0.04722700  1
  S  S10  1  0.90296300  0.02933600  0.89163200  1
  S  S11  1  0.60791500  0.90618100  0.60887300  1
  S  S12  1  0.78990400  0.45117900  0.14026700  1
  S  S13  1  0.28990400  0.54882100  0.85973300  1
  S  S14  1  0.10791500  0.09381900  0.39112700  1
  S  S15  1  0.40296300  0.97066400  0.10836800  1
  Cl  Cl16  1  0.19731100  0.52410900  0.47998900  1
  Cl  Cl17  1  0.69731100  0.47589100  0.52001100  1
  O  O18  1  0.75873400  0.98440800  0.90735700  1
  O  O19  1  0.48329600  0.10111000  0.14403300  1
  O  O20  1  0.34445600  0.41184000  0.81142400  1
  O  O21  1  0.36584500  0.56450400  0.97978500  1
  O  O22  1  0.94879500  0.02228300  0.03855500  1
  O  O23  1  0.44879500  0.97771700  0.96144500  1
  O  O24  1  0.74445900  0.96217400  0.55431900  1
  O  O25  1  0.27957800  0.72415600  0.74392300  1
  O  O26  1  0.61685600  0.73475500  0.73176500  1
  O  O27  1  0.53419600  0.04237000  0.64179800  1
  O  O28  1  0.98329600  0.89889000  0.85596700  1
  O  O29  1  0.92293500  0.21222300  0.79039700  1
  O  O30  1  0.86584500  0.43549600  0.02021500  1
  O  O31  1  0.14526400  0.50286800  0.91012200  1
  O  O32  1  0.24445900  0.03782600  0.44568100  1
  O  O33  1  0.53917900  0.86713300  0.48800600  1
  O  O34  1  0.03917900  0.13286700  0.51199400  1
  O  O35  1  0.11685600  0.26524500  0.26823500  1
  O  O36  1  0.64526400  0.49713200  0.08987800  1
  O  O37  1  0.25873400  0.01559200  0.09264300  1
  O  O38  1  0.42293500  0.78777700  0.20960300  1
  O  O39  1  0.03419600  0.95763000  0.35820200  1
  O  O40  1  0.77957800  0.27584400  0.25607700  1
  O  O41  1  0.84445600  0.58816000  0.18857600  1
