# generated using pymatgen
data_Rb2GdGa(SiO3)4
_symmetry_space_group_name_H-M   'P 1'
_cell_length_a   14.14540387
_cell_length_b   14.14540387
_cell_length_c   15.08151053
_cell_angle_alpha   58.00522933
_cell_angle_beta   58.00522933
_cell_angle_gamma   30.36491332
_symmetry_Int_Tables_number   1
_chemical_formula_structural   Rb2GdGa(SiO3)4
_chemical_formula_sum   'Rb8 Gd4 Ga4 Si16 O48'
_cell_volume   1275.01140082
_cell_formula_units_Z   4
loop_
 _symmetry_equiv_pos_site_id
 _symmetry_equiv_pos_as_xyz
  1  'x, y, z'
loop_
 _atom_site_type_symbol
 _atom_site_label
 _atom_site_symmetry_multiplicity
 _atom_site_fract_x
 _atom_site_fract_y
 _atom_site_fract_z
 _atom_site_occupancy
  Rb  Rb0  1  0.68858600  0.69506700  0.03386500  1
  Rb  Rb1  1  0.31141400  0.30493300  0.96613500  1
  Rb  Rb2  1  0.30493300  0.31141400  0.46613500  1
  Rb  Rb3  1  0.69506700  0.68858600  0.53386500  1
  Rb  Rb4  1  0.22778500  0.70265500  0.95286200  1
  Rb  Rb5  1  0.29734500  0.77221500  0.54713800  1
  Rb  Rb6  1  0.77221500  0.29734500  0.04713800  1
  Rb  Rb7  1  0.70265500  0.22778500  0.45286200  1
  Gd  Gd8  1  0.48616300  0.05151600  0.75001900  1
  Gd  Gd9  1  0.51383700  0.94848400  0.24998100  1
  Gd  Gd10  1  0.94848400  0.51383700  0.74998100  1
  Gd  Gd11  1  0.05151600  0.48616300  0.25001900  1
  Ga  Ga12  1  0.62895900  0.23119500  0.72623800  1
  Ga  Ga13  1  0.23119500  0.62895900  0.22623800  1
  Ga  Ga14  1  0.37104100  0.76880500  0.27376200  1
  Ga  Ga15  1  0.76880500  0.37104100  0.77376200  1
  Si  Si16  1  0.76058500  0.47831100  0.33907600  1
  Si  Si17  1  0.23941500  0.52168900  0.66092400  1
  Si  Si18  1  0.19539300  0.13958500  0.49124100  1
  Si  Si19  1  0.83258900  0.29186300  0.57733700  1
  Si  Si20  1  0.70813700  0.16741100  0.92266300  1
  Si  Si21  1  0.86155600  0.81432700  0.79533700  1
  Si  Si22  1  0.16741100  0.70813700  0.42266300  1
  Si  Si23  1  0.80460700  0.86041500  0.50875900  1
  Si  Si24  1  0.47831100  0.76058500  0.83907600  1
  Si  Si25  1  0.13844400  0.18567300  0.20466300  1
  Si  Si26  1  0.52168900  0.23941500  0.16092400  1
  Si  Si27  1  0.81432700  0.86155600  0.29533700  1
  Si  Si28  1  0.86041500  0.80460700  0.00875900  1
  Si  Si29  1  0.29186300  0.83258900  0.07733700  1
  Si  Si30  1  0.18567300  0.13844400  0.70466300  1
  Si  Si31  1  0.13958500  0.19539300  0.99124100  1
  O  O32  1  0.65234500  0.92293900  0.07461400  1
  O  O33  1  0.34765500  0.07706100  0.92538600  1
  O  O34  1  0.56202100  0.25578000  0.03226700  1
  O  O35  1  0.08135700  0.26910900  0.08984600  1
  O  O36  1  0.26910900  0.08135700  0.58984600  1
  O  O37  1  0.58542500  0.56088700  0.33275300  1
  O  O38  1  0.61033900  0.76406500  0.77458200  1
  O  O39  1  0.73083800  0.04348300  0.20062900  1
  O  O40  1  0.91864300  0.73089100  0.91015400  1
  O  O41  1  0.96733400  0.37864000  0.92422900  1
  O  O42  1  0.42960600  0.70705200  0.15727600  1
  O  O43  1  0.56088700  0.58542500  0.83275300  1
  O  O44  1  0.05844800  0.13638800  0.55588800  1
  O  O45  1  0.95651700  0.26916200  0.29937100  1
  O  O46  1  0.74422000  0.43797900  0.46773300  1
  O  O47  1  0.20250500  0.24230500  0.20160900  1
  O  O48  1  0.62136000  0.03266600  0.57577100  1
  O  O49  1  0.26916200  0.95651700  0.79937100  1
  O  O50  1  0.76406500  0.61033900  0.27458200  1
  O  O51  1  0.73089100  0.91864300  0.41015400  1
  O  O52  1  0.04752900  0.67144700  0.27010400  1
  O  O53  1  0.03266600  0.62136000  0.07577100  1
  O  O54  1  0.16974400  0.81909900  0.12141100  1
  O  O55  1  0.70705200  0.42960600  0.65727600  1
  O  O56  1  0.41457500  0.43911300  0.66724700  1
  O  O57  1  0.18090100  0.83025600  0.37858900  1
  O  O58  1  0.67144700  0.04752900  0.77010400  1
  O  O59  1  0.75769500  0.79749500  0.29839100  1
  O  O60  1  0.83025600  0.18090100  0.87858900  1
  O  O61  1  0.43911300  0.41457500  0.16724700  1
  O  O62  1  0.07706100  0.34765500  0.42538600  1
  O  O63  1  0.92293900  0.65234500  0.57461400  1
  O  O64  1  0.23593500  0.38966100  0.72541800  1
  O  O65  1  0.57039400  0.29294800  0.84272400  1
  O  O66  1  0.38966100  0.23593500  0.22541800  1
  O  O67  1  0.94155200  0.86361200  0.44411200  1
  O  O68  1  0.25578000  0.56202100  0.53226700  1
  O  O69  1  0.32855300  0.95247100  0.22989600  1
  O  O70  1  0.37864000  0.96733400  0.42422900  1
  O  O71  1  0.29294800  0.57039400  0.34272400  1
  O  O72  1  0.81909900  0.16974400  0.62141100  1
  O  O73  1  0.79749500  0.75769500  0.79839100  1
  O  O74  1  0.13638800  0.05844800  0.05588800  1
  O  O75  1  0.86361200  0.94155200  0.94411200  1
  O  O76  1  0.43797900  0.74422000  0.96773300  1
  O  O77  1  0.04348300  0.73083800  0.70062900  1
  O  O78  1  0.95247100  0.32855300  0.72989600  1
  O  O79  1  0.24230500  0.20250500  0.70160900  1
