# generated using pymatgen
data_RuF5
_symmetry_space_group_name_H-M   'P 1'
_cell_length_a   10.21848300
_cell_length_b   5.63345100
_cell_length_c   12.83177334
_cell_angle_alpha   79.52558382
_cell_angle_beta   90.00000000
_cell_angle_gamma   90.00000000
_symmetry_Int_Tables_number   1
_chemical_formula_structural   RuF5
_chemical_formula_sum   'Ru8 F40'
_cell_volume   726.35619812
_cell_formula_units_Z   8
loop_
 _symmetry_equiv_pos_site_id
 _symmetry_equiv_pos_as_xyz
  1  'x, y, z'
loop_
 _atom_site_type_symbol
 _atom_site_label
 _atom_site_symmetry_multiplicity
 _atom_site_fract_x
 _atom_site_fract_y
 _atom_site_fract_z
 _atom_site_occupancy
  Ru  Ru0  1  0.74686700  0.00518200  0.00128800  1
  Ru  Ru1  1  0.24686700  0.99481800  0.49871200  1
  Ru  Ru2  1  0.25313300  0.99481800  0.99871200  1
  Ru  Ru3  1  0.75313300  0.00518200  0.50128800  1
  Ru  Ru4  1  0.99576900  0.69616600  0.19863000  1
  Ru  Ru5  1  0.49576900  0.30383400  0.30137000  1
  Ru  Ru6  1  0.00423100  0.30383400  0.80137000  1
  Ru  Ru7  1  0.50423100  0.69616600  0.69863000  1
  F  F8  1  0.90914000  0.80683700  0.05464000  1
  F  F9  1  0.40914000  0.19316300  0.44536000  1
  F  F10  1  0.09086000  0.19316300  0.94536000  1
  F  F11  1  0.59086000  0.80683700  0.55464000  1
  F  F12  1  0.66790800  0.90118200  0.13062800  1
  F  F13  1  0.16790800  0.09881800  0.36937200  1
  F  F14  1  0.33209200  0.09881800  0.86937200  1
  F  F15  1  0.83209200  0.90118200  0.63062800  1
  F  F16  1  0.08373000  0.60867700  0.32501000  1
  F  F17  1  0.58373000  0.39132300  0.17499000  1
  F  F18  1  0.91627000  0.39132300  0.67499000  1
  F  F19  1  0.41627000  0.60867700  0.82501000  1
  F  F20  1  0.84781700  0.52334000  0.24581800  1
  F  F21  1  0.34781700  0.47666000  0.25418200  1
  F  F22  1  0.15218300  0.47666000  0.75418200  1
  F  F23  1  0.65218300  0.52334000  0.74581800  1
  F  F24  1  0.60548700  0.18776400  0.94567400  1
  F  F25  1  0.10548700  0.81223600  0.55432600  1
  F  F26  1  0.39451300  0.81223600  0.05432600  1
  F  F27  1  0.89451300  0.18776400  0.44567400  1
  F  F28  1  0.84573000  0.10153500  0.86167100  1
  F  F29  1  0.34573000  0.89846500  0.63832900  1
  F  F30  1  0.15427000  0.89846500  0.13832900  1
  F  F31  1  0.65427000  0.10153500  0.36167100  1
  F  F32  1  0.82474500  0.26810400  0.04718000  1
  F  F33  1  0.32474500  0.73189600  0.45282000  1
  F  F34  1  0.17525500  0.73189600  0.95282000  1
  F  F35  1  0.67525500  0.26810400  0.54718000  1
  F  F36  1  0.06686800  0.43877300  0.14430700  1
  F  F37  1  0.56686800  0.56122700  0.35569300  1
  F  F38  1  0.93313200  0.56122700  0.85569300  1
  F  F39  1  0.43313200  0.43877300  0.64430700  1
  F  F40  1  0.92986100  0.97565400  0.23885100  1
  F  F41  1  0.42986100  0.02434600  0.26114900  1
  F  F42  1  0.07013900  0.02434600  0.76114900  1
  F  F43  1  0.57013900  0.97565400  0.73885100  1
  F  F44  1  0.68741200  0.73611700  0.94903200  1
  F  F45  1  0.18741200  0.26388300  0.55096800  1
  F  F46  1  0.31258800  0.26388300  0.05096800  1
  F  F47  1  0.81258800  0.73611700  0.44903200  1
