# generated using pymatgen
data_K6NaAu2IO8
_symmetry_space_group_name_H-M   'P 1'
_cell_length_a   9.97793400
_cell_length_b   7.17724500
_cell_length_c   12.14657518
_cell_angle_alpha   57.10189490
_cell_angle_beta   90.00000000
_cell_angle_gamma   90.00000000
_symmetry_Int_Tables_number   1
_chemical_formula_structural   K6NaAu2IO8
_chemical_formula_sum   'K12 Na2 Au4 I2 O16'
_cell_volume   730.37220494
_cell_formula_units_Z   2
loop_
 _symmetry_equiv_pos_site_id
 _symmetry_equiv_pos_as_xyz
  1  'x, y, z'
loop_
 _atom_site_type_symbol
 _atom_site_label
 _atom_site_symmetry_multiplicity
 _atom_site_fract_x
 _atom_site_fract_y
 _atom_site_fract_z
 _atom_site_occupancy
  K  K0  1  0.66073200  0.98797300  0.41065200  1
  K  K1  1  0.35712000  0.00000000  0.25000000  1
  K  K2  1  0.81623900  0.47328800  0.41203600  1
  K  K3  1  0.15720800  0.50000000  0.25000000  1
  K  K4  1  0.33926800  0.98797300  0.91065200  1
  K  K5  1  0.84279200  0.50000000  0.75000000  1
  K  K6  1  0.18376100  0.47328800  0.91203600  1
  K  K7  1  0.66073200  0.01202700  0.08934800  1
  K  K8  1  0.64288000  0.00000000  0.75000000  1
  K  K9  1  0.33926800  0.01202700  0.58934800  1
  K  K10  1  0.18376100  0.52671200  0.58796400  1
  K  K11  1  0.81623900  0.52671200  0.08796400  1
  Na  Na12  1  0.50602700  0.50000000  0.75000000  1
  Na  Na13  1  0.49397300  0.50000000  0.25000000  1
  Au  Au14  1  0.04333500  0.00000000  0.75000000  1
  Au  Au15  1  0.95666500  0.00000000  0.25000000  1
  Au  Au16  1  0.00000000  0.00000000  0.50000000  1
  Au  Au17  1  0.00000000  0.00000000  0.00000000  1
  I  I18  1  0.50000000  0.50000000  0.50000000  1
  I  I19  1  0.50000000  0.50000000  0.00000000  1
  O  O20  1  0.57235900  0.73700700  0.01317000  1
  O  O21  1  0.05263600  0.78324500  0.69034000  1
  O  O22  1  0.94736400  0.21675500  0.30966000  1
  O  O23  1  0.41998600  0.71053700  0.83354300  1
  O  O24  1  0.66002700  0.49929000  0.59094200  1
  O  O25  1  0.33997300  0.50071000  0.40905800  1
  O  O26  1  0.42764100  0.73700700  0.51317000  1
  O  O27  1  0.58001400  0.71053700  0.33354300  1
  O  O28  1  0.57235900  0.26299300  0.48683000  1
  O  O29  1  0.58001400  0.28946300  0.16645700  1
  O  O30  1  0.05263600  0.21675500  0.80966000  1
  O  O31  1  0.94736400  0.78324500  0.19034000  1
  O  O32  1  0.41998600  0.28946300  0.66645700  1
  O  O33  1  0.33997300  0.49929000  0.09094200  1
  O  O34  1  0.66002700  0.50071000  0.90905800  1
  O  O35  1  0.42764100  0.26299300  0.98683000  1
