# generated using pymatgen
data_Rb3(FeSe2)2
_symmetry_space_group_name_H-M   'P 1'
_cell_length_a   7.83148100
_cell_length_b   11.38354000
_cell_length_c   12.66780300
_cell_angle_alpha   90.00000000
_cell_angle_beta   90.00000000
_cell_angle_gamma   90.00000000
_symmetry_Int_Tables_number   1
_chemical_formula_structural   Rb3(FeSe2)2
_chemical_formula_sum   'Rb12 Fe8 Se16'
_cell_volume   1129.33434891
_cell_formula_units_Z   4
loop_
 _symmetry_equiv_pos_site_id
 _symmetry_equiv_pos_as_xyz
  1  'x, y, z'
loop_
 _atom_site_type_symbol
 _atom_site_label
 _atom_site_symmetry_multiplicity
 _atom_site_fract_x
 _atom_site_fract_y
 _atom_site_fract_z
 _atom_site_occupancy
  Rb  Rb0  1  0.91373400  0.75000000  0.23253600  1
  Rb  Rb1  1  0.07117500  0.42978000  0.13633700  1
  Rb  Rb2  1  0.92882500  0.57022000  0.86366300  1
  Rb  Rb3  1  0.92882500  0.92978000  0.86366300  1
  Rb  Rb4  1  0.41373400  0.75000000  0.26746400  1
  Rb  Rb5  1  0.07117500  0.07022000  0.13633700  1
  Rb  Rb6  1  0.58626600  0.25000000  0.73253600  1
  Rb  Rb7  1  0.42882500  0.57022000  0.63633700  1
  Rb  Rb8  1  0.42882500  0.92978000  0.63633700  1
  Rb  Rb9  1  0.57117500  0.07022000  0.36366300  1
  Rb  Rb10  1  0.57117500  0.42978000  0.36366300  1
  Rb  Rb11  1  0.08626600  0.25000000  0.76746400  1
  Fe  Fe12  1  0.54968400  0.36685600  0.02891100  1
  Fe  Fe13  1  0.04968400  0.13314400  0.47108900  1
  Fe  Fe14  1  0.45031600  0.86685600  0.97108900  1
  Fe  Fe15  1  0.54968400  0.13314400  0.02891100  1
  Fe  Fe16  1  0.95031600  0.63314400  0.52891100  1
  Fe  Fe17  1  0.95031600  0.86685600  0.52891100  1
  Fe  Fe18  1  0.04968400  0.36685600  0.47108900  1
  Fe  Fe19  1  0.45031600  0.63314400  0.97108900  1
  Se  Se20  1  0.58644100  0.75000000  0.83794800  1
  Se  Se21  1  0.91355900  0.25000000  0.33794800  1
  Se  Se22  1  0.41355900  0.25000000  0.16205200  1
  Se  Se23  1  0.20808100  0.75000000  0.03231700  1
  Se  Se24  1  0.08644100  0.75000000  0.66205200  1
  Se  Se25  1  0.70808100  0.75000000  0.46768300  1
  Se  Se26  1  0.79191900  0.25000000  0.96768300  1
  Se  Se27  1  0.85304300  0.05352500  0.60594700  1
  Se  Se28  1  0.14695700  0.55352500  0.39405300  1
  Se  Se29  1  0.64695700  0.94647500  0.10594700  1
  Se  Se30  1  0.35304300  0.05352500  0.89405300  1
  Se  Se31  1  0.29191900  0.25000000  0.53231700  1
  Se  Se32  1  0.35304300  0.44647500  0.89405300  1
  Se  Se33  1  0.85304300  0.44647500  0.60594700  1
  Se  Se34  1  0.64695700  0.55352500  0.10594700  1
  Se  Se35  1  0.14695700  0.94647500  0.39405300  1
