# generated using pymatgen
data_Rb3Ta2S11
_symmetry_space_group_name_H-M   'P 1'
_cell_length_a   8.14989400
_cell_length_b   12.01370200
_cell_length_c   19.67654807
_cell_angle_alpha   76.74574755
_cell_angle_beta   90.00000000
_cell_angle_gamma   90.00000000
_symmetry_Int_Tables_number   1
_chemical_formula_structural   Rb3Ta2S11
_chemical_formula_sum   'Rb12 Ta8 S44'
_cell_volume   1875.21998493
_cell_formula_units_Z   4
loop_
 _symmetry_equiv_pos_site_id
 _symmetry_equiv_pos_as_xyz
  1  'x, y, z'
loop_
 _atom_site_type_symbol
 _atom_site_label
 _atom_site_symmetry_multiplicity
 _atom_site_fract_x
 _atom_site_fract_y
 _atom_site_fract_z
 _atom_site_occupancy
  Rb  Rb0  1  0.82701100  0.49816900  0.65976600  1
  Rb  Rb1  1  0.32701100  0.50183100  0.84023400  1
  Rb  Rb2  1  0.17298900  0.50183100  0.34023400  1
  Rb  Rb3  1  0.67298900  0.49816900  0.15976600  1
  Rb  Rb4  1  0.81186000  0.73140700  0.88495500  1
  Rb  Rb5  1  0.31186000  0.26859300  0.61504500  1
  Rb  Rb6  1  0.18814000  0.26859300  0.11504500  1
  Rb  Rb7  1  0.68814000  0.73140700  0.38495500  1
  Rb  Rb8  1  0.84385600  0.96029100  0.64325000  1
  Rb  Rb9  1  0.34385600  0.03970900  0.85675000  1
  Rb  Rb10  1  0.15614400  0.03970900  0.35675000  1
  Rb  Rb11  1  0.65614400  0.96029100  0.14325000  1
  Ta  Ta12  1  0.35910000  0.78897600  0.66280100  1
  Ta  Ta13  1  0.85910000  0.21102400  0.83719900  1
  Ta  Ta14  1  0.64090000  0.21102400  0.33719900  1
  Ta  Ta15  1  0.14090000  0.78897600  0.16280100  1
  Ta  Ta16  1  0.22699800  0.69632600  0.50796400  1
  Ta  Ta17  1  0.72699800  0.30367400  0.99203600  1
  Ta  Ta18  1  0.77300200  0.30367400  0.49203600  1
  Ta  Ta19  1  0.27300200  0.69632600  0.00796400  1
  S  S20  1  0.57041100  0.73258800  0.73538500  1
  S  S21  1  0.07041100  0.26741200  0.76461500  1
  S  S22  1  0.42958900  0.26741200  0.26461500  1
  S  S23  1  0.92958900  0.73258800  0.23538500  1
  S  S24  1  0.27883000  0.97512900  0.68555000  1
  S  S25  1  0.77883000  0.02487100  0.81445000  1
  S  S26  1  0.72117000  0.02487100  0.31445000  1
  S  S27  1  0.22117000  0.97512900  0.18555000  1
  S  S28  1  0.42830800  0.98384700  0.59797900  1
  S  S29  1  0.92830800  0.01615300  0.90202100  1
  S  S30  1  0.57169200  0.01615300  0.40202100  1
  S  S31  1  0.07169200  0.98384700  0.09797900  1
  S  S32  1  0.10900000  0.70373000  0.72107200  1
  S  S33  1  0.60900000  0.29627000  0.77892800  1
  S  S34  1  0.89100000  0.29627000  0.27892800  1
  S  S35  1  0.39100000  0.70373000  0.22107200  1
  S  S36  1  0.22658200  0.60641200  0.65930500  1
  S  S37  1  0.72658200  0.39358800  0.84069500  1
  S  S38  1  0.77341800  0.39358800  0.34069500  1
  S  S39  1  0.27341800  0.60641200  0.15930500  1
  S  S40  1  0.49512900  0.75436900  0.55226500  1
  S  S41  1  0.99512900  0.24563100  0.94773500  1
  S  S42  1  0.50487100  0.24563100  0.44773500  1
  S  S43  1  0.00487100  0.75436900  0.05226500  1
  S  S44  1  0.47947500  0.58242200  0.54768100  1
  S  S45  1  0.97947500  0.41757800  0.95231900  1
  S  S46  1  0.52052500  0.41757800  0.45231900  1
  S  S47  1  0.02052500  0.58242200  0.04768100  1
  S  S48  1  0.13035400  0.86824000  0.54297900  1
  S  S49  1  0.63035400  0.13176000  0.95702100  1
  S  S50  1  0.86964600  0.13176000  0.45702100  1
  S  S51  1  0.36964600  0.86824000  0.04297900  1
  S  S52  1  0.94687300  0.75046400  0.53170100  1
  S  S53  1  0.44687300  0.24953600  0.96829900  1
  S  S54  1  0.05312700  0.24953600  0.46829900  1
  S  S55  1  0.55312700  0.75046400  0.03170100  1
  S  S56  1  0.26354500  0.75777200  0.39270500  1
  S  S57  1  0.76354500  0.24222800  0.10729500  1
  S  S58  1  0.73645500  0.24222800  0.60729500  1
  S  S59  1  0.23645500  0.75777200  0.89270500  1
  S  S60  1  0.12471100  0.49839300  0.51350000  1
  S  S61  1  0.62471100  0.50160700  0.98650000  1
  S  S62  1  0.87528900  0.50160700  0.48650000  1
  S  S63  1  0.37528900  0.49839300  0.01350000  1
