# generated using pymatgen
data_Cs3AuO2
_symmetry_space_group_name_H-M   'P 1'
_cell_length_a   20.10794900
_cell_length_b   10.35967300
_cell_length_c   14.38878353
_cell_angle_alpha   47.53246867
_cell_angle_beta   90.00000000
_cell_angle_gamma   90.00000000
_symmetry_Int_Tables_number   1
_chemical_formula_structural   Cs3AuO2
_chemical_formula_sum   'Cs36 Au12 O24'
_cell_volume   2211.02765175
_cell_formula_units_Z   12
loop_
 _symmetry_equiv_pos_site_id
 _symmetry_equiv_pos_as_xyz
  1  'x, y, z'
loop_
 _atom_site_type_symbol
 _atom_site_label
 _atom_site_symmetry_multiplicity
 _atom_site_fract_x
 _atom_site_fract_y
 _atom_site_fract_z
 _atom_site_occupancy
  Cs  Cs0  1  0.59553700  0.76309700  0.29348000  1
  Cs  Cs1  1  0.06353900  0.43430700  0.36597900  1
  Cs  Cs2  1  0.26750100  0.59845300  0.13720500  1
  Cs  Cs3  1  0.41085700  0.92050800  0.07467600  1
  Cs  Cs4  1  0.09553700  0.23690300  0.20652000  1
  Cs  Cs5  1  0.58930700  0.04626400  0.42611300  1
  Cs  Cs6  1  0.92871800  0.23114700  0.08713000  1
  Cs  Cs7  1  0.08930700  0.95373600  0.07388700  1
  Cs  Cs8  1  0.90446300  0.76309700  0.79348000  1
  Cs  Cs9  1  0.91085700  0.07949200  0.42532400  1
  Cs  Cs10  1  0.57128200  0.23114700  0.58713000  1
  Cs  Cs11  1  0.56353900  0.56569300  0.13402100  1
  Cs  Cs12  1  0.75603900  0.65335300  0.50581800  1
  Cs  Cs13  1  0.75147000  0.15372700  0.21892300  1
  Cs  Cs14  1  0.25147000  0.84627300  0.28107700  1
  Cs  Cs15  1  0.74853000  0.15372700  0.71892300  1
  Cs  Cs16  1  0.08914300  0.92050800  0.57467600  1
  Cs  Cs17  1  0.42871800  0.76885300  0.41287000  1
  Cs  Cs18  1  0.73249900  0.40154700  0.86279500  1
  Cs  Cs19  1  0.24396100  0.34664700  0.49418200  1
  Cs  Cs20  1  0.07128200  0.76885300  0.91287000  1
  Cs  Cs21  1  0.24853000  0.84627300  0.78107700  1
  Cs  Cs22  1  0.43646100  0.43430700  0.86597900  1
  Cs  Cs23  1  0.58914300  0.07949200  0.92532400  1
  Cs  Cs24  1  0.91315700  0.73043000  0.29607700  1
  Cs  Cs25  1  0.41069300  0.95373600  0.57388700  1
  Cs  Cs26  1  0.41315700  0.26957000  0.20392300  1
  Cs  Cs27  1  0.76750100  0.40154700  0.36279500  1
  Cs  Cs28  1  0.25603900  0.34664700  0.99418200  1
  Cs  Cs29  1  0.74396100  0.65335300  0.00581800  1
  Cs  Cs30  1  0.58684300  0.73043000  0.79607700  1
  Cs  Cs31  1  0.93646100  0.56569300  0.63402100  1
  Cs  Cs32  1  0.91069300  0.04626400  0.92611300  1
  Cs  Cs33  1  0.40446300  0.23690300  0.70652000  1
  Cs  Cs34  1  0.23249900  0.59845300  0.63720500  1
  Cs  Cs35  1  0.08684300  0.26957000  0.70392300  1
  Au  Au36  1  0.75175800  0.89760900  0.61528400  1
  Au  Au37  1  0.57851200  0.23810700  0.09303900  1
  Au  Au38  1  0.42072700  0.44454100  0.36196900  1
  Au  Au39  1  0.57927300  0.55545900  0.63803100  1
  Au  Au40  1  0.92148800  0.23810700  0.59303900  1
  Au  Au41  1  0.24824200  0.10239100  0.38471600  1
  Au  Au42  1  0.92072700  0.55545900  0.13803100  1
  Au  Au43  1  0.74824200  0.89760900  0.11528400  1
  Au  Au44  1  0.42148800  0.76189300  0.90696100  1
  Au  Au45  1  0.07851200  0.76189300  0.40696100  1
  Au  Au46  1  0.07927300  0.44454100  0.86196900  1
  Au  Au47  1  0.25175800  0.10239100  0.88471600  1
  O  O48  1  0.67603600  0.73604100  0.14191000  1
  O  O49  1  0.84746800  0.39450100  0.16742100  1
  O  O50  1  0.82396400  0.73604100  0.64191000  1
  O  O51  1  0.31963300  0.94134800  0.41121700  1
  O  O52  1  0.68036700  0.05865200  0.58878300  1
  O  O53  1  0.99392700  0.06748500  0.63446000  1
  O  O54  1  0.34746800  0.60549900  0.33257900  1
  O  O55  1  0.65253200  0.39450100  0.66742100  1
  O  O56  1  0.81963300  0.05865200  0.08878300  1
  O  O57  1  0.49164600  0.28420100  0.38478600  1
  O  O58  1  0.32396400  0.26395900  0.85809000  1
  O  O59  1  0.00607300  0.93251500  0.36554000  1
  O  O60  1  0.99164600  0.71579900  0.11521400  1
  O  O61  1  0.15253200  0.60549900  0.83257900  1
  O  O62  1  0.50835400  0.71579900  0.61521400  1
  O  O63  1  0.17603600  0.26395900  0.35809000  1
  O  O64  1  0.15026400  0.58679000  0.45293200  1
  O  O65  1  0.50607300  0.06748500  0.13446000  1
  O  O66  1  0.65026400  0.41321000  0.04706800  1
  O  O67  1  0.00835400  0.28420100  0.88478600  1
  O  O68  1  0.34973600  0.58679000  0.95293200  1
  O  O69  1  0.49392700  0.93251500  0.86554000  1
  O  O70  1  0.84973600  0.41321000  0.54706800  1
  O  O71  1  0.18036700  0.94134800  0.91121700  1
