# generated using pymatgen
data_PuAl3
_symmetry_space_group_name_H-M   'P 1'
_cell_length_a   7.98779718
_cell_length_b   7.98779718
_cell_length_c   7.98779711
_cell_angle_alpha   45.04935712
_cell_angle_beta   45.04935712
_cell_angle_gamma   45.04935737
_symmetry_Int_Tables_number   1
_chemical_formula_structural   PuAl3
_chemical_formula_sum   'Pu3 Al9'
_cell_volume   232.36528662
_cell_formula_units_Z   3
loop_
 _symmetry_equiv_pos_site_id
 _symmetry_equiv_pos_as_xyz
  1  'x, y, z'
loop_
 _atom_site_type_symbol
 _atom_site_label
 _atom_site_symmetry_multiplicity
 _atom_site_fract_x
 _atom_site_fract_y
 _atom_site_fract_z
 _atom_site_occupancy
  Pu  Pu0  1  0.00000000  0.00000000  0.00000000  1
  Pu  Pu1  1  0.21909900  0.21909900  0.21909900  1
  Pu  Pu2  1  0.78090100  0.78090100  0.78090100  1
  Al  Al3  1  0.50000000  0.50000000  0.00000000  1
  Al  Al4  1  0.50000000  0.00000000  0.50000000  1
  Al  Al5  1  0.00000000  0.50000000  0.50000000  1
  Al  Al6  1  0.75331000  0.28942300  0.28942300  1
  Al  Al7  1  0.28942300  0.28942300  0.75331000  1
  Al  Al8  1  0.28942300  0.75331000  0.28942300  1
  Al  Al9  1  0.71057700  0.24669000  0.71057700  1
  Al  Al10  1  0.24669000  0.71057700  0.71057700  1
  Al  Al11  1  0.71057700  0.71057700  0.24669000  1
