# generated using pymatgen
data_Cs3BiCl6
_symmetry_space_group_name_H-M   'P 1'
_cell_length_a   14.38436687
_cell_length_b   14.38436687
_cell_length_c   13.43931242
_cell_angle_alpha   80.82804052
_cell_angle_beta   80.82804052
_cell_angle_gamma   33.95407015
_symmetry_Int_Tables_number   1
_chemical_formula_structural   Cs3BiCl6
_chemical_formula_sum   'Cs12 Bi4 Cl24'
_cell_volume   1531.39357605
_cell_formula_units_Z   4
loop_
 _symmetry_equiv_pos_site_id
 _symmetry_equiv_pos_as_xyz
  1  'x, y, z'
loop_
 _atom_site_type_symbol
 _atom_site_label
 _atom_site_symmetry_multiplicity
 _atom_site_fract_x
 _atom_site_fract_y
 _atom_site_fract_z
 _atom_site_occupancy
  Cs  Cs0  1  0.02487300  0.65233300  0.29914700  1
  Cs  Cs1  1  0.20465400  0.69605100  0.93222200  1
  Cs  Cs2  1  0.46791500  0.84033800  0.85488400  1
  Cs  Cs3  1  0.97512700  0.34766700  0.70085300  1
  Cs  Cs4  1  0.84033800  0.46791500  0.35488400  1
  Cs  Cs5  1  0.69605100  0.20465400  0.43222200  1
  Cs  Cs6  1  0.65233300  0.02487300  0.79914700  1
  Cs  Cs7  1  0.15966200  0.53208500  0.64511600  1
  Cs  Cs8  1  0.53208500  0.15966200  0.14511600  1
  Cs  Cs9  1  0.30394900  0.79534600  0.56777800  1
  Cs  Cs10  1  0.34766700  0.97512700  0.20085300  1
  Cs  Cs11  1  0.79534600  0.30394900  0.06777800  1
  Bi  Bi12  1  0.78363700  0.21636300  0.75000000  1
  Bi  Bi13  1  0.50000000  0.00000000  0.50000000  1
  Bi  Bi14  1  0.21636300  0.78363700  0.25000000  1
  Bi  Bi15  1  0.00000000  0.50000000  0.00000000  1
  Cl  Cl16  1  0.38111100  0.27239800  0.41923800  1
  Cl  Cl17  1  0.13916600  0.36166100  0.18548300  1
  Cl  Cl18  1  0.36166100  0.13916600  0.68548300  1
  Cl  Cl19  1  0.83284900  0.28264300  0.56490600  1
  Cl  Cl20  1  0.50232600  0.61196500  0.31915900  1
  Cl  Cl21  1  0.61196500  0.50232600  0.81915900  1
  Cl  Cl22  1  0.22251100  0.13185800  0.46533000  1
  Cl  Cl23  1  0.72760200  0.61888900  0.08076200  1
  Cl  Cl24  1  0.27239800  0.38111100  0.91923800  1
  Cl  Cl25  1  0.86083400  0.63833900  0.81451700  1
  Cl  Cl26  1  0.08292400  0.03180900  0.80631000  1
  Cl  Cl27  1  0.91707600  0.96819100  0.19369000  1
  Cl  Cl28  1  0.13185800  0.22251100  0.96533000  1
  Cl  Cl29  1  0.28264300  0.83284900  0.06490600  1
  Cl  Cl30  1  0.03180900  0.08292400  0.30631000  1
  Cl  Cl31  1  0.77748900  0.86814200  0.53467000  1
  Cl  Cl32  1  0.16715100  0.71735700  0.43509400  1
  Cl  Cl33  1  0.63833900  0.86083400  0.31451700  1
  Cl  Cl34  1  0.96819100  0.91707600  0.69369000  1
  Cl  Cl35  1  0.38803500  0.49767400  0.18084100  1
  Cl  Cl36  1  0.61888900  0.72760200  0.58076200  1
  Cl  Cl37  1  0.86814200  0.77748900  0.03467000  1
  Cl  Cl38  1  0.71735700  0.16715100  0.93509400  1
  Cl  Cl39  1  0.49767400  0.38803500  0.68084100  1
