# generated using pymatgen
data_Dy3Se3N
_symmetry_space_group_name_H-M   'P 1'
_cell_length_a   3.95016600
_cell_length_b   12.57250000
_cell_length_c   13.22139500
_cell_angle_alpha   90.00000000
_cell_angle_beta   90.00000000
_cell_angle_gamma   90.00000000
_symmetry_Int_Tables_number   1
_chemical_formula_structural   Dy3Se3N
_chemical_formula_sum   'Dy12 Se12 N4'
_cell_volume   656.62024863
_cell_formula_units_Z   4
loop_
 _symmetry_equiv_pos_site_id
 _symmetry_equiv_pos_as_xyz
  1  'x, y, z'
loop_
 _atom_site_type_symbol
 _atom_site_label
 _atom_site_symmetry_multiplicity
 _atom_site_fract_x
 _atom_site_fract_y
 _atom_site_fract_z
 _atom_site_occupancy
  Dy  Dy0  1  0.75000000  0.79736400  0.85741700  1
  Dy  Dy1  1  0.75000000  0.95784700  0.14998500  1
  Dy  Dy2  1  0.75000000  0.43760700  0.86589200  1
  Dy  Dy3  1  0.75000000  0.29736400  0.64258300  1
  Dy  Dy4  1  0.75000000  0.45784700  0.35001500  1
  Dy  Dy5  1  0.25000000  0.06239300  0.36589200  1
  Dy  Dy6  1  0.25000000  0.56239300  0.13410800  1
  Dy  Dy7  1  0.25000000  0.20263600  0.14258300  1
  Dy  Dy8  1  0.25000000  0.70263600  0.35741700  1
  Dy  Dy9  1  0.25000000  0.04215300  0.85001500  1
  Dy  Dy10  1  0.25000000  0.54215300  0.64998500  1
  Dy  Dy11  1  0.75000000  0.93760700  0.63410800  1
  Se  Se12  1  0.75000000  0.40334700  0.10191600  1
  Se  Se13  1  0.25000000  0.36980100  0.50583300  1
  Se  Se14  1  0.75000000  0.13019900  0.00583300  1
  Se  Se15  1  0.25000000  0.86980100  0.99416700  1
  Se  Se16  1  0.25000000  0.27537000  0.81212500  1
  Se  Se17  1  0.75000000  0.63019900  0.49416700  1
  Se  Se18  1  0.75000000  0.90334700  0.39808400  1
  Se  Se19  1  0.25000000  0.09665300  0.60191600  1
  Se  Se20  1  0.75000000  0.72463000  0.18787500  1
  Se  Se21  1  0.75000000  0.22463000  0.31212500  1
  Se  Se22  1  0.25000000  0.59665300  0.89808400  1
  Se  Se23  1  0.25000000  0.77537000  0.68787500  1
  N  N24  1  0.75000000  0.46385400  0.70299300  1
  N  N25  1  0.75000000  0.96385400  0.79700700  1
  N  N26  1  0.25000000  0.03614600  0.20299300  1
  N  N27  1  0.25000000  0.53614600  0.29700700  1
