# generated using pymatgen
data_CsWF7
_symmetry_space_group_name_H-M   'P 1'
_cell_length_a   10.87687200
_cell_length_b   10.87687200
_cell_length_c   10.87687200
_cell_angle_alpha   90.00000000
_cell_angle_beta   90.00000000
_cell_angle_gamma   90.00000000
_symmetry_Int_Tables_number   1
_chemical_formula_structural   CsWF7
_chemical_formula_sum   'Cs8 W8 F56'
_cell_volume   1286.80296596
_cell_formula_units_Z   8
loop_
 _symmetry_equiv_pos_site_id
 _symmetry_equiv_pos_as_xyz
  1  'x, y, z'
loop_
 _atom_site_type_symbol
 _atom_site_label
 _atom_site_symmetry_multiplicity
 _atom_site_fract_x
 _atom_site_fract_y
 _atom_site_fract_z
 _atom_site_occupancy
  Cs  Cs0  1  0.00000000  0.00000000  0.00000000  1
  Cs  Cs1  1  0.00000000  0.50000000  0.50000000  1
  Cs  Cs2  1  0.50000000  0.00000000  0.50000000  1
  Cs  Cs3  1  0.50000000  0.50000000  0.00000000  1
  Cs  Cs4  1  0.50000000  0.00000000  0.00000000  1
  Cs  Cs5  1  0.50000000  0.50000000  0.50000000  1
  Cs  Cs6  1  0.00000000  0.00000000  0.50000000  1
  Cs  Cs7  1  0.00000000  0.50000000  0.00000000  1
  W  W8  1  0.27635000  0.72365000  0.22365000  1
  W  W9  1  0.72365000  0.22365000  0.27635000  1
  W  W10  1  0.22365000  0.27635000  0.72365000  1
  W  W11  1  0.77635000  0.77635000  0.77635000  1
  W  W12  1  0.72365000  0.27635000  0.77635000  1
  W  W13  1  0.27635000  0.77635000  0.72365000  1
  W  W14  1  0.77635000  0.72365000  0.27635000  1
  W  W15  1  0.22365000  0.22365000  0.22365000  1
  F  F16  1  0.17347000  0.82653000  0.32653000  1
  F  F17  1  0.82653000  0.32653000  0.17347000  1
  F  F18  1  0.32653000  0.17347000  0.82653000  1
  F  F19  1  0.67347000  0.67347000  0.67347000  1
  F  F20  1  0.82653000  0.17347000  0.67347000  1
  F  F21  1  0.17347000  0.67347000  0.82653000  1
  F  F22  1  0.67347000  0.82653000  0.17347000  1
  F  F23  1  0.32653000  0.32653000  0.32653000  1
  F  F24  1  0.42892600  0.63553700  0.25785600  1
  F  F25  1  0.57107400  0.13553700  0.24214400  1
  F  F26  1  0.07107400  0.36446300  0.75785600  1
  F  F27  1  0.92892600  0.86446300  0.74214400  1
  F  F28  1  0.25785600  0.42892600  0.63553700  1
  F  F29  1  0.24214400  0.57107400  0.13553700  1
  F  F30  1  0.75785600  0.07107400  0.36446300  1
  F  F31  1  0.74214400  0.92892600  0.86446300  1
  F  F32  1  0.63553700  0.25785600  0.42892600  1
  F  F33  1  0.13553700  0.24214400  0.57107400  1
  F  F34  1  0.36446300  0.75785600  0.07107400  1
  F  F35  1  0.86446300  0.74214400  0.92892600  1
  F  F36  1  0.57107400  0.36446300  0.74214400  1
  F  F37  1  0.42892600  0.86446300  0.75785600  1
  F  F38  1  0.92892600  0.63553700  0.24214400  1
  F  F39  1  0.07107400  0.13553700  0.25785600  1
  F  F40  1  0.74214400  0.57107400  0.36446300  1
  F  F41  1  0.75785600  0.42892600  0.86446300  1
  F  F42  1  0.24214400  0.92892600  0.63553700  1
  F  F43  1  0.25785600  0.07107400  0.13553700  1
  F  F44  1  0.36446300  0.74214400  0.57107400  1
  F  F45  1  0.86446300  0.75785600  0.42892600  1
  F  F46  1  0.63553700  0.24214400  0.92892600  1
  F  F47  1  0.13553700  0.25785600  0.07107400  1
  F  F48  1  0.14345800  0.77291900  0.11728600  1
  F  F49  1  0.85654200  0.27291900  0.38271400  1
  F  F50  1  0.35654200  0.22708100  0.61728600  1
  F  F51  1  0.64345800  0.72708100  0.88271400  1
  F  F52  1  0.11728600  0.14345800  0.77291900  1
  F  F53  1  0.38271400  0.85654200  0.27291900  1
  F  F54  1  0.61728600  0.35654200  0.22708100  1
  F  F55  1  0.88271400  0.64345800  0.72708100  1
  F  F56  1  0.77291900  0.11728600  0.14345800  1
  F  F57  1  0.27291900  0.38271400  0.85654200  1
  F  F58  1  0.22708100  0.61728600  0.35654200  1
  F  F59  1  0.72708100  0.88271400  0.64345800  1
  F  F60  1  0.85654200  0.22708100  0.88271400  1
  F  F61  1  0.14345800  0.72708100  0.61728600  1
  F  F62  1  0.64345800  0.77291900  0.38271400  1
  F  F63  1  0.35654200  0.27291900  0.11728600  1
  F  F64  1  0.88271400  0.85654200  0.22708100  1
  F  F65  1  0.61728600  0.14345800  0.72708100  1
  F  F66  1  0.38271400  0.64345800  0.77291900  1
  F  F67  1  0.11728600  0.35654200  0.27291900  1
  F  F68  1  0.22708100  0.88271400  0.85654200  1
  F  F69  1  0.72708100  0.61728600  0.14345800  1
  F  F70  1  0.77291900  0.38271400  0.64345800  1
  F  F71  1  0.27291900  0.11728600  0.35654200  1
