# generated using pymatgen
data_NiF2
_symmetry_space_group_name_H-M   'P 1'
_cell_length_a   4.70126500
_cell_length_b   4.70126500
_cell_length_c   3.12090300
_cell_angle_alpha   90.00000000
_cell_angle_beta   90.00000000
_cell_angle_gamma   90.00000000
_symmetry_Int_Tables_number   1
_chemical_formula_structural   NiF2
_chemical_formula_sum   'Ni2 F4'
_cell_volume   68.97786292
_cell_formula_units_Z   2
loop_
 _symmetry_equiv_pos_site_id
 _symmetry_equiv_pos_as_xyz
  1  'x, y, z'
loop_
 _atom_site_type_symbol
 _atom_site_label
 _atom_site_symmetry_multiplicity
 _atom_site_fract_x
 _atom_site_fract_y
 _atom_site_fract_z
 _atom_site_occupancy
  Ni  Ni0  1  0.50000000  0.50000000  0.50000000  1
  Ni  Ni1  1  0.00000000  0.00000000  0.00000000  1
  F  F2  1  0.69602100  0.69602100  0.00000000  1
  F  F3  1  0.19602100  0.80397900  0.50000000  1
  F  F4  1  0.30397900  0.30397900  0.00000000  1
  F  F5  1  0.80397900  0.19602100  0.50000000  1
