# generated using pymatgen
data_CdI2
_symmetry_space_group_name_H-M   'P 1'
_cell_length_a   4.33342377
_cell_length_b   4.33342377
_cell_length_c   78.17167600
_cell_angle_alpha   90.00000000
_cell_angle_beta   90.00000000
_cell_angle_gamma   119.99999644
_symmetry_Int_Tables_number   1
_chemical_formula_structural   CdI2
_chemical_formula_sum   'Cd10 I20'
_cell_volume   1271.28344752
_cell_formula_units_Z   10
loop_
 _symmetry_equiv_pos_site_id
 _symmetry_equiv_pos_as_xyz
  1  'x, y, z'
loop_
 _atom_site_type_symbol
 _atom_site_label
 _atom_site_symmetry_multiplicity
 _atom_site_fract_x
 _atom_site_fract_y
 _atom_site_fract_z
 _atom_site_occupancy
  Cd  Cd0  1  0.00000000  0.00000000  0.32500900  1
  Cd  Cd1  1  0.33333300  0.66666700  0.72496000  1
  Cd  Cd2  1  0.00000000  0.00000000  0.02498800  1
  Cd  Cd3  1  0.00000000  0.00000000  0.22501300  1
  Cd  Cd4  1  0.00000000  0.00000000  0.12502700  1
  Cd  Cd5  1  0.33333300  0.66666700  0.52501100  1
  Cd  Cd6  1  0.00000000  0.00000000  0.42502300  1
  Cd  Cd7  1  0.33333300  0.66666700  0.62501000  1
  Cd  Cd8  1  0.33333300  0.66666700  0.82499100  1
  Cd  Cd9  1  0.00000000  0.00000000  0.92502500  1
  I  I10  1  0.33333300  0.66666700  0.10296900  1
  I  I11  1  0.66666700  0.33333300  0.44703900  1
  I  I12  1  0.66666700  0.33333300  0.34701400  1
  I  I13  1  0.66666700  0.33333300  0.94703700  1
  I  I14  1  0.33333300  0.66666700  0.30295600  1
  I  I15  1  0.00000000  0.00000000  0.70293500  1
  I  I16  1  0.33333300  0.66666700  0.40298300  1
  I  I17  1  0.33333300  0.66666700  0.20296300  1
  I  I18  1  0.00000000  0.00000000  0.80298400  1
  I  I19  1  0.33333300  0.66666700  0.90298700  1
  I  I20  1  0.66666700  0.33333300  0.04701100  1
  I  I21  1  0.00000000  0.00000000  0.60299800  1
  I  I22  1  0.33333300  0.66666700  0.00293900  1
  I  I23  1  0.66666700  0.33333300  0.54701100  1
  I  I24  1  0.66666700  0.33333300  0.84698800  1
  I  I25  1  0.66666700  0.33333300  0.24703300  1
  I  I26  1  0.00000000  0.00000000  0.50301300  1
  I  I27  1  0.66666700  0.33333300  0.14707200  1
  I  I28  1  0.66666700  0.33333300  0.64703200  1
  I  I29  1  0.66666700  0.33333300  0.74697600  1
