# generated using pymatgen
data_TaTl(GeO3)3
_symmetry_space_group_name_H-M   'P 1'
_cell_length_a   7.13363240
_cell_length_b   7.13363240
_cell_length_c   10.28601800
_cell_angle_alpha   90.00000000
_cell_angle_beta   90.00000000
_cell_angle_gamma   120.00000375
_symmetry_Int_Tables_number   1
_chemical_formula_structural   TaTl(GeO3)3
_chemical_formula_sum   'Ta2 Tl2 Ge6 O18'
_cell_volume   453.31422567
_cell_formula_units_Z   2
loop_
 _symmetry_equiv_pos_site_id
 _symmetry_equiv_pos_as_xyz
  1  'x, y, z'
loop_
 _atom_site_type_symbol
 _atom_site_label
 _atom_site_symmetry_multiplicity
 _atom_site_fract_x
 _atom_site_fract_y
 _atom_site_fract_z
 _atom_site_occupancy
  Ta  Ta0  1  0.33333300  0.66666700  0.00000000  1
  Ta  Ta1  1  0.33333300  0.66666700  0.50000000  1
  Tl  Tl2  1  0.66666700  0.33333300  0.00000000  1
  Tl  Tl3  1  0.66666700  0.33333300  0.50000000  1
  Ge  Ge4  1  0.07388500  0.28837400  0.25000000  1
  Ge  Ge5  1  0.21448900  0.92611500  0.25000000  1
  Ge  Ge6  1  0.71162600  0.78551100  0.25000000  1
  Ge  Ge7  1  0.71162600  0.92611500  0.75000000  1
  Ge  Ge8  1  0.21448900  0.28837400  0.75000000  1
  Ge  Ge9  1  0.07388500  0.78551100  0.75000000  1
  O  O10  1  0.26445900  0.19672400  0.25000000  1
  O  O11  1  0.93226400  0.73554100  0.25000000  1
  O  O12  1  0.80327600  0.06773600  0.25000000  1
  O  O13  1  0.80327600  0.73554100  0.75000000  1
  O  O14  1  0.93226400  0.19672400  0.75000000  1
  O  O15  1  0.26445900  0.06773600  0.75000000  1
  O  O16  1  0.10072700  0.43960200  0.11010600  1
  O  O17  1  0.33887500  0.89927300  0.38989400  1
  O  O18  1  0.56039800  0.66112500  0.38989400  1
  O  O19  1  0.56039800  0.66112500  0.11010600  1
  O  O20  1  0.33887500  0.89927300  0.11010600  1
  O  O21  1  0.56039800  0.89927300  0.88989400  1
  O  O22  1  0.33887500  0.43960200  0.88989400  1
  O  O23  1  0.10072700  0.66112500  0.88989400  1
  O  O24  1  0.33887500  0.43960200  0.61010600  1
  O  O25  1  0.10072700  0.66112500  0.61010600  1
  O  O26  1  0.10072700  0.43960200  0.38989400  1
  O  O27  1  0.56039800  0.89927300  0.61010600  1
