# generated using pymatgen
data_K3Al2(PO4)3
_symmetry_space_group_name_H-M   'P 1'
_cell_length_a   8.57997400
_cell_length_b   8.81422800
_cell_length_c   17.13913100
_cell_angle_alpha   90.00000000
_cell_angle_beta   90.00000000
_cell_angle_gamma   90.00000000
_symmetry_Int_Tables_number   1
_chemical_formula_structural   K3Al2(PO4)3
_chemical_formula_sum   'K12 Al8 P12 O48'
_cell_volume   1296.16129992
_cell_formula_units_Z   4
loop_
 _symmetry_equiv_pos_site_id
 _symmetry_equiv_pos_as_xyz
  1  'x, y, z'
loop_
 _atom_site_type_symbol
 _atom_site_label
 _atom_site_symmetry_multiplicity
 _atom_site_fract_x
 _atom_site_fract_y
 _atom_site_fract_z
 _atom_site_occupancy
  K  K0  1  0.10797900  0.51311200  0.40001600  1
  K  K1  1  0.33011000  0.82684100  0.50874400  1
  K  K2  1  0.13175600  0.04341900  0.85895300  1
  K  K3  1  0.33011000  0.32684100  0.99125600  1
  K  K4  1  0.83011000  0.67315900  0.00874400  1
  K  K5  1  0.63175600  0.45658100  0.35895300  1
  K  K6  1  0.60797900  0.48688800  0.59998400  1
  K  K7  1  0.63175600  0.95658100  0.14104700  1
  K  K8  1  0.13175600  0.54341900  0.64104700  1
  K  K9  1  0.10797900  0.01311200  0.09998400  1
  K  K10  1  0.83011000  0.17315900  0.49125600  1
  K  K11  1  0.60797900  0.98688800  0.90001600  1
  Al  Al12  1  0.28971500  0.63186000  0.16854400  1
  Al  Al13  1  0.29987600  0.64896000  0.83892800  1
  Al  Al14  1  0.28971500  0.13186000  0.33145600  1
  Al  Al15  1  0.79987600  0.85104000  0.33892800  1
  Al  Al16  1  0.78971500  0.36814000  0.83145600  1
  Al  Al17  1  0.79987600  0.35104000  0.16107200  1
  Al  Al18  1  0.78971500  0.86814000  0.66854400  1
  Al  Al19  1  0.29987600  0.14896000  0.66107200  1
  P  P20  1  0.36323500  0.26113500  0.49749100  1
  P  P21  1  0.43476600  0.29646400  0.18810400  1
  P  P22  1  0.94189500  0.66006900  0.21276600  1
  P  P23  1  0.93476600  0.20353600  0.68810400  1
  P  P24  1  0.44189500  0.33993100  0.78723400  1
  P  P25  1  0.93476600  0.70353600  0.81189600  1
  P  P26  1  0.94189500  0.16006900  0.28723400  1
  P  P27  1  0.36323500  0.76113500  0.00250900  1
  P  P28  1  0.43476600  0.79646400  0.31189600  1
  P  P29  1  0.86323500  0.73886500  0.50250900  1
  P  P30  1  0.86323500  0.23886500  0.99749100  1
  P  P31  1  0.44189500  0.83993100  0.71276600  1
  O  O32  1  0.53596100  0.26348500  0.47705500  1
  O  O33  1  0.39789300  0.96313600  0.33592600  1
  O  O34  1  0.10591500  0.58443400  0.20672900  1
  O  O35  1  0.29794600  0.41079600  0.52754100  1
  O  O36  1  0.03596100  0.23651500  0.97705500  1
  O  O37  1  0.60591500  0.91556600  0.70672900  1
  O  O38  1  0.83069600  0.36983500  0.06040200  1
  O  O39  1  0.91390800  0.28424100  0.34634300  1
  O  O40  1  0.79794600  0.58920400  0.47245900  1
  O  O41  1  0.29794600  0.91079600  0.97245900  1
  O  O42  1  0.61616700  0.78330200  0.30964900  1
  O  O43  1  0.39789300  0.46313600  0.16407400  1
  O  O44  1  0.36618600  0.68163700  0.36722200  1
  O  O45  1  0.61616700  0.28330200  0.19035100  1
  O  O46  1  0.86618600  0.81836300  0.86722200  1
  O  O47  1  0.33069600  0.63016500  0.93959800  1
  O  O48  1  0.43031700  0.78337200  0.79927300  1
  O  O49  1  0.89789300  0.53686400  0.83592600  1
  O  O50  1  0.26268300  0.70742600  0.07522500  1
  O  O51  1  0.83069600  0.86983500  0.43959800  1
  O  O52  1  0.36618600  0.18163700  0.13277800  1
  O  O53  1  0.10591500  0.08443400  0.29327100  1
  O  O54  1  0.11616700  0.71669800  0.80964900  1
  O  O55  1  0.93031700  0.21662800  0.20072700  1
  O  O56  1  0.76268300  0.79257400  0.57522500  1
  O  O57  1  0.33069600  0.13016500  0.56040200  1
  O  O58  1  0.53596100  0.76348500  0.02294500  1
  O  O59  1  0.91390800  0.78424100  0.15365700  1
  O  O60  1  0.88092000  0.22517000  0.77479500  1
  O  O61  1  0.26268300  0.20742600  0.42477500  1
  O  O62  1  0.43031700  0.28337200  0.70072700  1
  O  O63  1  0.60591500  0.41556600  0.79327100  1
  O  O64  1  0.31883600  0.96963800  0.70436400  1
  O  O65  1  0.38092000  0.77483000  0.22520500  1
  O  O66  1  0.89789300  0.03686400  0.66407400  1
  O  O67  1  0.31883600  0.46963800  0.79563600  1
  O  O68  1  0.11616700  0.21669800  0.69035100  1
  O  O69  1  0.41390800  0.71575900  0.65365700  1
  O  O70  1  0.86618600  0.31836300  0.63277800  1
  O  O71  1  0.38092000  0.27483000  0.27479500  1
  O  O72  1  0.79794600  0.08920400  0.02754100  1
  O  O73  1  0.88092000  0.72517000  0.72520500  1
  O  O74  1  0.93031700  0.71662800  0.29927300  1
  O  O75  1  0.81883600  0.53036200  0.20436400  1
  O  O76  1  0.41390800  0.21575900  0.84634300  1
  O  O77  1  0.03596100  0.73651500  0.52294500  1
  O  O78  1  0.81883600  0.03036200  0.29563600  1
  O  O79  1  0.76268300  0.29257400  0.92477500  1
