# generated using pymatgen
data_Ga2Mo(SeO5)2
_symmetry_space_group_name_H-M   'P 1'
_cell_length_a   6.14544900
_cell_length_b   8.94747400
_cell_length_c   15.31776500
_cell_angle_alpha   90.00000000
_cell_angle_beta   90.00000000
_cell_angle_gamma   90.00000000
_symmetry_Int_Tables_number   1
_chemical_formula_structural   Ga2Mo(SeO5)2
_chemical_formula_sum   'Ga8 Mo4 Se8 O40'
_cell_volume   842.26638138
_cell_formula_units_Z   4
loop_
 _symmetry_equiv_pos_site_id
 _symmetry_equiv_pos_as_xyz
  1  'x, y, z'
loop_
 _atom_site_type_symbol
 _atom_site_label
 _atom_site_symmetry_multiplicity
 _atom_site_fract_x
 _atom_site_fract_y
 _atom_site_fract_z
 _atom_site_occupancy
  Ga  Ga0  1  0.00651900  0.00584700  0.64781900  1
  Ga  Ga1  1  0.99348100  0.99415300  0.35218100  1
  Ga  Ga2  1  0.50651900  0.49415300  0.14781900  1
  Ga  Ga3  1  0.49348100  0.50584700  0.85218100  1
  Ga  Ga4  1  0.99348100  0.49415300  0.14781900  1
  Ga  Ga5  1  0.00651900  0.50584700  0.85218100  1
  Ga  Ga6  1  0.49348100  0.00584700  0.64781900  1
  Ga  Ga7  1  0.50651900  0.99415300  0.35218100  1
  Mo  Mo8  1  0.25000000  0.83702600  0.83724300  1
  Mo  Mo9  1  0.75000000  0.16297400  0.16275700  1
  Mo  Mo10  1  0.75000000  0.66297400  0.33724300  1
  Mo  Mo11  1  0.25000000  0.33702600  0.66275700  1
  Se  Se12  1  0.25000000  0.77381200  0.50879400  1
  Se  Se13  1  0.25000000  0.80634100  0.19382600  1
  Se  Se14  1  0.75000000  0.22618800  0.49120600  1
  Se  Se15  1  0.75000000  0.19365900  0.80617400  1
  Se  Se16  1  0.75000000  0.69365900  0.69382600  1
  Se  Se17  1  0.75000000  0.72618800  0.00879400  1
  Se  Se18  1  0.25000000  0.30634100  0.30617400  1
  Se  Se19  1  0.25000000  0.27381200  0.99120600  1
  O  O20  1  0.97138600  0.16167800  0.43428500  1
  O  O21  1  0.02858300  0.33419500  0.23833500  1
  O  O22  1  0.02797800  0.42045300  0.61323200  1
  O  O23  1  0.47141700  0.83419500  0.26166500  1
  O  O24  1  0.02797800  0.92045300  0.88676800  1
  O  O25  1  0.25000000  0.90523700  0.41986000  1
  O  O26  1  0.47138600  0.83832200  0.56571500  1
  O  O27  1  0.75000000  0.59476300  0.91986000  1
  O  O28  1  0.75000000  0.09476300  0.58014000  1
  O  O29  1  0.75000000  0.86586300  0.38977300  1
  O  O30  1  0.75000000  0.39498800  0.79859700  1
  O  O31  1  0.52797800  0.57954700  0.38676800  1
  O  O32  1  0.25000000  0.13413700  0.61022700  1
  O  O33  1  0.52861400  0.66167800  0.06571500  1
  O  O34  1  0.75000000  0.08475700  0.27894700  1
  O  O35  1  0.52858300  0.16580500  0.73833500  1
  O  O36  1  0.02861400  0.83832200  0.56571500  1
  O  O37  1  0.75000000  0.36586300  0.11022700  1
  O  O38  1  0.47202200  0.42045300  0.61323200  1
  O  O39  1  0.52861400  0.16167800  0.43428500  1
  O  O40  1  0.25000000  0.60501200  0.20140300  1
  O  O41  1  0.97141700  0.66580500  0.76166500  1
  O  O42  1  0.75000000  0.58475700  0.22105300  1
  O  O43  1  0.25000000  0.63413700  0.88977300  1
  O  O44  1  0.97202200  0.57954700  0.38676800  1
  O  O45  1  0.47138600  0.33832200  0.93428500  1
  O  O46  1  0.47202200  0.92045300  0.88676800  1
  O  O47  1  0.97141700  0.16580500  0.73833500  1
  O  O48  1  0.25000000  0.91524300  0.72105300  1
  O  O49  1  0.25000000  0.41524300  0.77894700  1
  O  O50  1  0.52858300  0.66580500  0.76166500  1
  O  O51  1  0.97202200  0.07954700  0.11323200  1
  O  O52  1  0.25000000  0.40523700  0.08014000  1
  O  O53  1  0.25000000  0.10501200  0.29859700  1
  O  O54  1  0.02858300  0.83419500  0.26166500  1
  O  O55  1  0.97138600  0.66167800  0.06571500  1
  O  O56  1  0.75000000  0.89498800  0.70140300  1
  O  O57  1  0.52797800  0.07954700  0.11323200  1
  O  O58  1  0.47141700  0.33419500  0.23833500  1
  O  O59  1  0.02861400  0.33832200  0.93428500  1
