# generated using pymatgen
data_RbBe2P3O10
_symmetry_space_group_name_H-M   'P 1'
_cell_length_a   7.57423821
_cell_length_b   7.57423821
_cell_length_c   9.03831612
_cell_angle_alpha   68.13650578
_cell_angle_beta   68.13650578
_cell_angle_gamma   71.03169701
_symmetry_Int_Tables_number   1
_chemical_formula_structural   RbBe2P3O10
_chemical_formula_sum   'Rb2 Be4 P6 O20'
_cell_volume   436.03219201
_cell_formula_units_Z   2
loop_
 _symmetry_equiv_pos_site_id
 _symmetry_equiv_pos_as_xyz
  1  'x, y, z'
loop_
 _atom_site_type_symbol
 _atom_site_label
 _atom_site_symmetry_multiplicity
 _atom_site_fract_x
 _atom_site_fract_y
 _atom_site_fract_z
 _atom_site_occupancy
  Rb  Rb0  1  0.69918100  0.30081900  0.25000000  1
  Rb  Rb1  1  0.30081900  0.69918100  0.75000000  1
  Be  Be2  1  0.70031700  0.78840500  0.93661300  1
  Be  Be3  1  0.29968300  0.21159500  0.06338700  1
  Be  Be4  1  0.21159500  0.29968300  0.56338700  1
  Be  Be5  1  0.78840500  0.70031700  0.43661300  1
  P  P6  1  0.86808700  0.49789900  0.75282400  1
  P  P7  1  0.49789900  0.86808700  0.25282400  1
  P  P8  1  0.13191300  0.50210100  0.24717600  1
  P  P9  1  0.11879000  0.88121000  0.25000000  1
  P  P10  1  0.88121000  0.11879000  0.75000000  1
  P  P11  1  0.50210100  0.13191300  0.74717600  1
  O  O12  1  0.60326600  0.74011300  0.13592300  1
  O  O13  1  0.39673400  0.25988700  0.86407700  1
  O  O14  1  0.25988700  0.39673400  0.36407700  1
  O  O15  1  0.91364800  0.53659000  0.33565000  1
  O  O16  1  0.72207700  0.18072700  0.65224600  1
  O  O17  1  0.07845600  0.13276200  0.62445900  1
  O  O18  1  0.81927300  0.27792300  0.84775400  1
  O  O19  1  0.19018300  0.41903400  0.10254800  1
  O  O20  1  0.74011300  0.60326600  0.63592300  1
  O  O21  1  0.27792300  0.81927300  0.34775400  1
  O  O22  1  0.53659000  0.91364800  0.83565000  1
  O  O23  1  0.86723800  0.92154400  0.87554100  1
  O  O24  1  0.46341000  0.08635200  0.16435000  1
  O  O25  1  0.08635200  0.46341000  0.66435000  1
  O  O26  1  0.58096600  0.80981700  0.39745200  1
  O  O27  1  0.92154400  0.86723800  0.37554100  1
  O  O28  1  0.18072700  0.72207700  0.15224600  1
  O  O29  1  0.41903400  0.19018300  0.60254800  1
  O  O30  1  0.80981700  0.58096600  0.89745200  1
  O  O31  1  0.13276200  0.07845600  0.12445900  1
