# generated using pymatgen
data_Gd2(Al3Ir)3
_symmetry_space_group_name_H-M   'P 1'
_cell_length_a   7.57317693
_cell_length_b   7.57317693
_cell_length_c   9.51627100
_cell_angle_alpha   90.00000000
_cell_angle_beta   90.00000000
_cell_angle_gamma   119.52006328
_symmetry_Int_Tables_number   1
_chemical_formula_structural   Gd2(Al3Ir)3
_chemical_formula_sum   'Gd4 Al18 Ir6'
_cell_volume   474.93448792
_cell_formula_units_Z   2
loop_
 _symmetry_equiv_pos_site_id
 _symmetry_equiv_pos_as_xyz
  1  'x, y, z'
loop_
 _atom_site_type_symbol
 _atom_site_label
 _atom_site_symmetry_multiplicity
 _atom_site_fract_x
 _atom_site_fract_y
 _atom_site_fract_z
 _atom_site_occupancy
  Gd  Gd0  1  0.00512900  0.32907800  0.75000000  1
  Gd  Gd1  1  0.32907800  0.00512900  0.75000000  1
  Gd  Gd2  1  0.67092200  0.99487100  0.25000000  1
  Gd  Gd3  1  0.99487100  0.67092200  0.25000000  1
  Al  Al4  1  0.99918200  0.66485200  0.57436500  1
  Al  Al5  1  0.00081800  0.33514800  0.07436500  1
  Al  Al6  1  0.33514800  0.00081800  0.42563500  1
  Al  Al7  1  0.66058300  0.45241700  0.75000000  1
  Al  Al8  1  0.66485200  0.99918200  0.57436500  1
  Al  Al9  1  0.66675500  0.66675500  0.04832500  1
  Al  Al10  1  0.33324500  0.33324500  0.95167500  1
  Al  Al11  1  0.66675500  0.66675500  0.45167500  1
  Al  Al12  1  0.12867300  0.12867300  0.25000000  1
  Al  Al13  1  0.33324500  0.33324500  0.54832500  1
  Al  Al14  1  0.45241700  0.66058300  0.75000000  1
  Al  Al15  1  0.54758300  0.33941700  0.25000000  1
  Al  Al16  1  0.66485200  0.99918200  0.92563500  1
  Al  Al17  1  0.33514800  0.00081800  0.07436500  1
  Al  Al18  1  0.00081800  0.33514800  0.42563500  1
  Al  Al19  1  0.87132700  0.87132700  0.75000000  1
  Al  Al20  1  0.33941700  0.54758300  0.25000000  1
  Al  Al21  1  0.99918200  0.66485200  0.92563500  1
  Ir  Ir22  1  0.67142900  0.32857100  0.00000000  1
  Ir  Ir23  1  0.32857100  0.67142900  0.50000000  1
  Ir  Ir24  1  0.00000000  0.00000000  0.00000000  1
  Ir  Ir25  1  0.32857100  0.67142900  0.00000000  1
  Ir  Ir26  1  0.00000000  0.00000000  0.50000000  1
  Ir  Ir27  1  0.67142900  0.32857100  0.50000000  1
