# generated using pymatgen
data_K12In2Se9
_symmetry_space_group_name_H-M   'P 1'
_cell_length_a   17.26750000
_cell_length_b   12.88381700
_cell_length_c   14.72802068
_cell_angle_alpha   76.68265149
_cell_angle_beta   90.00000000
_cell_angle_gamma   90.00000000
_symmetry_Int_Tables_number   1
_chemical_formula_structural   K12In2Se9
_chemical_formula_sum   'K48 In8 Se36'
_cell_volume   3188.45258640
_cell_formula_units_Z   4
loop_
 _symmetry_equiv_pos_site_id
 _symmetry_equiv_pos_as_xyz
  1  'x, y, z'
loop_
 _atom_site_type_symbol
 _atom_site_label
 _atom_site_symmetry_multiplicity
 _atom_site_fract_x
 _atom_site_fract_y
 _atom_site_fract_z
 _atom_site_occupancy
  K  K0  1  0.05314100  0.58830400  0.05303800  1
  K  K1  1  0.07224400  0.09274100  0.03725700  1
  K  K2  1  0.42775600  0.09274100  0.53725700  1
  K  K3  1  0.10470600  0.31285800  0.81662700  1
  K  K4  1  0.89529400  0.68714200  0.18337300  1
  K  K5  1  0.96168000  0.41313000  0.29353100  1
  K  K6  1  0.72870400  0.04354500  0.96691200  1
  K  K7  1  0.03832000  0.58687000  0.70646900  1
  K  K8  1  0.94685900  0.41169600  0.94696200  1
  K  K9  1  0.81459600  0.32622300  0.55391300  1
  K  K10  1  0.92775600  0.90725900  0.96274300  1
  K  K11  1  0.25345600  0.68035400  0.18576800  1
  K  K12  1  0.60306400  0.16743400  0.69077000  1
  K  K13  1  0.25494400  0.15384500  0.21573500  1
  K  K14  1  0.94669000  0.72368100  0.43770900  1
  K  K15  1  0.44685900  0.58830400  0.55303800  1
  K  K16  1  0.75345600  0.31964600  0.31423200  1
  K  K17  1  0.57224400  0.90725900  0.46274300  1
  K  K18  1  0.31459600  0.67377700  0.94608700  1
  K  K19  1  0.24505600  0.15384500  0.71573500  1
  K  K20  1  0.89693600  0.16743400  0.19077000  1
  K  K21  1  0.75494400  0.84615500  0.28426500  1
  K  K22  1  0.55314100  0.41169600  0.44696200  1
  K  K23  1  0.60470600  0.68714200  0.68337300  1
  K  K24  1  0.94723200  0.97839000  0.62489200  1
  K  K25  1  0.18540400  0.67377700  0.44608700  1
  K  K26  1  0.27129600  0.95645500  0.03308800  1
  K  K27  1  0.24654400  0.68035400  0.68576800  1
  K  K28  1  0.81477700  0.58922300  0.70424100  1
  K  K29  1  0.22870400  0.95645500  0.53308800  1
  K  K30  1  0.68522300  0.58922300  0.20424100  1
  K  K31  1  0.68540400  0.32622300  0.05391300  1
  K  K32  1  0.18522300  0.41077700  0.29575900  1
  K  K33  1  0.77129600  0.04354500  0.46691200  1
  K  K34  1  0.10306400  0.83256600  0.80923000  1
  K  K35  1  0.44723200  0.02161000  0.87510800  1
  K  K36  1  0.39693600  0.83256600  0.30923000  1
  K  K37  1  0.74505600  0.84615500  0.78426500  1
  K  K38  1  0.44669000  0.27631900  0.06229100  1
  K  K39  1  0.05276800  0.02161000  0.37510800  1
  K  K40  1  0.39529400  0.31285800  0.31662700  1
  K  K41  1  0.55331000  0.72368100  0.93770900  1
  K  K42  1  0.74654400  0.31964600  0.81423200  1
  K  K43  1  0.05331000  0.27631900  0.56229100  1
  K  K44  1  0.55276800  0.97839000  0.12489200  1
  K  K45  1  0.31477700  0.41077700  0.79575900  1
  K  K46  1  0.46168000  0.58687000  0.20646900  1
  K  K47  1  0.53832000  0.41313000  0.79353100  1
  In  In48  1  0.58253700  0.17578100  0.29065500  1
  In  In49  1  0.79795500  0.62244100  0.97294800  1
  In  In50  1  0.70204500  0.62244100  0.47294800  1
  In  In51  1  0.20204500  0.37755900  0.02705200  1
  In  In52  1  0.41746300  0.82421900  0.70934500  1
  In  In53  1  0.29795500  0.37755900  0.52705200  1
  In  In54  1  0.91746300  0.17578100  0.79065500  1
  In  In55  1  0.08253700  0.82421900  0.20934500  1
  Se  Se56  1  0.20433400  0.90513700  0.27503700  1
  Se  Se57  1  0.61056800  0.16788000  0.46707500  1
  Se  Se58  1  0.25500900  0.21331700  0.96333600  1
  Se  Se59  1  0.42953300  0.61757900  0.78620300  1
  Se  Se60  1  0.04998500  0.08560500  0.76985300  1
  Se  Se61  1  0.91600700  0.69233000  0.86137300  1
  Se  Se62  1  0.42201500  0.80997400  0.07550800  1
  Se  Se63  1  0.31179600  0.44411800  0.12218500  1
  Se  Se64  1  0.41600700  0.30767000  0.63862700  1
  Se  Se65  1  0.92953300  0.38242100  0.71379700  1
  Se  Se66  1  0.57046700  0.38242100  0.21379700  1
  Se  Se67  1  0.65854600  0.46707300  0.61462500  1
  Se  Se68  1  0.92201500  0.19002600  0.42449200  1
  Se  Se69  1  0.54998500  0.91439500  0.73014700  1
  Se  Se70  1  0.11056800  0.83212000  0.03292500  1
  Se  Se71  1  0.70433400  0.09486300  0.22496300  1
  Se  Se72  1  0.95001500  0.91439500  0.23014700  1
  Se  Se73  1  0.58399300  0.69233000  0.36137300  1
  Se  Se74  1  0.75500900  0.78668300  0.53666400  1
  Se  Se75  1  0.24499100  0.21331700  0.46333600  1
  Se  Se76  1  0.81179600  0.55588200  0.37781500  1
  Se  Se77  1  0.38943200  0.83212000  0.53292500  1
  Se  Se78  1  0.07798500  0.80997400  0.57550800  1
  Se  Se79  1  0.79566600  0.09486300  0.72496300  1
  Se  Se80  1  0.29566600  0.90513700  0.77503700  1
  Se  Se81  1  0.07046700  0.61757900  0.28620300  1
  Se  Se82  1  0.15854600  0.53292700  0.88537500  1
  Se  Se83  1  0.68820400  0.55588200  0.87781500  1
  Se  Se84  1  0.88943200  0.16788000  0.96707500  1
  Se  Se85  1  0.57798500  0.19002600  0.92449200  1
  Se  Se86  1  0.18820400  0.44411800  0.62218500  1
  Se  Se87  1  0.84145400  0.46707300  0.11462500  1
  Se  Se88  1  0.74499100  0.78668300  0.03666400  1
  Se  Se89  1  0.08399300  0.30767000  0.13862700  1
  Se  Se90  1  0.45001500  0.08560500  0.26985300  1
  Se  Se91  1  0.34145400  0.53292700  0.38537500  1
