# generated using pymatgen
data_GaNi2BO5
_symmetry_space_group_name_H-M   'P 1'
_cell_length_a   3.00063200
_cell_length_b   9.32574300
_cell_length_c   12.28843400
_cell_angle_alpha   90.00000000
_cell_angle_beta   90.00000000
_cell_angle_gamma   90.00000000
_symmetry_Int_Tables_number   1
_chemical_formula_structural   GaNi2BO5
_chemical_formula_sum   'Ga4 Ni8 B4 O20'
_cell_volume   343.86875850
_cell_formula_units_Z   4
loop_
 _symmetry_equiv_pos_site_id
 _symmetry_equiv_pos_as_xyz
  1  'x, y, z'
loop_
 _atom_site_type_symbol
 _atom_site_label
 _atom_site_symmetry_multiplicity
 _atom_site_fract_x
 _atom_site_fract_y
 _atom_site_fract_z
 _atom_site_occupancy
  Ga  Ga0  1  0.00000000  0.23887200  0.11615700  1
  Ga  Ga1  1  0.00000000  0.76112800  0.88384300  1
  Ga  Ga2  1  0.00000000  0.73887200  0.38384300  1
  Ga  Ga3  1  0.00000000  0.26112800  0.61615700  1
  Ni  Ni4  1  0.50000000  0.00006900  0.28145800  1
  Ni  Ni5  1  0.50000000  0.99993100  0.71854200  1
  Ni  Ni6  1  0.50000000  0.50006900  0.21854200  1
  Ni  Ni7  1  0.50000000  0.49993100  0.78145800  1
  Ni  Ni8  1  0.50000000  0.00000000  0.00000000  1
  Ni  Ni9  1  0.50000000  0.50000000  0.50000000  1
  Ni  Ni10  1  0.00000000  0.50000000  0.00000000  1
  Ni  Ni11  1  0.00000000  0.00000000  0.50000000  1
  B  B12  1  0.00000000  0.27209800  0.36110200  1
  B  B13  1  0.00000000  0.72790200  0.63889800  1
  B  B14  1  0.00000000  0.77209800  0.13889800  1
  B  B15  1  0.00000000  0.22790200  0.86110200  1
  O  O16  1  0.00000000  0.15141600  0.95856300  1
  O  O17  1  0.00000000  0.84858400  0.04143700  1
  O  O18  1  0.00000000  0.65141600  0.54143700  1
  O  O19  1  0.00000000  0.34858400  0.45856300  1
  O  O20  1  0.50000000  0.11003600  0.14300800  1
  O  O21  1  0.50000000  0.88996400  0.85699200  1
  O  O22  1  0.50000000  0.61003600  0.35699200  1
  O  O23  1  0.50000000  0.38996400  0.64300800  1
  O  O24  1  0.00000000  0.12414500  0.35962300  1
  O  O25  1  0.00000000  0.87585500  0.64037700  1
  O  O26  1  0.00000000  0.62414500  0.14037700  1
  O  O27  1  0.00000000  0.37585500  0.85962300  1
  O  O28  1  0.50000000  0.38138700  0.07900200  1
  O  O29  1  0.50000000  0.61861300  0.92099800  1
  O  O30  1  0.50000000  0.88138700  0.42099800  1
  O  O31  1  0.50000000  0.11861300  0.57900200  1
  O  O32  1  0.00000000  0.34721800  0.26292800  1
  O  O33  1  0.00000000  0.65278200  0.73707200  1
  O  O34  1  0.00000000  0.84721800  0.23707200  1
  O  O35  1  0.00000000  0.15278200  0.76292800  1
