# generated using pymatgen
data_Ca3Fe2(SeO3)6
_symmetry_space_group_name_H-M   'P 1'
_cell_length_a   14.18355762
_cell_length_b   14.18355762
_cell_length_c   14.18355764
_cell_angle_alpha   35.49032068
_cell_angle_beta   35.49032068
_cell_angle_gamma   35.49031803
_symmetry_Int_Tables_number   1
_chemical_formula_structural   Ca3Fe2(SeO3)6
_chemical_formula_sum   'Ca6 Fe4 Se12 O36'
_cell_volume   859.44361802
_cell_formula_units_Z   2
loop_
 _symmetry_equiv_pos_site_id
 _symmetry_equiv_pos_as_xyz
  1  'x, y, z'
loop_
 _atom_site_type_symbol
 _atom_site_label
 _atom_site_symmetry_multiplicity
 _atom_site_fract_x
 _atom_site_fract_y
 _atom_site_fract_z
 _atom_site_occupancy
  Ca  Ca0  1  0.75000000  0.15941800  0.34058200  1
  Ca  Ca1  1  0.84058200  0.65941800  0.25000000  1
  Ca  Ca2  1  0.15941800  0.34058200  0.75000000  1
  Ca  Ca3  1  0.34058200  0.75000000  0.15941800  1
  Ca  Ca4  1  0.65941800  0.25000000  0.84058200  1
  Ca  Ca5  1  0.25000000  0.84058200  0.65941800  1
  Fe  Fe6  1  0.50000000  0.50000000  0.50000000  1
  Fe  Fe7  1  0.25000000  0.25000000  0.25000000  1
  Fe  Fe8  1  0.75000000  0.75000000  0.75000000  1
  Fe  Fe9  1  0.00000000  0.00000000  0.00000000  1
  Se  Se10  1  0.50621100  0.08872700  0.81363900  1
  Se  Se11  1  0.91127300  0.18636100  0.49378900  1
  Se  Se12  1  0.31363900  0.58872700  0.00621100  1
  Se  Se13  1  0.18636100  0.49378900  0.91127300  1
  Se  Se14  1  0.81363900  0.50621100  0.08872700  1
  Se  Se15  1  0.41127300  0.99378900  0.68636100  1
  Se  Se16  1  0.08872700  0.81363900  0.50621100  1
  Se  Se17  1  0.68636100  0.41127300  0.99378900  1
  Se  Se18  1  0.99378900  0.68636100  0.41127300  1
  Se  Se19  1  0.00621100  0.31363900  0.58872700  1
  Se  Se20  1  0.49378900  0.91127300  0.18636100  1
  Se  Se21  1  0.58872700  0.00621100  0.31363900  1
  O  O22  1  0.34413600  0.31525800  0.99900000  1
  O  O23  1  0.50100000  0.18474200  0.15586400  1
  O  O24  1  0.32103900  0.59424200  0.67825800  1
  O  O25  1  0.33628000  0.04881700  0.94111600  1
  O  O26  1  0.83628000  0.44111600  0.54881700  1
  O  O27  1  0.90575800  0.17896100  0.82174200  1
  O  O28  1  0.94111600  0.33628000  0.04881700  1
  O  O29  1  0.65586400  0.68474200  0.00100000  1
  O  O30  1  0.55888400  0.45118300  0.16372000  1
  O  O31  1  0.31525800  0.99900000  0.34413600  1
  O  O32  1  0.82104000  0.17825800  0.09424200  1
  O  O33  1  0.18474200  0.15586400  0.50100000  1
  O  O34  1  0.16372000  0.55888400  0.45118300  1
  O  O35  1  0.99900000  0.34413600  0.31525800  1
  O  O36  1  0.00100000  0.65586400  0.68474200  1
  O  O37  1  0.67825800  0.32103900  0.59424200  1
  O  O38  1  0.04881700  0.94111600  0.33628000  1
  O  O39  1  0.15586400  0.50100000  0.18474200  1
  O  O40  1  0.66372000  0.95118300  0.05888400  1
  O  O41  1  0.17825800  0.09424200  0.82104000  1
  O  O42  1  0.59424200  0.67825800  0.32103900  1
  O  O43  1  0.82174200  0.90575800  0.17896100  1
  O  O44  1  0.81525800  0.84413600  0.49900000  1
  O  O45  1  0.40575800  0.32174200  0.67896000  1
  O  O46  1  0.67896100  0.40575800  0.32174200  1
  O  O47  1  0.54881700  0.83628000  0.44111600  1
  O  O48  1  0.84413600  0.49900000  0.81525800  1
  O  O49  1  0.05888400  0.66372000  0.95118300  1
  O  O50  1  0.32174200  0.67896000  0.40575800  1
  O  O51  1  0.45118300  0.16372000  0.55888400  1
  O  O52  1  0.49900000  0.81525800  0.84413600  1
  O  O53  1  0.68474200  0.00100000  0.65586400  1
  O  O54  1  0.95118300  0.05888400  0.66372000  1
  O  O55  1  0.44111600  0.54881700  0.83628000  1
  O  O56  1  0.17896100  0.82174200  0.90575800  1
  O  O57  1  0.09424200  0.82103900  0.17825800  1
