# generated using pymatgen
data_UV2O8
_symmetry_space_group_name_H-M   'P 1'
_cell_length_a   5.84925200
_cell_length_b   10.72906800
_cell_length_c   12.15782100
_cell_angle_alpha   90.00000000
_cell_angle_beta   90.00000000
_cell_angle_gamma   90.00000000
_symmetry_Int_Tables_number   1
_chemical_formula_structural   UV2O8
_chemical_formula_sum   'U4 V8 O32'
_cell_volume   762.98864553
_cell_formula_units_Z   4
loop_
 _symmetry_equiv_pos_site_id
 _symmetry_equiv_pos_as_xyz
  1  'x, y, z'
loop_
 _atom_site_type_symbol
 _atom_site_label
 _atom_site_symmetry_multiplicity
 _atom_site_fract_x
 _atom_site_fract_y
 _atom_site_fract_z
 _atom_site_occupancy
  U  U0  1  0.92927100  0.89973000  0.25000000  1
  U  U1  1  0.42927100  0.60027000  0.25000000  1
  U  U2  1  0.57072900  0.39973000  0.75000000  1
  U  U3  1  0.07072900  0.10027000  0.75000000  1
  V  V4  1  0.68484700  0.33440800  0.06934000  1
  V  V5  1  0.18484700  0.16559200  0.43066000  1
  V  V6  1  0.81515300  0.83440800  0.93066000  1
  V  V7  1  0.31515300  0.66559200  0.56934000  1
  V  V8  1  0.31515300  0.66559200  0.93066000  1
  V  V9  1  0.81515300  0.83440800  0.56934000  1
  V  V10  1  0.18484700  0.16559200  0.06934000  1
  V  V11  1  0.68484700  0.33440800  0.43066000  1
  O  O12  1  0.45543500  0.23293500  0.10886800  1
  O  O13  1  0.95543500  0.26706500  0.39113200  1
  O  O14  1  0.04456500  0.73293500  0.89113200  1
  O  O15  1  0.54456500  0.76706500  0.60886800  1
  O  O16  1  0.54456500  0.76706500  0.89113200  1
  O  O17  1  0.04456500  0.73293500  0.60886800  1
  O  O18  1  0.95543500  0.26706500  0.10886800  1
  O  O19  1  0.45543500  0.23293500  0.39113200  1
  O  O20  1  0.64729600  0.47303300  0.13361900  1
  O  O21  1  0.14729600  0.02696700  0.36638100  1
  O  O22  1  0.85270400  0.97303300  0.86638100  1
  O  O23  1  0.35270400  0.52696700  0.63361900  1
  O  O24  1  0.35270400  0.52696700  0.86638100  1
  O  O25  1  0.85270400  0.97303300  0.63361900  1
  O  O26  1  0.14729600  0.02696700  0.13361900  1
  O  O27  1  0.64729600  0.47303300  0.36638100  1
  O  O28  1  0.82322200  0.85276700  0.06843700  1
  O  O29  1  0.32322200  0.64723300  0.43156300  1
  O  O30  1  0.67677800  0.35276700  0.93156300  1
  O  O31  1  0.17677800  0.14723300  0.56843700  1
  O  O32  1  0.17677800  0.14723300  0.93156300  1
  O  O33  1  0.67677800  0.35276700  0.56843700  1
  O  O34  1  0.32322200  0.64723300  0.06843700  1
  O  O35  1  0.82322200  0.85276700  0.43156300  1
  O  O36  1  0.70498900  0.01389800  0.25000000  1
  O  O37  1  0.20498900  0.48610200  0.25000000  1
  O  O38  1  0.79501100  0.51389800  0.75000000  1
  O  O39  1  0.29501100  0.98610200  0.75000000  1
  O  O40  1  0.15458800  0.77844300  0.25000000  1
  O  O41  1  0.65458800  0.72155700  0.25000000  1
  O  O42  1  0.34541200  0.27844300  0.75000000  1
  O  O43  1  0.84541200  0.22155700  0.75000000  1
