# generated using pymatgen
data_SrTlVO4
_symmetry_space_group_name_H-M   'P 1'
_cell_length_a   5.95518300
_cell_length_b   7.66787000
_cell_length_c   10.18935300
_cell_angle_alpha   90.00000000
_cell_angle_beta   90.00000000
_cell_angle_gamma   90.00000000
_symmetry_Int_Tables_number   1
_chemical_formula_structural   SrTlVO4
_chemical_formula_sum   'Sr4 Tl4 V4 O16'
_cell_volume   465.28222450
_cell_formula_units_Z   4
loop_
 _symmetry_equiv_pos_site_id
 _symmetry_equiv_pos_as_xyz
  1  'x, y, z'
loop_
 _atom_site_type_symbol
 _atom_site_label
 _atom_site_symmetry_multiplicity
 _atom_site_fract_x
 _atom_site_fract_y
 _atom_site_fract_z
 _atom_site_occupancy
  Sr  Sr0  1  0.97806400  0.25077700  0.70500400  1
  Sr  Sr1  1  0.02193600  0.75077700  0.79499600  1
  Sr  Sr2  1  0.52193600  0.74922300  0.20500400  1
  Sr  Sr3  1  0.47806400  0.24922300  0.29499600  1
  Tl  Tl4  1  0.48038600  0.41452800  0.92267600  1
  Tl  Tl5  1  0.98038600  0.08547200  0.07732400  1
  Tl  Tl6  1  0.51961400  0.91452800  0.57732400  1
  Tl  Tl7  1  0.01961400  0.58547200  0.42267600  1
  V  V8  1  0.51492300  0.46823700  0.58184500  1
  V  V9  1  0.48507700  0.96823700  0.91815500  1
  V  V10  1  0.01492300  0.03176300  0.41815500  1
  V  V11  1  0.98507700  0.53176300  0.08184500  1
  O  O12  1  0.23996800  0.49101500  0.16354900  1
  O  O13  1  0.49857200  0.05021000  0.07879600  1
  O  O14  1  0.74688600  0.54962800  0.66719400  1
  O  O15  1  0.99857200  0.44979000  0.92120400  1
  O  O16  1  0.25311400  0.04962800  0.83280600  1
  O  O17  1  0.73996800  0.00898500  0.83645100  1
  O  O18  1  0.26003200  0.50898500  0.66354900  1
  O  O19  1  0.24688600  0.95037200  0.33280600  1
  O  O20  1  0.43281900  0.74683600  0.93460800  1
  O  O21  1  0.93281900  0.75316400  0.06539200  1
  O  O22  1  0.76003200  0.99101500  0.33645100  1
  O  O23  1  0.50142800  0.55021000  0.42120400  1
  O  O24  1  0.75311400  0.45037200  0.16719400  1
  O  O25  1  0.00142800  0.94979000  0.57879600  1
  O  O26  1  0.06718100  0.25316400  0.43460800  1
  O  O27  1  0.56718100  0.24683600  0.56539200  1
