# generated using pymatgen
data_Y16B4C8I19
_symmetry_space_group_name_H-M   'P 1'
_cell_length_a   12.60743300
_cell_length_b   14.48376410
_cell_length_c   19.84286158
_cell_angle_alpha   104.71143107
_cell_angle_beta   89.61434873
_cell_angle_gamma   112.78139763
_symmetry_Int_Tables_number   1
_chemical_formula_structural   Y16B4C8I19
_chemical_formula_sum   'Y32 B8 C16 I38'
_cell_volume   3214.09453243
_cell_formula_units_Z   2
loop_
 _symmetry_equiv_pos_site_id
 _symmetry_equiv_pos_as_xyz
  1  'x, y, z'
loop_
 _atom_site_type_symbol
 _atom_site_label
 _atom_site_symmetry_multiplicity
 _atom_site_fract_x
 _atom_site_fract_y
 _atom_site_fract_z
 _atom_site_occupancy
  Y  Y0  1  0.31460500  0.34055700  0.22066100  1
  Y  Y1  1  0.57045800  0.34750900  0.22169100  1
  Y  Y2  1  0.68539500  0.65944300  0.77933900  1
  Y  Y3  1  0.39813000  0.26483100  0.04307100  1
  Y  Y4  1  0.32129200  0.71096500  0.54393900  1
  Y  Y5  1  0.85949700  0.72805400  0.54185600  1
  Y  Y6  1  0.63912000  0.50462100  0.40846400  1
  Y  Y7  1  0.44357100  0.65164700  0.27915100  1
  Y  Y8  1  0.39795900  0.26398600  0.37290900  1
  Y  Y9  1  0.13885100  0.27675600  0.95605100  1
  Y  Y10  1  0.32517100  0.71445900  0.04185800  1
  Y  Y11  1  0.40504400  0.26279300  0.87264300  1
  Y  Y12  1  0.86114900  0.72324400  0.04394900  1
  Y  Y13  1  0.67870800  0.28903500  0.45606100  1
  Y  Y14  1  0.60187000  0.73516900  0.95692900  1
  Y  Y15  1  0.59495600  0.73720700  0.12735700  1
  Y  Y16  1  0.63765800  0.50230800  0.09171800  1
  Y  Y17  1  0.36234200  0.49769200  0.90828200  1
  Y  Y18  1  0.14050300  0.27194600  0.45814400  1
  Y  Y19  1  0.69997100  0.65994400  0.27801300  1
  Y  Y20  1  0.40495700  0.26461000  0.54302400  1
  Y  Y21  1  0.36641200  0.49671600  0.40790400  1
  Y  Y22  1  0.36638300  0.49741000  0.09199800  1
  Y  Y23  1  0.63361700  0.50259000  0.90800200  1
  Y  Y24  1  0.42954200  0.65249100  0.77830900  1
  Y  Y25  1  0.36088000  0.49537900  0.59153600  1
  Y  Y26  1  0.67482900  0.28554100  0.95814200  1
  Y  Y27  1  0.59504300  0.73539000  0.45697600  1
  Y  Y28  1  0.63358800  0.50328400  0.59209600  1
  Y  Y29  1  0.55642900  0.34835300  0.72084900  1
  Y  Y30  1  0.30002900  0.34005600  0.72198700  1
  Y  Y31  1  0.60204100  0.73601400  0.62709100  1
  B  B32  1  0.50801500  0.50114700  0.20525400  1
  B  B33  1  0.47077700  0.43011500  0.48699100  1
  B  B34  1  0.49198500  0.49885300  0.79474600  1
  B  B35  1  0.47075300  0.43010100  0.98701900  1
  B  B36  1  0.52924700  0.56989900  0.01298100  1
  B  B37  1  0.49228700  0.50071000  0.70533200  1
  B  B38  1  0.50771300  0.49929000  0.29466800  1
  B  B39  1  0.52922300  0.56988500  0.51300900  1
  C  C40  1  0.66603200  0.63593200  0.52526700  1
  C  C41  1  0.46073500  0.39177500  0.31563500  1
  C  C42  1  0.44985400  0.39169800  0.81600200  1
  C  C43  1  0.44494500  0.63006100  0.02495800  1
  C  C44  1  0.55371600  0.36863400  0.47577900  1
  C  C45  1  0.53926500  0.60822500  0.68436500  1
  C  C46  1  0.33405700  0.36317800  0.97552300  1
  C  C47  1  0.45083700  0.39496000  0.64447200  1
  C  C48  1  0.55505500  0.36993900  0.97504200  1
  C  C49  1  0.66594300  0.63682200  0.02447700  1
  C  C50  1  0.55014600  0.60830200  0.18399800  1
  C  C51  1  0.46114600  0.39524600  0.14463400  1
  C  C52  1  0.44628400  0.63136600  0.52422100  1
  C  C53  1  0.33396800  0.36406800  0.47473300  1
  C  C54  1  0.54916300  0.60504000  0.35552800  1
  C  C55  1  0.53885400  0.60475400  0.85536600  1
  I  I56  1  0.45538900  0.08572200  0.94701800  1
  I  I57  1  0.61689500  0.86775200  0.83389000  1
  I  I58  1  0.50288500  0.90539100  0.64091100  1
  I  I59  1  0.11168700  0.35288800  0.82486800  1
  I  I60  1  0.61521200  0.20503700  0.58419000  1
  I  I61  1  0.86924600  0.19390500  0.43786800  1
  I  I62  1  0.84566900  0.91204700  0.14344800  1
  I  I63  1  0.87324300  0.50603800  0.94957600  1
  I  I64  1  0.86267200  0.81232000  0.70247300  1
  I  I65  1  0.38310500  0.13224800  0.16611000  1
  I  I66  1  0.13732800  0.18768000  0.29752700  1
  I  I67  1  0.77110300  0.36640900  0.32480200  1
  I  I68  1  0.86686000  0.80838700  0.91653700  1
  I  I69  1  0.75081300  0.33860800  0.11447000  1
  I  I70  1  0.54461100  0.91427800  0.05298200  1
  I  I71  1  0.10829400  0.32518800  0.61507600  1
  I  I72  1  0.89170600  0.67481200  0.38492400  1
  I  I73  1  0.81809500  0.92200900  0.53896000  1
  I  I74  1  0.13548800  0.81061000  0.05716600  1
  I  I75  1  0.80563600  0.50978600  0.74892800  1
  I  I76  1  0.86451200  0.18939000  0.94283400  1
  I  I77  1  0.12736900  0.49133500  0.45063400  1
  I  I78  1  0.24918700  0.66139200  0.88553000  1
  I  I79  1  0.13075400  0.80609500  0.56213200  1
  I  I80  1  0.62425200  0.21176500  0.79776800  1
  I  I81  1  0.19436400  0.49021400  0.25107200  1
  I  I82  1  0.18190500  0.07799100  0.46104000  1
  I  I83  1  0.49711500  0.09460900  0.35908900  1
  I  I84  1  0.38478800  0.79496300  0.41581000  1
  I  I85  1  0.15433100  0.08795300  0.85655200  1
  I  I86  1  0.87263100  0.50866500  0.54936600  1
  I  I87  1  0.68394800  0.86851400  0.32794300  1
  I  I88  1  0.13314000  0.19161300  0.08346300  1
  I  I89  1  0.12675700  0.49396200  0.05042400  1
  I  I90  1  0.22889700  0.63359100  0.67519800  1
  I  I91  1  0.37574800  0.78823500  0.20223200  1
  I  I92  1  0.31605200  0.13148600  0.67205700  1
  I  I93  1  0.88831300  0.64711200  0.17513200  1
