# generated using pymatgen
data_USiNi
_symmetry_space_group_name_H-M   'P 1'
_cell_length_a   3.78079500
_cell_length_b   6.88028000
_cell_length_c   7.29293000
_cell_angle_alpha   90.00000000
_cell_angle_beta   90.00000000
_cell_angle_gamma   90.00000000
_symmetry_Int_Tables_number   1
_chemical_formula_structural   USiNi
_chemical_formula_sum   'U4 Si4 Ni4'
_cell_volume   189.71046462
_cell_formula_units_Z   4
loop_
 _symmetry_equiv_pos_site_id
 _symmetry_equiv_pos_as_xyz
  1  'x, y, z'
loop_
 _atom_site_type_symbol
 _atom_site_label
 _atom_site_symmetry_multiplicity
 _atom_site_fract_x
 _atom_site_fract_y
 _atom_site_fract_z
 _atom_site_occupancy
  U  U0  1  0.25000000  0.13228400  0.99829000  1
  U  U1  1  0.75000000  0.86771600  0.00171000  1
  U  U2  1  0.25000000  0.36771600  0.49829000  1
  U  U3  1  0.75000000  0.63228400  0.50171000  1
  Si  Si4  1  0.25000000  0.62705600  0.80351100  1
  Si  Si5  1  0.75000000  0.37294400  0.19648900  1
  Si  Si6  1  0.25000000  0.87294400  0.30351100  1
  Si  Si7  1  0.75000000  0.12705600  0.69648900  1
  Ni  Ni8  1  0.25000000  0.56251800  0.12517700  1
  Ni  Ni9  1  0.75000000  0.43748200  0.87482300  1
  Ni  Ni10  1  0.25000000  0.93748200  0.62517700  1
  Ni  Ni11  1  0.75000000  0.06251800  0.37482300  1
