# generated using pymatgen
data_Tb3CuGeS7
_symmetry_space_group_name_H-M   'P 1'
_cell_length_a   9.90966334
_cell_length_b   9.90966334
_cell_length_c   5.84075700
_cell_angle_alpha   90.00000000
_cell_angle_beta   90.00000000
_cell_angle_gamma   119.99999557
_symmetry_Int_Tables_number   1
_chemical_formula_structural   Tb3CuGeS7
_chemical_formula_sum   'Tb6 Cu2 Ge2 S14'
_cell_volume   496.72679732
_cell_formula_units_Z   2
loop_
 _symmetry_equiv_pos_site_id
 _symmetry_equiv_pos_as_xyz
  1  'x, y, z'
loop_
 _atom_site_type_symbol
 _atom_site_label
 _atom_site_symmetry_multiplicity
 _atom_site_fract_x
 _atom_site_fract_y
 _atom_site_fract_z
 _atom_site_occupancy
  Tb  Tb0  1  0.13278000  0.77555700  0.75527100  1
  Tb  Tb1  1  0.22444300  0.35722300  0.75527100  1
  Tb  Tb2  1  0.77555700  0.64277700  0.25527100  1
  Tb  Tb3  1  0.64277700  0.86722000  0.75527100  1
  Tb  Tb4  1  0.35722300  0.13278000  0.25527100  1
  Tb  Tb5  1  0.86722000  0.22444300  0.25527100  1
  Cu  Cu6  1  0.00000000  0.00000000  0.68756000  1
  Cu  Cu7  1  0.00000000  0.00000000  0.18756000  1
  Ge  Ge8  1  0.66666700  0.33333300  0.83586300  1
  Ge  Ge9  1  0.33333300  0.66666700  0.33586300  1
  S  S10  1  0.90143700  0.48048300  0.99734300  1
  S  S11  1  0.33333300  0.66666700  0.95806300  1
  S  S12  1  0.15958200  0.25842200  0.21632500  1
  S  S13  1  0.48048300  0.57904700  0.49734300  1
  S  S14  1  0.09856300  0.51951700  0.49734300  1
  S  S15  1  0.25842200  0.09884000  0.71632500  1
  S  S16  1  0.42095300  0.90143700  0.49734300  1
  S  S17  1  0.90116000  0.15958200  0.71632500  1
  S  S18  1  0.74157800  0.90116000  0.21632500  1
  S  S19  1  0.51951700  0.42095300  0.99734300  1
  S  S20  1  0.09884000  0.84041800  0.21632500  1
  S  S21  1  0.66666700  0.33333300  0.45806300  1
  S  S22  1  0.57904700  0.09856300  0.99734300  1
  S  S23  1  0.84041800  0.74157800  0.71632500  1
