# generated using pymatgen
data_AsS(BrF2)3
_symmetry_space_group_name_H-M   'P 1'
_cell_length_a   9.60021200
_cell_length_b   8.27350600
_cell_length_c   12.39208937
_cell_angle_alpha   83.17640372
_cell_angle_beta   90.00000000
_cell_angle_gamma   90.00000000
_symmetry_Int_Tables_number   1
_chemical_formula_structural   AsS(BrF2)3
_chemical_formula_sum   'As4 S4 Br12 F24'
_cell_volume   977.29965347
_cell_formula_units_Z   4
loop_
 _symmetry_equiv_pos_site_id
 _symmetry_equiv_pos_as_xyz
  1  'x, y, z'
loop_
 _atom_site_type_symbol
 _atom_site_label
 _atom_site_symmetry_multiplicity
 _atom_site_fract_x
 _atom_site_fract_y
 _atom_site_fract_z
 _atom_site_occupancy
  As  As0  1  0.72918200  0.71070200  0.94132600  1
  As  As1  1  0.27081800  0.28929800  0.05867400  1
  As  As2  1  0.22918200  0.28929800  0.55867400  1
  As  As3  1  0.77081800  0.71070200  0.44132600  1
  S  S4  1  0.29878000  0.70250800  0.78746700  1
  S  S5  1  0.79878000  0.29749200  0.71253300  1
  S  S6  1  0.20122000  0.70250800  0.28746700  1
  S  S7  1  0.70122000  0.29749200  0.21253300  1
  Br  Br8  1  0.19884600  0.92025600  0.37162900  1
  Br  Br9  1  0.55925800  0.24338200  0.34990900  1
  Br  Br10  1  0.44074200  0.75661800  0.65009100  1
  Br  Br11  1  0.90792800  0.29500100  0.28514900  1
  Br  Br12  1  0.59207200  0.29500100  0.78514900  1
  Br  Br13  1  0.69884600  0.07974400  0.12837100  1
  Br  Br14  1  0.80115400  0.07974400  0.62837100  1
  Br  Br15  1  0.30115400  0.92025600  0.87162900  1
  Br  Br16  1  0.05925800  0.75661800  0.15009100  1
  Br  Br17  1  0.40792800  0.70499900  0.21485100  1
  Br  Br18  1  0.94074200  0.24338200  0.84990900  1
  Br  Br19  1  0.09207200  0.70499900  0.71485100  1
  F  F20  1  0.10214000  0.20934100  0.03306100  1
  F  F21  1  0.67253600  0.76170500  0.07096500  1
  F  F22  1  0.21322400  0.33918700  0.18634100  1
  F  F23  1  0.28238900  0.48314700  0.49581000  1
  F  F24  1  0.17253600  0.23829500  0.42903500  1
  F  F25  1  0.17786000  0.09300200  0.61811000  1
  F  F26  1  0.78238900  0.51685300  0.00419000  1
  F  F27  1  0.32214000  0.09300200  0.11811000  1
  F  F28  1  0.43893200  0.36605200  0.08231600  1
  F  F29  1  0.82746400  0.76170500  0.57096500  1
  F  F30  1  0.78677600  0.66081300  0.81365900  1
  F  F31  1  0.89786000  0.79065900  0.96693900  1
  F  F32  1  0.60214000  0.79065900  0.46693900  1
  F  F33  1  0.39786000  0.20934100  0.53306100  1
  F  F34  1  0.32746400  0.23829500  0.92903500  1
  F  F35  1  0.06106800  0.36605200  0.58231600  1
  F  F36  1  0.21761100  0.48314700  0.99581000  1
  F  F37  1  0.71761100  0.51685300  0.50419000  1
  F  F38  1  0.93893200  0.63394800  0.41768400  1
  F  F39  1  0.71322400  0.66081300  0.31365900  1
  F  F40  1  0.56106800  0.63394800  0.91768400  1
  F  F41  1  0.82214000  0.90699800  0.38189000  1
  F  F42  1  0.67786000  0.90699800  0.88189000  1
  F  F43  1  0.28677600  0.33918700  0.68634100  1
