# generated using pymatgen
data_Sm9(SbO)5
_symmetry_space_group_name_H-M   'P 1'
_cell_length_a   10.11498800
_cell_length_b   10.11498800
_cell_length_c   9.10737600
_cell_angle_alpha   90.00000000
_cell_angle_beta   90.00000000
_cell_angle_gamma   90.00000000
_symmetry_Int_Tables_number   1
_chemical_formula_structural   Sm9(SbO)5
_chemical_formula_sum   'Sm18 Sb10 O10'
_cell_volume   931.80279894
_cell_formula_units_Z   2
loop_
 _symmetry_equiv_pos_site_id
 _symmetry_equiv_pos_as_xyz
  1  'x, y, z'
loop_
 _atom_site_type_symbol
 _atom_site_label
 _atom_site_symmetry_multiplicity
 _atom_site_fract_x
 _atom_site_fract_y
 _atom_site_fract_z
 _atom_site_occupancy
  Sm  Sm0  1  0.27379800  0.08203600  0.00138800  1
  Sm  Sm1  1  0.70472900  0.39595400  0.65676600  1
  Sm  Sm2  1  0.29527100  0.60404600  0.65676600  1
  Sm  Sm3  1  0.22620200  0.41796400  0.99861200  1
  Sm  Sm4  1  0.39595400  0.29527100  0.34323400  1
  Sm  Sm5  1  0.60404600  0.70472900  0.34323400  1
  Sm  Sm6  1  0.58203600  0.22620200  0.00138800  1
  Sm  Sm7  1  0.79527100  0.10404600  0.34323400  1
  Sm  Sm8  1  0.08203600  0.72620200  0.99861200  1
  Sm  Sm9  1  0.10404600  0.20472900  0.65676600  1
  Sm  Sm10  1  0.91796400  0.27379800  0.99861200  1
  Sm  Sm11  1  0.20472900  0.89595400  0.34323400  1
  Sm  Sm12  1  0.50000000  0.00000000  0.66998500  1
  Sm  Sm13  1  0.41796400  0.77379800  0.00138800  1
  Sm  Sm14  1  0.77379800  0.58203600  0.99861200  1
  Sm  Sm15  1  0.00000000  0.50000000  0.33001500  1
  Sm  Sm16  1  0.89595400  0.79527100  0.65676600  1
  Sm  Sm17  1  0.72620200  0.91796400  0.00138800  1
  Sb  Sb18  1  0.30373600  0.59629600  0.30065700  1
  Sb  Sb19  1  0.69626400  0.40370400  0.30065700  1
  Sb  Sb20  1  0.90370400  0.80373600  0.30065700  1
  Sb  Sb21  1  0.40370400  0.30373600  0.69934300  1
  Sb  Sb22  1  0.09629600  0.19626400  0.30065700  1
  Sb  Sb23  1  0.50000000  0.00000000  0.31624900  1
  Sb  Sb24  1  0.80373600  0.09629600  0.69934300  1
  Sb  Sb25  1  0.00000000  0.50000000  0.68375100  1
  Sb  Sb26  1  0.59629600  0.69626400  0.69934300  1
  Sb  Sb27  1  0.19626400  0.90370400  0.69934300  1
  O  O28  1  0.37957700  0.27525700  0.08856200  1
  O  O29  1  0.72474300  0.37957700  0.91143800  1
  O  O30  1  0.62042300  0.72474300  0.08856200  1
  O  O31  1  0.27525700  0.62042300  0.91143800  1
  O  O32  1  0.22474300  0.87957700  0.08856200  1
  O  O33  1  0.87957700  0.77525700  0.91143800  1
  O  O34  1  0.00000000  0.50000000  0.06581100  1
  O  O35  1  0.12042300  0.22474300  0.91143800  1
  O  O36  1  0.50000000  0.00000000  0.93418900  1
  O  O37  1  0.77525700  0.12042300  0.08856200  1
