# generated using pymatgen
data_Ag2Bi2S3Cl2
_symmetry_space_group_name_H-M   'P 1'
_cell_length_a   7.31741900
_cell_length_b   11.18092455
_cell_length_c   11.42075444
_cell_angle_alpha   104.92426220
_cell_angle_beta   89.65925611
_cell_angle_gamma   91.87502258
_symmetry_Int_Tables_number   1
_chemical_formula_structural   Ag2Bi2S3Cl2
_chemical_formula_sum   'Ag8 Bi8 S12 Cl8'
_cell_volume   902.38861002
_cell_formula_units_Z   4
loop_
 _symmetry_equiv_pos_site_id
 _symmetry_equiv_pos_as_xyz
  1  'x, y, z'
loop_
 _atom_site_type_symbol
 _atom_site_label
 _atom_site_symmetry_multiplicity
 _atom_site_fract_x
 _atom_site_fract_y
 _atom_site_fract_z
 _atom_site_occupancy
  Ag  Ag0  1  0.51364200  0.70971200  0.30042100  1
  Ag  Ag1  1  0.98315600  0.30926800  0.20436100  1
  Ag  Ag2  1  0.25481700  0.50541400  0.35207400  1
  Ag  Ag3  1  0.74518300  0.49458600  0.64792600  1
  Ag  Ag4  1  0.25587900  0.49446000  0.85198200  1
  Ag  Ag5  1  0.74412100  0.50554000  0.14801800  1
  Ag  Ag6  1  0.01684400  0.69073200  0.79563900  1
  Ag  Ag7  1  0.48635800  0.29028800  0.69957900  1
  Bi  Bi8  1  0.92668200  0.79870000  0.48710600  1
  Bi  Bi9  1  0.10988100  0.79795200  0.15810500  1
  Bi  Bi10  1  0.38831300  0.20548100  0.01567200  1
  Bi  Bi11  1  0.61168700  0.79451900  0.98432800  1
  Bi  Bi12  1  0.89011900  0.20204800  0.84189500  1
  Bi  Bi13  1  0.07331800  0.20130000  0.51289400  1
  Bi  Bi14  1  0.57290200  0.20032800  0.34033100  1
  Bi  Bi15  1  0.42709800  0.79967200  0.65966900  1
  S  S16  1  0.99299400  0.36685100  0.71798300  1
  S  S17  1  0.38123300  0.34064300  0.51394800  1
  S  S18  1  0.09740100  0.34697200  0.01340400  1
  S  S19  1  0.00700600  0.63314900  0.28201700  1
  S  S20  1  0.40386700  0.65491700  0.08904900  1
  S  S21  1  0.87496900  0.34342000  0.41481000  1
  S  S22  1  0.49405800  0.36920200  0.22077600  1
  S  S23  1  0.59613300  0.34508300  0.91095100  1
  S  S24  1  0.50594200  0.63079800  0.77922400  1
  S  S25  1  0.90259900  0.65302800  0.98659600  1
  S  S26  1  0.61876700  0.65935700  0.48605200  1
  S  S27  1  0.12503100  0.65658000  0.58519000  1
  Cl  Cl28  1  0.78675800  0.89478400  0.76343200  1
  Cl  Cl29  1  0.72216100  0.09313100  0.56722600  1
  Cl  Cl30  1  0.21324200  0.10521600  0.23656800  1
  Cl  Cl31  1  0.73659700  0.10185800  0.05953800  1
  Cl  Cl32  1  0.23469200  0.09560000  0.73902500  1
  Cl  Cl33  1  0.26340300  0.89814200  0.94046200  1
  Cl  Cl34  1  0.76530800  0.90440000  0.26097500  1
  Cl  Cl35  1  0.27783900  0.90686900  0.43277400  1
