# generated using pymatgen
data_NaPr4I7N2
_symmetry_space_group_name_H-M   'P 1'
_cell_length_a   11.23718700
_cell_length_b   12.19621300
_cell_length_c   14.51525600
_cell_angle_alpha   90.00000000
_cell_angle_beta   90.00000000
_cell_angle_gamma   90.00000000
_symmetry_Int_Tables_number   1
_chemical_formula_structural   NaPr4I7N2
_chemical_formula_sum   'Na4 Pr16 I28 N8'
_cell_volume   1989.33218149
_cell_formula_units_Z   4
loop_
 _symmetry_equiv_pos_site_id
 _symmetry_equiv_pos_as_xyz
  1  'x, y, z'
loop_
 _atom_site_type_symbol
 _atom_site_label
 _atom_site_symmetry_multiplicity
 _atom_site_fract_x
 _atom_site_fract_y
 _atom_site_fract_z
 _atom_site_occupancy
  Na  Na0  1  0.95021200  0.75452800  0.09681800  1
  Na  Na1  1  0.45021200  0.25452800  0.40318200  1
  Na  Na2  1  0.54978800  0.75452800  0.59681800  1
  Na  Na3  1  0.04978800  0.25452800  0.90318200  1
  Pr  Pr4  1  0.89616300  0.55720200  0.58713900  1
  Pr  Pr5  1  0.41683700  0.82088900  0.10139300  1
  Pr  Pr6  1  0.87635200  0.08012100  0.58224200  1
  Pr  Pr7  1  0.62364800  0.08012100  0.08224200  1
  Pr  Pr8  1  0.91683700  0.32088900  0.39860700  1
  Pr  Pr9  1  0.08316300  0.82088900  0.60139300  1
  Pr  Pr10  1  0.12297500  0.31415100  0.58479000  1
  Pr  Pr11  1  0.37635200  0.58012100  0.91775800  1
  Pr  Pr12  1  0.58316300  0.32088900  0.89860700  1
  Pr  Pr13  1  0.37702500  0.31415100  0.08479000  1
  Pr  Pr14  1  0.10383700  0.05720200  0.41286100  1
  Pr  Pr15  1  0.87702500  0.81415100  0.41521000  1
  Pr  Pr16  1  0.39616300  0.05720200  0.91286100  1
  Pr  Pr17  1  0.60383700  0.55720200  0.08713900  1
  Pr  Pr18  1  0.62297500  0.81415100  0.91521000  1
  Pr  Pr19  1  0.12364800  0.58012100  0.41775800  1
  I  I20  1  0.18961600  0.78849800  0.97759200  1
  I  I21  1  0.18831100  0.29287300  0.29551100  1
  I  I22  1  0.87086900  0.09305100  0.27464500  1
  I  I23  1  0.59394800  0.33084000  0.23073400  1
  I  I24  1  0.43387100  0.03479100  0.24603100  1
  I  I25  1  0.18073000  0.11305200  0.04659500  1
  I  I26  1  0.12913100  0.59305100  0.72535500  1
  I  I27  1  0.09394800  0.83084000  0.26926600  1
  I  I28  1  0.65206600  0.95825700  0.48453000  1
  I  I29  1  0.34793400  0.45825700  0.51547000  1
  I  I30  1  0.31038400  0.78849800  0.47759200  1
  I  I31  1  0.62913100  0.09305100  0.77464500  1
  I  I32  1  0.81038400  0.28849800  0.02240800  1
  I  I33  1  0.68073000  0.61305200  0.45340500  1
  I  I34  1  0.40605200  0.83084000  0.76926600  1
  I  I35  1  0.56612900  0.53479100  0.75396900  1
  I  I36  1  0.37086900  0.59305100  0.22535500  1
  I  I37  1  0.68831100  0.79287300  0.20448900  1
  I  I38  1  0.90605200  0.33084000  0.73073400  1
  I  I39  1  0.68961600  0.28849800  0.52240800  1
  I  I40  1  0.31168900  0.29287300  0.79551100  1
  I  I41  1  0.31927000  0.11305200  0.54659500  1
  I  I42  1  0.15206600  0.45825700  0.01547000  1
  I  I43  1  0.84793400  0.95825700  0.98453000  1
  I  I44  1  0.93387100  0.53479100  0.25396900  1
  I  I45  1  0.81927000  0.61305200  0.95340500  1
  I  I46  1  0.06612900  0.03479100  0.74603100  1
  I  I47  1  0.81168900  0.79287300  0.70448900  1
  N  N48  1  0.98468800  0.94345200  0.50311500  1
  N  N49  1  0.49452200  0.19262600  0.99675500  1
  N  N50  1  0.51531200  0.94345200  0.00311500  1
  N  N51  1  0.48468800  0.44345200  0.99688500  1
  N  N52  1  0.01531200  0.44345200  0.49688500  1
  N  N53  1  0.50547800  0.69262600  0.00324500  1
  N  N54  1  0.00547800  0.19262600  0.49675500  1
  N  N55  1  0.99452200  0.69262600  0.50324500  1
