# generated using pymatgen
data_Rb2Tb10C4Br19
_symmetry_space_group_name_H-M   'P 1'
_cell_length_a   12.86934000
_cell_length_b   14.58477800
_cell_length_c   23.44345100
_cell_angle_alpha   90.00000000
_cell_angle_beta   90.00000000
_cell_angle_gamma   90.00000000
_symmetry_Int_Tables_number   1
_chemical_formula_structural   Rb2Tb10C4Br19
_chemical_formula_sum   'Rb8 Tb40 C16 Br76'
_cell_volume   4400.25292480
_cell_formula_units_Z   4
loop_
 _symmetry_equiv_pos_site_id
 _symmetry_equiv_pos_as_xyz
  1  'x, y, z'
loop_
 _atom_site_type_symbol
 _atom_site_label
 _atom_site_symmetry_multiplicity
 _atom_site_fract_x
 _atom_site_fract_y
 _atom_site_fract_z
 _atom_site_occupancy
  Tb  Tb0  1  0.11638500  0.31241600  0.97891600  1
  Tb  Tb1  1  0.37198600  0.58629900  0.76465200  1
  Tb  Tb2  1  0.10077800  0.31261900  0.82660800  1
  Tb  Tb3  1  0.38818800  0.31684200  0.17240900  1
  Tb  Tb4  1  0.88818800  0.68315800  0.32759100  1
  Tb  Tb5  1  0.38818800  0.81684200  0.82759100  1
  Tb  Tb6  1  0.63129400  0.91468300  0.58783600  1
  Tb  Tb7  1  0.61181200  0.18315800  0.17240900  1
  Tb  Tb8  1  0.11181200  0.81684200  0.32759100  1
  Tb  Tb9  1  0.12801400  0.58629900  0.26465200  1
  Tb  Tb10  1  0.37198600  0.08629900  0.23534800  1
  Tb  Tb11  1  0.86870600  0.41468300  0.91216400  1
  Tb  Tb12  1  0.13129400  0.58531700  0.08783600  1
  Tb  Tb13  1  0.39922200  0.31261900  0.32660800  1
  Tb  Tb14  1  0.88818800  0.18315800  0.67240900  1
  Tb  Tb15  1  0.88361500  0.68758400  0.02108400  1
  Tb  Tb16  1  0.10077800  0.81261900  0.17339200  1
  Tb  Tb17  1  0.60077800  0.68738100  0.67339200  1
  Tb  Tb18  1  0.89922200  0.18738100  0.82660800  1
  Tb  Tb19  1  0.12801400  0.08629900  0.73534800  1
  Tb  Tb20  1  0.36870600  0.58531700  0.58783600  1
  Tb  Tb21  1  0.11181200  0.31684200  0.67240900  1
  Tb  Tb22  1  0.11638500  0.81241600  0.02108400  1
  Tb  Tb23  1  0.38361500  0.31241600  0.47891600  1
  Tb  Tb24  1  0.88361500  0.18758400  0.97891600  1
  Tb  Tb25  1  0.87198600  0.41370100  0.73534800  1
  Tb  Tb26  1  0.61638500  0.18758400  0.47891600  1
  Tb  Tb27  1  0.36870600  0.08531700  0.41216400  1
  Tb  Tb28  1  0.60077800  0.18738100  0.32660800  1
  Tb  Tb29  1  0.39922200  0.81261900  0.67339200  1
  Tb  Tb30  1  0.63129400  0.41468300  0.41216400  1
  Tb  Tb31  1  0.13129400  0.08531700  0.91216400  1
  Tb  Tb32  1  0.87198600  0.91370100  0.26465200  1
  Tb  Tb33  1  0.61181200  0.68315800  0.82759100  1
  Tb  Tb34  1  0.89922200  0.68738100  0.17339200  1
  Tb  Tb35  1  0.62801400  0.41370100  0.23534800  1
  Tb  Tb36  1  0.61638500  0.68758400  0.52108400  1
  Tb  Tb37  1  0.86870600  0.91468300  0.08783600  1
  Tb  Tb38  1  0.38361500  0.81241600  0.52108400  1
  Tb  Tb39  1  0.62801400  0.91370100  0.76465200  1
  Rb  Rb40  1  0.00000000  0.75000000  0.77087200  1
  Rb  Rb41  1  0.00000000  0.25000000  0.22912800  1
  Rb  Rb42  1  0.00000000  0.50000000  0.50000000  1
  Rb  Rb43  1  0.50000000  0.50000000  0.00000000  1
  Rb  Rb44  1  0.50000000  0.25000000  0.72912800  1
  Rb  Rb45  1  0.50000000  0.00000000  0.00000000  1
  Rb  Rb46  1  0.50000000  0.75000000  0.27087200  1
  Rb  Rb47  1  0.00000000  0.00000000  0.50000000  1
  C  C48  1  0.96891400  0.79042600  0.25734600  1
  C  C49  1  0.03108600  0.20957400  0.74265400  1
  C  C50  1  0.96907400  0.29085500  0.90907500  1
  C  C51  1  0.53108600  0.79042600  0.75734600  1
  C  C52  1  0.03092600  0.70914500  0.09092500  1
  C  C53  1  0.03108600  0.70957400  0.25734600  1
  C  C54  1  0.03092600  0.20914500  0.90907500  1
  C  C55  1  0.53092600  0.29085500  0.40907500  1
  C  C56  1  0.53092600  0.79085500  0.59092500  1
  C  C57  1  0.96907400  0.79085500  0.09092500  1
  C  C58  1  0.46907400  0.70914500  0.59092500  1
  C  C59  1  0.46891400  0.20957400  0.24265400  1
  C  C60  1  0.96891400  0.29042600  0.74265400  1
  C  C61  1  0.53108600  0.29042600  0.24265400  1
  C  C62  1  0.46891400  0.70957400  0.75734600  1
  C  C63  1  0.46907400  0.20914500  0.40907500  1
  Br  Br64  1  0.74346300  0.60171700  0.25103700  1
  Br  Br65  1  0.26357100  0.17123300  0.65849400  1
  Br  Br66  1  0.76360800  0.83489000  0.50778200  1
  Br  Br67  1  0.75653700  0.60171700  0.75103700  1
  Br  Br68  1  0.26445400  0.65893700  0.17505100  1
  Br  Br69  1  0.26357100  0.67123300  0.34150600  1
  Br  Br70  1  0.76357100  0.32876700  0.15849400  1
  Br  Br71  1  0.50794000  0.50602100  0.84521000  1
  Br  Br72  1  0.74818800  0.59450200  0.92659300  1
  Br  Br73  1  0.73639200  0.33489000  0.99221800  1
  Br  Br74  1  0.25435500  0.40430600  0.40413900  1
  Br  Br75  1  0.25181200  0.40549800  0.07340700  1
  Br  Br76  1  0.49206000  0.49397900  0.15479000  1
  Br  Br77  1  0.73639200  0.83489000  0.00778200  1
  Br  Br78  1  0.76445400  0.34106300  0.32494900  1
  Br  Br79  1  0.99206000  0.50602100  0.34521000  1
  Br  Br80  1  0.75653700  0.10171700  0.24896300  1
  Br  Br81  1  0.49206000  0.99397900  0.84521000  1
  Br  Br82  1  0.50794000  0.00602100  0.15479000  1
  Br  Br83  1  0.73554600  0.84106300  0.17505100  1
  Br  Br84  1  0.23639200  0.66511000  0.50778200  1
  Br  Br85  1  0.00000000  0.75000000  0.92644400  1
  Br  Br86  1  0.75435500  0.59569400  0.09586100  1
  Br  Br87  1  0.23642900  0.67123300  0.84150600  1
  Br  Br88  1  0.00794000  0.99397900  0.34521000  1
  Br  Br89  1  0.50000000  0.25000000  0.57355600  1
  Br  Br90  1  0.25653700  0.89828300  0.25103700  1
  Br  Br91  1  0.75435500  0.09569400  0.90413900  1
  Br  Br92  1  0.74564500  0.59569400  0.59586100  1
  Br  Br93  1  0.00000000  0.25000000  0.07355600  1
  Br  Br94  1  0.50386800  0.50239200  0.32516700  1
  Br  Br95  1  0.73642900  0.32876700  0.65849400  1
  Br  Br96  1  0.00000000  0.75000000  0.42313100  1
  Br  Br97  1  0.26445400  0.15893700  0.82494900  1
  Br  Br98  1  0.99206000  0.00602100  0.65479000  1
  Br  Br99  1  0.74346300  0.10171700  0.74896300  1
  Br  Br100  1  0.24564500  0.40430600  0.90413900  1
  Br  Br101  1  0.50000000  0.50000000  0.50000000  1
  Br  Br102  1  0.24346300  0.89828300  0.75103700  1
  Br  Br103  1  0.23642900  0.17123300  0.15849400  1
  Br  Br104  1  0.49613200  0.49760800  0.67483300  1
  Br  Br105  1  0.24818800  0.40549800  0.57340700  1
  Br  Br106  1  0.76445400  0.84106300  0.67505100  1
  Br  Br107  1  0.75181200  0.09450200  0.57340700  1
  Br  Br108  1  0.76357100  0.82876700  0.84150600  1
  Br  Br109  1  0.00386800  0.49760800  0.17483300  1
  Br  Br110  1  0.25181200  0.90549800  0.92659300  1
  Br  Br111  1  0.23554600  0.65893700  0.67505100  1
  Br  Br112  1  0.24564500  0.90430600  0.09586100  1
  Br  Br113  1  0.23639200  0.16511000  0.49221800  1
  Br  Br114  1  0.50000000  0.25000000  0.07686900  1
  Br  Br115  1  0.00000000  0.25000000  0.57686900  1
  Br  Br116  1  0.99613200  0.50239200  0.82516700  1
  Br  Br117  1  0.25653700  0.39828300  0.74896300  1
  Br  Br118  1  0.75181200  0.59450200  0.42659300  1
  Br  Br119  1  0.00000000  0.50000000  0.00000000  1
  Br  Br120  1  0.50000000  0.75000000  0.42644400  1
  Br  Br121  1  0.00000000  0.00000000  0.00000000  1
  Br  Br122  1  0.50386800  0.00239200  0.67483300  1
  Br  Br123  1  0.24818800  0.90549800  0.42659300  1
  Br  Br124  1  0.49613200  0.99760800  0.32516700  1
  Br  Br125  1  0.26360800  0.66511000  0.00778200  1
  Br  Br126  1  0.74564500  0.09569400  0.40413900  1
  Br  Br127  1  0.74818800  0.09450200  0.07340700  1
  Br  Br128  1  0.50000000  0.75000000  0.92313100  1
  Br  Br129  1  0.73554600  0.34106300  0.82494900  1
  Br  Br130  1  0.25435500  0.90430600  0.59586100  1
  Br  Br131  1  0.00794000  0.49397900  0.65479000  1
  Br  Br132  1  0.24346300  0.39828300  0.24896300  1
  Br  Br133  1  0.50000000  0.00000000  0.50000000  1
  Br  Br134  1  0.99613200  0.00239200  0.17483300  1
  Br  Br135  1  0.73642900  0.82876700  0.34150600  1
  Br  Br136  1  0.26360800  0.16511000  0.99221800  1
  Br  Br137  1  0.76360800  0.33489000  0.49221800  1
  Br  Br138  1  0.23554600  0.15893700  0.32494900  1
  Br  Br139  1  0.00386800  0.99760800  0.82516700  1
