# generated using pymatgen
data_Cs3Cu2Br5
_symmetry_space_group_name_H-M   'P 1'
_cell_length_a   9.84892100
_cell_length_b   11.10559300
_cell_length_c   13.85137900
_cell_angle_alpha   90.00000000
_cell_angle_beta   90.00000000
_cell_angle_gamma   90.00000000
_symmetry_Int_Tables_number   1
_chemical_formula_structural   Cs3Cu2Br5
_chemical_formula_sum   'Cs12 Cu8 Br20'
_cell_volume   1515.03762981
_cell_formula_units_Z   4
loop_
 _symmetry_equiv_pos_site_id
 _symmetry_equiv_pos_as_xyz
  1  'x, y, z'
loop_
 _atom_site_type_symbol
 _atom_site_label
 _atom_site_symmetry_multiplicity
 _atom_site_fract_x
 _atom_site_fract_y
 _atom_site_fract_z
 _atom_site_occupancy
  Cs  Cs0  1  0.40193200  0.75000000  0.45436600  1
  Cs  Cs1  1  0.54660300  0.51474700  0.82248300  1
  Cs  Cs2  1  0.09806800  0.25000000  0.95436600  1
  Cs  Cs3  1  0.04660300  0.51474700  0.67751700  1
  Cs  Cs4  1  0.45339700  0.48525300  0.17751700  1
  Cs  Cs5  1  0.04660300  0.98525300  0.67751700  1
  Cs  Cs6  1  0.54660300  0.98525300  0.82248300  1
  Cs  Cs7  1  0.95339700  0.48525300  0.32248300  1
  Cs  Cs8  1  0.95339700  0.01474700  0.32248300  1
  Cs  Cs9  1  0.90193200  0.75000000  0.04563400  1
  Cs  Cs10  1  0.59806800  0.25000000  0.54563400  1
  Cs  Cs11  1  0.45339700  0.01474700  0.17751700  1
  Cu  Cu12  1  0.74748800  0.75000000  0.63077300  1
  Cu  Cu13  1  0.29236100  0.75000000  0.04783100  1
  Cu  Cu14  1  0.25251200  0.25000000  0.36922700  1
  Cu  Cu15  1  0.75251200  0.25000000  0.13077300  1
  Cu  Cu16  1  0.20763900  0.25000000  0.54783100  1
  Cu  Cu17  1  0.70763900  0.25000000  0.95216900  1
  Cu  Cu18  1  0.79236100  0.75000000  0.45216900  1
  Cu  Cu19  1  0.24748800  0.75000000  0.86922700  1
  Br  Br20  1  0.53158400  0.75000000  0.01196600  1
  Br  Br21  1  0.66816700  0.25000000  0.29056000  1
  Br  Br22  1  0.29839100  0.25000000  0.70781800  1
  Br  Br23  1  0.16816700  0.25000000  0.20944000  1
  Br  Br24  1  0.03158400  0.75000000  0.48803400  1
  Br  Br25  1  0.19158500  0.93666800  0.94725500  1
  Br  Br26  1  0.70160900  0.75000000  0.29218200  1
  Br  Br27  1  0.80841500  0.06333200  0.05274500  1
  Br  Br28  1  0.30841500  0.06333200  0.44725500  1
  Br  Br29  1  0.83183300  0.75000000  0.79056000  1
  Br  Br30  1  0.96841600  0.25000000  0.51196600  1
  Br  Br31  1  0.80841500  0.43666800  0.05274500  1
  Br  Br32  1  0.46841600  0.25000000  0.98803400  1
  Br  Br33  1  0.33183300  0.75000000  0.70944000  1
  Br  Br34  1  0.69158500  0.56333200  0.55274500  1
  Br  Br35  1  0.69158500  0.93666800  0.55274500  1
  Br  Br36  1  0.30841500  0.43666800  0.44725500  1
  Br  Br37  1  0.79839100  0.25000000  0.79218200  1
  Br  Br38  1  0.20160900  0.75000000  0.20781800  1
  Br  Br39  1  0.19158500  0.56333200  0.94725500  1
