# generated using pymatgen
data_K2Zn(GeO3)2
_symmetry_space_group_name_H-M   'P 1'
_cell_length_a   5.92702533
_cell_length_b   5.92702533
_cell_length_c   11.06502900
_cell_angle_alpha   90.00000000
_cell_angle_beta   90.00000000
_cell_angle_gamma   113.36988322
_symmetry_Int_Tables_number   1
_chemical_formula_structural   K2Zn(GeO3)2
_chemical_formula_sum   'K4 Zn2 Ge4 O12'
_cell_volume   356.82183307
_cell_formula_units_Z   2
loop_
 _symmetry_equiv_pos_site_id
 _symmetry_equiv_pos_as_xyz
  1  'x, y, z'
loop_
 _atom_site_type_symbol
 _atom_site_label
 _atom_site_symmetry_multiplicity
 _atom_site_fract_x
 _atom_site_fract_y
 _atom_site_fract_z
 _atom_site_occupancy
  K  K0  1  0.78371100  0.43033800  0.92699200  1
  K  K1  1  0.56966200  0.21628900  0.57300800  1
  K  K2  1  0.21628900  0.56966200  0.42699200  1
  K  K3  1  0.43033800  0.78371100  0.07300800  1
  Zn  Zn4  1  0.69119400  0.30880600  0.25000000  1
  Zn  Zn5  1  0.30880600  0.69119400  0.75000000  1
  Ge  Ge6  1  0.82584700  0.86202800  0.36225100  1
  Ge  Ge7  1  0.13797200  0.17415300  0.13774900  1
  Ge  Ge8  1  0.17415300  0.13797200  0.86225100  1
  Ge  Ge9  1  0.86202800  0.82584700  0.63774900  1
  O  O10  1  0.60737000  0.98434000  0.33233800  1
  O  O11  1  0.54135000  0.70474600  0.61981400  1
  O  O12  1  0.70474600  0.54135000  0.38018600  1
  O  O13  1  0.39263000  0.01566000  0.83233800  1
  O  O14  1  0.99700400  0.99700400  0.50000000  1
  O  O15  1  0.45865000  0.29525400  0.11981400  1
  O  O16  1  0.06213500  0.93786500  0.25000000  1
  O  O17  1  0.29525400  0.45865000  0.88018600  1
  O  O18  1  0.00299600  0.00299600  0.00000000  1
  O  O19  1  0.93786500  0.06213500  0.75000000  1
  O  O20  1  0.01566000  0.39263000  0.16766200  1
  O  O21  1  0.98434000  0.60737000  0.66766200  1
