# generated using pymatgen
data_CePS4
_symmetry_space_group_name_H-M   'P 1'
_cell_length_a   12.47772009
_cell_length_b   12.47772009
_cell_length_c   12.47772009
_cell_angle_alpha   127.14652781
_cell_angle_beta   127.14652781
_cell_angle_gamma   78.01175800
_symmetry_Int_Tables_number   1
_chemical_formula_structural   CePS4
_chemical_formula_sum   'Ce8 P8 S32'
_cell_volume   1196.06800521
_cell_formula_units_Z   8
loop_
 _symmetry_equiv_pos_site_id
 _symmetry_equiv_pos_as_xyz
  1  'x, y, z'
loop_
 _atom_site_type_symbol
 _atom_site_label
 _atom_site_symmetry_multiplicity
 _atom_site_fract_x
 _atom_site_fract_y
 _atom_site_fract_z
 _atom_site_occupancy
  Ce  Ce0  1  0.25000000  0.25000000  0.00000000  1
  Ce  Ce1  1  0.75000000  0.75000000  0.00000000  1
  Ce  Ce2  1  0.75000000  0.25000000  0.50000000  1
  Ce  Ce3  1  0.25000000  0.75000000  0.50000000  1
  Ce  Ce4  1  0.00000000  0.00000000  0.00000000  1
  Ce  Ce5  1  0.50000000  0.50000000  0.00000000  1
  Ce  Ce6  1  0.00000000  0.50000000  0.50000000  1
  Ce  Ce7  1  0.50000000  0.00000000  0.50000000  1
  P  P8  1  0.16083800  0.37500000  0.28583800  1
  P  P9  1  0.12500000  0.83916200  0.21416200  1
  P  P10  1  0.08916200  0.87500000  0.71416200  1
  P  P11  1  0.12500000  0.33916200  0.71416200  1
  P  P12  1  0.58916200  0.87500000  0.21416200  1
  P  P13  1  0.66083800  0.37500000  0.78583800  1
  P  P14  1  0.62500000  0.41083800  0.28583800  1
  P  P15  1  0.62500000  0.91083800  0.78583800  1
  S  S16  1  0.76131400  0.53329000  0.04089200  1
  S  S17  1  0.14590900  0.46454300  0.18489900  1
  S  S18  1  0.99239900  0.03329000  0.77197600  1
  S  S19  1  0.71101000  0.39590900  0.18136500  1
  S  S20  1  0.60409100  0.78545700  0.31510100  1
  S  S21  1  0.28329000  0.74239900  0.27197600  1
  S  S22  1  0.77964400  0.96454300  0.31863500  1
  S  S23  1  0.98868600  0.71671000  0.45910800  1
  S  S24  1  0.97035600  0.28545700  0.18136500  1
  S  S25  1  0.27964400  0.96101000  0.81510100  1
  S  S26  1  0.53899000  0.22035600  0.18489900  1
  S  S27  1  0.26131400  0.22042300  0.22802400  1
  S  S28  1  0.25760100  0.52957700  0.54089200  1
  S  S29  1  0.53545700  0.72035600  0.68136500  1
  S  S30  1  0.46671000  0.50760100  0.22802400  1
  S  S31  1  0.77957700  0.00760100  0.04089200  1
  S  S32  1  0.21101000  0.02964400  0.31510100  1
  S  S33  1  0.96671000  0.73868600  0.95910800  1
  S  S34  1  0.47035600  0.28899000  0.68489900  1
  S  S35  1  0.03545700  0.35409100  0.81510100  1
  S  S36  1  0.78329000  0.51131400  0.54089200  1
  S  S37  1  0.64590900  0.46101000  0.68136500  1
  S  S38  1  0.75760100  0.21671000  0.72802400  1
  S  S39  1  0.03899000  0.85409100  0.31863500  1
  S  S40  1  0.47042300  0.01131400  0.72802400  1
  S  S41  1  0.27957700  0.23868600  0.77197600  1
  S  S42  1  0.48868600  0.02957700  0.27197600  1
  S  S43  1  0.71454300  0.89590900  0.68489900  1
  S  S44  1  0.10409100  0.78899000  0.81863500  1
  S  S45  1  0.97042300  0.24239900  0.45910800  1
  S  S46  1  0.49239900  0.72042300  0.95910800  1
  S  S47  1  0.21454300  0.52964400  0.81863500  1
