# generated using pymatgen
data_Sr3Se3(ClO4)2
_symmetry_space_group_name_H-M   'P 1'
_cell_length_a   5.60104600
_cell_length_b   11.74125400
_cell_length_c   17.75078200
_cell_angle_alpha   90.00000000
_cell_angle_beta   90.00000000
_cell_angle_gamma   90.00000000
_symmetry_Int_Tables_number   1
_chemical_formula_structural   Sr3Se3(ClO4)2
_chemical_formula_sum   'Sr12 Se12 Cl8 O32'
_cell_volume   1167.35006850
_cell_formula_units_Z   4
loop_
 _symmetry_equiv_pos_site_id
 _symmetry_equiv_pos_as_xyz
  1  'x, y, z'
loop_
 _atom_site_type_symbol
 _atom_site_label
 _atom_site_symmetry_multiplicity
 _atom_site_fract_x
 _atom_site_fract_y
 _atom_site_fract_z
 _atom_site_occupancy
  Sr  Sr0  1  0.75000000  0.03923400  0.80105800  1
  Sr  Sr1  1  0.75000000  0.53923400  0.69894200  1
  Sr  Sr2  1  0.75000000  0.37121200  0.92374900  1
  Sr  Sr3  1  0.25000000  0.96076600  0.19894200  1
  Sr  Sr4  1  0.75000000  0.87121200  0.57625100  1
  Sr  Sr5  1  0.25000000  0.13218000  0.98648800  1
  Sr  Sr6  1  0.25000000  0.12878800  0.42374900  1
  Sr  Sr7  1  0.25000000  0.62878800  0.07625100  1
  Sr  Sr8  1  0.25000000  0.46076600  0.30105800  1
  Sr  Sr9  1  0.75000000  0.86782000  0.01351200  1
  Sr  Sr10  1  0.25000000  0.63218000  0.51351200  1
  Sr  Sr11  1  0.75000000  0.36782000  0.48648800  1
  Se  Se12  1  0.75000000  0.62932400  0.39687200  1
  Se  Se13  1  0.75000000  0.12932400  0.10312800  1
  Se  Se14  1  0.75000000  0.25546700  0.30731400  1
  Se  Se15  1  0.25000000  0.55486300  0.83482800  1
  Se  Se16  1  0.75000000  0.44513700  0.16517200  1
  Se  Se17  1  0.25000000  0.05486300  0.66517200  1
  Se  Se18  1  0.25000000  0.87067600  0.89687200  1
  Se  Se19  1  0.25000000  0.24453300  0.80731400  1
  Se  Se20  1  0.75000000  0.94513700  0.33482800  1
  Se  Se21  1  0.75000000  0.75546700  0.19268600  1
  Se  Se22  1  0.25000000  0.37067600  0.60312800  1
  Se  Se23  1  0.25000000  0.74453300  0.69268600  1
  Cl  Cl24  1  0.75000000  0.10261000  0.49953800  1
  Cl  Cl25  1  0.75000000  0.25579300  0.69584400  1
  Cl  Cl26  1  0.25000000  0.74420700  0.30415600  1
  Cl  Cl27  1  0.25000000  0.89739000  0.50046200  1
  Cl  Cl28  1  0.75000000  0.75579300  0.80415600  1
  Cl  Cl29  1  0.25000000  0.39739000  0.99953800  1
  Cl  Cl30  1  0.75000000  0.60261000  0.00046200  1
  Cl  Cl31  1  0.25000000  0.24420700  0.19584400  1
  O  O32  1  0.48272200  0.21639100  0.86632000  1
  O  O33  1  0.99016800  0.53084500  0.17584500  1
  O  O34  1  0.99016800  0.03084500  0.32415500  1
  O  O35  1  0.51727800  0.78360900  0.13368000  1
  O  O36  1  0.51727800  0.28360900  0.36632000  1
  O  O37  1  0.98272200  0.28360900  0.36632000  1
  O  O38  1  0.00983200  0.46915500  0.82415500  1
  O  O39  1  0.01727800  0.21639100  0.86632000  1
  O  O40  1  0.98531900  0.03544200  0.08752700  1
  O  O41  1  0.98272200  0.78360900  0.13368000  1
  O  O42  1  0.01727800  0.71639100  0.63368000  1
  O  O43  1  0.51468100  0.03544200  0.08752700  1
  O  O44  1  0.01468100  0.96455800  0.91247300  1
  O  O45  1  0.25000000  0.79655200  0.98063000  1
  O  O46  1  0.25000000  0.09695500  0.76667000  1
  O  O47  1  0.98531900  0.53544200  0.41247300  1
  O  O48  1  0.01468100  0.46455800  0.58752700  1
  O  O49  1  0.25000000  0.59695500  0.73333000  1
  O  O50  1  0.51468100  0.53544200  0.41247300  1
  O  O51  1  0.75000000  0.90304500  0.23333000  1
  O  O52  1  0.50983200  0.53084500  0.17584500  1
  O  O53  1  0.49016800  0.96915500  0.67584500  1
  O  O54  1  0.75000000  0.20344800  0.01937000  1
  O  O55  1  0.48272200  0.71639100  0.63368000  1
  O  O56  1  0.75000000  0.40304500  0.26667000  1
  O  O57  1  0.00983200  0.96915500  0.67584500  1
  O  O58  1  0.48531900  0.46455800  0.58752700  1
  O  O59  1  0.48531900  0.96455800  0.91247300  1
  O  O60  1  0.49016800  0.46915500  0.82415500  1
  O  O61  1  0.50983200  0.03084500  0.32415500  1
  O  O62  1  0.25000000  0.29655200  0.51937000  1
  O  O63  1  0.75000000  0.70344800  0.48063000  1
