# generated using pymatgen
data_K2ZrF6
_symmetry_space_group_name_H-M   'P 1'
_cell_length_a   6.72325483
_cell_length_b   6.72325483
_cell_length_c   7.08658730
_cell_angle_alpha   89.98276339
_cell_angle_beta   89.98276339
_cell_angle_gamma   120.55625617
_symmetry_Int_Tables_number   1
_chemical_formula_structural   K2ZrF6
_chemical_formula_sum   'K4 Zr2 F12'
_cell_volume   275.84501288
_cell_formula_units_Z   2
loop_
 _symmetry_equiv_pos_site_id
 _symmetry_equiv_pos_as_xyz
  1  'x, y, z'
loop_
 _atom_site_type_symbol
 _atom_site_label
 _atom_site_symmetry_multiplicity
 _atom_site_fract_x
 _atom_site_fract_y
 _atom_site_fract_z
 _atom_site_occupancy
  K  K0  1  0.36041700  0.67715700  0.49690500  1
  K  K1  1  0.32284300  0.63958300  0.00309500  1
  K  K2  1  0.63958300  0.32284300  0.50309500  1
  K  K3  1  0.67715700  0.36041700  0.99690500  1
  Zr  Zr4  1  0.04621300  0.95378700  0.25000000  1
  Zr  Zr5  1  0.95378700  0.04621300  0.75000000  1
  F  F6  1  0.06120500  0.86470800  0.95560400  1
  F  F7  1  0.13529200  0.93879500  0.54439600  1
  F  F8  1  0.93879500  0.13529200  0.04439600  1
  F  F9  1  0.86470800  0.06120500  0.45560400  1
  F  F10  1  0.38122400  0.99958200  0.22353800  1
  F  F11  1  0.00041800  0.61877600  0.27646200  1
  F  F12  1  0.30506300  0.27470200  0.78642800  1
  F  F13  1  0.72529800  0.69493700  0.71357200  1
  F  F14  1  0.69493700  0.72529800  0.21357200  1
  F  F15  1  0.27470200  0.30506300  0.28642800  1
  F  F16  1  0.99958200  0.38122400  0.72353800  1
  F  F17  1  0.61877600  0.00041800  0.77646200  1
