# generated using pymatgen
data_Gd2TiO5
_symmetry_space_group_name_H-M   'P 1'
_cell_length_a   3.77093900
_cell_length_b   10.56307700
_cell_length_c   11.41706100
_cell_angle_alpha   90.00000000
_cell_angle_beta   90.00000000
_cell_angle_gamma   90.00000000
_symmetry_Int_Tables_number   1
_chemical_formula_structural   Gd2TiO5
_chemical_formula_sum   'Gd8 Ti4 O20'
_cell_volume   454.77258284
_cell_formula_units_Z   4
loop_
 _symmetry_equiv_pos_site_id
 _symmetry_equiv_pos_as_xyz
  1  'x, y, z'
loop_
 _atom_site_type_symbol
 _atom_site_label
 _atom_site_symmetry_multiplicity
 _atom_site_fract_x
 _atom_site_fract_y
 _atom_site_fract_z
 _atom_site_occupancy
  Gd  Gd0  1  0.75000000  0.36321400  0.44391800  1
  Gd  Gd1  1  0.25000000  0.63678600  0.55608200  1
  Gd  Gd2  1  0.75000000  0.88807500  0.72267500  1
  Gd  Gd3  1  0.75000000  0.38807500  0.77732500  1
  Gd  Gd4  1  0.25000000  0.11192500  0.27732500  1
  Gd  Gd5  1  0.25000000  0.61192500  0.22267500  1
  Gd  Gd6  1  0.75000000  0.86321400  0.05608200  1
  Gd  Gd7  1  0.25000000  0.13678600  0.94391800  1
  Ti  Ti8  1  0.25000000  0.17691200  0.62071400  1
  Ti  Ti9  1  0.75000000  0.32308800  0.12071400  1
  Ti  Ti10  1  0.75000000  0.82308800  0.37928600  1
  Ti  Ti11  1  0.25000000  0.67691200  0.87928600  1
  O  O12  1  0.75000000  0.23938100  0.27000500  1
  O  O13  1  0.25000000  0.26061900  0.77000500  1
  O  O14  1  0.25000000  0.22411900  0.45907100  1
  O  O15  1  0.75000000  0.00648300  0.89568700  1
  O  O16  1  0.75000000  0.98790600  0.34439800  1
  O  O17  1  0.25000000  0.49351700  0.39568700  1
  O  O18  1  0.75000000  0.50648300  0.60431300  1
  O  O19  1  0.75000000  0.77588100  0.54092900  1
  O  O20  1  0.25000000  0.76516500  0.38213200  1
  O  O21  1  0.75000000  0.73483500  0.88213200  1
  O  O22  1  0.75000000  0.27588100  0.95907100  1
  O  O23  1  0.75000000  0.48790600  0.15560200  1
  O  O24  1  0.25000000  0.26516500  0.11786800  1
  O  O25  1  0.25000000  0.01209400  0.65560200  1
  O  O26  1  0.75000000  0.23483500  0.61786800  1
  O  O27  1  0.25000000  0.99351700  0.10431300  1
  O  O28  1  0.75000000  0.73938100  0.22999500  1
  O  O29  1  0.25000000  0.72411900  0.04092900  1
  O  O30  1  0.25000000  0.51209400  0.84439800  1
  O  O31  1  0.25000000  0.76061900  0.72999500  1
