# generated using pymatgen
data_BaUO4
_symmetry_space_group_name_H-M   'P 1'
_cell_length_a   5.88355500
_cell_length_b   8.21400300
_cell_length_c   8.29527700
_cell_angle_alpha   90.00000000
_cell_angle_beta   90.00000000
_cell_angle_gamma   90.00000000
_symmetry_Int_Tables_number   1
_chemical_formula_structural   BaUO4
_chemical_formula_sum   'Ba4 U4 O16'
_cell_volume   400.89031793
_cell_formula_units_Z   4
loop_
 _symmetry_equiv_pos_site_id
 _symmetry_equiv_pos_as_xyz
  1  'x, y, z'
loop_
 _atom_site_type_symbol
 _atom_site_label
 _atom_site_symmetry_multiplicity
 _atom_site_fract_x
 _atom_site_fract_y
 _atom_site_fract_z
 _atom_site_occupancy
  Ba  Ba0  1  0.48293400  0.19444900  0.25000000  1
  Ba  Ba1  1  0.48293400  0.30555100  0.75000000  1
  Ba  Ba2  1  0.51706600  0.69444900  0.25000000  1
  Ba  Ba3  1  0.51706600  0.80555100  0.75000000  1
  U  U4  1  0.00000000  0.00000000  0.00000000  1
  U  U5  1  0.00000000  0.50000000  0.00000000  1
  U  U6  1  0.00000000  0.50000000  0.50000000  1
  U  U7  1  0.00000000  0.00000000  0.50000000  1
  O  O8  1  0.11614700  0.97329900  0.75000000  1
  O  O9  1  0.11614700  0.52670100  0.25000000  1
  O  O10  1  0.88385300  0.47329900  0.75000000  1
  O  O11  1  0.88385300  0.02670100  0.25000000  1
  O  O12  1  0.14452000  0.25000000  0.50000000  1
  O  O13  1  0.85548000  0.75000000  0.00000000  1
  O  O14  1  0.85548000  0.75000000  0.50000000  1
  O  O15  1  0.14452000  0.25000000  0.00000000  1
  O  O16  1  0.29505400  0.92523500  0.06911200  1
  O  O17  1  0.29505400  0.57476500  0.93088800  1
  O  O18  1  0.70494600  0.42523500  0.43088800  1
  O  O19  1  0.70494600  0.07476500  0.56911200  1
  O  O20  1  0.70494600  0.07476500  0.93088800  1
  O  O21  1  0.70494600  0.42523500  0.06911200  1
  O  O22  1  0.29505400  0.57476500  0.56911200  1
  O  O23  1  0.29505400  0.92523500  0.43088800  1
