# generated using pymatgen
data_Ni10Sn5P3
_symmetry_space_group_name_H-M   'P 1'
_cell_length_a   6.44020800
_cell_length_b   8.36378530
_cell_length_c   10.31778770
_cell_angle_alpha   73.50262129
_cell_angle_beta   84.40177236
_cell_angle_gamma   82.75100880
_symmetry_Int_Tables_number   1
_chemical_formula_structural   Ni10Sn5P3
_chemical_formula_sum   'Ni20 Sn10 P6'
_cell_volume   527.51009969
_cell_formula_units_Z   2
loop_
 _symmetry_equiv_pos_site_id
 _symmetry_equiv_pos_as_xyz
  1  'x, y, z'
loop_
 _atom_site_type_symbol
 _atom_site_label
 _atom_site_symmetry_multiplicity
 _atom_site_fract_x
 _atom_site_fract_y
 _atom_site_fract_z
 _atom_site_occupancy
  Ni  Ni0  1  0.70995900  0.27416200  0.19894300  1
  Ni  Ni1  1  0.65849700  0.60327600  0.69388300  1
  Ni  Ni2  1  0.86485500  0.13495900  0.62510200  1
  Ni  Ni3  1  0.58005100  0.91707700  0.70671700  1
  Ni  Ni4  1  0.14345700  0.35110200  0.54800400  1
  Ni  Ni5  1  0.94322300  0.56834200  0.87392500  1
  Ni  Ni6  1  0.29004100  0.72583800  0.80105700  1
  Ni  Ni7  1  0.26781700  0.21261900  0.96383100  1
  Ni  Ni8  1  0.34150300  0.39672400  0.30611700  1
  Ni  Ni9  1  0.13514500  0.86504100  0.37489800  1
  Ni  Ni10  1  0.50000000  0.50000000  0.50000000  1
  Ni  Ni11  1  0.05682500  0.70358800  0.20296600  1
  Ni  Ni12  1  0.94317500  0.29641200  0.79703400  1
  Ni  Ni13  1  0.39726000  0.60655800  0.06818100  1
  Ni  Ni14  1  0.41994900  0.08292300  0.29328300  1
  Ni  Ni15  1  0.85654300  0.64889800  0.45199600  1
  Ni  Ni16  1  0.73218300  0.78738100  0.03616900  1
  Ni  Ni17  1  0.00000000  0.00000000  0.00000000  1
  Ni  Ni18  1  0.05677700  0.43165800  0.12607500  1
  Ni  Ni19  1  0.60274000  0.39344200  0.93181900  1
  Sn  Sn20  1  0.35167100  0.91114800  0.13059500  1
  Sn  Sn21  1  0.20708800  0.04898800  0.75914100  1
  Sn  Sn22  1  0.79291200  0.95101200  0.24085900  1
  Sn  Sn23  1  0.53444300  0.18164100  0.49714100  1
  Sn  Sn24  1  0.64832900  0.08885200  0.86940500  1
  Sn  Sn25  1  0.46555700  0.81835900  0.50285900  1
  Sn  Sn26  1  0.29881200  0.44861700  0.74118200  1
  Sn  Sn27  1  0.03348300  0.18426200  0.37243800  1
  Sn  Sn28  1  0.96651700  0.81573800  0.62756200  1
  Sn  Sn29  1  0.70118800  0.55138300  0.25881800  1
  P  P30  1  0.07767700  0.71994200  0.98312800  1
  P  P31  1  0.39118100  0.31599200  0.11402100  1
  P  P32  1  0.92232300  0.28005800  0.01687200  1
  P  P33  1  0.19748100  0.59390300  0.39971300  1
  P  P34  1  0.60881900  0.68400800  0.88597900  1
  P  P35  1  0.80251900  0.40609700  0.60028700  1
