# generated using pymatgen
data_Na4Li5(BO3)3
_symmetry_space_group_name_H-M   'P 1'
_cell_length_a   7.29891445
_cell_length_b   7.29891445
_cell_length_c   9.87367656
_cell_angle_alpha   75.09956363
_cell_angle_beta   75.09956363
_cell_angle_gamma   61.09429701
_symmetry_Int_Tables_number   1
_chemical_formula_structural   Na4Li5(BO3)3
_chemical_formula_sum   'Na8 Li10 B6 O18'
_cell_volume   439.47442545
_cell_formula_units_Z   2
loop_
 _symmetry_equiv_pos_site_id
 _symmetry_equiv_pos_as_xyz
  1  'x, y, z'
loop_
 _atom_site_type_symbol
 _atom_site_label
 _atom_site_symmetry_multiplicity
 _atom_site_fract_x
 _atom_site_fract_y
 _atom_site_fract_z
 _atom_site_occupancy
  Na  Na0  1  0.36659200  0.87870200  0.48360300  1
  Na  Na1  1  0.33358800  0.22278800  0.78696600  1
  Na  Na2  1  0.77721200  0.66641200  0.71303400  1
  Na  Na3  1  0.12129800  0.63340800  0.01639700  1
  Na  Na4  1  0.22278800  0.33358800  0.28696600  1
  Na  Na5  1  0.66641200  0.77721200  0.21303400  1
  Na  Na6  1  0.87870200  0.36659200  0.98360300  1
  Na  Na7  1  0.63340800  0.12129800  0.51639700  1
  Li  Li8  1  0.07725700  0.01270100  0.86066600  1
  Li  Li9  1  0.72302300  0.27697700  0.75000000  1
  Li  Li10  1  0.48206500  0.70457000  0.98792200  1
  Li  Li11  1  0.98729900  0.92274300  0.63933400  1
  Li  Li12  1  0.29543000  0.51793500  0.51207800  1
  Li  Li13  1  0.27697700  0.72302300  0.25000000  1
  Li  Li14  1  0.01270100  0.07725700  0.36066600  1
  Li  Li15  1  0.70457000  0.48206500  0.48792200  1
  Li  Li16  1  0.51793500  0.29543000  0.01207800  1
  Li  Li17  1  0.92274300  0.98729900  0.13933400  1
  B  B18  1  0.39586700  0.60413300  0.75000000  1
  B  B19  1  0.60413300  0.39586700  0.25000000  1
  B  B20  1  0.08355400  0.25115300  0.59686500  1
  B  B21  1  0.25115300  0.08355400  0.09686500  1
  B  B22  1  0.74884700  0.91644600  0.90313500  1
  B  B23  1  0.91644600  0.74884700  0.40313500  1
  O  O24  1  0.03190800  0.79176100  0.47503800  1
  O  O25  1  0.20823900  0.96809200  0.02496200  1
  O  O26  1  0.52154000  0.53278500  0.85486600  1
  O  O27  1  0.29057300  0.00122900  0.23673500  1
  O  O28  1  0.96809200  0.20823900  0.52496200  1
  O  O29  1  0.00122900  0.29057300  0.73673500  1
  O  O30  1  0.72372500  0.75133800  0.46978600  1
  O  O31  1  0.24866200  0.27627500  0.03021400  1
  O  O32  1  0.20964300  0.79035700  0.75000000  1
  O  O33  1  0.46721500  0.47846000  0.64513400  1
  O  O34  1  0.79176100  0.03190800  0.97503800  1
  O  O35  1  0.53278500  0.52154000  0.35486600  1
  O  O36  1  0.47846000  0.46721500  0.14513400  1
  O  O37  1  0.79035700  0.20964300  0.25000000  1
  O  O38  1  0.70942700  0.99877100  0.76326500  1
  O  O39  1  0.99877100  0.70942700  0.26326500  1
  O  O40  1  0.75133800  0.72372500  0.96978600  1
  O  O41  1  0.27627500  0.24866200  0.53021400  1
