# generated using pymatgen
data_Be2BO3F
_symmetry_space_group_name_H-M   'P 1'
_cell_length_a   8.79989478
_cell_length_b   8.79989478
_cell_length_c   8.79989459
_cell_angle_alpha   29.42003130
_cell_angle_beta   29.42003130
_cell_angle_gamma   29.42002992
_symmetry_Int_Tables_number   1
_chemical_formula_structural   Be2BO3F
_chemical_formula_sum   'Be4 B2 O6 F2'
_cell_volume   145.51932086
_cell_formula_units_Z   2
loop_
 _symmetry_equiv_pos_site_id
 _symmetry_equiv_pos_as_xyz
  1  'x, y, z'
loop_
 _atom_site_type_symbol
 _atom_site_label
 _atom_site_symmetry_multiplicity
 _atom_site_fract_x
 _atom_site_fract_y
 _atom_site_fract_z
 _atom_site_occupancy
  Be  Be0  1  0.43710300  0.43710300  0.43710300  1
  Be  Be1  1  0.06289700  0.06289700  0.06289700  1
  Be  Be2  1  0.93710300  0.93710300  0.93710300  1
  Be  Be3  1  0.56289700  0.56289700  0.56289700  1
  B  B4  1  0.75000000  0.75000000  0.75000000  1
  B  B5  1  0.25000000  0.25000000  0.25000000  1
  O  O6  1  0.75000000  0.44117300  0.05882700  1
  O  O7  1  0.55882700  0.94117300  0.25000000  1
  O  O8  1  0.44117300  0.05882700  0.75000000  1
  O  O9  1  0.25000000  0.55882700  0.94117300  1
  O  O10  1  0.05882700  0.75000000  0.44117300  1
  O  O11  1  0.94117300  0.25000000  0.55882700  1
  F  F12  1  0.50000000  0.50000000  0.50000000  1
  F  F13  1  0.00000000  0.00000000  0.00000000  1
