# generated using pymatgen
data_Cs3AlAs2
_symmetry_space_group_name_H-M   'P 1'
_cell_length_a   8.98956900
_cell_length_b   11.64337100
_cell_length_c   19.76052065
_cell_angle_alpha   79.96702699
_cell_angle_beta   90.00000000
_cell_angle_gamma   90.00000000
_symmetry_Int_Tables_number   1
_chemical_formula_structural   Cs3AlAs2
_chemical_formula_sum   'Cs24 Al8 As16'
_cell_volume   2036.68237194
_cell_formula_units_Z   8
loop_
 _symmetry_equiv_pos_site_id
 _symmetry_equiv_pos_as_xyz
  1  'x, y, z'
loop_
 _atom_site_type_symbol
 _atom_site_label
 _atom_site_symmetry_multiplicity
 _atom_site_fract_x
 _atom_site_fract_y
 _atom_site_fract_z
 _atom_site_occupancy
  Cs  Cs0  1  0.57251600  0.62434000  0.61056900  1
  Cs  Cs1  1  0.97470000  0.84924700  0.46793100  1
  Cs  Cs2  1  0.55622600  0.08188700  0.25724600  1
  Cs  Cs3  1  0.58923500  0.26040700  0.57793500  1
  Cs  Cs4  1  0.05622600  0.91811300  0.24275400  1
  Cs  Cs5  1  0.38383500  0.70682600  0.16102800  1
  Cs  Cs6  1  0.41076500  0.73959300  0.42206500  1
  Cs  Cs7  1  0.25484400  0.36088900  0.71075500  1
  Cs  Cs8  1  0.75484400  0.63911100  0.78924500  1
  Cs  Cs9  1  0.74515600  0.63911100  0.28924500  1
  Cs  Cs10  1  0.52530000  0.84924700  0.96793100  1
  Cs  Cs11  1  0.11616500  0.70682600  0.66102800  1
  Cs  Cs12  1  0.94377400  0.08188700  0.75724600  1
  Cs  Cs13  1  0.61616500  0.29317400  0.83897200  1
  Cs  Cs14  1  0.88383500  0.29317400  0.33897200  1
  Cs  Cs15  1  0.08923500  0.73959300  0.92206500  1
  Cs  Cs16  1  0.42748400  0.37566000  0.38943100  1
  Cs  Cs17  1  0.07251600  0.37566000  0.88943100  1
  Cs  Cs18  1  0.92748400  0.62434000  0.11056900  1
  Cs  Cs19  1  0.91076500  0.26040700  0.07793500  1
  Cs  Cs20  1  0.24515600  0.36088900  0.21075500  1
  Cs  Cs21  1  0.02530000  0.15075300  0.53206900  1
  Cs  Cs22  1  0.44377400  0.91811300  0.74275400  1
  Cs  Cs23  1  0.47470000  0.15075300  0.03206900  1
  Al  Al24  1  0.61309500  0.95578600  0.55432700  1
  Al  Al25  1  0.38690500  0.04421400  0.44567300  1
  Al  Al26  1  0.94579700  0.46283500  0.57272900  1
  Al  Al27  1  0.05420300  0.53716500  0.42727100  1
  Al  Al28  1  0.88690500  0.95578600  0.05432700  1
  Al  Al29  1  0.44579700  0.53716500  0.92727100  1
  Al  Al30  1  0.55420300  0.46283500  0.07272900  1
  Al  Al31  1  0.11309500  0.04421400  0.94567300  1
  As  As32  1  0.84007700  0.05683700  0.93613700  1
  As  As33  1  0.20778200  0.10401500  0.35892900  1
  As  As34  1  0.70778200  0.89598500  0.14107100  1
  As  As35  1  0.29314800  0.49181900  0.03255100  1
  As  As36  1  0.35765400  0.59835000  0.81258700  1
  As  As37  1  0.65992300  0.05683700  0.43613700  1
  As  As38  1  0.79314800  0.50818100  0.46744900  1
  As  As39  1  0.64234600  0.40165000  0.18741300  1
  As  As40  1  0.15992300  0.94316300  0.06386300  1
  As  As41  1  0.29221800  0.10401500  0.85892900  1
  As  As42  1  0.34007700  0.94316300  0.56386300  1
  As  As43  1  0.85765400  0.40165000  0.68741300  1
  As  As44  1  0.14234600  0.59835000  0.31258700  1
  As  As45  1  0.79221800  0.89598500  0.64107100  1
  As  As46  1  0.70685200  0.50818100  0.96744900  1
  As  As47  1  0.20685200  0.49181900  0.53255100  1
