# generated using pymatgen
data_TaSCl7O
_symmetry_space_group_name_H-M   'P 1'
_cell_length_a   7.69484300
_cell_length_b   9.62364800
_cell_length_c   17.02002400
_cell_angle_alpha   90.00000000
_cell_angle_beta   90.00000000
_cell_angle_gamma   90.00000000
_symmetry_Int_Tables_number   1
_chemical_formula_structural   TaSCl7O
_chemical_formula_sum   'Ta4 S4 Cl28 O4'
_cell_volume   1260.37465407
_cell_formula_units_Z   4
loop_
 _symmetry_equiv_pos_site_id
 _symmetry_equiv_pos_as_xyz
  1  'x, y, z'
loop_
 _atom_site_type_symbol
 _atom_site_label
 _atom_site_symmetry_multiplicity
 _atom_site_fract_x
 _atom_site_fract_y
 _atom_site_fract_z
 _atom_site_occupancy
  Ta  Ta0  1  0.49984400  0.75000000  0.36493900  1
  Ta  Ta1  1  0.50015600  0.25000000  0.63506100  1
  Ta  Ta2  1  0.00015600  0.75000000  0.86493900  1
  Ta  Ta3  1  0.99984400  0.25000000  0.13506100  1
  S  S4  1  0.66624700  0.25000000  0.83897300  1
  S  S5  1  0.33375300  0.75000000  0.16102700  1
  S  S6  1  0.83375300  0.25000000  0.33897300  1
  S  S7  1  0.16624700  0.75000000  0.66102700  1
  Cl  Cl8  1  0.51662800  0.41389400  0.87825400  1
  Cl  Cl9  1  0.48337200  0.58610600  0.12174600  1
  Cl  Cl10  1  0.47884700  0.99163000  0.35080600  1
  Cl  Cl11  1  0.24184300  0.25000000  0.21697500  1
  Cl  Cl12  1  0.51662800  0.08610600  0.87825400  1
  Cl  Cl13  1  0.71717100  0.25000000  0.08237000  1
  Cl  Cl14  1  0.97884700  0.49163000  0.14919400  1
  Cl  Cl15  1  0.02115300  0.50837000  0.85080600  1
  Cl  Cl16  1  0.48337200  0.91389400  0.12174600  1
  Cl  Cl17  1  0.85333400  0.75000000  0.98025000  1
  Cl  Cl18  1  0.14666600  0.25000000  0.01975000  1
  Cl  Cl19  1  0.52115300  0.00837000  0.64919400  1
  Cl  Cl20  1  0.02115300  0.99163000  0.85080600  1
  Cl  Cl21  1  0.01662800  0.58610600  0.62174600  1
  Cl  Cl22  1  0.52115300  0.49163000  0.64919400  1
  Cl  Cl23  1  0.28282900  0.75000000  0.91763000  1
  Cl  Cl24  1  0.74184300  0.75000000  0.28302500  1
  Cl  Cl25  1  0.01662800  0.91389400  0.62174600  1
  Cl  Cl26  1  0.98337200  0.41389400  0.37825400  1
  Cl  Cl27  1  0.21717100  0.75000000  0.41763000  1
  Cl  Cl28  1  0.35333400  0.25000000  0.51975000  1
  Cl  Cl29  1  0.64666600  0.75000000  0.48025000  1
  Cl  Cl30  1  0.25815700  0.25000000  0.71697500  1
  Cl  Cl31  1  0.97884700  0.00837000  0.14919400  1
  Cl  Cl32  1  0.75815700  0.75000000  0.78302500  1
  Cl  Cl33  1  0.47884700  0.50837000  0.35080600  1
  Cl  Cl34  1  0.98337200  0.08610600  0.37825400  1
  Cl  Cl35  1  0.78282900  0.25000000  0.58237000  1
  O  O36  1  0.15817100  0.75000000  0.74764400  1
  O  O37  1  0.84183000  0.25000000  0.25235600  1
  O  O38  1  0.65817000  0.25000000  0.75235600  1
  O  O39  1  0.34182900  0.75000000  0.24764400  1
