# generated using pymatgen
data_KLa5(CCl5)2
_symmetry_space_group_name_H-M   'P 1'
_cell_length_a   15.27558000
_cell_length_b   8.61971100
_cell_length_c   17.24547462
_cell_angle_alpha   60.37753719
_cell_angle_beta   90.00000000
_cell_angle_gamma   90.00000000
_symmetry_Int_Tables_number   1
_chemical_formula_structural   KLa5(CCl5)2
_chemical_formula_sum   'K4 La20 C8 Cl40'
_cell_volume   1973.94865019
_cell_formula_units_Z   4
loop_
 _symmetry_equiv_pos_site_id
 _symmetry_equiv_pos_as_xyz
  1  'x, y, z'
loop_
 _atom_site_type_symbol
 _atom_site_label
 _atom_site_symmetry_multiplicity
 _atom_site_fract_x
 _atom_site_fract_y
 _atom_site_fract_z
 _atom_site_occupancy
  K  K0  1  0.45248200  0.48501700  0.76263100  1
  K  K1  1  0.04751800  0.48501700  0.26263100  1
  K  K2  1  0.54751800  0.51498300  0.23736900  1
  K  K3  1  0.95248200  0.51498300  0.73736900  1
  La  La4  1  0.24467700  0.11998700  0.23068800  1
  La  La5  1  0.46365000  0.16599500  0.58474900  1
  La  La6  1  0.96365000  0.83400500  0.91525100  1
  La  La7  1  0.26465800  0.46353600  0.45900300  1
  La  La8  1  0.53635000  0.83400500  0.41525100  1
  La  La9  1  0.74467700  0.88001300  0.26931200  1
  La  La10  1  0.55962100  0.82707900  0.92173300  1
  La  La11  1  0.94037900  0.82707900  0.42173300  1
  La  La12  1  0.25965400  0.91619400  0.55976200  1
  La  La13  1  0.73534200  0.53646400  0.54099700  1
  La  La14  1  0.74034600  0.08380600  0.44023800  1
  La  La15  1  0.76465800  0.53646400  0.04099700  1
  La  La16  1  0.24034600  0.91619400  0.05976200  1
  La  La17  1  0.23534200  0.46353600  0.95900300  1
  La  La18  1  0.44037900  0.17292100  0.07826700  1
  La  La19  1  0.75965400  0.08380600  0.94023800  1
  La  La20  1  0.25532300  0.11998700  0.73068800  1
  La  La21  1  0.03635000  0.16599500  0.08474900  1
  La  La22  1  0.05962100  0.17292100  0.57826700  1
  La  La23  1  0.75532300  0.88001300  0.76931200  1
  C  C24  1  0.28742900  0.16840400  0.08235700  1
  C  C25  1  0.78742900  0.83159600  0.41764300  1
  C  C26  1  0.19068400  0.16576100  0.08229500  1
  C  C27  1  0.80931600  0.83423900  0.91770500  1
  C  C28  1  0.69068400  0.83423900  0.41770500  1
  C  C29  1  0.30931600  0.16576100  0.58229500  1
  C  C30  1  0.21257100  0.16840400  0.58235700  1
  C  C31  1  0.71257100  0.83159600  0.91764300  1
  Cl  Cl32  1  0.44260700  0.11272100  0.76586600  1
  Cl  Cl33  1  0.08047800  0.53343400  0.43203300  1
  Cl  Cl34  1  0.72676300  0.75751500  0.12708600  1
  Cl  Cl35  1  0.73867700  0.25705100  0.24414900  1
  Cl  Cl36  1  0.05095600  0.50525500  0.91353700  1
  Cl  Cl37  1  0.23867700  0.74294900  0.25585100  1
  Cl  Cl38  1  0.55739300  0.88727900  0.23413400  1
  Cl  Cl39  1  0.42829000  0.83964700  0.06614600  1
  Cl  Cl40  1  0.44517200  0.84066300  0.58131400  1
  Cl  Cl41  1  0.42787600  0.19529700  0.23791700  1
  Cl  Cl42  1  0.07212400  0.19529700  0.73791700  1
  Cl  Cl43  1  0.81359600  0.15775000  0.08765600  1
  Cl  Cl44  1  0.26132300  0.74294900  0.75585100  1
  Cl  Cl45  1  0.27323700  0.24248500  0.87291400  1
  Cl  Cl46  1  0.23034600  0.51128200  0.12278700  1
  Cl  Cl47  1  0.55482800  0.15933700  0.41868600  1
  Cl  Cl48  1  0.77323700  0.75751500  0.62708600  1
  Cl  Cl49  1  0.92829000  0.16035300  0.43385400  1
  Cl  Cl50  1  0.31359600  0.84225000  0.41234400  1
  Cl  Cl51  1  0.58047800  0.46656600  0.06796700  1
  Cl  Cl52  1  0.55095600  0.49474500  0.58646300  1
  Cl  Cl53  1  0.57171000  0.16035300  0.93385400  1
  Cl  Cl54  1  0.92787600  0.80470300  0.26208300  1
  Cl  Cl55  1  0.26965400  0.51128200  0.62278700  1
  Cl  Cl56  1  0.18640400  0.84225000  0.91234400  1
  Cl  Cl57  1  0.44904400  0.50525500  0.41353700  1
  Cl  Cl58  1  0.91952200  0.46656600  0.56796700  1
  Cl  Cl59  1  0.94517200  0.15933700  0.91868600  1
  Cl  Cl60  1  0.05739300  0.11272100  0.26586600  1
  Cl  Cl61  1  0.94904400  0.49474500  0.08646300  1
  Cl  Cl62  1  0.57212400  0.80470300  0.76208300  1
  Cl  Cl63  1  0.76132300  0.25705100  0.74414900  1
  Cl  Cl64  1  0.94260700  0.88727900  0.73413400  1
  Cl  Cl65  1  0.22676300  0.24248500  0.37291400  1
  Cl  Cl66  1  0.41952200  0.53343400  0.93203300  1
  Cl  Cl67  1  0.76965400  0.48871800  0.87721300  1
  Cl  Cl68  1  0.68640400  0.15775000  0.58765600  1
  Cl  Cl69  1  0.05482800  0.84066300  0.08131400  1
  Cl  Cl70  1  0.73034600  0.48871800  0.37721300  1
  Cl  Cl71  1  0.07171000  0.83964700  0.56614600  1
