# generated using pymatgen
data_La3CuSiSe7
_symmetry_space_group_name_H-M   'P 1'
_cell_length_a   10.78520567
_cell_length_b   10.78520567
_cell_length_c   6.15494800
_cell_angle_alpha   90.00000000
_cell_angle_beta   90.00000000
_cell_angle_gamma   119.99999798
_symmetry_Int_Tables_number   1
_chemical_formula_structural   La3CuSiSe7
_chemical_formula_sum   'La6 Cu2 Si2 Se14'
_cell_volume   620.02884099
_cell_formula_units_Z   2
loop_
 _symmetry_equiv_pos_site_id
 _symmetry_equiv_pos_as_xyz
  1  'x, y, z'
loop_
 _atom_site_type_symbol
 _atom_site_label
 _atom_site_symmetry_multiplicity
 _atom_site_fract_x
 _atom_site_fract_y
 _atom_site_fract_z
 _atom_site_occupancy
  La  La0  1  0.22891900  0.87345600  0.73677100  1
  La  La1  1  0.64453700  0.77108100  0.73677100  1
  La  La2  1  0.12654400  0.35546300  0.73677100  1
  La  La3  1  0.77108100  0.12654400  0.23677100  1
  La  La4  1  0.35546300  0.22891900  0.23677100  1
  La  La5  1  0.87345600  0.64453700  0.23677100  1
  Cu  Cu6  1  0.00000000  0.00000000  0.69561100  1
  Cu  Cu7  1  0.00000000  0.00000000  0.19561100  1
  Si  Si8  1  0.66666700  0.33333300  0.82463800  1
  Si  Si9  1  0.33333300  0.66666700  0.32463800  1
  Se  Se10  1  0.91047300  0.74773500  0.71894100  1
  Se  Se11  1  0.16273900  0.91047300  0.21894100  1
  Se  Se12  1  0.10838200  0.58518800  0.46988700  1
  Se  Se13  1  0.33333300  0.66666700  0.95555200  1
  Se  Se14  1  0.47680600  0.89161800  0.46988700  1
  Se  Se15  1  0.89161800  0.41481200  0.96988700  1
  Se  Se16  1  0.66666700  0.33333300  0.45555200  1
  Se  Se17  1  0.83726100  0.08952700  0.71894100  1
  Se  Se18  1  0.08952700  0.25226500  0.21894100  1
  Se  Se19  1  0.25226500  0.16273900  0.71894100  1
  Se  Se20  1  0.41481200  0.52319400  0.46988700  1
  Se  Se21  1  0.58518800  0.47680600  0.96988700  1
  Se  Se22  1  0.74773500  0.83726100  0.21894100  1
  Se  Se23  1  0.52319400  0.10838200  0.96988700  1
