# generated using pymatgen
data_BaBiO3
_symmetry_space_group_name_H-M   'P 1'
_cell_length_a   6.24404500
_cell_length_b   6.28001000
_cell_length_c   10.79454661
_cell_angle_alpha   54.68591886
_cell_angle_beta   90.00000000
_cell_angle_gamma   90.00000000
_symmetry_Int_Tables_number   1
_chemical_formula_structural   BaBiO3
_chemical_formula_sum   'Ba4 Bi4 O12'
_cell_volume   345.39699590
_cell_formula_units_Z   4
loop_
 _symmetry_equiv_pos_site_id
 _symmetry_equiv_pos_as_xyz
  1  'x, y, z'
loop_
 _atom_site_type_symbol
 _atom_site_label
 _atom_site_symmetry_multiplicity
 _atom_site_fract_x
 _atom_site_fract_y
 _atom_site_fract_z
 _atom_site_occupancy
  Ba  Ba0  1  0.98664900  0.25732800  0.24900600  1
  Ba  Ba1  1  0.01335100  0.74267200  0.75099400  1
  Ba  Ba2  1  0.51335100  0.25732800  0.74900600  1
  Ba  Ba3  1  0.48664900  0.74267200  0.25099400  1
  Bi  Bi4  1  0.50000000  0.50000000  0.00000000  1
  Bi  Bi5  1  0.00000000  0.00000000  0.00000000  1
  Bi  Bi6  1  0.00000000  0.50000000  0.50000000  1
  Bi  Bi7  1  0.50000000  0.00000000  0.50000000  1
  O  O8  1  0.72751600  0.71815400  0.03835500  1
  O  O9  1  0.00819600  0.81141900  0.25859000  1
  O  O10  1  0.73994700  0.31440000  0.46151000  1
  O  O11  1  0.26005300  0.68560000  0.53849000  1
  O  O12  1  0.76005300  0.31440000  0.96151000  1
  O  O13  1  0.23994700  0.68560000  0.03849000  1
  O  O14  1  0.77248400  0.71815400  0.53835500  1
  O  O15  1  0.22751600  0.28184600  0.46164500  1
  O  O16  1  0.99180400  0.18858100  0.74141000  1
  O  O17  1  0.50819600  0.18858100  0.24141000  1
  O  O18  1  0.49180400  0.81141900  0.75859000  1
  O  O19  1  0.27248400  0.28184600  0.96164500  1
