# generated using pymatgen
data_Nd2W2O9
_symmetry_space_group_name_H-M   'P 1'
_cell_length_a   10.00435000
_cell_length_b   7.79134400
_cell_length_c   9.36813644
_cell_angle_alpha   72.29324737
_cell_angle_beta   90.00000000
_cell_angle_gamma   90.00000000
_symmetry_Int_Tables_number   1
_chemical_formula_structural   Nd2W2O9
_chemical_formula_sum   'Nd8 W8 O36'
_cell_volume   695.62748264
_cell_formula_units_Z   4
loop_
 _symmetry_equiv_pos_site_id
 _symmetry_equiv_pos_as_xyz
  1  'x, y, z'
loop_
 _atom_site_type_symbol
 _atom_site_label
 _atom_site_symmetry_multiplicity
 _atom_site_fract_x
 _atom_site_fract_y
 _atom_site_fract_z
 _atom_site_occupancy
  Nd  Nd0  1  0.44925300  0.28748600  0.42522000  1
  Nd  Nd1  1  0.05074700  0.28748600  0.92522000  1
  Nd  Nd2  1  0.55452000  0.77339900  0.15228600  1
  Nd  Nd3  1  0.05452000  0.22660100  0.34771400  1
  Nd  Nd4  1  0.94548000  0.77339900  0.65228600  1
  Nd  Nd5  1  0.44548000  0.22660100  0.84771400  1
  Nd  Nd6  1  0.94925300  0.71251400  0.07478000  1
  Nd  Nd7  1  0.55074700  0.71251400  0.57478000  1
  W  W8  1  0.25112300  0.92837800  0.73827600  1
  W  W9  1  0.73053900  0.42133100  0.96648500  1
  W  W10  1  0.74887700  0.07162200  0.26172400  1
  W  W11  1  0.76946100  0.42133100  0.46648500  1
  W  W12  1  0.24887700  0.92837800  0.23827600  1
  W  W13  1  0.75112300  0.07162200  0.76172400  1
  W  W14  1  0.26946100  0.57866900  0.03351500  1
  W  W15  1  0.23053900  0.57866900  0.53351500  1
  O  O16  1  0.59225700  0.94356000  0.34647900  1
  O  O17  1  0.63443300  0.26520100  0.63810100  1
  O  O18  1  0.13443300  0.73479900  0.86189900  1
  O  O19  1  0.70820600  0.59036000  0.06985000  1
  O  O20  1  0.39593200  0.44572200  0.60881200  1
  O  O21  1  0.29179400  0.40964000  0.93015000  1
  O  O22  1  0.61840500  0.99421200  0.90373300  1
  O  O23  1  0.62224300  0.22536500  0.08254400  1
  O  O24  1  0.21752300  0.10168600  0.83700900  1
  O  O25  1  0.28247700  0.10168600  0.33700900  1
  O  O26  1  0.60406800  0.55427800  0.39118800  1
  O  O27  1  0.10406800  0.44572200  0.10881200  1
  O  O28  1  0.87775700  0.22536500  0.58254400  1
  O  O29  1  0.09225700  0.05644000  0.15352100  1
  O  O30  1  0.40774300  0.05644000  0.65352100  1
  O  O31  1  0.12224300  0.77463500  0.41745600  1
  O  O32  1  0.40233700  0.50121700  0.17546500  1
  O  O33  1  0.37775700  0.77463500  0.91745600  1
  O  O34  1  0.09766300  0.50121700  0.67546500  1
  O  O35  1  0.59766300  0.49878300  0.82453500  1
  O  O36  1  0.11840500  0.00578800  0.59626700  1
  O  O37  1  0.90774300  0.94356000  0.84647900  1
  O  O38  1  0.68514700  0.25606100  0.36091000  1
  O  O39  1  0.20820600  0.40964000  0.43015000  1
  O  O40  1  0.86556700  0.26520100  0.13810100  1
  O  O41  1  0.36556700  0.73479900  0.36189900  1
  O  O42  1  0.31485300  0.74393900  0.63909000  1
  O  O43  1  0.90233700  0.49878300  0.32453500  1
  O  O44  1  0.81485300  0.25606100  0.86091000  1
  O  O45  1  0.89593200  0.55427800  0.89118800  1
  O  O46  1  0.79179400  0.59036000  0.56985000  1
  O  O47  1  0.88159500  0.99421200  0.40373300  1
  O  O48  1  0.71752300  0.89831400  0.66299100  1
  O  O49  1  0.38159500  0.00578800  0.09626700  1
  O  O50  1  0.78247700  0.89831400  0.16299100  1
  O  O51  1  0.18514700  0.74393900  0.13909000  1
