# generated using pymatgen
data_Rh7(PbO5)3
_symmetry_space_group_name_H-M   'P 1'
_cell_length_a   10.56000114
_cell_length_b   10.56000114
_cell_length_c   13.49465200
_cell_angle_alpha   90.00000000
_cell_angle_beta   90.00000000
_cell_angle_gamma   119.99999460
_symmetry_Int_Tables_number   1
_chemical_formula_structural   Rh7(PbO5)3
_chemical_formula_sum   'Rh28 Pb12 O60'
_cell_volume   1303.22761735
_cell_formula_units_Z   4
loop_
 _symmetry_equiv_pos_site_id
 _symmetry_equiv_pos_as_xyz
  1  'x, y, z'
loop_
 _atom_site_type_symbol
 _atom_site_label
 _atom_site_symmetry_multiplicity
 _atom_site_fract_x
 _atom_site_fract_y
 _atom_site_fract_z
 _atom_site_occupancy
  Rh  Rh0  1  0.66666700  0.33333300  0.64758300  1
  Rh  Rh1  1  0.83123600  0.66247100  0.50000000  1
  Rh  Rh2  1  0.66666700  0.33333300  0.85241700  1
  Rh  Rh3  1  0.66666700  0.33333300  0.14758300  1
  Rh  Rh4  1  0.33752900  0.16876400  0.50000000  1
  Rh  Rh5  1  0.00000000  0.00000000  0.00000000  1
  Rh  Rh6  1  0.33752900  0.16876400  0.00000000  1
  Rh  Rh7  1  0.00000000  0.00000000  0.50000000  1
  Rh  Rh8  1  0.50000000  0.50000000  0.00000000  1
  Rh  Rh9  1  0.16876400  0.83123600  0.50000000  1
  Rh  Rh10  1  0.33333300  0.66666700  0.85241700  1
  Rh  Rh11  1  0.66247100  0.83123600  0.50000000  1
  Rh  Rh12  1  0.83123600  0.16876400  0.50000000  1
  Rh  Rh13  1  0.16876400  0.83123600  0.00000000  1
  Rh  Rh14  1  0.00000000  0.50000000  0.00000000  1
  Rh  Rh15  1  0.33333300  0.66666700  0.35241700  1
  Rh  Rh16  1  0.00000000  0.50000000  0.50000000  1
  Rh  Rh17  1  0.50000000  0.50000000  0.50000000  1
  Rh  Rh18  1  0.66247100  0.83123600  0.00000000  1
  Rh  Rh19  1  0.16876400  0.33752900  0.50000000  1
  Rh  Rh20  1  0.50000000  0.00000000  0.00000000  1
  Rh  Rh21  1  0.33333300  0.66666700  0.64758300  1
  Rh  Rh22  1  0.50000000  0.00000000  0.50000000  1
  Rh  Rh23  1  0.33333300  0.66666700  0.14758300  1
  Rh  Rh24  1  0.66666700  0.33333300  0.35241700  1
  Rh  Rh25  1  0.16876400  0.33752900  0.00000000  1
  Rh  Rh26  1  0.83123600  0.66247100  0.00000000  1
  Rh  Rh27  1  0.83123600  0.16876400  0.00000000  1
  Pb  Pb28  1  0.73173700  0.00000000  0.25000000  1
  Pb  Pb29  1  0.60263600  0.60263600  0.25000000  1
  Pb  Pb30  1  0.00000000  0.73173700  0.25000000  1
  Pb  Pb31  1  0.39736400  0.39736400  0.75000000  1
  Pb  Pb32  1  0.39736400  0.00000000  0.25000000  1
  Pb  Pb33  1  0.00000000  0.39736400  0.25000000  1
  Pb  Pb34  1  0.26826300  0.00000000  0.75000000  1
  Pb  Pb35  1  0.60263600  0.00000000  0.75000000  1
  Pb  Pb36  1  0.00000000  0.60263600  0.75000000  1
  Pb  Pb37  1  0.00000000  0.26826300  0.75000000  1
  Pb  Pb38  1  0.73173700  0.73173700  0.75000000  1
  Pb  Pb39  1  0.26826300  0.26826300  0.25000000  1
  O  O40  1  0.00000000  0.33383100  0.92294200  1
  O  O41  1  0.50675100  0.66570300  0.08122300  1
  O  O42  1  0.82180600  0.34345700  0.75000000  1
  O  O43  1  0.33429700  0.49324900  0.91877700  1
  O  O44  1  0.84104900  0.50675100  0.91877700  1
  O  O45  1  0.15895100  0.66570300  0.58122300  1
  O  O46  1  0.50675100  0.84104900  0.58122300  1
  O  O47  1  0.00000000  0.83087700  0.57466100  1
  O  O48  1  0.66616900  0.66616900  0.57705800  1
  O  O49  1  0.49324900  0.33429700  0.58122300  1
  O  O50  1  0.66616900  0.00000000  0.07705800  1
  O  O51  1  0.16912300  0.00000000  0.07466100  1
  O  O52  1  0.49324900  0.33429700  0.91877700  1
  O  O53  1  0.66570300  0.50675100  0.08122300  1
  O  O54  1  0.83087700  0.83087700  0.07466100  1
  O  O55  1  0.65654300  0.17819400  0.25000000  1
  O  O56  1  0.00000000  0.66616900  0.42294200  1
  O  O57  1  0.66616900  0.66616900  0.92294200  1
  O  O58  1  0.00000000  0.83087700  0.92533900  1
  O  O59  1  0.50675100  0.84104900  0.91877700  1
  O  O60  1  0.15895100  0.66570300  0.91877700  1
  O  O61  1  0.00000000  0.16912300  0.42533900  1
  O  O62  1  0.00000000  0.66616900  0.07705800  1
  O  O63  1  0.84104900  0.50675100  0.58122300  1
  O  O64  1  0.33429700  0.49324900  0.58122300  1
  O  O65  1  0.84104900  0.33429700  0.08122300  1
  O  O66  1  0.66570300  0.50675100  0.41877700  1
  O  O67  1  0.00000000  0.33383100  0.57705800  1
  O  O68  1  0.16912300  0.16912300  0.57466100  1
  O  O69  1  0.47834900  0.65654300  0.75000000  1
  O  O70  1  0.33383100  0.33383100  0.07705800  1
  O  O71  1  0.66570300  0.15895100  0.58122300  1
  O  O72  1  0.83087700  0.00000000  0.92533900  1
  O  O73  1  0.65654300  0.47834900  0.75000000  1
  O  O74  1  0.15895100  0.49324900  0.41877700  1
  O  O75  1  0.52165100  0.34345700  0.25000000  1
  O  O76  1  0.34345700  0.82180600  0.75000000  1
  O  O77  1  0.82180600  0.47834900  0.25000000  1
  O  O78  1  0.66570300  0.15895100  0.91877700  1
  O  O79  1  0.47834900  0.82180600  0.25000000  1
  O  O80  1  0.49324900  0.15895100  0.08122300  1
  O  O81  1  0.52165100  0.17819400  0.75000000  1
  O  O82  1  0.49324900  0.15895100  0.41877700  1
  O  O83  1  0.34345700  0.52165100  0.25000000  1
  O  O84  1  0.33383100  0.00000000  0.92294200  1
  O  O85  1  0.33383100  0.00000000  0.57705800  1
  O  O86  1  0.33429700  0.84104900  0.41877700  1
  O  O87  1  0.17819400  0.65654300  0.25000000  1
  O  O88  1  0.33383100  0.33383100  0.42294200  1
  O  O89  1  0.17819400  0.52165100  0.75000000  1
  O  O90  1  0.33429700  0.84104900  0.08122300  1
  O  O91  1  0.15895100  0.49324900  0.08122300  1
  O  O92  1  0.84104900  0.33429700  0.41877700  1
  O  O93  1  0.83087700  0.00000000  0.57466100  1
  O  O94  1  0.50675100  0.66570300  0.41877700  1
  O  O95  1  0.00000000  0.16912300  0.07466100  1
  O  O96  1  0.66616900  0.00000000  0.42294200  1
  O  O97  1  0.16912300  0.00000000  0.42533900  1
  O  O98  1  0.83087700  0.83087700  0.42533900  1
  O  O99  1  0.16912300  0.16912300  0.92533900  1
