# generated using pymatgen
data_Ta4FeS8
_symmetry_space_group_name_H-M   'P 1'
_cell_length_a   6.62859554
_cell_length_b   6.62859554
_cell_length_c   11.74964800
_cell_angle_alpha   90.00000000
_cell_angle_beta   90.00000000
_cell_angle_gamma   119.99999544
_symmetry_Int_Tables_number   1
_chemical_formula_structural   Ta4FeS8
_chemical_formula_sum   'Ta8 Fe2 S16'
_cell_volume   447.09369839
_cell_formula_units_Z   2
loop_
 _symmetry_equiv_pos_site_id
 _symmetry_equiv_pos_as_xyz
  1  'x, y, z'
loop_
 _atom_site_type_symbol
 _atom_site_label
 _atom_site_symmetry_multiplicity
 _atom_site_fract_x
 _atom_site_fract_y
 _atom_site_fract_z
 _atom_site_occupancy
  Ta  Ta0  1  0.49387100  0.98774200  0.75000000  1
  Ta  Ta1  1  0.50612900  0.01225800  0.25000000  1
  Ta  Ta2  1  0.98774200  0.49387100  0.25000000  1
  Ta  Ta3  1  0.49387100  0.50612900  0.75000000  1
  Ta  Ta4  1  0.50612900  0.49387100  0.25000000  1
  Ta  Ta5  1  0.01225800  0.50612900  0.75000000  1
  Ta  Ta6  1  0.00000000  0.00000000  0.25000000  1
  Ta  Ta7  1  0.00000000  0.00000000  0.75000000  1
  Fe  Fe8  1  0.00000000  0.00000000  0.50000000  1
  Fe  Fe9  1  0.00000000  0.00000000  0.00000000  1
  S  S10  1  0.16476900  0.83523100  0.11616200  1
  S  S11  1  0.67046300  0.83523100  0.38383800  1
  S  S12  1  0.66666700  0.33333300  0.38720900  1
  S  S13  1  0.83523100  0.16476900  0.88383800  1
  S  S14  1  0.67046300  0.83523100  0.11616200  1
  S  S15  1  0.32953700  0.16476900  0.88383800  1
  S  S16  1  0.66666700  0.33333300  0.11279100  1
  S  S17  1  0.83523100  0.67046300  0.61616200  1
  S  S18  1  0.32953700  0.16476900  0.61616200  1
  S  S19  1  0.16476900  0.32953700  0.38383800  1
  S  S20  1  0.16476900  0.32953700  0.11616200  1
  S  S21  1  0.83523100  0.67046300  0.88383800  1
  S  S22  1  0.83523100  0.16476900  0.61616200  1
  S  S23  1  0.16476900  0.83523100  0.38383800  1
  S  S24  1  0.33333300  0.66666700  0.88720900  1
  S  S25  1  0.33333300  0.66666700  0.61279100  1
