# generated using pymatgen
data_K3IrCl6
_symmetry_space_group_name_H-M   'P 1'
_cell_length_a   7.59373900
_cell_length_b   12.12582800
_cell_length_c   12.74652209
_cell_angle_alpha   71.75437985
_cell_angle_beta   90.00000000
_cell_angle_gamma   90.00000000
_symmetry_Int_Tables_number   1
_chemical_formula_structural   K3IrCl6
_chemical_formula_sum   'K12 Ir4 Cl24'
_cell_volume   1114.69424058
_cell_formula_units_Z   4
loop_
 _symmetry_equiv_pos_site_id
 _symmetry_equiv_pos_as_xyz
  1  'x, y, z'
loop_
 _atom_site_type_symbol
 _atom_site_label
 _atom_site_symmetry_multiplicity
 _atom_site_fract_x
 _atom_site_fract_y
 _atom_site_fract_z
 _atom_site_occupancy
  K  K0  1  0.93432300  0.38647900  0.81825100  1
  K  K1  1  0.43432300  0.11352100  0.18174900  1
  K  K2  1  0.06567700  0.61352100  0.18174900  1
  K  K3  1  0.56567700  0.88647900  0.81825100  1
  K  K4  1  0.06917500  0.73478000  0.81731600  1
  K  K5  1  0.56917500  0.76522000  0.18268400  1
  K  K6  1  0.93082500  0.26522000  0.18268400  1
  K  K7  1  0.43082500  0.23478000  0.81731600  1
  K  K8  1  0.53982000  0.64166500  0.59774400  1
  K  K9  1  0.03982000  0.85833500  0.40225600  1
  K  K10  1  0.46018000  0.35833500  0.40225600  1
  K  K11  1  0.96018000  0.14166500  0.59774400  1
  Ir  Ir12  1  0.00000000  0.00000000  0.00000000  1
  Ir  Ir13  1  0.50000000  0.50000000  0.00000000  1
  Ir  Ir14  1  0.00000000  0.50000000  0.50000000  1
  Ir  Ir15  1  0.50000000  0.00000000  0.50000000  1
  Cl  Cl16  1  0.99813100  0.61961200  0.61606400  1
  Cl  Cl17  1  0.49813100  0.88038800  0.38393600  1
  Cl  Cl18  1  0.00186900  0.38038800  0.38393600  1
  Cl  Cl19  1  0.50186900  0.11961200  0.61606400  1
  Cl  Cl20  1  0.81400200  0.63916800  0.37726400  1
  Cl  Cl21  1  0.31400200  0.86083200  0.62273600  1
  Cl  Cl22  1  0.18599800  0.36083200  0.62273600  1
  Cl  Cl23  1  0.68599800  0.13916800  0.37726400  1
  Cl  Cl24  1  0.25600000  0.59919700  0.40816700  1
  Cl  Cl25  1  0.75600000  0.90080300  0.59183300  1
  Cl  Cl26  1  0.74400000  0.40080300  0.59183300  1
  Cl  Cl27  1  0.24400000  0.09919700  0.40816700  1
  Cl  Cl28  1  0.20346600  0.89854000  0.13891100  1
  Cl  Cl29  1  0.70346600  0.60146000  0.86108900  1
  Cl  Cl30  1  0.79653400  0.10146000  0.86108900  1
  Cl  Cl31  1  0.29653400  0.39854000  0.13891100  1
  Cl  Cl32  1  0.80890900  0.00532800  0.14624800  1
  Cl  Cl33  1  0.30890900  0.49467200  0.85375200  1
  Cl  Cl34  1  0.19109100  0.99467200  0.85375200  1
  Cl  Cl35  1  0.69109100  0.50532800  0.14624800  1
  Cl  Cl36  1  0.87082300  0.82145700  0.99988200  1
  Cl  Cl37  1  0.37082300  0.67854300  0.00011800  1
  Cl  Cl38  1  0.12917700  0.17854300  0.00011800  1
  Cl  Cl39  1  0.62917700  0.32145700  0.99988200  1
