# generated using pymatgen
data_PrMgSi2
_symmetry_space_group_name_H-M   'P 1'
_cell_length_a   18.67756380
_cell_length_b   18.67756380
_cell_length_c   18.67756380
_cell_angle_alpha   166.82629142
_cell_angle_beta   166.82629142
_cell_angle_gamma   18.67194226
_symmetry_Int_Tables_number   1
_chemical_formula_structural   PrMgSi2
_chemical_formula_sum   'Pr4 Mg4 Si8'
_cell_volume   338.39687645
_cell_formula_units_Z   4
loop_
 _symmetry_equiv_pos_site_id
 _symmetry_equiv_pos_as_xyz
  1  'x, y, z'
loop_
 _atom_site_type_symbol
 _atom_site_label
 _atom_site_symmetry_multiplicity
 _atom_site_fract_x
 _atom_site_fract_y
 _atom_site_fract_z
 _atom_site_occupancy
  Pr  Pr0  1  0.67257400  0.17257400  0.50000000  1
  Pr  Pr1  1  0.82742600  0.32742600  0.50000000  1
  Pr  Pr2  1  0.92257400  0.92257400  0.00000000  1
  Pr  Pr3  1  0.07742600  0.07742600  0.00000000  1
  Mg  Mg4  1  0.00013400  0.50013400  0.50000000  1
  Mg  Mg5  1  0.49986600  0.99986600  0.50000000  1
  Mg  Mg6  1  0.25013400  0.25013400  0.00000000  1
  Mg  Mg7  1  0.74986600  0.74986600  0.00000000  1
  Si  Si8  1  0.20225700  0.70225700  0.50000000  1
  Si  Si9  1  0.36087100  0.86087100  0.50000000  1
  Si  Si10  1  0.13912900  0.63912900  0.50000000  1
  Si  Si11  1  0.38912900  0.38912900  0.00000000  1
  Si  Si12  1  0.54774300  0.54774300  0.00000000  1
  Si  Si13  1  0.61087100  0.61087100  0.00000000  1
  Si  Si14  1  0.45225700  0.45225700  0.00000000  1
  Si  Si15  1  0.29774300  0.79774300  0.50000000  1
