# generated using pymatgen
data_Na3Ga(PO4)2
_symmetry_space_group_name_H-M   'P 1'
_cell_length_a   8.98074000
_cell_length_b   9.00895545
_cell_length_c   9.37548127
_cell_angle_alpha   89.24144943
_cell_angle_beta   70.94802078
_cell_angle_gamma   87.75131707
_symmetry_Int_Tables_number   1
_chemical_formula_structural   Na3Ga(PO4)2
_chemical_formula_sum   'Na12 Ga4 P8 O32'
_cell_volume   716.43983886
_cell_formula_units_Z   4
loop_
 _symmetry_equiv_pos_site_id
 _symmetry_equiv_pos_as_xyz
  1  'x, y, z'
loop_
 _atom_site_type_symbol
 _atom_site_label
 _atom_site_symmetry_multiplicity
 _atom_site_fract_x
 _atom_site_fract_y
 _atom_site_fract_z
 _atom_site_occupancy
  Na  Na0  1  0.65492300  0.75013000  0.87084200  1
  Na  Na1  1  0.30803600  0.90792200  0.06910200  1
  Na  Na2  1  0.04952800  0.58212700  0.81722700  1
  Na  Na3  1  0.69196400  0.09207800  0.93089800  1
  Na  Na4  1  0.10079200  0.70062200  0.41223100  1
  Na  Na5  1  0.35066600  0.76111100  0.67728600  1
  Na  Na6  1  0.34507700  0.24987000  0.12915800  1
  Na  Na7  1  0.92661100  0.83640200  0.10815600  1
  Na  Na8  1  0.07338900  0.16359800  0.89184400  1
  Na  Na9  1  0.95047200  0.41787300  0.18277300  1
  Na  Na10  1  0.89920800  0.29937800  0.58776900  1
  Na  Na11  1  0.64933400  0.23888900  0.32271400  1
  Ga  Ga12  1  0.47905700  0.58163100  0.24568000  1
  Ga  Ga13  1  0.74803500  0.92008100  0.48888800  1
  Ga  Ga14  1  0.52094300  0.41836900  0.75432000  1
  Ga  Ga15  1  0.25196500  0.07991900  0.51111200  1
  P  P16  1  0.03063800  0.09147800  0.28948500  1
  P  P17  1  0.27826000  0.59079000  0.01607200  1
  P  P18  1  0.53437500  0.92622200  0.26598100  1
  P  P19  1  0.46562500  0.07377800  0.73401900  1
  P  P20  1  0.71524800  0.58632700  0.45361100  1
  P  P21  1  0.72174000  0.40921000  0.98392800  1
  P  P22  1  0.96936200  0.90852200  0.71051500  1
  P  P23  1  0.28475200  0.41367300  0.54638900  1
  O  O24  1  0.96199600  0.93541100  0.35694700  1
  O  O25  1  0.90455700  0.92574200  0.88319300  1
  O  O26  1  0.55406400  0.41725400  0.11469600  1
  O  O27  1  0.09593700  0.78470400  0.65284200  1
  O  O28  1  0.30230900  0.52605000  0.41264100  1
  O  O29  1  0.88907600  0.60474000  0.36598300  1
  O  O30  1  0.69769100  0.47395000  0.58735900  1
  O  O31  1  0.36844500  0.48130800  0.65054400  1
  O  O32  1  0.63366300  0.73875100  0.52338000  1
  O  O33  1  0.44593600  0.58274600  0.88530400  1
  O  O34  1  0.09544300  0.07425800  0.11680700  1
  O  O35  1  0.43095000  0.23022700  0.81084400  1
  O  O36  1  0.31264800  0.65621900  0.15674900  1
  O  O37  1  0.61430400  0.08482100  0.58894300  1
  O  O38  1  0.49312800  0.95822200  0.84421200  1
  O  O39  1  0.50687200  0.04177800  0.15578800  1
  O  O40  1  0.20888400  0.43699600  0.04541600  1
  O  O41  1  0.31632300  0.03327600  0.69442700  1
  O  O42  1  0.11092400  0.39526000  0.63401700  1
  O  O43  1  0.82780800  0.29310600  0.03039000  1
  O  O44  1  0.17219200  0.70689400  0.96961000  1
  O  O45  1  0.38569600  0.91517900  0.41105700  1
  O  O46  1  0.36633700  0.26124900  0.47662000  1
  O  O47  1  0.63155500  0.51869200  0.34945600  1
  O  O48  1  0.82368200  0.87806900  0.65911300  1
  O  O49  1  0.68735200  0.34378100  0.84325100  1
  O  O50  1  0.68367700  0.96672400  0.30557300  1
  O  O51  1  0.03800400  0.06458900  0.64305300  1
  O  O52  1  0.90406300  0.21529600  0.34715800  1
  O  O53  1  0.56905000  0.76977300  0.18915600  1
  O  O54  1  0.79111600  0.56300400  0.95458400  1
  O  O55  1  0.17631800  0.12193100  0.34088700  1
