# generated using pymatgen
data_K2ZrSi2O7
_symmetry_space_group_name_H-M   'P 1'
_cell_length_a   5.64516300
_cell_length_b   9.70797800
_cell_length_c   14.35567599
_cell_angle_alpha   63.13346705
_cell_angle_beta   90.00000000
_cell_angle_gamma   90.00000000
_symmetry_Int_Tables_number   1
_chemical_formula_structural   K2ZrSi2O7
_chemical_formula_sum   'K8 Zr4 Si8 O28'
_cell_volume   701.81684266
_cell_formula_units_Z   4
loop_
 _symmetry_equiv_pos_site_id
 _symmetry_equiv_pos_as_xyz
  1  'x, y, z'
loop_
 _atom_site_type_symbol
 _atom_site_label
 _atom_site_symmetry_multiplicity
 _atom_site_fract_x
 _atom_site_fract_y
 _atom_site_fract_z
 _atom_site_occupancy
  K  K0  1  0.75363300  0.03697400  0.57138000  1
  K  K1  1  0.24313500  0.51665800  0.59847000  1
  K  K2  1  0.25363300  0.96302600  0.92862000  1
  K  K3  1  0.74636700  0.03697400  0.07138000  1
  K  K4  1  0.24636700  0.96302600  0.42862000  1
  K  K5  1  0.75686500  0.48334200  0.40153000  1
  K  K6  1  0.74313500  0.48334200  0.90153000  1
  K  K7  1  0.25686500  0.51665800  0.09847000  1
  Zr  Zr8  1  0.24342500  0.76515600  0.22963300  1
  Zr  Zr9  1  0.74342500  0.23484400  0.27036700  1
  Zr  Zr10  1  0.75657500  0.23484400  0.77036700  1
  Zr  Zr11  1  0.25657500  0.76515600  0.72963300  1
  Si  Si12  1  0.73643500  0.82538600  0.37066700  1
  Si  Si13  1  0.76356500  0.82538600  0.87066700  1
  Si  Si14  1  0.23643500  0.17461400  0.12933300  1
  Si  Si15  1  0.26356500  0.17461400  0.62933300  1
  Si  Si16  1  0.74836500  0.66440300  0.61373000  1
  Si  Si17  1  0.75163500  0.66440300  0.11373000  1
  Si  Si18  1  0.25163500  0.33559700  0.38627000  1
  Si  Si19  1  0.24836500  0.33559700  0.88627000  1
  O  O20  1  0.78248000  0.68557900  0.49215700  1
  O  O21  1  0.00356900  0.74265600  0.11971700  1
  O  O22  1  0.47478600  0.25174100  0.86247900  1
  O  O23  1  0.25068000  0.00801200  0.12773200  1
  O  O24  1  0.52521400  0.74825900  0.13752100  1
  O  O25  1  0.49643100  0.74265600  0.61971700  1
  O  O26  1  0.02521400  0.25174100  0.36247900  1
  O  O27  1  0.24932000  0.00801200  0.62773200  1
  O  O28  1  0.74576100  0.47697500  0.18505300  1
  O  O29  1  0.28248000  0.31442100  0.00784300  1
  O  O30  1  0.50356900  0.25734400  0.38028300  1
  O  O31  1  0.97478600  0.74825900  0.63752100  1
  O  O32  1  0.94808000  0.79774800  0.30373300  1
  O  O33  1  0.25423900  0.52302500  0.81494700  1
  O  O34  1  0.21752000  0.31442100  0.50784300  1
  O  O35  1  0.75423900  0.47697500  0.68505300  1
  O  O36  1  0.97609500  0.20902700  0.16453200  1
  O  O37  1  0.05192000  0.20225200  0.69626700  1
  O  O38  1  0.47609500  0.79097300  0.33546800  1
  O  O39  1  0.74932000  0.99198800  0.87226800  1
  O  O40  1  0.24576100  0.52302500  0.31494700  1
  O  O41  1  0.75068000  0.99198800  0.37226800  1
  O  O42  1  0.71752000  0.68557900  0.99215700  1
  O  O43  1  0.02390500  0.79097300  0.83546800  1
  O  O44  1  0.52390500  0.20902700  0.66453200  1
  O  O45  1  0.55192000  0.79774800  0.80373300  1
  O  O46  1  0.99643100  0.25734400  0.88028300  1
  O  O47  1  0.44808000  0.20225200  0.19626700  1
