# generated using pymatgen
data_Cs2Al2Sb2O7
_symmetry_space_group_name_H-M   'P 1'
_cell_length_a   5.78785348
_cell_length_b   5.78785348
_cell_length_c   9.11824100
_cell_angle_alpha   90.00000000
_cell_angle_beta   90.00000000
_cell_angle_gamma   119.99999409
_symmetry_Int_Tables_number   1
_chemical_formula_structural   Cs2Al2Sb2O7
_chemical_formula_sum   'Cs2 Al2 Sb2 O7'
_cell_volume   264.53112652
_cell_formula_units_Z   1
loop_
 _symmetry_equiv_pos_site_id
 _symmetry_equiv_pos_as_xyz
  1  'x, y, z'
loop_
 _atom_site_type_symbol
 _atom_site_label
 _atom_site_symmetry_multiplicity
 _atom_site_fract_x
 _atom_site_fract_y
 _atom_site_fract_z
 _atom_site_occupancy
  Cs  Cs0  1  0.33333300  0.66666700  0.59746400  1
  Cs  Cs1  1  0.66666700  0.33333300  0.40253600  1
  Al  Al2  1  0.00000000  0.00000000  0.18948100  1
  Al  Al3  1  0.00000000  0.00000000  0.81051900  1
  Sb  Sb4  1  0.33333300  0.66666700  0.14703900  1
  Sb  Sb5  1  0.66666700  0.33333300  0.85296100  1
  O  O6  1  0.33260800  0.16630400  0.73665900  1
  O  O7  1  0.16630400  0.83369600  0.26334100  1
  O  O8  1  0.83369600  0.16630400  0.73665900  1
  O  O9  1  0.66739200  0.83369600  0.26334100  1
  O  O10  1  0.00000000  0.00000000  0.00000000  1
  O  O11  1  0.16630400  0.33260800  0.26334100  1
  O  O12  1  0.83369600  0.66739200  0.73665900  1
