# generated using pymatgen
data_Ba6Na2Nb2P2O17
_symmetry_space_group_name_H-M   'P 1'
_cell_length_a   5.91000658
_cell_length_b   5.91000658
_cell_length_c   14.75961800
_cell_angle_alpha   90.00000000
_cell_angle_beta   90.00000000
_cell_angle_gamma   120.00000647
_symmetry_Int_Tables_number   1
_chemical_formula_structural   Ba6Na2Nb2P2O17
_chemical_formula_sum   'Ba6 Na2 Nb2 P2 O17'
_cell_volume   446.45906910
_cell_formula_units_Z   1
loop_
 _symmetry_equiv_pos_site_id
 _symmetry_equiv_pos_as_xyz
  1  'x, y, z'
loop_
 _atom_site_type_symbol
 _atom_site_label
 _atom_site_symmetry_multiplicity
 _atom_site_fract_x
 _atom_site_fract_y
 _atom_site_fract_z
 _atom_site_occupancy
  Ba  Ba0  1  0.66666700  0.33333300  0.65619300  1
  Ba  Ba1  1  0.33333300  0.66666700  0.34380700  1
  Ba  Ba2  1  0.66666700  0.33333300  0.18031300  1
  Ba  Ba3  1  0.33333300  0.66666700  0.81968700  1
  Ba  Ba4  1  0.00000000  0.00000000  0.00000000  1
  Ba  Ba5  1  0.00000000  0.00000000  0.50000000  1
  Na  Na6  1  0.00000000  0.00000000  0.75300300  1
  Na  Na7  1  0.00000000  0.00000000  0.24699700  1
  Nb  Nb8  1  0.33333300  0.66666700  0.58811500  1
  Nb  Nb9  1  0.66666700  0.33333300  0.41188500  1
  P  P10  1  0.33333300  0.66666700  0.10473100  1
  P  P11  1  0.66666700  0.33333300  0.89526900  1
  O  O12  1  0.17648000  0.35296000  0.66098600  1
  O  O13  1  0.81018400  0.18981600  0.85715300  1
  O  O14  1  0.50000000  0.00000000  0.50000000  1
  O  O15  1  0.64704000  0.82352000  0.66098600  1
  O  O16  1  0.18981600  0.37963200  0.14284700  1
  O  O17  1  0.33333300  0.66666700  0.00040500  1
  O  O18  1  0.82352000  0.64704000  0.33901400  1
  O  O19  1  0.82352000  0.17648000  0.33901400  1
  O  O20  1  0.62036800  0.81018400  0.14284700  1
  O  O21  1  0.66666700  0.33333300  0.99959500  1
  O  O22  1  0.81018400  0.62036800  0.85715300  1
  O  O23  1  0.37963200  0.18981600  0.85715300  1
  O  O24  1  0.18981600  0.81018400  0.14284700  1
  O  O25  1  0.00000000  0.50000000  0.50000000  1
  O  O26  1  0.17648000  0.82352000  0.66098600  1
  O  O27  1  0.35296000  0.17648000  0.33901400  1
  O  O28  1  0.50000000  0.50000000  0.50000000  1
