# generated using pymatgen
data_Dy(IO3)3
_symmetry_space_group_name_H-M   'P 1'
_cell_length_a   6.13014200
_cell_length_b   8.80772500
_cell_length_c   16.74077416
_cell_angle_alpha   65.24048785
_cell_angle_beta   90.00000000
_cell_angle_gamma   90.00000000
_symmetry_Int_Tables_number   1
_chemical_formula_structural   Dy(IO3)3
_chemical_formula_sum   'Dy4 I12 O36'
_cell_volume   820.78780547
_cell_formula_units_Z   4
loop_
 _symmetry_equiv_pos_site_id
 _symmetry_equiv_pos_as_xyz
  1  'x, y, z'
loop_
 _atom_site_type_symbol
 _atom_site_label
 _atom_site_symmetry_multiplicity
 _atom_site_fract_x
 _atom_site_fract_y
 _atom_site_fract_z
 _atom_site_occupancy
  Dy  Dy0  1  0.28662400  0.14731800  0.39537300  1
  Dy  Dy1  1  0.21337600  0.14731800  0.89537300  1
  Dy  Dy2  1  0.78662400  0.85268200  0.10462700  1
  Dy  Dy3  1  0.71337600  0.85268200  0.60462700  1
  I  I4  1  0.31196100  0.07283800  0.14186400  1
  I  I5  1  0.59427400  0.41825900  0.19786700  1
  I  I6  1  0.09427400  0.58174100  0.30213300  1
  I  I7  1  0.18803900  0.07283800  0.64186400  1
  I  I8  1  0.64442000  0.35459300  0.48010900  1
  I  I9  1  0.81196100  0.92716200  0.35813600  1
  I  I10  1  0.85558000  0.35459300  0.98010900  1
  I  I11  1  0.40572600  0.58174100  0.80213300  1
  I  I12  1  0.35558000  0.64540700  0.51989100  1
  I  I13  1  0.14442000  0.64540700  0.01989100  1
  I  I14  1  0.90572600  0.41825900  0.69786700  1
  I  I15  1  0.68803900  0.92716200  0.85813600  1
  O  O16  1  0.02768900  0.39056600  0.88336300  1
  O  O17  1  0.87577900  0.12560600  0.01473200  1
  O  O18  1  0.55397200  0.94032700  0.18687300  1
  O  O19  1  0.17718900  0.34436100  0.74449100  1
  O  O20  1  0.92853200  0.64623800  0.94113800  1
  O  O21  1  0.48886700  0.36250400  0.86570100  1
  O  O22  1  0.57146800  0.64623800  0.44113800  1
  O  O23  1  0.39459000  0.90432100  0.67003400  1
  O  O24  1  0.67718900  0.65563900  0.75550900  1
  O  O25  1  0.32281100  0.34436100  0.24449100  1
  O  O26  1  0.07146800  0.35376200  0.05886200  1
  O  O27  1  0.58310900  0.34014400  0.11188600  1
  O  O28  1  0.87171600  0.88479600  0.47210600  1
  O  O29  1  0.01113300  0.36250400  0.36570100  1
  O  O30  1  0.62422100  0.12560600  0.51473200  1
  O  O31  1  0.62828400  0.88479600  0.97210600  1
  O  O32  1  0.51113300  0.63749600  0.13429900  1
  O  O33  1  0.12828400  0.11520400  0.52789400  1
  O  O34  1  0.05397200  0.05967300  0.31312700  1
  O  O35  1  0.10541000  0.90432100  0.17003400  1
  O  O36  1  0.12422100  0.87439400  0.98526800  1
  O  O37  1  0.08310900  0.65985600  0.38811400  1
  O  O38  1  0.37577900  0.87439400  0.48526800  1
  O  O39  1  0.41689100  0.65985600  0.88811400  1
  O  O40  1  0.42853200  0.35376200  0.55886200  1
  O  O41  1  0.52768900  0.60943400  0.61663700  1
  O  O42  1  0.89459000  0.09567900  0.82996600  1
  O  O43  1  0.91689100  0.34014400  0.61188600  1
  O  O44  1  0.60541000  0.09567900  0.32996600  1
  O  O45  1  0.82281100  0.65563900  0.25550900  1
  O  O46  1  0.44602800  0.05967300  0.81312700  1
  O  O47  1  0.97231100  0.60943400  0.11663700  1
  O  O48  1  0.37171600  0.11520400  0.02789400  1
  O  O49  1  0.94602800  0.94032700  0.68687300  1
  O  O50  1  0.98886700  0.63749600  0.63429900  1
  O  O51  1  0.47231100  0.39056600  0.38336300  1
