# generated using pymatgen
data_Rb5Sn(PSe5)3
_symmetry_space_group_name_H-M   'P 1'
_cell_length_a   7.49330400
_cell_length_b   12.02221501
_cell_length_c   19.68520131
_cell_angle_alpha   87.09724478
_cell_angle_beta   100.01882315
_cell_angle_gamma   107.46184721
_symmetry_Int_Tables_number   1
_chemical_formula_structural   Rb5Sn(PSe5)3
_chemical_formula_sum   'Rb10 Sn2 P6 Se30'
_cell_volume   1665.84257516
_cell_formula_units_Z   2
loop_
 _symmetry_equiv_pos_site_id
 _symmetry_equiv_pos_as_xyz
  1  'x, y, z'
loop_
 _atom_site_type_symbol
 _atom_site_label
 _atom_site_symmetry_multiplicity
 _atom_site_fract_x
 _atom_site_fract_y
 _atom_site_fract_z
 _atom_site_occupancy
  Rb  Rb0  1  0.58597100  0.64846400  0.75370800  1
  Rb  Rb1  1  0.29951600  0.13508700  0.96137400  1
  Rb  Rb2  1  0.70048400  0.86491300  0.03862600  1
  Rb  Rb3  1  0.32883100  0.14360400  0.54497700  1
  Rb  Rb4  1  0.67116900  0.85639600  0.45502300  1
  Rb  Rb5  1  0.05653900  0.59651100  0.11714500  1
  Rb  Rb6  1  0.41402900  0.35153600  0.24629200  1
  Rb  Rb7  1  0.00021600  0.38585700  0.62762000  1
  Rb  Rb8  1  0.99978400  0.61414300  0.37238000  1
  Rb  Rb9  1  0.94346100  0.40348900  0.88285500  1
  Sn  Sn10  1  0.83005900  0.09887300  0.25792200  1
  Sn  Sn11  1  0.16994100  0.90112700  0.74207800  1
  P  P12  1  0.41283400  0.26012500  0.74889300  1
  P  P13  1  0.23168100  0.77553100  0.56320100  1
  P  P14  1  0.76831900  0.22446900  0.43679900  1
  P  P15  1  0.97388700  0.22979000  0.07276800  1
  P  P16  1  0.02611300  0.77021000  0.92723200  1
  P  P17  1  0.58716600  0.73987500  0.25110700  1
  Se  Se18  1  0.95136100  0.68276200  0.60454300  1
  Se  Se19  1  0.14207100  0.16331000  0.35979400  1
  Se  Se20  1  0.04863900  0.31723800  0.39545700  1
  Se  Se21  1  0.58880100  0.09974400  0.35269500  1
  Se  Se22  1  0.82121000  0.13180100  0.53233200  1
  Se  Se23  1  0.12520000  0.66534100  0.77058200  1
  Se  Se24  1  0.59043000  0.64331600  0.16087400  1
  Se  Se25  1  0.41119900  0.90025600  0.64730500  1
  Se  Se26  1  0.13234200  0.12721300  0.71138500  1
  Se  Se27  1  0.86765800  0.87278700  0.28861500  1
  Se  Se28  1  0.95125800  0.89591000  0.84680000  1
  Se  Se29  1  0.04874200  0.10409000  0.15320000  1
  Se  Se30  1  0.87480000  0.33465900  0.22941800  1
  Se  Se31  1  0.80975300  0.14695300  0.97543900  1
  Se  Se32  1  0.47955400  0.62473700  0.33459000  1
  Se  Se33  1  0.67356200  0.37650500  0.44707000  1
  Se  Se34  1  0.77413400  0.62736300  0.94028900  1
  Se  Se35  1  0.62435100  0.15115900  0.76397600  1
  Se  Se36  1  0.50832000  0.00542200  0.16548000  1
  Se  Se37  1  0.19024700  0.85304700  0.02456100  1
  Se  Se38  1  0.74381600  0.29110800  0.11118900  1
  Se  Se39  1  0.17879000  0.86819900  0.46766800  1
  Se  Se40  1  0.22586600  0.37263700  0.05971100  1
  Se  Se41  1  0.32643800  0.62349500  0.55293000  1
  Se  Se42  1  0.25618400  0.70889200  0.88881100  1
  Se  Se43  1  0.40957000  0.35668400  0.83912600  1
  Se  Se44  1  0.52044600  0.37526300  0.66541000  1
  Se  Se45  1  0.49168000  0.99457800  0.83452000  1
  Se  Se46  1  0.85792900  0.83669000  0.64020600  1
  Se  Se47  1  0.37564900  0.84884100  0.23602400  1
