# generated using pymatgen
data_Na2Li3FeO4
_symmetry_space_group_name_H-M   'P 1'
_cell_length_a   6.65344400
_cell_length_b   8.03145900
_cell_length_c   8.38611700
_cell_angle_alpha   90.00000000
_cell_angle_beta   90.00000000
_cell_angle_gamma   90.00000000
_symmetry_Int_Tables_number   1
_chemical_formula_structural   Na2Li3FeO4
_chemical_formula_sum   'Na8 Li12 Fe4 O16'
_cell_volume   448.12778267
_cell_formula_units_Z   4
loop_
 _symmetry_equiv_pos_site_id
 _symmetry_equiv_pos_as_xyz
  1  'x, y, z'
loop_
 _atom_site_type_symbol
 _atom_site_label
 _atom_site_symmetry_multiplicity
 _atom_site_fract_x
 _atom_site_fract_y
 _atom_site_fract_z
 _atom_site_occupancy
  Na  Na0  1  0.00000000  0.25835100  0.75157500  1
  Na  Na1  1  0.00000000  0.74164900  0.24842500  1
  Na  Na2  1  0.50000000  0.75835100  0.74842500  1
  Na  Na3  1  0.50000000  0.24164900  0.25157500  1
  Na  Na4  1  0.74002500  0.50000000  0.00000000  1
  Na  Na5  1  0.75997500  0.00000000  0.50000000  1
  Na  Na6  1  0.25997500  0.50000000  0.00000000  1
  Na  Na7  1  0.24002500  0.00000000  0.50000000  1
  Li  Li8  1  0.75589000  0.48618100  0.35185300  1
  Li  Li9  1  0.75589000  0.51381900  0.64814700  1
  Li  Li10  1  0.74411000  0.98618100  0.14814700  1
  Li  Li11  1  0.74411000  0.01381900  0.85185300  1
  Li  Li12  1  0.24411000  0.51381900  0.64814700  1
  Li  Li13  1  0.24411000  0.48618100  0.35185300  1
  Li  Li14  1  0.25589000  0.01381900  0.85185300  1
  Li  Li15  1  0.25589000  0.98618100  0.14814700  1
  Li  Li16  1  0.00000000  0.26786900  0.41545600  1
  Li  Li17  1  0.00000000  0.73213100  0.58454400  1
  Li  Li18  1  0.50000000  0.76786900  0.08454400  1
  Li  Li19  1  0.50000000  0.23213100  0.91545600  1
  Fe  Fe20  1  0.00000000  0.77393400  0.87690700  1
  Fe  Fe21  1  0.00000000  0.22606600  0.12309300  1
  Fe  Fe22  1  0.50000000  0.27393400  0.62309300  1
  Fe  Fe23  1  0.50000000  0.72606600  0.37690700  1
  O  O24  1  0.00000000  0.56041400  0.77473100  1
  O  O25  1  0.00000000  0.43958600  0.22526900  1
  O  O26  1  0.50000000  0.06041400  0.72526900  1
  O  O27  1  0.50000000  0.93958600  0.27473100  1
  O  O28  1  0.75585200  0.80369400  0.98976000  1
  O  O29  1  0.75585200  0.19630600  0.01024000  1
  O  O30  1  0.74414800  0.30369400  0.51024000  1
  O  O31  1  0.74414800  0.69630600  0.48976000  1
  O  O32  1  0.24414800  0.19630600  0.01024000  1
  O  O33  1  0.24414800  0.80369400  0.98976000  1
  O  O34  1  0.25585200  0.69630600  0.48976000  1
  O  O35  1  0.25585200  0.30369400  0.51024000  1
  O  O36  1  0.00000000  0.95168200  0.72264700  1
  O  O37  1  0.00000000  0.04831800  0.27735300  1
  O  O38  1  0.50000000  0.45168200  0.77735300  1
  O  O39  1  0.50000000  0.54831800  0.22264700  1
