# generated using pymatgen
data_BaZr2F10
_symmetry_space_group_name_H-M   'P 1'
_cell_length_a   8.53377165
_cell_length_b   8.53377165
_cell_length_c   8.91695825
_cell_angle_alpha   84.00921931
_cell_angle_beta   84.00921931
_cell_angle_gamma   137.22761976
_symmetry_Int_Tables_number   1
_chemical_formula_structural   BaZr2F10
_chemical_formula_sum   'Ba2 Zr4 F20'
_cell_volume   422.53745877
_cell_formula_units_Z   2
loop_
 _symmetry_equiv_pos_site_id
 _symmetry_equiv_pos_as_xyz
  1  'x, y, z'
loop_
 _atom_site_type_symbol
 _atom_site_label
 _atom_site_symmetry_multiplicity
 _atom_site_fract_x
 _atom_site_fract_y
 _atom_site_fract_z
 _atom_site_occupancy
  Ba  Ba0  1  0.43026200  0.56973800  0.75000000  1
  Ba  Ba1  1  0.56973800  0.43026200  0.25000000  1
  Zr  Zr2  1  0.34176200  0.03224500  0.90351300  1
  Zr  Zr3  1  0.96775500  0.65823800  0.59648700  1
  Zr  Zr4  1  0.65823800  0.96775500  0.09648700  1
  Zr  Zr5  1  0.03224500  0.34176200  0.40351300  1
  F  F6  1  0.13712700  0.55287800  0.57388600  1
  F  F7  1  0.44712200  0.86287300  0.92611400  1
  F  F8  1  0.86287300  0.44712200  0.42611400  1
  F  F9  1  0.55287800  0.13712700  0.07388600  1
  F  F10  1  0.69661300  0.30338700  0.75000000  1
  F  F11  1  0.30338700  0.69661300  0.25000000  1
  F  F12  1  0.19927200  0.80072800  0.75000000  1
  F  F13  1  0.80072800  0.19927200  0.25000000  1
  F  F14  1  0.97121600  0.24462300  0.93583300  1
  F  F15  1  0.75537700  0.02878400  0.56416700  1
  F  F16  1  0.02878400  0.75537700  0.06416700  1
  F  F17  1  0.24462300  0.97121600  0.43583300  1
  F  F18  1  0.26023200  0.37465700  0.49833000  1
  F  F19  1  0.62534300  0.73976800  0.00167000  1
  F  F20  1  0.73976800  0.62534300  0.50167000  1
  F  F21  1  0.37465700  0.26023200  0.99833000  1
  F  F22  1  0.29593800  0.16828300  0.74083900  1
  F  F23  1  0.83171700  0.70406200  0.75916100  1
  F  F24  1  0.70406200  0.83171700  0.25916100  1
  F  F25  1  0.16828300  0.29593800  0.24083900  1
