# generated using pymatgen
data_Ca4P2O9
_symmetry_space_group_name_H-M   'P 1'
_cell_length_a   12.10172300
_cell_length_b   7.06885500
_cell_length_c   9.55573770
_cell_angle_alpha   89.02352934
_cell_angle_beta   90.00000000
_cell_angle_gamma   90.00000000
_symmetry_Int_Tables_number   1
_chemical_formula_structural   Ca4P2O9
_chemical_formula_sum   'Ca16 P8 O36'
_cell_volume   817.32997722
_cell_formula_units_Z   4
loop_
 _symmetry_equiv_pos_site_id
 _symmetry_equiv_pos_as_xyz
  1  'x, y, z'
loop_
 _atom_site_type_symbol
 _atom_site_label
 _atom_site_symmetry_multiplicity
 _atom_site_fract_x
 _atom_site_fract_y
 _atom_site_fract_z
 _atom_site_occupancy
  Ca  Ca0  1  0.42081900  0.74983700  0.01171800  1
  Ca  Ca1  1  0.94697700  0.51539900  0.40989200  1
  Ca  Ca2  1  0.43038000  0.01025200  0.63456700  1
  Ca  Ca3  1  0.93038000  0.98974800  0.36543300  1
  Ca  Ca4  1  0.44697700  0.48460100  0.59010800  1
  Ca  Ca5  1  0.92081900  0.25016300  0.98828200  1
  Ca  Ca6  1  0.39498400  0.25889500  0.25867000  1
  Ca  Ca7  1  0.89498400  0.74110500  0.74133000  1
  Ca  Ca8  1  0.19972800  0.73013700  0.25126800  1
  Ca  Ca9  1  0.69972800  0.26986300  0.74873200  1
  Ca  Ca10  1  0.19663700  0.22965200  0.52845900  1
  Ca  Ca11  1  0.69663700  0.77034800  0.47154100  1
  Ca  Ca12  1  0.20288900  0.46724300  0.89713200  1
  Ca  Ca13  1  0.70288900  0.53275700  0.10286800  1
  Ca  Ca14  1  0.15642200  0.96700900  0.89574200  1
  Ca  Ca15  1  0.65642200  0.03299100  0.10425800  1
  P  P16  1  0.60850100  0.76731200  0.78553100  1
  P  P17  1  0.10850100  0.23268800  0.21446900  1
  P  P18  1  0.67536500  0.28948100  0.37620600  1
  P  P19  1  0.17536500  0.71051900  0.62379400  1
  P  P20  1  0.95903600  0.23682500  0.68206400  1
  P  P21  1  0.45903600  0.76317500  0.31793600  1
  P  P22  1  0.92295300  0.76442600  0.08985900  1
  P  P23  1  0.42295300  0.23557400  0.91014100  1
  O  O24  1  0.50111900  0.28562500  0.78576500  1
  O  O25  1  0.81421200  0.83913800  0.15842400  1
  O  O26  1  0.39391200  0.41139800  0.99909900  1
  O  O27  1  0.89391200  0.58860200  0.00090100  1
  O  O28  1  0.56598400  0.75530700  0.22620300  1
  O  O29  1  0.06598400  0.24469300  0.77379700  1
  O  O30  1  0.39073300  0.57958200  0.30614600  1
  O  O31  1  0.89073300  0.42041800  0.69385400  1
  O  O32  1  0.37209800  0.23294500  0.49090800  1
  O  O33  1  0.87209800  0.76705500  0.50909200  1
  O  O34  1  0.23836400  0.73420000  0.01570400  1
  O  O35  1  0.73836400  0.26580000  0.98429600  1
  O  O36  1  0.47351000  0.08095900  0.00737000  1
  O  O37  1  0.97351000  0.91904100  0.99263000  1
  O  O38  1  0.31421200  0.16086200  0.84157600  1
  O  O39  1  0.13297900  0.04385400  0.29370200  1
  O  O40  1  0.48084500  0.72961400  0.77429400  1
  O  O41  1  0.98084500  0.27038600  0.22570600  1
  O  O42  1  0.67752000  0.61371600  0.71167300  1
  O  O43  1  0.17752000  0.38628400  0.28832700  1
  O  O44  1  0.63297900  0.95614600  0.70629800  1
  O  O45  1  0.38294300  0.92308300  0.26359900  1
  O  O46  1  0.63605500  0.76988900  0.94423400  1
  O  O47  1  0.13605500  0.23011100  0.05576600  1
  O  O48  1  0.59112300  0.28628200  0.25105800  1
  O  O49  1  0.09112300  0.71371800  0.74894200  1
  O  O50  1  0.73702700  0.09582500  0.37694300  1
  O  O51  1  0.23702700  0.90417500  0.62305700  1
  O  O52  1  0.75686700  0.45763700  0.34204100  1
  O  O53  1  0.25686700  0.54236300  0.65795900  1
  O  O54  1  0.61784100  0.32747100  0.51642000  1
  O  O55  1  0.11784100  0.67252900  0.48358000  1
  O  O56  1  0.99599800  0.21511000  0.52676000  1
  O  O57  1  0.49599800  0.78489000  0.47324000  1
  O  O58  1  0.88294300  0.07691700  0.73640100  1
  O  O59  1  0.00111900  0.71437500  0.21423500  1
