# generated using pymatgen
data_K6NbAs3O
_symmetry_space_group_name_H-M   'P 1'
_cell_length_a   11.16751700
_cell_length_b   11.16751700
_cell_length_c   11.16751700
_cell_angle_alpha   90.00000000
_cell_angle_beta   90.00000000
_cell_angle_gamma   90.00000000
_symmetry_Int_Tables_number   1
_chemical_formula_structural   K6NbAs3O
_chemical_formula_sum   'K24 Nb4 As12 O4'
_cell_volume   1392.73941605
_cell_formula_units_Z   4
loop_
 _symmetry_equiv_pos_site_id
 _symmetry_equiv_pos_as_xyz
  1  'x, y, z'
loop_
 _atom_site_type_symbol
 _atom_site_label
 _atom_site_symmetry_multiplicity
 _atom_site_fract_x
 _atom_site_fract_y
 _atom_site_fract_z
 _atom_site_occupancy
  K  K0  1  0.78541200  0.36542500  0.53583600  1
  K  K1  1  0.13721500  0.36278500  0.63721500  1
  K  K2  1  0.46416400  0.28541200  0.13457500  1
  K  K3  1  0.86278500  0.86278500  0.86278500  1
  K  K4  1  0.68170500  0.31829500  0.81829500  1
  K  K5  1  0.31829500  0.81829500  0.68170500  1
  K  K6  1  0.53583600  0.78541200  0.36542500  1
  K  K7  1  0.81829500  0.68170500  0.31829500  1
  K  K8  1  0.36278500  0.63721500  0.13721500  1
  K  K9  1  0.15222500  0.84777500  0.34777500  1
  K  K10  1  0.65222500  0.65222500  0.65222500  1
  K  K11  1  0.28541200  0.13457500  0.46416400  1
  K  K12  1  0.21458800  0.86542500  0.96416400  1
  K  K13  1  0.71458800  0.63457500  0.03583600  1
  K  K14  1  0.63457500  0.03583600  0.71458800  1
  K  K15  1  0.13457500  0.46416400  0.28541200  1
  K  K16  1  0.96416400  0.21458800  0.86542500  1
  K  K17  1  0.34777500  0.15222500  0.84777500  1
  K  K18  1  0.86542500  0.96416400  0.21458800  1
  K  K19  1  0.84777500  0.34777500  0.15222500  1
  K  K20  1  0.03583600  0.71458800  0.63457500  1
  K  K21  1  0.36542500  0.53583600  0.78541200  1
  K  K22  1  0.18170500  0.18170500  0.18170500  1
  K  K23  1  0.63721500  0.13721500  0.36278500  1
  Nb  Nb24  1  0.42999700  0.42999700  0.42999700  1
  Nb  Nb25  1  0.57000300  0.92999700  0.07000300  1
  Nb  Nb26  1  0.07000300  0.57000300  0.92999700  1
  Nb  Nb27  1  0.92999700  0.07000300  0.57000300  1
  As  As28  1  0.30576300  0.61334000  0.48015800  1
  As  As29  1  0.98015800  0.19423700  0.38666000  1
  As  As30  1  0.51984200  0.80576300  0.88666000  1
  As  As31  1  0.69423700  0.11334000  0.01984200  1
  As  As32  1  0.19423700  0.38666000  0.98015800  1
  As  As33  1  0.01984200  0.69423700  0.11334000  1
  As  As34  1  0.61334000  0.48015800  0.30576300  1
  As  As35  1  0.38666000  0.98015800  0.19423700  1
  As  As36  1  0.80576300  0.88666000  0.51984200  1
  As  As37  1  0.88666000  0.51984200  0.80576300  1
  As  As38  1  0.11334000  0.01984200  0.69423700  1
  As  As39  1  0.48015800  0.30576300  0.61334000  1
  O  O40  1  0.16606200  0.66606200  0.83393800  1
  O  O41  1  0.33393800  0.33393800  0.33393800  1
  O  O42  1  0.66606200  0.83393800  0.16606200  1
  O  O43  1  0.83393800  0.16606200  0.66606200  1
