# generated using pymatgen
data_AuSeClO3
_symmetry_space_group_name_H-M   'P 1'
_cell_length_a   4.49358700
_cell_length_b   9.99119200
_cell_length_c   10.90349885
_cell_angle_alpha   82.05733780
_cell_angle_beta   88.32462871
_cell_angle_gamma   88.44212798
_symmetry_Int_Tables_number   1
_chemical_formula_structural   AuSeClO3
_chemical_formula_sum   'Au4 Se4 Cl4 O12'
_cell_volume   484.49081089
_cell_formula_units_Z   4
loop_
 _symmetry_equiv_pos_site_id
 _symmetry_equiv_pos_as_xyz
  1  'x, y, z'
loop_
 _atom_site_type_symbol
 _atom_site_label
 _atom_site_symmetry_multiplicity
 _atom_site_fract_x
 _atom_site_fract_y
 _atom_site_fract_z
 _atom_site_occupancy
  Au  Au0  1  0.00472000  0.57897200  0.18621300  1
  Au  Au1  1  0.00000000  0.00000000  0.00000000  1
  Au  Au2  1  0.99528000  0.42102800  0.81378700  1
  Au  Au3  1  0.00000000  0.00000000  0.50000000  1
  Se  Se4  1  0.71985600  0.86445200  0.27041000  1
  Se  Se5  1  0.20790900  0.71167400  0.90417000  1
  Se  Se6  1  0.79209100  0.28832600  0.09583000  1
  Se  Se7  1  0.28014400  0.13554800  0.72959000  1
  Cl  Cl8  1  0.33779800  0.49578800  0.66223300  1
  Cl  Cl9  1  0.66220200  0.50421200  0.33776700  1
  Cl  Cl10  1  0.27897600  0.19094100  0.44419200  1
  Cl  Cl11  1  0.72102400  0.80905900  0.55580800  1
  O  O12  1  0.65519600  0.95066900  0.12254000  1
  O  O13  1  0.67877700  0.35424000  0.94848900  1
  O  O14  1  0.03301100  0.76202100  0.24493100  1
  O  O15  1  0.08087700  0.17276000  0.06852500  1
  O  O16  1  0.07115300  0.39625600  0.12906000  1
  O  O17  1  0.91912300  0.82724000  0.93147500  1
  O  O18  1  0.32122300  0.64576000  0.05151100  1
  O  O19  1  0.96698900  0.23797900  0.75506900  1
  O  O20  1  0.93040400  0.99247500  0.31851800  1
  O  O21  1  0.92884700  0.60374400  0.87094000  1
  O  O22  1  0.34480400  0.04933100  0.87746000  1
  O  O23  1  0.06959600  0.00752500  0.68148200  1
