# generated using pymatgen
data_KSrNb2O6F
_symmetry_space_group_name_H-M   'P 1'
_cell_length_a   12.19858010
_cell_length_b   12.19858010
_cell_length_c   12.19858010
_cell_angle_alpha   161.53701360
_cell_angle_beta   142.78642770
_cell_angle_gamma   41.84819141
_symmetry_Int_Tables_number   1
_chemical_formula_structural   KSrNb2O6F
_chemical_formula_sum   'K2 Sr2 Nb4 O12 F2'
_cell_volume   347.14967454
_cell_formula_units_Z   2
loop_
 _symmetry_equiv_pos_site_id
 _symmetry_equiv_pos_as_xyz
  1  'x, y, z'
loop_
 _atom_site_type_symbol
 _atom_site_label
 _atom_site_symmetry_multiplicity
 _atom_site_fract_x
 _atom_site_fract_y
 _atom_site_fract_z
 _atom_site_occupancy
  K  K0  1  0.23580500  0.73580500  0.50000000  1
  K  K1  1  0.76419500  0.26419500  0.50000000  1
  Sr  Sr2  1  0.50000000  0.50000000  0.00000000  1
  Sr  Sr3  1  0.00000000  0.50000000  0.50000000  1
  Nb  Nb4  1  0.35491500  0.10764300  0.24727200  1
  Nb  Nb5  1  0.86037100  0.10764300  0.75272800  1
  Nb  Nb6  1  0.64508500  0.89235700  0.75272800  1
  Nb  Nb7  1  0.13962900  0.89235700  0.24727200  1
  O  O8  1  0.04104400  0.81402000  0.22702400  1
  O  O9  1  0.08009600  0.08009600  0.00000000  1
  O  O10  1  0.66642900  0.41476200  0.25166800  1
  O  O11  1  0.41300400  0.18598000  0.22702400  1
  O  O12  1  0.83690600  0.58523800  0.25166800  1
  O  O13  1  0.95895600  0.18598000  0.77297600  1
  O  O14  1  0.91990400  0.91990400  0.00000000  1
  O  O15  1  0.40899400  0.90899400  0.50000000  1
  O  O16  1  0.58699600  0.81402000  0.77297600  1
  O  O17  1  0.16309400  0.41476200  0.74833200  1
  O  O18  1  0.33357100  0.58523800  0.74833200  1
  O  O19  1  0.59100600  0.09100600  0.50000000  1
  F  F20  1  0.26712300  0.00000000  0.26712300  1
  F  F21  1  0.73287700  0.00000000  0.73287700  1
