# generated using pymatgen
data_CeTmS3
_symmetry_space_group_name_H-M   'P 1'
_cell_length_a   3.92729900
_cell_length_b   10.95439900
_cell_length_c   21.45927428
_cell_angle_alpha   78.43160554
_cell_angle_beta   90.00000000
_cell_angle_gamma   90.00000000
_symmetry_Int_Tables_number   1
_chemical_formula_structural   CeTmS3
_chemical_formula_sum   'Ce8 Tm8 S24'
_cell_volume   904.44979305
_cell_formula_units_Z   8
loop_
 _symmetry_equiv_pos_site_id
 _symmetry_equiv_pos_as_xyz
  1  'x, y, z'
loop_
 _atom_site_type_symbol
 _atom_site_label
 _atom_site_symmetry_multiplicity
 _atom_site_fract_x
 _atom_site_fract_y
 _atom_site_fract_z
 _atom_site_occupancy
  Ce  Ce0  1  0.25000000  0.29947600  0.53789400  1
  Ce  Ce1  1  0.25000000  0.19334400  0.73225500  1
  Ce  Ce2  1  0.75000000  0.59209300  0.13657300  1
  Ce  Ce3  1  0.75000000  0.80665600  0.26774500  1
  Ce  Ce4  1  0.75000000  0.70052400  0.46210600  1
  Ce  Ce5  1  0.25000000  0.80426200  0.76634000  1
  Ce  Ce6  1  0.75000000  0.19573800  0.23366000  1
  Ce  Ce7  1  0.25000000  0.40790700  0.86342700  1
  Tm  Tm8  1  0.25000000  0.32210300  0.04640300  1
  Tm  Tm9  1  0.75000000  0.94617500  0.58225000  1
  Tm  Tm10  1  0.25000000  0.47008100  0.35222800  1
  Tm  Tm11  1  0.75000000  0.02244400  0.91176900  1
  Tm  Tm12  1  0.75000000  0.67789700  0.95359700  1
  Tm  Tm13  1  0.75000000  0.52991900  0.64777200  1
  Tm  Tm14  1  0.25000000  0.97755600  0.08823100  1
  Tm  Tm15  1  0.25000000  0.05382500  0.41775000  1
  S  S16  1  0.75000000  0.29359900  0.63520000  1
  S  S17  1  0.25000000  0.46178600  0.72946300  1
  S  S18  1  0.25000000  0.04766400  0.63423700  1
  S  S19  1  0.25000000  0.13714000  0.96421000  1
  S  S20  1  0.25000000  0.37519800  0.16433600  1
  S  S21  1  0.25000000  0.55791200  0.55562300  1
  S  S22  1  0.25000000  0.00567100  0.22190000  1
  S  S23  1  0.25000000  0.84248100  0.90040200  1
  S  S24  1  0.25000000  0.85445200  0.51437700  1
  S  S25  1  0.75000000  0.41430400  0.96226000  1
  S  S26  1  0.75000000  0.62480200  0.83566400  1
  S  S27  1  0.75000000  0.95233600  0.36576300  1
  S  S28  1  0.75000000  0.86286000  0.03579000  1
  S  S29  1  0.75000000  0.44208800  0.44437700  1
  S  S30  1  0.75000000  0.15751900  0.09959800  1
  S  S31  1  0.75000000  0.14554800  0.48562300  1
  S  S32  1  0.75000000  0.99432900  0.77810000  1
  S  S33  1  0.75000000  0.53821400  0.27053700  1
  S  S34  1  0.25000000  0.75196400  0.17476700  1
  S  S35  1  0.25000000  0.70640100  0.36480000  1
  S  S36  1  0.75000000  0.24803600  0.82523300  1
  S  S37  1  0.25000000  0.58569600  0.03774000  1
  S  S38  1  0.25000000  0.24562000  0.32299700  1
  S  S39  1  0.75000000  0.75438000  0.67700300  1
