# generated using pymatgen
data_DyZnPO
_symmetry_space_group_name_H-M   'P 1'
_cell_length_a   10.37485454
_cell_length_b   10.37485454
_cell_length_c   10.37485443
_cell_angle_alpha   21.66652402
_cell_angle_beta   21.66652402
_cell_angle_gamma   21.66652625
_symmetry_Int_Tables_number   1
_chemical_formula_structural   DyZnPO
_chemical_formula_sum   'Dy2 Zn2 P2 O2'
_cell_volume   133.39878132
_cell_formula_units_Z   2
loop_
 _symmetry_equiv_pos_site_id
 _symmetry_equiv_pos_as_xyz
  1  'x, y, z'
loop_
 _atom_site_type_symbol
 _atom_site_label
 _atom_site_symmetry_multiplicity
 _atom_site_fract_x
 _atom_site_fract_y
 _atom_site_fract_z
 _atom_site_occupancy
  Dy  Dy0  1  0.37969400  0.37969400  0.37969400  1
  Dy  Dy1  1  0.62030600  0.62030600  0.62030600  1
  Zn  Zn2  1  0.19629400  0.19629400  0.19629400  1
  Zn  Zn3  1  0.80370600  0.80370600  0.80370600  1
  P  P4  1  0.11170200  0.11170200  0.11170200  1
  P  P5  1  0.88829800  0.88829800  0.88829800  1
  O  O6  1  0.30540500  0.30540500  0.30540500  1
  O  O7  1  0.69459500  0.69459500  0.69459500  1
