# generated using pymatgen
data_Cs7(In2Bi3)2
_symmetry_space_group_name_H-M   'P 1'
_cell_length_a   10.45429700
_cell_length_b   10.49737257
_cell_length_c   28.24657624
_cell_angle_alpha   94.59966518
_cell_angle_beta   90.86352897
_cell_angle_gamma   90.24703467
_symmetry_Int_Tables_number   1
_chemical_formula_structural   Cs7(In2Bi3)2
_chemical_formula_sum   'Cs28 In16 Bi24'
_cell_volume   3089.47228201
_cell_formula_units_Z   4
loop_
 _symmetry_equiv_pos_site_id
 _symmetry_equiv_pos_as_xyz
  1  'x, y, z'
loop_
 _atom_site_type_symbol
 _atom_site_label
 _atom_site_symmetry_multiplicity
 _atom_site_fract_x
 _atom_site_fract_y
 _atom_site_fract_z
 _atom_site_occupancy
  Cs  Cs0  1  0.51890400  0.47392800  0.07534900  1
  Cs  Cs1  1  0.62593900  0.19659100  0.17830800  1
  Cs  Cs2  1  0.95479900  0.33972200  0.08863800  1
  Cs  Cs3  1  0.30184700  0.14798300  0.41911900  1
  Cs  Cs4  1  0.48109600  0.52607200  0.92465100  1
  Cs  Cs5  1  0.81760900  0.57195600  0.32946900  1
  Cs  Cs6  1  0.37406100  0.80340900  0.82169200  1
  Cs  Cs7  1  0.74787000  0.90675800  0.25658800  1
  Cs  Cs8  1  0.98267000  0.25650300  0.24998000  1
  Cs  Cs9  1  0.25213000  0.09324200  0.74341200  1
  Cs  Cs10  1  0.10029700  0.74470000  0.58449300  1
  Cs  Cs11  1  0.88147600  0.30578500  0.76830000  1
  Cs  Cs12  1  0.18239100  0.42804400  0.67053100  1
  Cs  Cs13  1  0.89970300  0.25530000  0.41550700  1
  Cs  Cs14  1  0.71605200  0.90080700  0.91151700  1
  Cs  Cs15  1  0.65366800  0.92954000  0.41512300  1
  Cs  Cs16  1  0.83204400  0.29989400  0.92839600  1
  Cs  Cs17  1  0.04520100  0.66027800  0.91136200  1
  Cs  Cs18  1  0.01733000  0.74349700  0.75002000  1
  Cs  Cs19  1  0.28394800  0.09919300  0.08848300  1
  Cs  Cs20  1  0.52097500  0.48839200  0.42589300  1
  Cs  Cs21  1  0.67544700  0.96717500  0.73780300  1
  Cs  Cs22  1  0.47902500  0.51160800  0.57410700  1
  Cs  Cs23  1  0.34633200  0.07046000  0.58487700  1
  Cs  Cs24  1  0.69815300  0.85201700  0.58088100  1
  Cs  Cs25  1  0.32455300  0.03282500  0.26219700  1
  Cs  Cs26  1  0.11852400  0.69421500  0.23170000  1
  Cs  Cs27  1  0.16795600  0.70010600  0.07160400  1
  In  In28  1  0.77262800  0.75720900  0.12833700  1
  In  In29  1  0.45014900  0.13955300  0.95883600  1
  In  In30  1  0.90164100  0.96296200  0.03533900  1
  In  In31  1  0.49901800  0.60247900  0.20456100  1
  In  In32  1  0.96537500  0.10771500  0.53734300  1
  In  In33  1  0.13422100  0.53762800  0.45485500  1
  In  In34  1  0.54985100  0.86044700  0.04116400  1
  In  In35  1  0.86577900  0.46237200  0.54514500  1
  In  In36  1  0.50098200  0.39752100  0.79543900  1
  In  In37  1  0.23595700  0.73221500  0.36475400  1
  In  In38  1  0.41691700  0.41261200  0.29424600  1
  In  In39  1  0.09835900  0.03703800  0.96466100  1
  In  In40  1  0.76404300  0.26778500  0.63524600  1
  In  In41  1  0.03462500  0.89228500  0.46265700  1
  In  In42  1  0.22737200  0.24279100  0.87166300  1
  In  In43  1  0.58308300  0.58738800  0.70575400  1
  Bi  Bi44  1  0.61041400  0.22820200  0.32297900  1
  Bi  Bi45  1  0.86311000  0.64543800  0.46623900  1
  Bi  Bi46  1  0.30830700  0.77881200  0.47068200  1
  Bi  Bi47  1  0.30449100  0.38857800  0.19174100  1
  Bi  Bi48  1  0.77786500  0.53973100  0.18985500  1
  Bi  Bi49  1  0.22213500  0.46026900  0.81014500  1
  Bi  Bi50  1  0.47989400  0.70741900  0.30853900  1
  Bi  Bi51  1  0.38958600  0.77179800  0.67702100  1
  Bi  Bi52  1  0.21514800  0.31248800  0.97996500  1
  Bi  Bi53  1  0.13689000  0.35456200  0.53376100  1
  Bi  Bi54  1  0.65520100  0.13250100  0.03742000  1
  Bi  Bi55  1  0.02587200  0.92199000  0.35606700  1
  Bi  Bi56  1  0.97412800  0.07801000  0.64393300  1
  Bi  Bi57  1  0.16552000  0.44932300  0.35110000  1
  Bi  Bi58  1  0.78485200  0.68751200  0.02003500  1
  Bi  Bi59  1  0.83448000  0.55067700  0.64890000  1
  Bi  Bi60  1  0.69550900  0.61142200  0.80825900  1
  Bi  Bi61  1  0.34479900  0.86749900  0.96258000  1
  Bi  Bi62  1  0.52010600  0.29258100  0.69146100  1
  Bi  Bi63  1  0.50942800  0.16244900  0.85449400  1
  Bi  Bi64  1  0.03965400  0.02495800  0.85918100  1
  Bi  Bi65  1  0.49057200  0.83755100  0.14550600  1
  Bi  Bi66  1  0.96034600  0.97504200  0.14081900  1
  Bi  Bi67  1  0.69169300  0.22118800  0.52931800  1
