# generated using pymatgen
data_Na2VOF4
_symmetry_space_group_name_H-M   'P 1'
_cell_length_a   6.85193581
_cell_length_b   8.29575548
_cell_length_c   8.29575554
_cell_angle_alpha   78.15765124
_cell_angle_beta   77.08836495
_cell_angle_gamma   77.08836306
_symmetry_Int_Tables_number   1
_chemical_formula_structural   Na2VOF4
_chemical_formula_sum   'Na8 V4 O4 F16'
_cell_volume   441.97827878
_cell_formula_units_Z   4
loop_
 _symmetry_equiv_pos_site_id
 _symmetry_equiv_pos_as_xyz
  1  'x, y, z'
loop_
 _atom_site_type_symbol
 _atom_site_label
 _atom_site_symmetry_multiplicity
 _atom_site_fract_x
 _atom_site_fract_y
 _atom_site_fract_z
 _atom_site_occupancy
  Na  Na0  1  0.62514400  0.00024900  0.79396200  1
  Na  Na1  1  0.12514400  0.79396200  0.00024900  1
  Na  Na2  1  0.37485600  0.99975100  0.20603800  1
  Na  Na3  1  0.87485600  0.20603800  0.99975100  1
  Na  Na4  1  0.96677500  0.56864600  0.76207300  1
  Na  Na5  1  0.46677500  0.76207300  0.56864600  1
  Na  Na6  1  0.03322500  0.43135400  0.23792700  1
  Na  Na7  1  0.53322500  0.23792700  0.43135400  1
  V  V8  1  0.91719000  0.87148600  0.39921100  1
  V  V9  1  0.08281000  0.12851400  0.60078900  1
  V  V10  1  0.58281000  0.60078900  0.12851400  1
  V  V11  1  0.41719000  0.39921100  0.87148600  1
  O  O12  1  0.01183600  0.31592100  0.65505300  1
  O  O13  1  0.51183600  0.65505300  0.31592100  1
  O  O14  1  0.48816400  0.34494700  0.68407900  1
  O  O15  1  0.98816400  0.68407900  0.34494700  1
  F  F16  1  0.27256800  0.62760900  0.79628900  1
  F  F17  1  0.22743200  0.20371100  0.37239100  1
  F  F18  1  0.72743200  0.37239100  0.20371100  1
  F  F19  1  0.77256800  0.79628900  0.62760900  1
  F  F20  1  0.65078000  0.96381300  0.34264500  1
  F  F21  1  0.84922000  0.65735500  0.03618700  1
  F  F22  1  0.15078000  0.34264500  0.96381300  1
  F  F23  1  0.34922000  0.03618700  0.65735500  1
  F  F24  1  0.96205800  0.00302600  0.81514000  1
  F  F25  1  0.03794200  0.99697400  0.18486000  1
  F  F26  1  0.46205800  0.81514000  0.00302600  1
  F  F27  1  0.53794200  0.18486000  0.99697400  1
  F  F28  1  0.15571900  0.88820800  0.49149700  1
  F  F29  1  0.84428100  0.11179200  0.50850300  1
  F  F30  1  0.65571900  0.49149700  0.88820800  1
  F  F31  1  0.34428100  0.50850300  0.11179200  1
