# generated using pymatgen
data_K4Mn3F12
_symmetry_space_group_name_H-M   'P 1'
_cell_length_a   10.31324228
_cell_length_b   10.31324228
_cell_length_c   10.31324228
_cell_angle_alpha   131.29313715
_cell_angle_beta   131.29313715
_cell_angle_gamma   71.34775754
_symmetry_Int_Tables_number   1
_chemical_formula_structural   K4Mn3F12
_chemical_formula_sum   'K8 Mn6 F24'
_cell_volume   606.10837291
_cell_formula_units_Z   2
loop_
 _symmetry_equiv_pos_site_id
 _symmetry_equiv_pos_as_xyz
  1  'x, y, z'
loop_
 _atom_site_type_symbol
 _atom_site_label
 _atom_site_symmetry_multiplicity
 _atom_site_fract_x
 _atom_site_fract_y
 _atom_site_fract_z
 _atom_site_occupancy
  K  K0  1  0.87500000  0.40377100  0.02877100  1
  K  K1  1  0.15377100  0.62500000  0.02877100  1
  K  K2  1  0.59622900  0.12500000  0.97122900  1
  K  K3  1  0.37500000  0.84622900  0.97122900  1
  K  K4  1  0.87500000  0.84622900  0.47122900  1
  K  K5  1  0.59622900  0.62500000  0.47122900  1
  K  K6  1  0.37500000  0.40377100  0.52877100  1
  K  K7  1  0.15377100  0.12500000  0.52877100  1
  Mn  Mn8  1  0.75000000  0.25000000  0.50000000  1
  Mn  Mn9  1  0.00000000  0.00000000  0.00000000  1
  Mn  Mn10  1  0.24272600  0.24272600  0.00000000  1
  Mn  Mn11  1  0.99272600  0.49272600  0.50000000  1
  Mn  Mn12  1  0.50727400  0.00727400  0.50000000  1
  Mn  Mn13  1  0.75727400  0.75727400  0.00000000  1
  F  F14  1  0.64388900  0.64388900  0.00000000  1
  F  F15  1  0.39388900  0.89388900  0.50000000  1
  F  F16  1  0.10611100  0.60611100  0.50000000  1
  F  F17  1  0.35611100  0.35611100  0.00000000  1
  F  F18  1  0.87302200  0.87302200  0.00000000  1
  F  F19  1  0.62302200  0.12302200  0.50000000  1
  F  F20  1  0.87697800  0.37697800  0.50000000  1
  F  F21  1  0.12697800  0.12697800  0.00000000  1
  F  F22  1  0.53818400  0.75826700  0.77991600  1
  F  F23  1  0.24173200  0.02164900  0.77991600  1
  F  F24  1  0.24173200  0.46181600  0.22008400  1
  F  F25  1  0.21181600  0.49173300  0.72008400  1
  F  F26  1  0.77164900  0.49173300  0.27991600  1
  F  F27  1  0.50826800  0.22835100  0.72008400  1
  F  F28  1  0.99288200  0.24523000  0.74765200  1
  F  F29  1  0.99523000  0.74757800  0.75234800  1
  F  F30  1  0.99523000  0.24288200  0.24765200  1
  F  F31  1  0.75711800  0.00477000  0.75234800  1
  F  F32  1  0.25242200  0.00477000  0.24765200  1
  F  F33  1  0.75477000  0.50242200  0.74765200  1
  F  F34  1  0.75477000  0.00711800  0.25234800  1
  F  F35  1  0.49757800  0.24523000  0.25234800  1
  F  F36  1  0.97835100  0.75826700  0.22008400  1
  F  F37  1  0.50826800  0.78818400  0.27991600  1
