# generated using pymatgen
data_La2Si2O7
_symmetry_space_group_name_H-M   'P 1'
_cell_length_a   8.85116900
_cell_length_b   5.52720200
_cell_length_c   14.34517382
_cell_angle_alpha   67.49950438
_cell_angle_beta   90.00000000
_cell_angle_gamma   90.00000000
_symmetry_Int_Tables_number   1
_chemical_formula_structural   La2Si2O7
_chemical_formula_sum   'La8 Si8 O28'
_cell_volume   648.37397550
_cell_formula_units_Z   4
loop_
 _symmetry_equiv_pos_site_id
 _symmetry_equiv_pos_as_xyz
  1  'x, y, z'
loop_
 _atom_site_type_symbol
 _atom_site_label
 _atom_site_symmetry_multiplicity
 _atom_site_fract_x
 _atom_site_fract_y
 _atom_site_fract_z
 _atom_site_occupancy
  La  La0  1  0.60795700  0.16799200  0.58923500  1
  La  La1  1  0.10795700  0.83200800  0.91076500  1
  La  La2  1  0.39204300  0.83200800  0.41076500  1
  La  La3  1  0.89204300  0.16799200  0.08923500  1
  La  La4  1  0.81153000  0.48220100  0.76646000  1
  La  La5  1  0.31153000  0.51779900  0.73354000  1
  La  La6  1  0.18847000  0.51779900  0.23354000  1
  La  La7  1  0.68847000  0.48220100  0.26646000  1
  Si  Si8  1  0.49435400  0.04409000  0.17912000  1
  Si  Si9  1  0.99435400  0.95591000  0.32088000  1
  Si  Si10  1  0.50564600  0.95591000  0.82088000  1
  Si  Si11  1  0.00564600  0.04409000  0.67912000  1
  Si  Si12  1  0.24525800  0.24979100  0.02640700  1
  Si  Si13  1  0.74525800  0.75020900  0.47359300  1
  Si  Si14  1  0.75474200  0.75020900  0.97359300  1
  Si  Si15  1  0.25474200  0.24979100  0.52640700  1
  O  O16  1  0.67022600  0.96839700  0.16998100  1
  O  O17  1  0.17022600  0.03160300  0.33001900  1
  O  O18  1  0.32977400  0.03160300  0.83001900  1
  O  O19  1  0.82977400  0.96839700  0.66998100  1
  O  O20  1  0.41237100  0.76061600  0.24022900  1
  O  O21  1  0.91237100  0.23938400  0.25977100  1
  O  O22  1  0.58762900  0.23938400  0.75977100  1
  O  O23  1  0.08762900  0.76061600  0.74022900  1
  O  O24  1  0.47651400  0.21937800  0.24946100  1
  O  O25  1  0.97651400  0.78062200  0.25053900  1
  O  O26  1  0.52348600  0.78062200  0.75053900  1
  O  O27  1  0.02348600  0.21937800  0.74946100  1
  O  O28  1  0.24201800  0.43736300  0.90684400  1
  O  O29  1  0.74201800  0.56263700  0.59315600  1
  O  O30  1  0.75798200  0.56263700  0.09315600  1
  O  O31  1  0.25798200  0.43736300  0.40684400  1
  O  O32  1  0.08048800  0.20093200  0.56764000  1
  O  O33  1  0.58048800  0.79906800  0.93236000  1
  O  O34  1  0.91951200  0.79906800  0.43236000  1
  O  O35  1  0.41951200  0.20093200  0.06764000  1
  O  O36  1  0.34674500  0.97276300  0.55252700  1
  O  O37  1  0.84674500  0.02723700  0.94747300  1
  O  O38  1  0.65325500  0.02723700  0.44747300  1
  O  O39  1  0.15325500  0.97276300  0.05252700  1
  O  O40  1  0.35534000  0.41675500  0.58024500  1
  O  O41  1  0.85534000  0.58324500  0.91975500  1
  O  O42  1  0.64466000  0.58324500  0.41975500  1
  O  O43  1  0.14466000  0.41675500  0.08024500  1
