# generated using pymatgen
data_Cs3Yb(SO4)3
_symmetry_space_group_name_H-M   'P 1'
_cell_length_a   10.06500549
_cell_length_b   10.06500549
_cell_length_c   10.06500563
_cell_angle_alpha   109.94241226
_cell_angle_beta   109.94241226
_cell_angle_gamma   109.94242121
_symmetry_Int_Tables_number   1
_chemical_formula_structural   Cs3Yb(SO4)3
_chemical_formula_sum   'Cs6 Yb2 S6 O24'
_cell_volume   770.91352929
_cell_formula_units_Z   2
loop_
 _symmetry_equiv_pos_site_id
 _symmetry_equiv_pos_as_xyz
  1  'x, y, z'
loop_
 _atom_site_type_symbol
 _atom_site_label
 _atom_site_symmetry_multiplicity
 _atom_site_fract_x
 _atom_site_fract_y
 _atom_site_fract_z
 _atom_site_occupancy
  Cs  Cs0  1  0.17948600  0.66189800  0.79686700  1
  Cs  Cs1  1  0.16189800  0.67948600  0.29686700  1
  Cs  Cs2  1  0.79686700  0.17948600  0.66189800  1
  Cs  Cs3  1  0.66189800  0.79686700  0.17948600  1
  Cs  Cs4  1  0.29686700  0.16189800  0.67948600  1
  Cs  Cs5  1  0.67948600  0.29686700  0.16189800  1
  Yb  Yb6  1  0.49147900  0.49147900  0.49147900  1
  Yb  Yb7  1  0.99147900  0.99147900  0.99147900  1
  S  S8  1  0.77599700  0.57156900  0.89472300  1
  S  S9  1  0.27599700  0.39472300  0.07156900  1
  S  S10  1  0.07156900  0.27599700  0.39472300  1
  S  S11  1  0.57156900  0.89472300  0.77599700  1
  S  S12  1  0.39472300  0.07156900  0.27599700  1
  S  S13  1  0.89472300  0.77599700  0.57156900  1
  O  O14  1  0.50205700  0.98793900  0.72063300  1
  O  O15  1  0.00205700  0.22063300  0.48793900  1
  O  O16  1  0.98077600  0.83960600  0.75240100  1
  O  O17  1  0.72063300  0.50205700  0.98793900  1
  O  O18  1  0.48793900  0.00205700  0.22063300  1
  O  O19  1  0.40822700  0.38611400  0.04096500  1
  O  O20  1  0.22422500  0.98788000  0.13315700  1
  O  O21  1  0.90822700  0.54096500  0.88611400  1
  O  O22  1  0.63315700  0.48788000  0.72422500  1
  O  O23  1  0.98788000  0.13315700  0.22422500  1
  O  O24  1  0.25240100  0.33960600  0.48077600  1
  O  O25  1  0.54096500  0.88611400  0.90822700  1
  O  O26  1  0.48788000  0.72422500  0.63315700  1
  O  O27  1  0.98793900  0.72063300  0.50205700  1
  O  O28  1  0.22063300  0.48793900  0.00205700  1
  O  O29  1  0.88611400  0.90822700  0.54096500  1
  O  O30  1  0.04096500  0.40822700  0.38611400  1
  O  O31  1  0.13315700  0.22422500  0.98788000  1
  O  O32  1  0.48077600  0.25240100  0.33960600  1
  O  O33  1  0.33960600  0.48077600  0.25240100  1
  O  O34  1  0.72422500  0.63315700  0.48788000  1
  O  O35  1  0.75240100  0.98077600  0.83960600  1
  O  O36  1  0.83960600  0.75240100  0.98077600  1
  O  O37  1  0.38611400  0.04096500  0.40822700  1
