# generated using pymatgen
data_MnFeH4O2F5
_symmetry_space_group_name_H-M   'P 1'
_cell_length_a   6.67308749
_cell_length_b   7.53931157
_cell_length_c   7.53923549
_cell_angle_alpha   61.21129373
_cell_angle_beta   63.73850768
_cell_angle_gamma   63.73605697
_symmetry_Int_Tables_number   1
_chemical_formula_structural   MnFeH4O2F5
_chemical_formula_sum   'Mn2 Fe2 H8 O4 F10'
_cell_volume   285.12649806
_cell_formula_units_Z   2
loop_
 _symmetry_equiv_pos_site_id
 _symmetry_equiv_pos_as_xyz
  1  'x, y, z'
loop_
 _atom_site_type_symbol
 _atom_site_label
 _atom_site_symmetry_multiplicity
 _atom_site_fract_x
 _atom_site_fract_y
 _atom_site_fract_z
 _atom_site_occupancy
  Mn  Mn0  1  0.99979100  0.99991000  0.99972300  1
  Mn  Mn1  1  0.50042700  0.50028100  0.50015900  1
  Fe  Fe2  1  0.50027900  0.99976100  0.50017900  1
  Fe  Fe3  1  0.49990900  0.49967900  0.00044900  1
  H  H4  1  0.29170200  0.98895300  0.19389800  1
  H  H5  1  0.97647100  0.51089600  0.30563100  1
  H  H6  1  0.70808600  0.80605700  0.01094600  1
  H  H7  1  0.02397000  0.69406900  0.48919100  1
  H  H8  1  0.70807800  0.01102700  0.80596500  1
  H  H9  1  0.02381400  0.48913900  0.69417100  1
  H  H10  1  0.29171400  0.19401300  0.98886500  1
  H  H11  1  0.97638700  0.30585200  0.51071500  1
  O  O12  1  0.23308400  0.06966400  0.06947100  1
  O  O13  1  0.87422800  0.43035800  0.43009700  1
  O  O14  1  0.76659000  0.93047700  0.93038900  1
  O  O15  1  0.12624600  0.56972400  0.56985600  1
  F  F16  1  0.42977300  0.24814800  0.24833600  1
  F  F17  1  0.57001000  0.75172400  0.75185300  1
  F  F18  1  0.42436200  0.83523100  0.41452700  1
  F  F19  1  0.17486200  0.66459800  0.08620800  1
  F  F20  1  0.57531900  0.58557400  0.16498400  1
  F  F21  1  0.82509900  0.91375700  0.33534300  1
  F  F22  1  0.57534000  0.16498300  0.58552600  1
  F  F23  1  0.82501800  0.33541100  0.91375300  1
  F  F24  1  0.42450800  0.41451000  0.83522300  1
  F  F25  1  0.17493300  0.08620400  0.66454200  1
