# generated using pymatgen
data_Sr3MoN4
_symmetry_space_group_name_H-M   'P 1'
_cell_length_a   10.37763935
_cell_length_b   10.37763935
_cell_length_c   9.97244818
_cell_angle_alpha   83.13050824
_cell_angle_beta   83.13050824
_cell_angle_gamma   59.96159096
_symmetry_Int_Tables_number   1
_chemical_formula_structural   Sr3MoN4
_chemical_formula_sum   'Sr18 Mo6 N24'
_cell_volume   920.83309990
_cell_formula_units_Z   6
loop_
 _symmetry_equiv_pos_site_id
 _symmetry_equiv_pos_as_xyz
  1  'x, y, z'
loop_
 _atom_site_type_symbol
 _atom_site_label
 _atom_site_symmetry_multiplicity
 _atom_site_fract_x
 _atom_site_fract_y
 _atom_site_fract_z
 _atom_site_occupancy
  Sr  Sr0  1  0.72049500  0.64929500  0.70166300  1
  Sr  Sr1  1  0.68304200  0.36103600  0.91296100  1
  Sr  Sr2  1  0.38850000  0.92006200  0.90072000  1
  Sr  Sr3  1  0.27950500  0.35070500  0.29833700  1
  Sr  Sr4  1  0.35070500  0.27950500  0.79833700  1
  Sr  Sr5  1  0.63896400  0.31695800  0.58703900  1
  Sr  Sr6  1  0.64929500  0.72049500  0.20166300  1
  Sr  Sr7  1  0.61150000  0.07993800  0.09928000  1
  Sr  Sr8  1  0.94993900  0.69495900  0.95446600  1
  Sr  Sr9  1  0.98546300  0.01453700  0.25000000  1
  Sr  Sr10  1  0.31695800  0.63896400  0.08703900  1
  Sr  Sr11  1  0.01453700  0.98546300  0.75000000  1
  Sr  Sr12  1  0.69495900  0.94993900  0.45446600  1
  Sr  Sr13  1  0.36103600  0.68304200  0.41296100  1
  Sr  Sr14  1  0.05006100  0.30504100  0.04553400  1
  Sr  Sr15  1  0.92006200  0.38850000  0.40072000  1
  Sr  Sr16  1  0.07993800  0.61150000  0.59928000  1
  Sr  Sr17  1  0.30504100  0.05006100  0.54553400  1
  Mo  Mo18  1  0.02735900  0.32376900  0.71215400  1
  Mo  Mo19  1  0.32376900  0.02735900  0.21215400  1
  Mo  Mo20  1  0.66571500  0.33428500  0.25000000  1
  Mo  Mo21  1  0.33428500  0.66571500  0.75000000  1
  Mo  Mo22  1  0.97264100  0.67623100  0.28784600  1
  Mo  Mo23  1  0.67623100  0.97264100  0.78784600  1
  N  N24  1  0.15666200  0.64861400  0.33669500  1
  N  N25  1  0.01441000  0.51691200  0.18346100  1
  N  N26  1  0.17060700  0.72756500  0.87771200  1
  N  N27  1  0.85491700  0.66567700  0.44335600  1
  N  N28  1  0.82939300  0.27243500  0.12228800  1
  N  N29  1  0.98559000  0.48308800  0.81653900  1
  N  N30  1  0.85862600  0.86295000  0.69099100  1
  N  N31  1  0.36846000  0.50125200  0.65603300  1
  N  N32  1  0.51691200  0.01441000  0.68346100  1
  N  N33  1  0.50125200  0.36846000  0.15603300  1
  N  N34  1  0.35138600  0.84333800  0.16330500  1
  N  N35  1  0.27243500  0.82939300  0.62228800  1
  N  N36  1  0.49874800  0.63154000  0.84396700  1
  N  N37  1  0.14508300  0.33432300  0.55664400  1
  N  N38  1  0.64861400  0.15666200  0.83669500  1
  N  N39  1  0.14137400  0.13705000  0.30900900  1
  N  N40  1  0.66567700  0.85491700  0.94335600  1
  N  N41  1  0.63154000  0.49874800  0.34396700  1
  N  N42  1  0.86295000  0.85862600  0.19099100  1
  N  N43  1  0.48308800  0.98559000  0.31653900  1
  N  N44  1  0.13705000  0.14137400  0.80900900  1
  N  N45  1  0.33432300  0.14508300  0.05664400  1
  N  N46  1  0.84333800  0.35138600  0.66330500  1
  N  N47  1  0.72756500  0.17060700  0.37771200  1
