# generated using pymatgen
data_Mn2Ni6Te3PbO18
_symmetry_space_group_name_H-M   'P 1'
_cell_length_a   9.41064333
_cell_length_b   9.41064333
_cell_length_c   8.93088200
_cell_angle_alpha   90.00000000
_cell_angle_beta   90.00000000
_cell_angle_gamma   119.99999531
_symmetry_Int_Tables_number   1
_chemical_formula_structural   Mn2Ni6Te3PbO18
_chemical_formula_sum   'Mn4 Ni12 Te6 Pb2 O36'
_cell_volume   684.95750900
_cell_formula_units_Z   2
loop_
 _symmetry_equiv_pos_site_id
 _symmetry_equiv_pos_as_xyz
  1  'x, y, z'
loop_
 _atom_site_type_symbol
 _atom_site_label
 _atom_site_symmetry_multiplicity
 _atom_site_fract_x
 _atom_site_fract_y
 _atom_site_fract_z
 _atom_site_occupancy
  Mn  Mn0  1  0.66666700  0.33333300  0.56051000  1
  Mn  Mn1  1  0.33333300  0.66666700  0.43949000  1
  Mn  Mn2  1  0.33333300  0.66666700  0.06051000  1
  Mn  Mn3  1  0.66666700  0.33333300  0.93949000  1
  Ni  Ni4  1  0.98863000  0.34869300  0.58863100  1
  Ni  Ni5  1  0.65130700  0.63993700  0.91136900  1
  Ni  Ni6  1  0.36006300  0.01137000  0.58863100  1
  Ni  Ni7  1  0.34869300  0.36006300  0.41136900  1
  Ni  Ni8  1  0.34869300  0.36006300  0.08863100  1
  Ni  Ni9  1  0.63993700  0.98863000  0.41136900  1
  Ni  Ni10  1  0.01137000  0.65130700  0.08863100  1
  Ni  Ni11  1  0.36006300  0.01137000  0.91136900  1
  Ni  Ni12  1  0.65130700  0.63993700  0.58863100  1
  Ni  Ni13  1  0.63993700  0.98863000  0.08863100  1
  Ni  Ni14  1  0.98863000  0.34869300  0.91136900  1
  Ni  Ni15  1  0.01137000  0.65130700  0.41136900  1
  Te  Te16  1  0.36259700  0.02611400  0.25000000  1
  Te  Te17  1  0.97388600  0.33648300  0.25000000  1
  Te  Te18  1  0.33648300  0.36259700  0.75000000  1
  Te  Te19  1  0.02611400  0.66351700  0.75000000  1
  Te  Te20  1  0.63740300  0.97388600  0.75000000  1
  Te  Te21  1  0.66351700  0.63740300  0.25000000  1
  Pb  Pb22  1  0.00000000  0.00000000  0.00000000  1
  Pb  Pb23  1  0.00000000  0.00000000  0.50000000  1
  O  O24  1  0.44763700  0.86718000  0.25000000  1
  O  O25  1  0.39344400  0.52275800  0.58693400  1
  O  O26  1  0.47724200  0.87068600  0.58693400  1
  O  O27  1  0.87068600  0.39344400  0.41306600  1
  O  O28  1  0.20495800  0.90077100  0.40883000  1
  O  O29  1  0.20495800  0.90077100  0.09117000  1
  O  O30  1  0.90077100  0.69581300  0.90883000  1
  O  O31  1  0.18774100  0.89415700  0.75000000  1
  O  O32  1  0.70641600  0.81225900  0.75000000  1
  O  O33  1  0.79504200  0.09922900  0.59117000  1
  O  O34  1  0.52275800  0.12931400  0.41306600  1
  O  O35  1  0.90077100  0.69581300  0.59117000  1
  O  O36  1  0.09922900  0.30418700  0.09117000  1
  O  O37  1  0.30418700  0.20495800  0.59117000  1
  O  O38  1  0.87068600  0.39344400  0.08693400  1
  O  O39  1  0.81225900  0.10584300  0.25000000  1
  O  O40  1  0.60655600  0.47724200  0.41306600  1
  O  O41  1  0.69581300  0.79504200  0.40883000  1
  O  O42  1  0.12931400  0.60655600  0.58693400  1
  O  O43  1  0.41954300  0.55236300  0.25000000  1
  O  O44  1  0.12931400  0.60655600  0.91306600  1
  O  O45  1  0.86718000  0.41954300  0.75000000  1
  O  O46  1  0.13282000  0.58045700  0.25000000  1
  O  O47  1  0.58045700  0.44763700  0.75000000  1
  O  O48  1  0.30418700  0.20495800  0.90883000  1
  O  O49  1  0.79504200  0.09922900  0.90883000  1
  O  O50  1  0.60655600  0.47724200  0.08693400  1
  O  O51  1  0.55236300  0.13282000  0.75000000  1
  O  O52  1  0.52275800  0.12931400  0.08693400  1
  O  O53  1  0.29358400  0.18774100  0.25000000  1
  O  O54  1  0.09922900  0.30418700  0.40883000  1
  O  O55  1  0.10584300  0.29358400  0.75000000  1
  O  O56  1  0.89415700  0.70641600  0.25000000  1
  O  O57  1  0.47724200  0.87068600  0.91306600  1
  O  O58  1  0.39344400  0.52275800  0.91306600  1
  O  O59  1  0.69581300  0.79504200  0.09117000  1
