# generated using pymatgen
data_Ca(SiPd)2
_symmetry_space_group_name_H-M   'P 1'
_cell_length_a   5.76506733
_cell_length_b   5.76506733
_cell_length_c   5.76506733
_cell_angle_alpha   136.70846217
_cell_angle_beta   136.70846217
_cell_angle_gamma   62.88692264
_symmetry_Int_Tables_number   1
_chemical_formula_structural   Ca(SiPd)2
_chemical_formula_sum   'Ca1 Si2 Pd2'
_cell_volume   88.96951776
_cell_formula_units_Z   1
loop_
 _symmetry_equiv_pos_site_id
 _symmetry_equiv_pos_as_xyz
  1  'x, y, z'
loop_
 _atom_site_type_symbol
 _atom_site_label
 _atom_site_symmetry_multiplicity
 _atom_site_fract_x
 _atom_site_fract_y
 _atom_site_fract_z
 _atom_site_occupancy
  Ca  Ca0  1  0.00000000  0.00000000  0.00000000  1
  Si  Si1  1  0.37843100  0.37843100  0.00000000  1
  Si  Si2  1  0.62156900  0.62156900  0.00000000  1
  Pd  Pd3  1  0.25000000  0.75000000  0.50000000  1
  Pd  Pd4  1  0.75000000  0.25000000  0.50000000  1
