# generated using pymatgen
data_Ba3LiOs2O9
_symmetry_space_group_name_H-M   'P 1'
_cell_length_a   5.90026715
_cell_length_b   5.90026715
_cell_length_c   14.21732000
_cell_angle_alpha   90.00000000
_cell_angle_beta   90.00000000
_cell_angle_gamma   119.99999051
_symmetry_Int_Tables_number   1
_chemical_formula_structural   Ba3LiOs2O9
_chemical_formula_sum   'Ba6 Li2 Os4 O18'
_cell_volume   428.63907998
_cell_formula_units_Z   2
loop_
 _symmetry_equiv_pos_site_id
 _symmetry_equiv_pos_as_xyz
  1  'x, y, z'
loop_
 _atom_site_type_symbol
 _atom_site_label
 _atom_site_symmetry_multiplicity
 _atom_site_fract_x
 _atom_site_fract_y
 _atom_site_fract_z
 _atom_site_occupancy
  Ba  Ba0  1  0.00000000  0.00000000  0.25000000  1
  Ba  Ba1  1  0.00000000  0.00000000  0.75000000  1
  Ba  Ba2  1  0.33333300  0.66666700  0.91314400  1
  Ba  Ba3  1  0.66666700  0.33333300  0.41314400  1
  Ba  Ba4  1  0.66666700  0.33333300  0.08685600  1
  Ba  Ba5  1  0.33333300  0.66666700  0.58685600  1
  Li  Li6  1  0.00000000  0.00000000  0.00000000  1
  Li  Li7  1  0.00000000  0.00000000  0.50000000  1
  Os  Os8  1  0.33333300  0.66666700  0.16001700  1
  Os  Os9  1  0.66666700  0.33333300  0.66001700  1
  Os  Os10  1  0.66666700  0.33333300  0.83998300  1
  Os  Os11  1  0.33333300  0.66666700  0.33998300  1
  O  O12  1  0.49202500  0.98405000  0.25000000  1
  O  O13  1  0.50797500  0.49202500  0.75000000  1
  O  O14  1  0.98405000  0.49202500  0.75000000  1
  O  O15  1  0.01595000  0.50797500  0.25000000  1
  O  O16  1  0.49202500  0.50797500  0.25000000  1
  O  O17  1  0.50797500  0.01595000  0.75000000  1
  O  O18  1  0.17691300  0.35382500  0.41250000  1
  O  O19  1  0.82308700  0.17691300  0.91250000  1
  O  O20  1  0.35382500  0.17691300  0.91250000  1
  O  O21  1  0.64617500  0.82308700  0.41250000  1
  O  O22  1  0.17691300  0.82308700  0.41250000  1
  O  O23  1  0.82308700  0.64617500  0.58750000  1
  O  O24  1  0.82308700  0.17691300  0.58750000  1
  O  O25  1  0.82308700  0.64617500  0.91250000  1
  O  O26  1  0.35382500  0.17691300  0.58750000  1
  O  O27  1  0.64617500  0.82308700  0.08750000  1
  O  O28  1  0.17691300  0.35382500  0.08750000  1
  O  O29  1  0.17691300  0.82308700  0.08750000  1
