# generated using pymatgen
data_Li6Zr2O7
_symmetry_space_group_name_H-M   'P 1'
_cell_length_a   6.08728858
_cell_length_b   6.08728858
_cell_length_c   10.32763400
_cell_angle_alpha   81.05996920
_cell_angle_beta   81.05996920
_cell_angle_gamma   59.71466226
_symmetry_Int_Tables_number   1
_chemical_formula_structural   Li6Zr2O7
_chemical_formula_sum   'Li12 Zr4 O14'
_cell_volume   325.11502240
_cell_formula_units_Z   2
loop_
 _symmetry_equiv_pos_site_id
 _symmetry_equiv_pos_as_xyz
  1  'x, y, z'
loop_
 _atom_site_type_symbol
 _atom_site_label
 _atom_site_symmetry_multiplicity
 _atom_site_fract_x
 _atom_site_fract_y
 _atom_site_fract_z
 _atom_site_occupancy
  Li  Li0  1  0.29545600  0.58366600  0.58570500  1
  Li  Li1  1  0.41633400  0.70454400  0.91429500  1
  Li  Li2  1  0.70454400  0.41633400  0.41429500  1
  Li  Li3  1  0.96759300  0.16792200  0.89787500  1
  Li  Li4  1  0.57855000  0.83434900  0.10509800  1
  Li  Li5  1  0.16565100  0.42145000  0.39490200  1
  Li  Li6  1  0.42145000  0.16565100  0.89490200  1
  Li  Li7  1  0.83434900  0.57855000  0.60509800  1
  Li  Li8  1  0.16792200  0.96759300  0.39787500  1
  Li  Li9  1  0.03240700  0.83207800  0.10212500  1
  Li  Li10  1  0.83207800  0.03240700  0.60212500  1
  Li  Li11  1  0.58366600  0.29545600  0.08570500  1
  Zr  Zr12  1  0.93733200  0.69573400  0.86483600  1
  Zr  Zr13  1  0.30426600  0.06266800  0.63516400  1
  Zr  Zr14  1  0.06266800  0.30426600  0.13516400  1
  Zr  Zr15  1  0.69573400  0.93733200  0.36483600  1
  O  O16  1  0.35815400  0.13518400  0.25726100  1
  O  O17  1  0.86481600  0.64184600  0.24273900  1
  O  O18  1  0.64184600  0.86481600  0.74273900  1
  O  O19  1  0.13518400  0.35815400  0.75726100  1
  O  O20  1  0.84147300  0.15852700  0.25000000  1
  O  O21  1  0.15852700  0.84147300  0.75000000  1
  O  O22  1  0.49871100  0.23595100  0.50252700  1
  O  O23  1  0.76404900  0.50128900  0.99747300  1
  O  O24  1  0.50128900  0.76404900  0.49747300  1
  O  O25  1  0.23595100  0.49871100  0.00252700  1
  O  O26  1  0.24407500  0.99824200  0.02254200  1
  O  O27  1  0.00175800  0.75592500  0.47745800  1
  O  O28  1  0.75592500  0.00175800  0.97745800  1
  O  O29  1  0.99824200  0.24407500  0.52254200  1
