# generated using pymatgen
data_La2(MoO4)3
_symmetry_space_group_name_H-M   'P 1'
_cell_length_a   10.54018162
_cell_length_b   10.54018162
_cell_length_c   16.32239264
_cell_angle_alpha   75.06633722
_cell_angle_beta   75.06633722
_cell_angle_gamma   70.20029517
_symmetry_Int_Tables_number   1
_chemical_formula_structural   La2(MoO4)3
_chemical_formula_sum   'La12 Mo18 O72'
_cell_volume   1619.29722289
_cell_formula_units_Z   6
loop_
 _symmetry_equiv_pos_site_id
 _symmetry_equiv_pos_as_xyz
  1  'x, y, z'
loop_
 _atom_site_type_symbol
 _atom_site_label
 _atom_site_symmetry_multiplicity
 _atom_site_fract_x
 _atom_site_fract_y
 _atom_site_fract_z
 _atom_site_occupancy
  La  La0  1  0.36887200  0.61760800  0.58886800  1
  La  La1  1  0.63112800  0.38239200  0.41113200  1
  La  La2  1  0.03649800  0.29517700  0.69744400  1
  La  La3  1  0.38239200  0.63112800  0.91113200  1
  La  La4  1  0.70482300  0.96350200  0.80255600  1
  La  La5  1  0.96350200  0.70482300  0.30255600  1
  La  La6  1  0.95564700  0.71334300  0.97658600  1
  La  La7  1  0.28665700  0.04435300  0.52341400  1
  La  La8  1  0.04435300  0.28665700  0.02341400  1
  La  La9  1  0.29517700  0.03649800  0.19744400  1
  La  La10  1  0.61760800  0.36887200  0.08886800  1
  La  La11  1  0.71334300  0.95564700  0.47658600  1
  Mo  Mo12  1  0.87760100  0.13625300  0.57876500  1
  Mo  Mo13  1  0.54721300  0.79518100  0.36310200  1
  Mo  Mo14  1  0.46691600  0.20002400  0.30952300  1
  Mo  Mo15  1  0.79518100  0.54721300  0.86310200  1
  Mo  Mo16  1  0.54857800  0.77626700  0.03370200  1
  Mo  Mo17  1  0.79997600  0.53308400  0.19047700  1
  Mo  Mo18  1  0.20002400  0.46691600  0.80952300  1
  Mo  Mo19  1  0.13625300  0.87760100  0.07876500  1
  Mo  Mo20  1  0.12239900  0.86374700  0.42123500  1
  Mo  Mo21  1  0.45142200  0.22373300  0.96629800  1
  Mo  Mo22  1  0.45278700  0.20481900  0.63689800  1
  Mo  Mo23  1  0.77626700  0.54857800  0.53370200  1
  Mo  Mo24  1  0.87527500  0.12472500  0.25000000  1
  Mo  Mo25  1  0.12472500  0.87527500  0.75000000  1
  Mo  Mo26  1  0.20481900  0.45278700  0.13689800  1
  Mo  Mo27  1  0.22373300  0.45142200  0.46629800  1
  Mo  Mo28  1  0.86374700  0.12239900  0.92123500  1
  Mo  Mo29  1  0.53308400  0.79997600  0.69047700  1
  O  O30  1  0.46797800  0.35724700  0.33248100  1
  O  O31  1  0.81634400  0.42389200  0.96444400  1
  O  O32  1  0.10794300  0.46317500  0.56664600  1
  O  O33  1  0.57990600  0.15355700  0.88094300  1
  O  O34  1  0.80799000  0.70966300  0.87553300  1
  O  O35  1  0.75168400  0.71760300  0.55154300  1
  O  O36  1  0.84781000  0.24850100  0.14784800  1
  O  O37  1  0.15088100  0.76065500  0.17838900  1
  O  O38  1  0.53115400  0.61650400  0.01650700  1
  O  O39  1  0.53682400  0.89205700  0.93335400  1
  O  O40  1  0.18389900  0.72586000  0.50496200  1
  O  O41  1  0.80191700  0.68563700  0.21845000  1
  O  O42  1  0.53202200  0.64275300  0.66751900  1
  O  O43  1  0.98321000  0.87266700  0.05194200  1
  O  O44  1  0.95681300  0.85971400  0.40415400  1
  O  O45  1  0.38349600  0.46884600  0.48349300  1
  O  O46  1  0.62966200  0.56988300  0.84400000  1
  O  O47  1  0.82289600  0.40120200  0.28454700  1
  O  O48  1  0.81610100  0.27414000  0.49503800  1
  O  O49  1  0.75149900  0.15219000  0.35215200  1
  O  O50  1  0.59879800  0.17710400  0.21545300  1
  O  O51  1  0.46884600  0.38349600  0.98349300  1
  O  O52  1  0.18365600  0.57610800  0.03555600  1
  O  O53  1  0.27414000  0.81610100  0.99503800  1
  O  O54  1  0.61650400  0.53115400  0.51650700  1
  O  O55  1  0.14028600  0.04318700  0.09584600  1
  O  O56  1  0.29033600  0.19201000  0.62446700  1
  O  O57  1  0.28239700  0.24831600  0.94845700  1
  O  O58  1  0.92218100  0.48793000  0.77489800  1
  O  O59  1  0.19201000  0.29033600  0.12446700  1
  O  O60  1  0.76065500  0.15088100  0.67838900  1
  O  O61  1  0.04318700  0.14028600  0.59584600  1
  O  O62  1  0.46317500  0.10794300  0.06664600  1
  O  O63  1  0.89205700  0.53682500  0.43335400  1
  O  O64  1  0.72586000  0.18389900  0.00496200  1
  O  O65  1  0.03952900  0.11142000  0.26582400  1
  O  O66  1  0.93554000  0.49939500  0.09375600  1
  O  O67  1  0.96047100  0.88858000  0.73417600  1
  O  O68  1  0.70966400  0.80799000  0.37553300  1
  O  O69  1  0.87266700  0.98321000  0.55194200  1
  O  O70  1  0.24831600  0.28239700  0.44845700  1
  O  O71  1  0.64275300  0.53202200  0.16751900  1
  O  O72  1  0.84644300  0.42009400  0.61905700  1
  O  O73  1  0.88858000  0.96047100  0.23417600  1
  O  O74  1  0.07781900  0.51207000  0.22510200  1
  O  O75  1  0.11142000  0.03952900  0.76582400  1
  O  O76  1  0.48793000  0.92218100  0.27489800  1
  O  O77  1  0.12733300  0.01679000  0.44805800  1
  O  O78  1  0.68563700  0.80191700  0.71845000  1
  O  O79  1  0.35724800  0.46797800  0.83248100  1
  O  O80  1  0.17710400  0.59879800  0.71545300  1
  O  O81  1  0.31436300  0.19808300  0.28155000  1
  O  O82  1  0.71760300  0.75168400  0.05154300  1
  O  O83  1  0.57610800  0.18365600  0.53555600  1
  O  O84  1  0.51207000  0.07781900  0.72510200  1
  O  O85  1  0.42389200  0.81634400  0.46444400  1
  O  O86  1  0.01679000  0.12733300  0.94805800  1
  O  O87  1  0.56988300  0.62966200  0.34400000  1
  O  O88  1  0.85971400  0.95681300  0.90415400  1
  O  O89  1  0.15355700  0.57990600  0.38094300  1
  O  O90  1  0.40120200  0.82289600  0.78454700  1
  O  O91  1  0.50060500  0.06446000  0.40624400  1
  O  O92  1  0.06446000  0.50060500  0.90624400  1
  O  O93  1  0.43011700  0.37033800  0.65600000  1
  O  O94  1  0.42009400  0.84644300  0.11905700  1
  O  O95  1  0.37033800  0.43011700  0.15600000  1
  O  O96  1  0.49939500  0.93554000  0.59375600  1
  O  O97  1  0.84911900  0.23934500  0.82161100  1
  O  O98  1  0.19808300  0.31436300  0.78155000  1
  O  O99  1  0.24850100  0.84781000  0.64784800  1
  O  O100  1  0.23934500  0.84911900  0.32161100  1
  O  O101  1  0.15219000  0.75149900  0.85215200  1
