# generated using pymatgen
data_Ba2Ge(TeSe)2
_symmetry_space_group_name_H-M   'P 1'
_cell_length_a   7.28759700
_cell_length_b   7.56382500
_cell_length_c   9.49393005
_cell_angle_alpha   71.54456798
_cell_angle_beta   90.00000000
_cell_angle_gamma   90.00000000
_symmetry_Int_Tables_number   1
_chemical_formula_structural   Ba2Ge(TeSe)2
_chemical_formula_sum   'Ba4 Ge2 Te4 Se4'
_cell_volume   496.41091142
_cell_formula_units_Z   2
loop_
 _symmetry_equiv_pos_site_id
 _symmetry_equiv_pos_as_xyz
  1  'x, y, z'
loop_
 _atom_site_type_symbol
 _atom_site_label
 _atom_site_symmetry_multiplicity
 _atom_site_fract_x
 _atom_site_fract_y
 _atom_site_fract_z
 _atom_site_occupancy
  Ba  Ba0  1  0.25000000  0.76206200  0.05973900  1
  Ba  Ba1  1  0.25000000  0.78627500  0.55115100  1
  Ba  Ba2  1  0.75000000  0.21372500  0.44884900  1
  Ba  Ba3  1  0.75000000  0.23793800  0.94026100  1
  Ge  Ge4  1  0.25000000  0.21133800  0.70298400  1
  Ge  Ge5  1  0.75000000  0.78866200  0.29701600  1
  Te  Te6  1  0.25000000  0.40172300  0.88865700  1
  Te  Te7  1  0.25000000  0.37910400  0.41774000  1
  Te  Te8  1  0.75000000  0.62089600  0.58226000  1
  Te  Te9  1  0.75000000  0.59827700  0.11134300  1
  Se  Se10  1  0.50480300  0.00249900  0.75985000  1
  Se  Se11  1  0.00480300  0.99750100  0.24015000  1
  Se  Se12  1  0.49519700  0.99750100  0.24015000  1
  Se  Se13  1  0.99519700  0.00249900  0.75985000  1
