# generated using pymatgen
data_Pm2O3
_symmetry_space_group_name_H-M   'P 1'
_cell_length_a   9.59402168
_cell_length_b   9.59402168
_cell_length_c   9.59402168
_cell_angle_alpha   109.47122063
_cell_angle_beta   109.47122063
_cell_angle_gamma   109.47122063
_symmetry_Int_Tables_number   1
_chemical_formula_structural   Pm2O3
_chemical_formula_sum   'Pm16 O24'
_cell_volume   679.79849055
_cell_formula_units_Z   8
loop_
 _symmetry_equiv_pos_site_id
 _symmetry_equiv_pos_as_xyz
  1  'x, y, z'
loop_
 _atom_site_type_symbol
 _atom_site_label
 _atom_site_symmetry_multiplicity
 _atom_site_fract_x
 _atom_site_fract_y
 _atom_site_fract_z
 _atom_site_occupancy
  Pm  Pm0  1  0.46868600  0.25000000  0.71868600  1
  Pm  Pm1  1  0.03131400  0.75000000  0.78131400  1
  Pm  Pm2  1  0.25000000  0.71868600  0.46868600  1
  Pm  Pm3  1  0.75000000  0.78131400  0.03131400  1
  Pm  Pm4  1  0.71868600  0.46868600  0.25000000  1
  Pm  Pm5  1  0.78131400  0.03131400  0.75000000  1
  Pm  Pm6  1  0.53131400  0.75000000  0.28131400  1
  Pm  Pm7  1  0.96868600  0.25000000  0.21868600  1
  Pm  Pm8  1  0.75000000  0.28131400  0.53131400  1
  Pm  Pm9  1  0.25000000  0.21868600  0.96868600  1
  Pm  Pm10  1  0.28131400  0.53131400  0.75000000  1
  Pm  Pm11  1  0.21868600  0.96868600  0.25000000  1
  Pm  Pm12  1  0.50000000  0.00000000  0.00000000  1
  Pm  Pm13  1  0.00000000  0.50000000  0.00000000  1
  Pm  Pm14  1  0.00000000  0.00000000  0.50000000  1
  Pm  Pm15  1  0.50000000  0.50000000  0.50000000  1
  O  O16  1  0.52896100  0.76951400  0.54083400  1
  O  O17  1  0.77132000  0.73048600  0.25944800  1
  O  O18  1  0.97103900  0.51187300  0.24055200  1
  O  O19  1  0.72868000  0.98812700  0.95916600  1
  O  O20  1  0.76951400  0.54083400  0.52896100  1
  O  O21  1  0.73048600  0.25944800  0.77132000  1
  O  O22  1  0.51187300  0.24055200  0.97103900  1
  O  O23  1  0.98812700  0.95916600  0.72868000  1
  O  O24  1  0.54083400  0.52896100  0.76951400  1
  O  O25  1  0.25944800  0.77132000  0.73048600  1
  O  O26  1  0.24055200  0.97103900  0.51187300  1
  O  O27  1  0.95916600  0.72868000  0.98812700  1
  O  O28  1  0.47103900  0.23048600  0.45916600  1
  O  O29  1  0.22868000  0.26951400  0.74055200  1
  O  O30  1  0.02896100  0.48812700  0.75944800  1
  O  O31  1  0.27132000  0.01187300  0.04083400  1
  O  O32  1  0.23048600  0.45916600  0.47103900  1
  O  O33  1  0.26951400  0.74055200  0.22868000  1
  O  O34  1  0.48812700  0.75944800  0.02896100  1
  O  O35  1  0.01187300  0.04083400  0.27132000  1
  O  O36  1  0.45916600  0.47103900  0.23048600  1
  O  O37  1  0.74055200  0.22868000  0.26951400  1
  O  O38  1  0.75944800  0.02896100  0.48812700  1
  O  O39  1  0.04083400  0.27132000  0.01187300  1
