# generated using pymatgen
data_TmNbO4
_symmetry_space_group_name_H-M   'P 1'
_cell_length_a   6.52469521
_cell_length_b   6.52469521
_cell_length_c   5.10467858
_cell_angle_alpha   68.86752090
_cell_angle_beta   68.86752090
_cell_angle_gamma   114.47211057
_symmetry_Int_Tables_number   1
_chemical_formula_structural   TmNbO4
_chemical_formula_sum   'Tm2 Nb2 O8'
_cell_volume   147.51032093
_cell_formula_units_Z   2
loop_
 _symmetry_equiv_pos_site_id
 _symmetry_equiv_pos_as_xyz
  1  'x, y, z'
loop_
 _atom_site_type_symbol
 _atom_site_label
 _atom_site_symmetry_multiplicity
 _atom_site_fract_x
 _atom_site_fract_y
 _atom_site_fract_z
 _atom_site_occupancy
  Tm  Tm0  1  0.87133400  0.12866600  0.25000000  1
  Tm  Tm1  1  0.12866600  0.87133400  0.75000000  1
  Nb  Nb2  1  0.60734600  0.39265400  0.75000000  1
  Nb  Nb3  1  0.39265400  0.60734600  0.25000000  1
  O  O4  1  0.12604100  0.54924100  0.15938500  1
  O  O5  1  0.87395900  0.45075900  0.84061500  1
  O  O6  1  0.45075900  0.87395900  0.34061500  1
  O  O7  1  0.71925700  0.78311800  0.78797400  1
  O  O8  1  0.28074300  0.21688200  0.21202600  1
  O  O9  1  0.54924100  0.12604100  0.65938500  1
  O  O10  1  0.78311800  0.71925700  0.28797400  1
  O  O11  1  0.21688200  0.28074300  0.71202600  1
