# generated using pymatgen
data_Cs6Na2Nb6H36O37
_symmetry_space_group_name_H-M   'P 1'
_cell_length_a   10.61342308
_cell_length_b   10.61342308
_cell_length_c   10.61342308
_cell_angle_alpha   73.96925170
_cell_angle_beta   73.96925170
_cell_angle_gamma   73.96925446
_symmetry_Int_Tables_number   1
_chemical_formula_structural   Cs6Na2Nb6H36O37
_chemical_formula_sum   'Cs6 Na2 Nb6 H36 O37'
_cell_volume   1078.20619379
_cell_formula_units_Z   1
loop_
 _symmetry_equiv_pos_site_id
 _symmetry_equiv_pos_as_xyz
  1  'x, y, z'
loop_
 _atom_site_type_symbol
 _atom_site_label
 _atom_site_symmetry_multiplicity
 _atom_site_fract_x
 _atom_site_fract_y
 _atom_site_fract_z
 _atom_site_occupancy
  Cs  Cs0  1  0.47156900  0.05433400  0.72755800  1
  Cs  Cs1  1  0.05433400  0.72755800  0.47156900  1
  Cs  Cs2  1  0.72755800  0.47156900  0.05433400  1
  Cs  Cs3  1  0.52843100  0.94566600  0.27244200  1
  Cs  Cs4  1  0.27244200  0.52843100  0.94566600  1
  Cs  Cs5  1  0.94566600  0.27244200  0.52843100  1
  Na  Na6  1  0.71723100  0.71723100  0.71723100  1
  Na  Na7  1  0.28276900  0.28276900  0.28276900  1
  Nb  Nb8  1  0.21497000  0.90696300  0.06080200  1
  Nb  Nb9  1  0.78503000  0.09303700  0.93919800  1
  Nb  Nb10  1  0.90696300  0.06080200  0.21497000  1
  Nb  Nb11  1  0.06080200  0.21497000  0.90696300  1
  Nb  Nb12  1  0.93919800  0.78503000  0.09303700  1
  Nb  Nb13  1  0.09303700  0.93919800  0.78503000  1
  H  H14  1  0.60521600  0.21417800  0.21216400  1
  H  H15  1  0.62406800  0.57861100  0.33206900  1
  H  H16  1  0.28772500  0.78373700  0.56302000  1
  H  H17  1  0.78582200  0.78783600  0.39478400  1
  H  H18  1  0.27413900  0.34227900  0.54505400  1
  H  H19  1  0.31512200  0.17411500  0.03517700  1
  H  H20  1  0.57861100  0.33206900  0.62406800  1
  H  H21  1  0.39478400  0.78582200  0.78783600  1
  H  H22  1  0.33206900  0.62406800  0.57861100  1
  H  H23  1  0.65772100  0.45494600  0.72586100  1
  H  H24  1  0.54505400  0.27413900  0.34227900  1
  H  H25  1  0.42138900  0.66793100  0.37593200  1
  H  H26  1  0.37593200  0.42138900  0.66793100  1
  H  H27  1  0.21216400  0.60521600  0.21417800  1
  H  H28  1  0.56302000  0.28772500  0.78373700  1
  H  H29  1  0.45494600  0.72586100  0.65772100  1
  H  H30  1  0.99220400  0.53814400  0.80183500  1
  H  H31  1  0.66793100  0.37593200  0.42138900  1
  H  H32  1  0.78373700  0.56302000  0.28772500  1
  H  H33  1  0.17411500  0.03517700  0.31512200  1
  H  H34  1  0.00779600  0.46185600  0.19816500  1
  H  H35  1  0.68487800  0.82588500  0.96482300  1
  H  H36  1  0.53814400  0.80183500  0.99220400  1
  H  H37  1  0.96482300  0.68487800  0.82588500  1
  H  H38  1  0.43698000  0.71227500  0.21626300  1
  H  H39  1  0.21626300  0.43698000  0.71227500  1
  H  H40  1  0.46185600  0.19816500  0.00779600  1
  H  H41  1  0.03517700  0.31512200  0.17411500  1
  H  H42  1  0.82588500  0.96482300  0.68487800  1
  H  H43  1  0.80183500  0.99220400  0.53814400  1
  H  H44  1  0.72586100  0.65772100  0.45494600  1
  H  H45  1  0.21417800  0.21216400  0.60521600  1
  H  H46  1  0.78783600  0.39478400  0.78582200  1
  H  H47  1  0.34227900  0.54505400  0.27413900  1
  H  H48  1  0.19816500  0.00779600  0.46185600  1
  H  H49  1  0.71227500  0.21626300  0.43698000  1
  O  O50  1  0.87255000  0.87401000  0.25261600  1
  O  O51  1  0.83409300  0.10403100  0.37994900  1
  O  O52  1  0.37067000  0.21718800  0.06569700  1
  O  O53  1  0.36412100  0.70879100  0.53295300  1
  O  O54  1  0.89596900  0.62005100  0.16590700  1
  O  O55  1  0.29120900  0.46704700  0.63587900  1
  O  O56  1  0.74738400  0.12745000  0.12599000  1
  O  O57  1  0.87401000  0.25261600  0.87255000  1
  O  O58  1  0.46704700  0.63587900  0.29120900  1
  O  O59  1  0.47995600  0.73908300  0.73527200  1
  O  O60  1  0.06569700  0.37067000  0.21718800  1
  O  O61  1  0.25261600  0.87255000  0.87401000  1
  O  O62  1  0.52004400  0.26091700  0.26472800  1
  O  O63  1  0.26091700  0.26472800  0.52004400  1
  O  O64  1  0.53295300  0.36412100  0.70879100  1
  O  O65  1  0.78281200  0.93430300  0.62933000  1
  O  O66  1  0.73527200  0.47995600  0.73908300  1
  O  O67  1  0.09926500  0.97263000  0.22601500  1
  O  O68  1  0.02737000  0.77398500  0.90073500  1
  O  O69  1  0.73908300  0.73527200  0.47995600  1
  O  O70  1  0.12745000  0.12599000  0.74738400  1
  O  O71  1  0.97263000  0.22601500  0.09926500  1
  O  O72  1  0.22601500  0.09926500  0.97263000  1
  O  O73  1  0.16590700  0.89596900  0.62005100  1
  O  O74  1  0.63587900  0.29120900  0.46704700  1
  O  O75  1  0.26472800  0.52004400  0.26091700  1
  O  O76  1  0.21718800  0.06569700  0.37067000  1
  O  O77  1  0.10403100  0.37994900  0.83409300  1
  O  O78  1  0.12599000  0.74738400  0.12745000  1
  O  O79  1  0.70879100  0.53295300  0.36412100  1
  O  O80  1  0.62005100  0.16590700  0.89596900  1
  O  O81  1  0.00000000  0.00000000  0.00000000  1
  O  O82  1  0.62933000  0.78281200  0.93430300  1
  O  O83  1  0.37994900  0.83409300  0.10403100  1
  O  O84  1  0.90073500  0.02737000  0.77398500  1
  O  O85  1  0.93430300  0.62933000  0.78281200  1
  O  O86  1  0.77398500  0.90073500  0.02737000  1
