# generated using pymatgen
data_NbPCl8O
_symmetry_space_group_name_H-M   'P 1'
_cell_length_a   8.62233600
_cell_length_b   9.27970000
_cell_length_c   17.12484900
_cell_angle_alpha   90.00000000
_cell_angle_beta   90.00000000
_cell_angle_gamma   90.00000000
_symmetry_Int_Tables_number   1
_chemical_formula_structural   NbPCl8O
_chemical_formula_sum   'Nb4 P4 Cl32 O4'
_cell_volume   1370.20525795
_cell_formula_units_Z   4
loop_
 _symmetry_equiv_pos_site_id
 _symmetry_equiv_pos_as_xyz
  1  'x, y, z'
loop_
 _atom_site_type_symbol
 _atom_site_label
 _atom_site_symmetry_multiplicity
 _atom_site_fract_x
 _atom_site_fract_y
 _atom_site_fract_z
 _atom_site_occupancy
  Nb  Nb0  1  0.25000000  0.08415400  0.85238100  1
  Nb  Nb1  1  0.75000000  0.58415400  0.64761900  1
  Nb  Nb2  1  0.25000000  0.41584600  0.35238100  1
  Nb  Nb3  1  0.75000000  0.91584600  0.14761900  1
  P  P4  1  0.75000000  0.28354000  0.07654800  1
  P  P5  1  0.25000000  0.71646000  0.92345200  1
  P  P6  1  0.25000000  0.78354000  0.42345200  1
  P  P7  1  0.75000000  0.21646000  0.57654800  1
  Cl  Cl8  1  0.93381900  0.13095900  0.62878500  1
  Cl  Cl9  1  0.25000000  0.64063400  0.03172900  1
  Cl  Cl10  1  0.47962900  0.55747700  0.63967600  1
  Cl  Cl11  1  0.97962900  0.44252300  0.36032400  1
  Cl  Cl12  1  0.97962900  0.05747700  0.86032400  1
  Cl  Cl13  1  0.06618100  0.86904100  0.37121500  1
  Cl  Cl14  1  0.02037100  0.55747700  0.63967600  1
  Cl  Cl15  1  0.25000000  0.92869400  0.74113300  1
  Cl  Cl16  1  0.75000000  0.35936600  0.96827100  1
  Cl  Cl17  1  0.75000000  0.70222500  0.52627600  1
  Cl  Cl18  1  0.75000000  0.79777500  0.02627600  1
  Cl  Cl19  1  0.43381900  0.63095900  0.87121500  1
  Cl  Cl20  1  0.25000000  0.57130600  0.24113300  1
  Cl  Cl21  1  0.52037100  0.05747700  0.86032400  1
  Cl  Cl22  1  0.75000000  0.07130600  0.25886700  1
  Cl  Cl23  1  0.25000000  0.21070400  0.27802100  1
  Cl  Cl24  1  0.25000000  0.85936600  0.53172900  1
  Cl  Cl25  1  0.75000000  0.42869400  0.75886700  1
  Cl  Cl26  1  0.43381900  0.86904100  0.37121500  1
  Cl  Cl27  1  0.25000000  0.29777500  0.47372400  1
  Cl  Cl28  1  0.52037100  0.44252300  0.36032400  1
  Cl  Cl29  1  0.56618100  0.13095900  0.62878500  1
  Cl  Cl30  1  0.75000000  0.78929600  0.72197900  1
  Cl  Cl31  1  0.02037100  0.94252300  0.13967600  1
  Cl  Cl32  1  0.93381900  0.36904100  0.12878500  1
  Cl  Cl33  1  0.06618100  0.63095900  0.87121500  1
  Cl  Cl34  1  0.25000000  0.28929600  0.77802100  1
  Cl  Cl35  1  0.25000000  0.20222500  0.97372400  1
  Cl  Cl36  1  0.75000000  0.14063400  0.46827100  1
  Cl  Cl37  1  0.56618100  0.36904100  0.12878500  1
  Cl  Cl38  1  0.47962900  0.94252300  0.13967600  1
  Cl  Cl39  1  0.75000000  0.71070400  0.22197900  1
  O  O40  1  0.75000000  0.37683400  0.57703700  1
  O  O41  1  0.25000000  0.62316600  0.42296300  1
  O  O42  1  0.25000000  0.87683400  0.92296300  1
  O  O43  1  0.75000000  0.12316600  0.07703700  1
