# generated using pymatgen
data_VHg4P2O9
_symmetry_space_group_name_H-M   'P 1'
_cell_length_a   7.20584900
_cell_length_b   9.23692100
_cell_length_c   16.98868000
_cell_angle_alpha   90.00000000
_cell_angle_beta   90.00000000
_cell_angle_gamma   90.00000000
_symmetry_Int_Tables_number   1
_chemical_formula_structural   VHg4P2O9
_chemical_formula_sum   'V4 Hg16 P8 O36'
_cell_volume   1130.76412757
_cell_formula_units_Z   4
loop_
 _symmetry_equiv_pos_site_id
 _symmetry_equiv_pos_as_xyz
  1  'x, y, z'
loop_
 _atom_site_type_symbol
 _atom_site_label
 _atom_site_symmetry_multiplicity
 _atom_site_fract_x
 _atom_site_fract_y
 _atom_site_fract_z
 _atom_site_occupancy
  V  V0  1  0.13010200  0.76690600  0.75000000  1
  V  V1  1  0.36989800  0.26690600  0.25000000  1
  V  V2  1  0.86989800  0.23309400  0.25000000  1
  V  V3  1  0.63010200  0.73309400  0.75000000  1
  Hg  Hg4  1  0.63534200  0.75153100  0.41968700  1
  Hg  Hg5  1  0.12932100  0.46967000  0.40437600  1
  Hg  Hg6  1  0.86465800  0.25153100  0.91968700  1
  Hg  Hg7  1  0.87067900  0.53033000  0.59562400  1
  Hg  Hg8  1  0.13534200  0.74846900  0.08031300  1
  Hg  Hg9  1  0.37067900  0.96967000  0.90437600  1
  Hg  Hg10  1  0.62932100  0.03033000  0.09562400  1
  Hg  Hg11  1  0.36465800  0.24846900  0.58031300  1
  Hg  Hg12  1  0.36465800  0.24846900  0.91968700  1
  Hg  Hg13  1  0.62932100  0.03033000  0.40437600  1
  Hg  Hg14  1  0.13534200  0.74846900  0.41968700  1
  Hg  Hg15  1  0.86465800  0.25153100  0.58031300  1
  Hg  Hg16  1  0.12932100  0.46967000  0.09562400  1
  Hg  Hg17  1  0.87067900  0.53033000  0.90437600  1
  Hg  Hg18  1  0.63534200  0.75153100  0.08031300  1
  Hg  Hg19  1  0.37067900  0.96967000  0.59562400  1
  P  P20  1  0.35666800  0.60991600  0.88686500  1
  P  P21  1  0.14333200  0.10991600  0.11313500  1
  P  P22  1  0.64333200  0.39008400  0.38686500  1
  P  P23  1  0.35666800  0.60991600  0.61313500  1
  P  P24  1  0.14333200  0.10991600  0.38686500  1
  P  P25  1  0.85666800  0.89008400  0.61313500  1
  P  P26  1  0.64333200  0.39008400  0.11313500  1
  P  P27  1  0.85666800  0.89008400  0.88686500  1
  O  O28  1  0.96823000  0.09818600  0.33372100  1
  O  O29  1  0.68035000  0.88112000  0.66607300  1
  O  O30  1  0.68035000  0.88112000  0.83392700  1
  O  O31  1  0.64014000  0.17583200  0.25000000  1
  O  O32  1  0.66172500  0.52414800  0.44096900  1
  O  O33  1  0.13137800  0.24236400  0.05591000  1
  O  O34  1  0.85986000  0.67583200  0.75000000  1
  O  O35  1  0.86862200  0.75763600  0.94409000  1
  O  O36  1  0.81965000  0.38112000  0.33392700  1
  O  O37  1  0.33827500  0.47585200  0.94096900  1
  O  O38  1  0.14014000  0.32416800  0.25000000  1
  O  O39  1  0.46823000  0.40181400  0.16627900  1
  O  O40  1  0.16172500  0.97585200  0.44096900  1
  O  O41  1  0.31965000  0.11888000  0.16607300  1
  O  O42  1  0.86862200  0.75763600  0.55591000  1
  O  O43  1  0.35986000  0.82416800  0.75000000  1
  O  O44  1  0.36862200  0.74236400  0.55591000  1
  O  O45  1  0.63137800  0.25763600  0.05591000  1
  O  O46  1  0.83827500  0.02414800  0.94096900  1
  O  O47  1  0.18035000  0.61888000  0.66607300  1
  O  O48  1  0.18035000  0.61888000  0.83392700  1
  O  O49  1  0.31965000  0.11888000  0.33392700  1
  O  O50  1  0.16172500  0.97585200  0.05903100  1
  O  O51  1  0.03177000  0.90181400  0.66627900  1
  O  O52  1  0.81965000  0.38112000  0.16607300  1
  O  O53  1  0.46823000  0.40181400  0.33372100  1
  O  O54  1  0.53177000  0.59818600  0.83372100  1
  O  O55  1  0.53177000  0.59818600  0.66627900  1
  O  O56  1  0.03177000  0.90181400  0.83372100  1
  O  O57  1  0.83827500  0.02414800  0.55903100  1
  O  O58  1  0.66172500  0.52414800  0.05903100  1
  O  O59  1  0.33827500  0.47585200  0.55903100  1
  O  O60  1  0.13137800  0.24236400  0.44409000  1
  O  O61  1  0.63137800  0.25763600  0.44409000  1
  O  O62  1  0.96823000  0.09818600  0.16627900  1
  O  O63  1  0.36862200  0.74236400  0.94409000  1
