# generated using pymatgen
data_Rb3FeO3
_symmetry_space_group_name_H-M   'P 1'
_cell_length_a   6.98219053
_cell_length_b   10.43575469
_cell_length_c   8.97820506
_cell_angle_alpha   98.45884569
_cell_angle_beta   69.18399468
_cell_angle_gamma   101.42230214
_symmetry_Int_Tables_number   1
_chemical_formula_structural   Rb3FeO3
_chemical_formula_sum   'Rb12 Fe4 O12'
_cell_volume   597.27411121
_cell_formula_units_Z   4
loop_
 _symmetry_equiv_pos_site_id
 _symmetry_equiv_pos_as_xyz
  1  'x, y, z'
loop_
 _atom_site_type_symbol
 _atom_site_label
 _atom_site_symmetry_multiplicity
 _atom_site_fract_x
 _atom_site_fract_y
 _atom_site_fract_z
 _atom_site_occupancy
  Rb  Rb0  1  0.89169700  0.36944300  0.36943400  1
  Rb  Rb1  1  0.39169800  0.86944200  0.86942900  1
  Rb  Rb2  1  0.10830000  0.63055700  0.63057700  1
  Rb  Rb3  1  0.60830600  0.13055600  0.13057000  1
  Rb  Rb4  1  0.53923900  0.15358400  0.65360500  1
  Rb  Rb5  1  0.03924100  0.65358100  0.15359800  1
  Rb  Rb6  1  0.46076100  0.84641900  0.34640400  1
  Rb  Rb7  1  0.96076200  0.34641900  0.84640000  1
  Rb  Rb8  1  0.14026100  0.14025900  0.48656700  1
  Rb  Rb9  1  0.64026300  0.64026200  0.98655600  1
  Rb  Rb10  1  0.85973700  0.85973800  0.51344500  1
  Rb  Rb11  1  0.35974100  0.35974200  0.01343300  1
  Fe  Fe12  1  0.49135500  0.49131700  0.34535100  1
  Fe  Fe13  1  0.00864800  0.00868400  0.15464400  1
  Fe  Fe14  1  0.99136500  0.99132200  0.84536200  1
  Fe  Fe15  1  0.50861500  0.50866400  0.65464500  1
  O  O16  1  0.37641300  0.37642100  0.52482100  1
  O  O17  1  0.87641700  0.87642200  0.02483300  1
  O  O18  1  0.62359100  0.62358500  0.47515500  1
  O  O19  1  0.12358700  0.12357900  0.97517600  1
  O  O20  1  0.20767200  0.94413500  0.20861500  1
  O  O21  1  0.70764700  0.44413900  0.70861100  1
  O  O22  1  0.79234500  0.05586600  0.79138400  1
  O  O23  1  0.29232800  0.55586500  0.29138900  1
  O  O24  1  0.81231500  0.07591800  0.34042900  1
  O  O25  1  0.31232200  0.57591100  0.84041500  1
  O  O26  1  0.18768800  0.92408800  0.65957500  1
  O  O27  1  0.68768700  0.42408200  0.15957400  1
