# generated using pymatgen
data_Li4Be3As3ClO12
_symmetry_space_group_name_H-M   'P 1'
_cell_length_a   8.35570500
_cell_length_b   8.35570500
_cell_length_c   8.35570500
_cell_angle_alpha   90.00000000
_cell_angle_beta   90.00000000
_cell_angle_gamma   90.00000000
_symmetry_Int_Tables_number   1
_chemical_formula_structural   Li4Be3As3ClO12
_chemical_formula_sum   'Li8 Be6 As6 Cl2 O24'
_cell_volume   583.37699108
_cell_formula_units_Z   2
loop_
 _symmetry_equiv_pos_site_id
 _symmetry_equiv_pos_as_xyz
  1  'x, y, z'
loop_
 _atom_site_type_symbol
 _atom_site_label
 _atom_site_symmetry_multiplicity
 _atom_site_fract_x
 _atom_site_fract_y
 _atom_site_fract_z
 _atom_site_occupancy
  Li  Li0  1  0.82918100  0.82918100  0.17081900  1
  Li  Li1  1  0.32918100  0.32918100  0.67081900  1
  Li  Li2  1  0.17081900  0.17081900  0.17081900  1
  Li  Li3  1  0.67081900  0.67081900  0.67081900  1
  Li  Li4  1  0.82918100  0.17081900  0.82918100  1
  Li  Li5  1  0.32918100  0.67081900  0.32918100  1
  Li  Li6  1  0.17081900  0.82918100  0.82918100  1
  Li  Li7  1  0.67081900  0.32918100  0.32918100  1
  Be  Be8  1  0.50000000  0.75000000  0.00000000  1
  Be  Be9  1  0.25000000  0.00000000  0.50000000  1
  Be  Be10  1  0.00000000  0.50000000  0.25000000  1
  Be  Be11  1  0.50000000  0.25000000  0.00000000  1
  Be  Be12  1  0.00000000  0.50000000  0.75000000  1
  Be  Be13  1  0.75000000  0.00000000  0.50000000  1
  As  As14  1  0.50000000  0.00000000  0.25000000  1
  As  As15  1  0.00000000  0.25000000  0.50000000  1
  As  As16  1  0.25000000  0.50000000  0.00000000  1
  As  As17  1  0.00000000  0.75000000  0.50000000  1
  As  As18  1  0.50000000  0.00000000  0.75000000  1
  As  As19  1  0.75000000  0.50000000  0.00000000  1
  Cl  Cl20  1  0.50000000  0.50000000  0.50000000  1
  Cl  Cl21  1  0.00000000  0.00000000  0.00000000  1
  O  O22  1  0.09377200  0.36443800  0.64286400  1
  O  O23  1  0.59377200  0.85713600  0.13556200  1
  O  O24  1  0.13556200  0.40622800  0.14286400  1
  O  O25  1  0.14286400  0.13556200  0.40622800  1
  O  O26  1  0.35713600  0.90622800  0.36443800  1
  O  O27  1  0.86443800  0.59377200  0.14286400  1
  O  O28  1  0.86443800  0.40622800  0.85713600  1
  O  O29  1  0.35713600  0.09377200  0.63556200  1
  O  O30  1  0.85713600  0.86443800  0.40622800  1
  O  O31  1  0.90622800  0.36443800  0.35713600  1
  O  O32  1  0.13556200  0.59377200  0.85713600  1
  O  O33  1  0.36443800  0.35713600  0.90622800  1
  O  O34  1  0.40622800  0.14286400  0.13556200  1
  O  O35  1  0.90622800  0.63556200  0.64286400  1
  O  O36  1  0.40622800  0.85713600  0.86443800  1
  O  O37  1  0.64286400  0.09377200  0.36443800  1
  O  O38  1  0.63556200  0.35713600  0.09377200  1
  O  O39  1  0.85713600  0.13556200  0.59377200  1
  O  O40  1  0.64286400  0.90622800  0.63556200  1
  O  O41  1  0.63556200  0.64286400  0.90622800  1
  O  O42  1  0.59377200  0.14286400  0.86443800  1
  O  O43  1  0.09377200  0.63556200  0.35713600  1
  O  O44  1  0.36443800  0.64286400  0.09377200  1
  O  O45  1  0.14286400  0.86443800  0.59377200  1
