# generated using pymatgen
data_Cs2Na2B10O17
_symmetry_space_group_name_H-M   'P 1'
_cell_length_a   11.53294530
_cell_length_b   11.53294530
_cell_length_c   11.20283771
_cell_angle_alpha   76.02277902
_cell_angle_beta   76.02277902
_cell_angle_gamma   33.43416001
_symmetry_Int_Tables_number   1
_chemical_formula_structural   Cs2Na2B10O17
_chemical_formula_sum   'Cs4 Na4 B20 O34'
_cell_volume   794.46225986
_cell_formula_units_Z   2
loop_
 _symmetry_equiv_pos_site_id
 _symmetry_equiv_pos_as_xyz
  1  'x, y, z'
loop_
 _atom_site_type_symbol
 _atom_site_label
 _atom_site_symmetry_multiplicity
 _atom_site_fract_x
 _atom_site_fract_y
 _atom_site_fract_z
 _atom_site_occupancy
  Cs  Cs0  1  0.24512600  0.63416100  0.59658800  1
  Cs  Cs1  1  0.36583900  0.75487400  0.90341200  1
  Cs  Cs2  1  0.75487400  0.36583900  0.40341200  1
  Cs  Cs3  1  0.63416100  0.24512600  0.09658800  1
  Na  Na4  1  0.31194500  0.22062300  0.18390700  1
  Na  Na5  1  0.22062300  0.31194500  0.68390700  1
  Na  Na6  1  0.68805500  0.77937700  0.81609300  1
  Na  Na7  1  0.77937700  0.68805500  0.31609300  1
  B  B8  1  0.25237100  0.85860800  0.26223100  1
  B  B9  1  0.74762900  0.14139200  0.73776900  1
  B  B10  1  0.20592100  0.48450200  0.34918200  1
  B  B11  1  0.51549800  0.79407900  0.15081800  1
  B  B12  1  0.85860800  0.25237100  0.76223100  1
  B  B13  1  0.75018400  0.89058100  0.00317200  1
  B  B14  1  0.96605400  0.32424900  0.85894100  1
  B  B15  1  0.48450200  0.20592100  0.84918200  1
  B  B16  1  0.10941900  0.24981600  0.49682800  1
  B  B17  1  0.79407900  0.51549800  0.65081800  1
  B  B18  1  0.67575100  0.03394600  0.64105900  1
  B  B19  1  0.11446800  0.55424700  0.93744300  1
  B  B20  1  0.32424900  0.96605400  0.35894100  1
  B  B21  1  0.55424700  0.11446800  0.43744300  1
  B  B22  1  0.03394600  0.67575100  0.14105900  1
  B  B23  1  0.14139200  0.74762900  0.23776900  1
  B  B24  1  0.89058100  0.75018400  0.50317200  1
  B  B25  1  0.44575300  0.88553200  0.56255700  1
  B  B26  1  0.24981600  0.10941900  0.99682800  1
  B  B27  1  0.88553200  0.44575300  0.06255700  1
  O  O28  1  0.84361200  0.80978100  0.61796200  1
  O  O29  1  0.54931000  0.09000500  0.97424200  1
  O  O30  1  0.10914700  0.89085300  0.25000000  1
  O  O31  1  0.05561500  0.78694600  0.14206200  1
  O  O32  1  0.74651700  0.42275400  0.67808400  1
  O  O33  1  0.57724600  0.25348300  0.82191600  1
  O  O34  1  0.09000500  0.54931000  0.47424200  1
  O  O35  1  0.08651700  0.55231100  0.25551600  1
  O  O36  1  0.89085300  0.10914700  0.75000000  1
  O  O37  1  0.89783200  0.73554100  0.91742800  1
  O  O38  1  0.15638800  0.19021900  0.38203800  1
  O  O39  1  0.59095600  0.75018800  0.64887400  1
  O  O40  1  0.91348300  0.44768900  0.74448400  1
  O  O41  1  0.10216800  0.26445900  0.08257200  1
  O  O42  1  0.78694600  0.05561500  0.64206200  1
  O  O43  1  0.94438500  0.21305400  0.85793800  1
  O  O44  1  0.19021900  0.15638800  0.88203800  1
  O  O45  1  0.17992500  0.53217200  0.03837900  1
  O  O46  1  0.21305400  0.94438500  0.35793800  1
  O  O47  1  0.53217200  0.17992500  0.53837900  1
  O  O48  1  0.42275400  0.74651700  0.17808400  1
  O  O49  1  0.75018800  0.59095600  0.14887400  1
  O  O50  1  0.24981200  0.40904400  0.85112600  1
  O  O51  1  0.55231100  0.08651700  0.75551600  1
  O  O52  1  0.26445900  0.10216800  0.58257200  1
  O  O53  1  0.40904400  0.24981200  0.35112600  1
  O  O54  1  0.80978100  0.84361200  0.11796200  1
  O  O55  1  0.82007500  0.46782800  0.96162100  1
  O  O56  1  0.73554100  0.89783200  0.41742800  1
  O  O57  1  0.45069000  0.90999500  0.02575800  1
  O  O58  1  0.25348300  0.57724600  0.32191600  1
  O  O59  1  0.90999500  0.45069000  0.52575800  1
  O  O60  1  0.46782800  0.82007500  0.46162100  1
  O  O61  1  0.44768900  0.91348300  0.24448400  1
