# generated using pymatgen
data_YPO4
_symmetry_space_group_name_H-M   'P 1'
_cell_length_a   5.79590240
_cell_length_b   5.79590240
_cell_length_c   5.79590240
_cell_angle_alpha   105.92383440
_cell_angle_beta   105.92383440
_cell_angle_gamma   116.82593104
_symmetry_Int_Tables_number   1
_chemical_formula_structural   YPO4
_chemical_formula_sum   'Y2 P2 O8'
_cell_volume   148.00441023
_cell_formula_units_Z   2
loop_
 _symmetry_equiv_pos_site_id
 _symmetry_equiv_pos_as_xyz
  1  'x, y, z'
loop_
 _atom_site_type_symbol
 _atom_site_label
 _atom_site_symmetry_multiplicity
 _atom_site_fract_x
 _atom_site_fract_y
 _atom_site_fract_z
 _atom_site_occupancy
  Y  Y0  1  0.50000000  0.50000000  0.00000000  1
  Y  Y1  1  0.75000000  0.25000000  0.50000000  1
  P  P2  1  0.25000000  0.75000000  0.50000000  1
  P  P3  1  0.00000000  0.00000000  0.00000000  1
  O  O4  1  0.84011600  0.66616800  0.82605200  1
  O  O5  1  0.26406500  0.59011600  0.67394800  1
  O  O6  1  0.91616800  0.59011600  0.32605200  1
  O  O7  1  0.84011600  0.01406500  0.17394800  1
  O  O8  1  0.98593500  0.15988400  0.82605200  1
  O  O9  1  0.40988400  0.08383200  0.67394800  1
  O  O10  1  0.40988400  0.73593500  0.32605200  1
  O  O11  1  0.33383200  0.15988400  0.17394800  1
