# generated using pymatgen
data_Cs5Hg19
_symmetry_space_group_name_H-M   'P 1'
_cell_length_a   10.48108647
_cell_length_b   10.48108647
_cell_length_c   10.48108647
_cell_angle_alpha   106.96546428
_cell_angle_beta   106.96546428
_cell_angle_gamma   114.60811366
_symmetry_Int_Tables_number   1
_chemical_formula_structural   Cs5Hg19
_chemical_formula_sum   'Cs5 Hg19'
_cell_volume   880.94105136
_cell_formula_units_Z   1
loop_
 _symmetry_equiv_pos_site_id
 _symmetry_equiv_pos_as_xyz
  1  'x, y, z'
loop_
 _atom_site_type_symbol
 _atom_site_label
 _atom_site_symmetry_multiplicity
 _atom_site_fract_x
 _atom_site_fract_y
 _atom_site_fract_z
 _atom_site_occupancy
  Cs  Cs0  1  0.11911800  0.32430300  0.44342100  1
  Cs  Cs1  1  0.32430300  0.88088200  0.20518500  1
  Cs  Cs2  1  0.67569700  0.11911800  0.79481500  1
  Cs  Cs3  1  0.88088200  0.67569700  0.55657900  1
  Cs  Cs4  1  0.50000000  0.50000000  0.00000000  1
  Hg  Hg5  1  0.24624300  0.06339500  0.58933200  1
  Hg  Hg6  1  0.06339500  0.47406200  0.81715200  1
  Hg  Hg7  1  0.65691000  0.24624300  0.18284800  1
  Hg  Hg8  1  0.47406200  0.65691000  0.41066800  1
  Hg  Hg9  1  0.75375700  0.93660500  0.41066800  1
  Hg  Hg10  1  0.93660500  0.52593800  0.18284800  1
  Hg  Hg11  1  0.34309000  0.75375700  0.81715200  1
  Hg  Hg12  1  0.52593800  0.34309000  0.58933200  1
  Hg  Hg13  1  0.25000000  0.75000000  0.50000000  1
  Hg  Hg14  1  0.75000000  0.25000000  0.50000000  1
  Hg  Hg15  1  0.95447000  0.86177900  0.25251400  1
  Hg  Hg16  1  0.86177900  0.60926500  0.90730900  1
  Hg  Hg17  1  0.70195600  0.95447000  0.09269100  1
  Hg  Hg18  1  0.60926500  0.70195600  0.74748600  1
  Hg  Hg19  1  0.04553000  0.13822100  0.74748600  1
  Hg  Hg20  1  0.13822100  0.39073500  0.09269100  1
  Hg  Hg21  1  0.29804400  0.04553000  0.90730900  1
  Hg  Hg22  1  0.39073500  0.29804400  0.25251400  1
  Hg  Hg23  1  0.00000000  0.00000000  0.00000000  1
