# generated using pymatgen
data_SrB2F8
_symmetry_space_group_name_H-M   'P 1'
_cell_length_a   9.31923100
_cell_length_b   9.76466200
_cell_length_c   13.99792700
_cell_angle_alpha   90.00000000
_cell_angle_beta   90.00000000
_cell_angle_gamma   90.00000000
_symmetry_Int_Tables_number   1
_chemical_formula_structural   SrB2F8
_chemical_formula_sum   'Sr8 B16 F64'
_cell_volume   1273.79933019
_cell_formula_units_Z   8
loop_
 _symmetry_equiv_pos_site_id
 _symmetry_equiv_pos_as_xyz
  1  'x, y, z'
loop_
 _atom_site_type_symbol
 _atom_site_label
 _atom_site_symmetry_multiplicity
 _atom_site_fract_x
 _atom_site_fract_y
 _atom_site_fract_z
 _atom_site_occupancy
  Sr  Sr0  1  0.28025900  0.46518800  0.39653000  1
  Sr  Sr1  1  0.78025900  0.53481200  0.10347000  1
  Sr  Sr2  1  0.21974100  0.96518800  0.60347000  1
  Sr  Sr3  1  0.71974100  0.03481200  0.89653000  1
  Sr  Sr4  1  0.28025900  0.96518800  0.10347000  1
  Sr  Sr5  1  0.78025900  0.03481200  0.39653000  1
  Sr  Sr6  1  0.21974100  0.46518800  0.89653000  1
  Sr  Sr7  1  0.71974100  0.53481200  0.60347000  1
  B  B8  1  0.00496400  0.77714600  0.93998900  1
  B  B9  1  0.49503600  0.77714600  0.43998900  1
  B  B10  1  0.50496400  0.72285400  0.93998900  1
  B  B11  1  0.81697800  0.89679400  0.65678800  1
  B  B12  1  0.50496400  0.22285400  0.56001100  1
  B  B13  1  0.31697800  0.60320600  0.65678800  1
  B  B14  1  0.99503600  0.72285400  0.43998900  1
  B  B15  1  0.31697800  0.10320600  0.84321200  1
  B  B16  1  0.00496400  0.27714600  0.56001100  1
  B  B17  1  0.18302200  0.60320600  0.15678800  1
  B  B18  1  0.18302200  0.10320600  0.34321200  1
  B  B19  1  0.68302200  0.89679400  0.15678800  1
  B  B20  1  0.49503600  0.27714600  0.06001100  1
  B  B21  1  0.99503600  0.22285400  0.06001100  1
  B  B22  1  0.81697800  0.39679400  0.84321200  1
  B  B23  1  0.68302200  0.39679400  0.34321200  1
  F  F24  1  0.10388500  0.20281000  0.61630300  1
  F  F25  1  0.90826100  0.18245500  0.51712600  1
  F  F26  1  0.53236500  0.91520400  0.16334800  1
  F  F27  1  0.59173900  0.18245500  0.01712600  1
  F  F28  1  0.92249600  0.64970900  0.51279400  1
  F  F29  1  0.25262400  0.51277900  0.22074800  1
  F  F30  1  0.60388500  0.79719000  0.88369700  1
  F  F31  1  0.07750400  0.35029100  0.48720600  1
  F  F32  1  0.72836700  0.92413000  0.06196600  1
  F  F33  1  0.10388500  0.70281000  0.88369700  1
  F  F34  1  0.09173900  0.31754500  0.01712600  1
  F  F35  1  0.89611500  0.29719000  0.11630300  1
  F  F36  1  0.92249600  0.14970900  0.98720600  1
  F  F37  1  0.40826100  0.81754500  0.98287400  1
  F  F38  1  0.22836700  0.57587000  0.06196600  1
  F  F39  1  0.42249600  0.35029100  0.98720600  1
  F  F40  1  0.96763500  0.41520400  0.83665200  1
  F  F41  1  0.21950700  0.73992100  0.18072500  1
  F  F42  1  0.71950700  0.76007900  0.18072500  1
  F  F43  1  0.71950700  0.26007900  0.31927500  1
  F  F44  1  0.28049300  0.73992100  0.68072500  1
  F  F45  1  0.74737600  0.48722100  0.77925200  1
  F  F46  1  0.74737600  0.98722100  0.72074800  1
  F  F47  1  0.03236500  0.58479600  0.16334800  1
  F  F48  1  0.78049300  0.76007900  0.68072500  1
  F  F49  1  0.40826100  0.31754500  0.51712600  1
  F  F50  1  0.07267700  0.62978300  0.38243100  1
  F  F51  1  0.21950700  0.23992100  0.31927500  1
  F  F52  1  0.77163300  0.42413000  0.93803400  1
  F  F53  1  0.28049300  0.23992100  0.81927500  1
  F  F54  1  0.07750400  0.85029100  0.01279400  1
  F  F55  1  0.92732300  0.37021700  0.61756900  1
  F  F56  1  0.57750400  0.14970900  0.48720600  1
  F  F57  1  0.42249600  0.85029100  0.51279400  1
  F  F58  1  0.57267700  0.37021700  0.11756900  1
  F  F59  1  0.89611500  0.79719000  0.38369700  1
  F  F60  1  0.78049300  0.26007900  0.81927500  1
  F  F61  1  0.09173900  0.81754500  0.48287400  1
  F  F62  1  0.77163300  0.92413000  0.56196600  1
  F  F63  1  0.42732300  0.12978300  0.61756900  1
  F  F64  1  0.27163300  0.07587000  0.93803400  1
  F  F65  1  0.57750400  0.64970900  0.01279400  1
  F  F66  1  0.25262400  0.01277900  0.27925200  1
  F  F67  1  0.46763500  0.58479600  0.66334800  1
  F  F68  1  0.42732300  0.62978300  0.88243100  1
  F  F69  1  0.39611500  0.70281000  0.38369700  1
  F  F70  1  0.96763500  0.91520400  0.66334800  1
  F  F71  1  0.92732300  0.87021700  0.88243100  1
  F  F72  1  0.22836700  0.07587000  0.43803400  1
  F  F73  1  0.75262400  0.98722100  0.22074800  1
  F  F74  1  0.46763500  0.08479600  0.83665200  1
  F  F75  1  0.39611500  0.20281000  0.11630300  1
  F  F76  1  0.72836700  0.42413000  0.43803400  1
  F  F77  1  0.59173900  0.68245500  0.48287400  1
  F  F78  1  0.53236500  0.41520400  0.33665200  1
  F  F79  1  0.07267700  0.12978300  0.11756900  1
  F  F80  1  0.03236500  0.08479600  0.33665200  1
  F  F81  1  0.57267700  0.87021700  0.38243100  1
  F  F82  1  0.27163300  0.57587000  0.56196600  1
  F  F83  1  0.75262400  0.48722100  0.27925200  1
  F  F84  1  0.24737600  0.01277900  0.77925200  1
  F  F85  1  0.60388500  0.29719000  0.61630300  1
  F  F86  1  0.90826100  0.68245500  0.98287400  1
  F  F87  1  0.24737600  0.51277900  0.72074800  1
