# generated using pymatgen
data_Na2Te4WO12
_symmetry_space_group_name_H-M   'P 1'
_cell_length_a   9.24997920
_cell_length_b   9.24997920
_cell_length_c   11.46642209
_cell_angle_alpha   75.91153499
_cell_angle_beta   75.91153499
_cell_angle_gamma   37.06312187
_symmetry_Int_Tables_number   1
_chemical_formula_structural   Na2Te4WO12
_chemical_formula_sum   'Na4 Te8 W2 O24'
_cell_volume   571.47964682
_cell_formula_units_Z   2
loop_
 _symmetry_equiv_pos_site_id
 _symmetry_equiv_pos_as_xyz
  1  'x, y, z'
loop_
 _atom_site_type_symbol
 _atom_site_label
 _atom_site_symmetry_multiplicity
 _atom_site_fract_x
 _atom_site_fract_y
 _atom_site_fract_z
 _atom_site_occupancy
  Na  Na0  1  0.56003600  0.01681900  0.26603700  1
  Na  Na1  1  0.98318100  0.43996400  0.23396300  1
  Na  Na2  1  0.43996400  0.98318100  0.73396300  1
  Na  Na3  1  0.01681900  0.56003600  0.76603700  1
  Te  Te4  1  0.30950800  0.87876500  0.40134100  1
  Te  Te5  1  0.12123500  0.69049200  0.09865900  1
  Te  Te6  1  0.69049200  0.12123500  0.59865900  1
  Te  Te7  1  0.87876500  0.30950800  0.90134100  1
  Te  Te8  1  0.48630300  0.82765300  0.06371800  1
  Te  Te9  1  0.17234700  0.51369700  0.43628200  1
  Te  Te10  1  0.51369700  0.17234700  0.93628200  1
  Te  Te11  1  0.82765300  0.48630300  0.56371800  1
  W  W12  1  0.66003200  0.33996800  0.25000000  1
  W  W13  1  0.33996800  0.66003200  0.75000000  1
  O  O14  1  0.49466600  0.28306900  0.33810200  1
  O  O15  1  0.71693100  0.50533400  0.16189800  1
  O  O16  1  0.50533400  0.71693100  0.66189800  1
  O  O17  1  0.28306900  0.49466600  0.83810200  1
  O  O18  1  0.68495000  0.83350200  0.07079100  1
  O  O19  1  0.16649800  0.31505000  0.42920900  1
  O  O20  1  0.31505000  0.16649800  0.92920900  1
  O  O21  1  0.83350200  0.68495000  0.57079100  1
  O  O22  1  0.64578300  0.67976300  0.41039900  1
  O  O23  1  0.32023700  0.35421700  0.08960100  1
  O  O24  1  0.35421700  0.32023700  0.58960100  1
  O  O25  1  0.67976300  0.64578300  0.91039900  1
  O  O26  1  0.31143600  0.00664500  0.24521300  1
  O  O27  1  0.99335500  0.68856400  0.25478700  1
  O  O28  1  0.68856400  0.99335500  0.75478700  1
  O  O29  1  0.00664500  0.31143600  0.74521300  1
  O  O30  1  0.39240100  0.63074600  0.36403800  1
  O  O31  1  0.36925400  0.60759900  0.13596200  1
  O  O32  1  0.60759900  0.36925400  0.63596200  1
  O  O33  1  0.63074600  0.39240100  0.86403800  1
  O  O34  1  0.83298200  0.11952300  0.14246900  1
  O  O35  1  0.88047700  0.16701800  0.35753100  1
  O  O36  1  0.16701800  0.88047700  0.85753100  1
  O  O37  1  0.11952300  0.83298200  0.64246900  1
