# generated using pymatgen
data_Pb2S(O2F)2
_symmetry_space_group_name_H-M   'P 1'
_cell_length_a   7.61560345
_cell_length_b   7.61560345
_cell_length_c   8.75000394
_cell_angle_alpha   72.83521972
_cell_angle_beta   72.83521972
_cell_angle_gamma   34.34674457
_symmetry_Int_Tables_number   1
_chemical_formula_structural   Pb2S(O2F)2
_chemical_formula_sum   'Pb4 S2 O8 F4'
_cell_volume   272.31692218
_cell_formula_units_Z   2
loop_
 _symmetry_equiv_pos_site_id
 _symmetry_equiv_pos_as_xyz
  1  'x, y, z'
loop_
 _atom_site_type_symbol
 _atom_site_label
 _atom_site_symmetry_multiplicity
 _atom_site_fract_x
 _atom_site_fract_y
 _atom_site_fract_z
 _atom_site_occupancy
  Pb  Pb0  1  0.64970400  0.65882500  0.92399900  1
  Pb  Pb1  1  0.35029600  0.34117500  0.07600100  1
  Pb  Pb2  1  0.34117500  0.35029600  0.57600100  1
  Pb  Pb3  1  0.65882500  0.64970400  0.42399900  1
  S  S4  1  0.04869200  0.95130800  0.75000000  1
  S  S5  1  0.95130800  0.04869200  0.25000000  1
  O  O6  1  0.22387700  0.95467500  0.20631800  1
  O  O7  1  0.75330700  0.24388300  0.39003800  1
  O  O8  1  0.75611700  0.24669300  0.10996200  1
  O  O9  1  0.04532500  0.77612300  0.29368200  1
  O  O10  1  0.77612300  0.04532500  0.79368200  1
  O  O11  1  0.95467500  0.22387700  0.70631800  1
  O  O12  1  0.24388300  0.75330700  0.89003800  1
  O  O13  1  0.24669300  0.75611700  0.60996200  1
  F  F14  1  0.77590000  0.72997800  0.12331300  1
  F  F15  1  0.27002200  0.22410000  0.37668700  1
  F  F16  1  0.22410000  0.27002200  0.87668700  1
  F  F17  1  0.72997800  0.77590000  0.62331300  1
