# generated using pymatgen
data_Nd5As4(ClO4)3
_symmetry_space_group_name_H-M   'P 1'
_cell_length_a   5.48944200
_cell_length_b   10.41949100
_cell_length_c   17.01238789
_cell_angle_alpha   56.26502734
_cell_angle_beta   90.00000000
_cell_angle_gamma   90.00000000
_symmetry_Int_Tables_number   1
_chemical_formula_structural   Nd5As4(ClO4)3
_chemical_formula_sum   'Nd10 As8 Cl6 O24'
_cell_volume   809.21225261
_cell_formula_units_Z   2
loop_
 _symmetry_equiv_pos_site_id
 _symmetry_equiv_pos_as_xyz
  1  'x, y, z'
loop_
 _atom_site_type_symbol
 _atom_site_label
 _atom_site_symmetry_multiplicity
 _atom_site_fract_x
 _atom_site_fract_y
 _atom_site_fract_z
 _atom_site_occupancy
  Nd  Nd0  1  0.76456000  0.49567200  0.58571300  1
  Nd  Nd1  1  0.74404500  0.83660000  0.96817200  1
  Nd  Nd2  1  0.23544000  0.49567200  0.08571300  1
  Nd  Nd3  1  0.70805900  0.50000000  0.25000000  1
  Nd  Nd4  1  0.74404500  0.16340000  0.53182800  1
  Nd  Nd5  1  0.25595500  0.16340000  0.03182800  1
  Nd  Nd6  1  0.23544000  0.50432800  0.41428700  1
  Nd  Nd7  1  0.29194100  0.50000000  0.75000000  1
  Nd  Nd8  1  0.76456000  0.50432800  0.91428700  1
  Nd  Nd9  1  0.25595500  0.83660000  0.46817200  1
  As  As10  1  0.26161600  0.22917700  0.36176800  1
  As  As11  1  0.73838400  0.22917700  0.86176800  1
  As  As12  1  0.76325000  0.75669200  0.35029800  1
  As  As13  1  0.73838400  0.77082300  0.63823200  1
  As  As14  1  0.23675000  0.75669200  0.85029800  1
  As  As15  1  0.23675000  0.24330800  0.64970200  1
  As  As16  1  0.76325000  0.24330800  0.14970200  1
  As  As17  1  0.26161600  0.77082300  0.13823200  1
  Cl  Cl18  1  0.75365600  0.99673600  0.08002800  1
  Cl  Cl19  1  0.75365600  0.00326400  0.41997200  1
  Cl  Cl20  1  0.74769900  0.00000000  0.75000000  1
  Cl  Cl21  1  0.25230100  0.00000000  0.25000000  1
  Cl  Cl22  1  0.24634400  0.99673600  0.58002800  1
  Cl  Cl23  1  0.24634400  0.00326400  0.91997200  1
  O  O24  1  0.48849000  0.32773300  0.56368400  1
  O  O25  1  0.00071500  0.31587800  0.05459700  1
  O  O26  1  0.99928500  0.31587800  0.55459700  1
  O  O27  1  0.51151000  0.32773300  0.06368400  1
  O  O28  1  0.65223900  0.63757300  0.75785100  1
  O  O29  1  0.17282300  0.59330400  0.84450000  1
  O  O30  1  0.00577700  0.67999100  0.12074000  1
  O  O31  1  0.99422300  0.67999100  0.62074000  1
  O  O32  1  0.99928500  0.68412200  0.94540300  1
  O  O33  1  0.82717700  0.59330400  0.34450000  1
  O  O34  1  0.34776100  0.36242700  0.24214900  1
  O  O35  1  0.99422300  0.32000900  0.87926000  1
  O  O36  1  0.00577700  0.32000900  0.37926000  1
  O  O37  1  0.00071500  0.68412200  0.44540300  1
  O  O38  1  0.51335100  0.68917800  0.59689300  1
  O  O39  1  0.48849000  0.67226700  0.93631600  1
  O  O40  1  0.48664900  0.31082200  0.40310700  1
  O  O41  1  0.65223900  0.36242700  0.74214900  1
  O  O42  1  0.51151000  0.67226700  0.43631600  1
  O  O43  1  0.17282300  0.40669600  0.65550000  1
  O  O44  1  0.34776100  0.63757300  0.25785100  1
  O  O45  1  0.82717700  0.40669600  0.15550000  1
  O  O46  1  0.51335100  0.31082200  0.90310700  1
  O  O47  1  0.48664900  0.68917800  0.09689300  1
