# generated using pymatgen
data_MgH12SeO9
_symmetry_space_group_name_H-M   'P 1'
_cell_length_a   5.99897031
_cell_length_b   5.99897031
_cell_length_c   5.99896975
_cell_angle_alpha   96.86554412
_cell_angle_beta   96.86554412
_cell_angle_gamma   96.86554598
_symmetry_Int_Tables_number   1
_chemical_formula_structural   MgH12SeO9
_chemical_formula_sum   'Mg1 H12 Se1 O9'
_cell_volume   210.83331924
_cell_formula_units_Z   1
loop_
 _symmetry_equiv_pos_site_id
 _symmetry_equiv_pos_as_xyz
  1  'x, y, z'
loop_
 _atom_site_type_symbol
 _atom_site_label
 _atom_site_symmetry_multiplicity
 _atom_site_fract_x
 _atom_site_fract_y
 _atom_site_fract_z
 _atom_site_occupancy
  Mg  Mg0  1  0.99399300  0.99399300  0.99399300  1
  H  H1  1  0.45097600  0.04380600  0.96068500  1
  H  H2  1  0.96068500  0.45097600  0.04380600  1
  H  H3  1  0.04380600  0.96068500  0.45097600  1
  H  H4  1  0.36100600  0.26060400  0.86313300  1
  H  H5  1  0.86313300  0.36100600  0.26060400  1
  H  H6  1  0.26060400  0.86313300  0.36100600  1
  H  H7  1  0.58297400  0.71783900  0.92535600  1
  H  H8  1  0.92535600  0.58297400  0.71783900  1
  H  H9  1  0.71783900  0.92535600  0.58297400  1
  H  H10  1  0.61749100  0.81682400  0.18616800  1
  H  H11  1  0.18616800  0.61749100  0.81682400  1
  H  H12  1  0.81682400  0.18616800  0.61749100  1
  Se  Se13  1  0.47662900  0.47662900  0.47662900  1
  O  O14  1  0.42372200  0.50851500  0.75616000  1
  O  O15  1  0.75616000  0.42372200  0.50851500  1
  O  O16  1  0.50851500  0.75616000  0.42372200  1
  O  O17  1  0.31467300  0.11865100  0.92737000  1
  O  O18  1  0.92737000  0.31467300  0.11865100  1
  O  O19  1  0.11865100  0.92737000  0.31467300  1
  O  O20  1  0.65723800  0.85502500  0.03596300  1
  O  O21  1  0.03596300  0.65723800  0.85502500  1
  O  O22  1  0.85502500  0.03596300  0.65723800  1
