# generated using pymatgen
data_TiTe3O8
_symmetry_space_group_name_H-M   'P 1'
_cell_length_a   9.72208086
_cell_length_b   9.72208086
_cell_length_c   9.72208086
_cell_angle_alpha   109.47122063
_cell_angle_beta   109.47122063
_cell_angle_gamma   109.47122063
_symmetry_Int_Tables_number   1
_chemical_formula_structural   TiTe3O8
_chemical_formula_sum   'Ti4 Te12 O32'
_cell_volume   707.38491692
_cell_formula_units_Z   4
loop_
 _symmetry_equiv_pos_site_id
 _symmetry_equiv_pos_as_xyz
  1  'x, y, z'
loop_
 _atom_site_type_symbol
 _atom_site_label
 _atom_site_symmetry_multiplicity
 _atom_site_fract_x
 _atom_site_fract_y
 _atom_site_fract_z
 _atom_site_occupancy
  Ti  Ti0  1  0.50000000  0.00000000  0.00000000  1
  Ti  Ti1  1  0.00000000  0.00000000  0.50000000  1
  Ti  Ti2  1  0.50000000  0.50000000  0.50000000  1
  Ti  Ti3  1  0.00000000  0.50000000  0.00000000  1
  Te  Te4  1  0.79603600  0.54603600  0.25000000  1
  Te  Te5  1  0.54603600  0.25000000  0.79603600  1
  Te  Te6  1  0.04603600  0.25000000  0.29603600  1
  Te  Te7  1  0.75000000  0.20396400  0.45396400  1
  Te  Te8  1  0.29603600  0.04603600  0.25000000  1
  Te  Te9  1  0.25000000  0.29603600  0.04603600  1
  Te  Te10  1  0.20396400  0.45396400  0.75000000  1
  Te  Te11  1  0.45396400  0.75000000  0.20396400  1
  Te  Te12  1  0.75000000  0.70396400  0.95396400  1
  Te  Te13  1  0.70396400  0.95396400  0.75000000  1
  Te  Te14  1  0.25000000  0.79603600  0.54603600  1
  Te  Te15  1  0.95396400  0.75000000  0.70396400  1
  O  O16  1  0.65636000  0.50000000  0.00000000  1
  O  O17  1  0.84364000  0.84364000  0.84364000  1
  O  O18  1  0.00000000  0.65636000  0.50000000  1
  O  O19  1  0.50000000  0.00000000  0.65636000  1
  O  O20  1  0.34364000  0.50000000  0.00000000  1
  O  O21  1  0.15636000  0.15636000  0.15636000  1
  O  O22  1  0.00000000  0.34364000  0.50000000  1
  O  O23  1  0.50000000  0.00000000  0.34364000  1
  O  O24  1  0.15790100  0.23022000  0.69564400  1
  O  O25  1  0.03457500  0.46225700  0.80435600  1
  O  O26  1  0.34209900  0.03774300  0.07231800  1
  O  O27  1  0.80435600  0.03457500  0.46225700  1
  O  O28  1  0.23022000  0.69564400  0.15790100  1
  O  O29  1  0.26978000  0.42768200  0.46542500  1
  O  O30  1  0.42768200  0.46542500  0.26978000  1
  O  O31  1  0.46225700  0.80435600  0.03457500  1
  O  O32  1  0.53457500  0.73022000  0.57231800  1
  O  O33  1  0.30435600  0.84209900  0.76978000  1
  O  O34  1  0.96225700  0.92768200  0.65790100  1
  O  O35  1  0.92768200  0.65790100  0.96225700  1
  O  O36  1  0.53774300  0.19564400  0.96542500  1
  O  O37  1  0.57231800  0.53457500  0.73022000  1
  O  O38  1  0.73022000  0.57231800  0.53457500  1
  O  O39  1  0.76978000  0.30435600  0.84209900  1
  O  O40  1  0.19564400  0.96542500  0.53774300  1
  O  O41  1  0.65790100  0.96225700  0.92768200  1
  O  O42  1  0.96542500  0.53774300  0.19564400  1
  O  O43  1  0.84209900  0.76978000  0.30435600  1
  O  O44  1  0.46542500  0.26978000  0.42768200  1
  O  O45  1  0.69564400  0.15790100  0.23022000  1
  O  O46  1  0.03774300  0.07231800  0.34209900  1
  O  O47  1  0.07231800  0.34209900  0.03774300  1
