# generated using pymatgen
data_V2Ni3O8
_symmetry_space_group_name_H-M   'P 1'
_cell_length_a   6.00482700
_cell_length_b   6.50798391
_cell_length_c   8.35516400
_cell_angle_alpha   90.00000000
_cell_angle_beta   90.00000000
_cell_angle_gamma   62.52618544
_symmetry_Int_Tables_number   1
_chemical_formula_structural   V2Ni3O8
_chemical_formula_sum   'V4 Ni6 O16'
_cell_volume   289.69042349
_cell_formula_units_Z   2
loop_
 _symmetry_equiv_pos_site_id
 _symmetry_equiv_pos_as_xyz
  1  'x, y, z'
loop_
 _atom_site_type_symbol
 _atom_site_label
 _atom_site_symmetry_multiplicity
 _atom_site_fract_x
 _atom_site_fract_y
 _atom_site_fract_z
 _atom_site_occupancy
  V  V0  1  0.12343300  0.75313500  0.61887600  1
  V  V1  1  0.87656700  0.24686500  0.38112400  1
  V  V2  1  0.37656700  0.24686500  0.11887600  1
  V  V3  1  0.62343300  0.75313500  0.88112400  1
  Ni  Ni4  1  0.50000000  0.00000000  0.50000000  1
  Ni  Ni5  1  0.00000000  0.00000000  0.00000000  1
  Ni  Ni6  1  0.11943100  0.26113700  0.75000000  1
  Ni  Ni7  1  0.38056900  0.73886300  0.25000000  1
  Ni  Ni8  1  0.88056900  0.73886300  0.25000000  1
  Ni  Ni9  1  0.61943100  0.26113700  0.75000000  1
  O  O10  1  0.49970600  0.00058900  0.74474900  1
  O  O11  1  0.50029400  0.99941100  0.25525100  1
  O  O12  1  0.99970600  0.00058900  0.75525100  1
  O  O13  1  0.00029400  0.99941100  0.24474900  1
  O  O14  1  0.75177900  0.49644300  0.77083100  1
  O  O15  1  0.24822100  0.50355700  0.22916900  1
  O  O16  1  0.74822100  0.50355700  0.27083100  1
  O  O17  1  0.25177900  0.49644300  0.72916900  1
  O  O18  1  0.35255300  0.76346200  0.49840400  1
  O  O19  1  0.11601600  0.23653800  0.50159600  1
  O  O20  1  0.14744700  0.23653800  0.99840400  1
  O  O21  1  0.38398400  0.76346200  0.00159600  1
  O  O22  1  0.64744700  0.23653800  0.50159600  1
  O  O23  1  0.88398400  0.76346200  0.49840400  1
  O  O24  1  0.85255300  0.76346200  0.00159600  1
  O  O25  1  0.61601600  0.23653800  0.99840400  1
