# generated using pymatgen
data_Ti7Br16
_symmetry_space_group_name_H-M   'P 1'
_cell_length_a   7.27996300
_cell_length_b   10.66684400
_cell_length_c   15.47374000
_cell_angle_alpha   90.00000000
_cell_angle_beta   90.00000000
_cell_angle_gamma   90.00000000
_symmetry_Int_Tables_number   1
_chemical_formula_structural   Ti7Br16
_chemical_formula_sum   'Ti14 Br32'
_cell_volume   1201.60135945
_cell_formula_units_Z   2
loop_
 _symmetry_equiv_pos_site_id
 _symmetry_equiv_pos_as_xyz
  1  'x, y, z'
loop_
 _atom_site_type_symbol
 _atom_site_label
 _atom_site_symmetry_multiplicity
 _atom_site_fract_x
 _atom_site_fract_y
 _atom_site_fract_z
 _atom_site_occupancy
  Ti  Ti0  1  0.00000000  0.00000000  0.00000000  1
  Ti  Ti1  1  0.50000000  0.50000000  0.50000000  1
  Ti  Ti2  1  0.50000000  0.54003700  0.76401200  1
  Ti  Ti3  1  0.50000000  0.45996300  0.23598800  1
  Ti  Ti4  1  0.00000000  0.04003700  0.73598800  1
  Ti  Ti5  1  0.00000000  0.95996300  0.26401200  1
  Ti  Ti6  1  0.69753600  0.74305500  0.86085300  1
  Ti  Ti7  1  0.69753600  0.25694500  0.13914700  1
  Ti  Ti8  1  0.80246400  0.24305500  0.63914700  1
  Ti  Ti9  1  0.80246400  0.75694500  0.36085300  1
  Ti  Ti10  1  0.30246400  0.25694500  0.13914700  1
  Ti  Ti11  1  0.30246400  0.74305500  0.86085300  1
  Ti  Ti12  1  0.19753600  0.75694500  0.36085300  1
  Ti  Ti13  1  0.19753600  0.24305500  0.63914700  1
  Br  Br14  1  0.00000000  0.75790800  0.98064400  1
  Br  Br15  1  0.00000000  0.24209200  0.01935600  1
  Br  Br16  1  0.50000000  0.25790800  0.51935600  1
  Br  Br17  1  0.50000000  0.74209200  0.48064400  1
  Br  Br18  1  0.50000000  0.75629900  0.99254100  1
  Br  Br19  1  0.50000000  0.24370100  0.00745900  1
  Br  Br20  1  0.00000000  0.25629900  0.50745900  1
  Br  Br21  1  0.00000000  0.74370100  0.49254100  1
  Br  Br22  1  0.00000000  0.77295200  0.75243800  1
  Br  Br23  1  0.00000000  0.22704800  0.24756200  1
  Br  Br24  1  0.50000000  0.27295200  0.74756200  1
  Br  Br25  1  0.50000000  0.72704800  0.25243800  1
  Br  Br26  1  0.50000000  0.76995000  0.72683300  1
  Br  Br27  1  0.50000000  0.23005000  0.27316700  1
  Br  Br28  1  0.00000000  0.26995000  0.77316700  1
  Br  Br29  1  0.00000000  0.73005000  0.22683300  1
  Br  Br30  1  0.75290600  0.00337400  0.87122400  1
  Br  Br31  1  0.75290600  0.99662600  0.12877600  1
  Br  Br32  1  0.74709400  0.50337400  0.62877600  1
  Br  Br33  1  0.74709400  0.49662600  0.37122400  1
  Br  Br34  1  0.24709400  0.99662600  0.12877600  1
  Br  Br35  1  0.24709400  0.00337400  0.87122400  1
  Br  Br36  1  0.25290600  0.49662600  0.37122400  1
  Br  Br37  1  0.25290600  0.50337400  0.62877600  1
  Br  Br38  1  0.74958000  0.51180000  0.87403100  1
  Br  Br39  1  0.74958000  0.48820000  0.12596900  1
  Br  Br40  1  0.75042000  0.01180000  0.62596900  1
  Br  Br41  1  0.75042000  0.98820000  0.37403100  1
  Br  Br42  1  0.25042000  0.48820000  0.12596900  1
  Br  Br43  1  0.25042000  0.51180000  0.87403100  1
  Br  Br44  1  0.24958000  0.98820000  0.37403100  1
  Br  Br45  1  0.24958000  0.01180000  0.62596900  1
