# generated using pymatgen
data_Na3ErV2O8
_symmetry_space_group_name_H-M   'P 1'
_cell_length_a   9.84849100
_cell_length_b   5.57486900
_cell_length_c   8.92308798
_cell_angle_alpha   54.60323646
_cell_angle_beta   90.00000000
_cell_angle_gamma   90.00000000
_symmetry_Int_Tables_number   1
_chemical_formula_structural   Na3ErV2O8
_chemical_formula_sum   'Na6 Er2 V4 O16'
_cell_volume   399.35825822
_cell_formula_units_Z   2
loop_
 _symmetry_equiv_pos_site_id
 _symmetry_equiv_pos_as_xyz
  1  'x, y, z'
loop_
 _atom_site_type_symbol
 _atom_site_label
 _atom_site_symmetry_multiplicity
 _atom_site_fract_x
 _atom_site_fract_y
 _atom_site_fract_z
 _atom_site_occupancy
  Na  Na0  1  0.14290900  0.30152000  0.70811500  1
  Na  Na1  1  0.50000000  0.00000000  0.00000000  1
  Na  Na2  1  0.64290900  0.69848000  0.79188500  1
  Na  Na3  1  0.85709100  0.69848000  0.29188500  1
  Na  Na4  1  0.35709100  0.30152000  0.20811500  1
  Na  Na5  1  0.00000000  0.00000000  0.50000000  1
  Er  Er6  1  0.00000000  0.50000000  0.00000000  1
  Er  Er7  1  0.50000000  0.50000000  0.50000000  1
  V  V8  1  0.68226800  0.20586200  0.27699300  1
  V  V9  1  0.18226800  0.79413800  0.22300700  1
  V  V10  1  0.31773200  0.79413800  0.72300700  1
  V  V11  1  0.81773200  0.20586200  0.77699300  1
  O  O12  1  0.63088500  0.86001100  0.46816800  1
  O  O13  1  0.36911500  0.13998900  0.53183200  1
  O  O14  1  0.40173900  0.73186800  0.90815400  1
  O  O15  1  0.13088500  0.13998900  0.03183200  1
  O  O16  1  0.86364100  0.48513300  0.80400900  1
  O  O17  1  0.64106600  0.19865200  0.74057500  1
  O  O18  1  0.86911500  0.86001100  0.96816800  1
  O  O19  1  0.90173900  0.26813200  0.59184600  1
  O  O20  1  0.59826100  0.26813200  0.09184600  1
  O  O21  1  0.14106600  0.80134800  0.75942500  1
  O  O22  1  0.09826100  0.73186800  0.40815400  1
  O  O23  1  0.63635900  0.48513300  0.30400900  1
  O  O24  1  0.13635900  0.51486700  0.19599100  1
  O  O25  1  0.36364100  0.51486700  0.69599100  1
  O  O26  1  0.35893400  0.80134800  0.25942500  1
  O  O27  1  0.85893400  0.19865200  0.24057500  1
