# generated using pymatgen
data_Mn13Al4Si2(SbO14)2
_symmetry_space_group_name_H-M   'P 1'
_cell_length_a   11.96960772
_cell_length_b   11.96960772
_cell_length_c   9.20199800
_cell_angle_alpha   87.46637923
_cell_angle_beta   87.46637923
_cell_angle_gamma   152.66747169
_symmetry_Int_Tables_number   1
_chemical_formula_structural   Mn13Al4Si2(SbO14)2
_chemical_formula_sum   'Mn13 Al4 Si2 Sb2 O28'
_cell_volume   594.65139936
_cell_formula_units_Z   1
loop_
 _symmetry_equiv_pos_site_id
 _symmetry_equiv_pos_as_xyz
  1  'x, y, z'
loop_
 _atom_site_type_symbol
 _atom_site_label
 _atom_site_symmetry_multiplicity
 _atom_site_fract_x
 _atom_site_fract_y
 _atom_site_fract_z
 _atom_site_occupancy
  Mn  Mn0  1  0.93004400  0.63692800  0.64395700  1
  Mn  Mn1  1  0.65239700  0.79306800  0.34901800  1
  Mn  Mn2  1  0.36307200  0.06995600  0.35604300  1
  Mn  Mn3  1  0.06995600  0.36307200  0.35604300  1
  Mn  Mn4  1  0.34760300  0.20693200  0.65098200  1
  Mn  Mn5  1  0.28686100  0.71313900  0.00000000  1
  Mn  Mn6  1  0.20693200  0.34760300  0.65098200  1
  Mn  Mn7  1  0.00000000  0.00000000  0.00000000  1
  Mn  Mn8  1  0.42731900  0.57268100  0.00000000  1
  Mn  Mn9  1  0.79306800  0.65239700  0.34901800  1
  Mn  Mn10  1  0.63692800  0.93004400  0.64395700  1
  Mn  Mn11  1  0.57268100  0.42731900  0.00000000  1
  Mn  Mn12  1  0.71313900  0.28686100  0.00000000  1
  Al  Al13  1  0.04804600  0.47830900  0.68135800  1
  Al  Al14  1  0.52169100  0.95195400  0.31864200  1
  Al  Al15  1  0.95195400  0.52169100  0.31864200  1
  Al  Al16  1  0.47830900  0.04804600  0.68135800  1
  Si  Si17  1  0.23552300  0.23552300  0.31056500  1
  Si  Si18  1  0.76447700  0.76447700  0.68943500  1
  Sb  Sb19  1  0.85892900  0.14107100  0.00000000  1
  Sb  Sb20  1  0.14107100  0.85892900  0.00000000  1
  O  O21  1  0.67572000  0.97982100  0.40067700  1
  O  O22  1  0.19319500  0.64475700  0.35281100  1
  O  O23  1  0.94182400  0.94182400  0.35084800  1
  O  O24  1  0.31391200  0.31391200  0.12820700  1
  O  O25  1  0.80680500  0.35524300  0.64718900  1
  O  O26  1  0.32428000  0.02017900  0.59932300  1
  O  O27  1  0.01863400  0.60381400  0.11834300  1
  O  O28  1  0.98136600  0.39618600  0.88165700  1
  O  O29  1  0.68608800  0.68608800  0.87179300  1
  O  O30  1  0.11581700  0.27156800  0.88514700  1
  O  O31  1  0.28583300  0.40304300  0.37942300  1
  O  O32  1  0.02017900  0.32428000  0.59932300  1
  O  O33  1  0.39618600  0.98136600  0.88165700  1
  O  O34  1  0.72843200  0.88418300  0.11485300  1
  O  O35  1  0.59695700  0.71416700  0.62057700  1
  O  O36  1  0.05817600  0.05817600  0.64915200  1
  O  O37  1  0.27156800  0.11581700  0.88514700  1
  O  O38  1  0.88418300  0.72843200  0.11485300  1
  O  O39  1  0.60381400  0.01863400  0.11834300  1
  O  O40  1  0.11736100  0.40812100  0.12022000  1
  O  O41  1  0.88263900  0.59187900  0.87978000  1
  O  O42  1  0.40304300  0.28583300  0.37942300  1
  O  O43  1  0.40812100  0.11736100  0.12022000  1
  O  O44  1  0.64475700  0.19319500  0.35281100  1
  O  O45  1  0.71416700  0.59695700  0.62057700  1
  O  O46  1  0.59187900  0.88263900  0.87978000  1
  O  O47  1  0.97982100  0.67572000  0.40067700  1
  O  O48  1  0.35524300  0.80680500  0.64718900  1
