# generated using pymatgen
data_CsBiS2
_symmetry_space_group_name_H-M   'P 1'
_cell_length_a   9.59480800
_cell_length_b   7.51693100
_cell_length_c   8.19266445
_cell_angle_alpha   76.71231916
_cell_angle_beta   90.00000000
_cell_angle_gamma   90.00000000
_symmetry_Int_Tables_number   1
_chemical_formula_structural   CsBiS2
_chemical_formula_sum   'Cs4 Bi4 S8'
_cell_volume   575.06475992
_cell_formula_units_Z   4
loop_
 _symmetry_equiv_pos_site_id
 _symmetry_equiv_pos_as_xyz
  1  'x, y, z'
loop_
 _atom_site_type_symbol
 _atom_site_label
 _atom_site_symmetry_multiplicity
 _atom_site_fract_x
 _atom_site_fract_y
 _atom_site_fract_z
 _atom_site_occupancy
  Cs  Cs0  1  0.43148100  0.78897200  0.86747100  1
  Cs  Cs1  1  0.93148100  0.71102800  0.13252900  1
  Cs  Cs2  1  0.56851900  0.21102800  0.13252900  1
  Cs  Cs3  1  0.06851900  0.28897200  0.86747100  1
  Bi  Bi4  1  0.16643300  0.13725100  0.41114500  1
  Bi  Bi5  1  0.66643300  0.36274900  0.58885500  1
  Bi  Bi6  1  0.83356700  0.86274900  0.58885500  1
  Bi  Bi7  1  0.33356700  0.63725100  0.41114500  1
  S  S8  1  0.25437000  0.46023600  0.19273000  1
  S  S9  1  0.75437000  0.03976400  0.80727000  1
  S  S10  1  0.74563000  0.53976400  0.80727000  1
  S  S11  1  0.24563000  0.96023600  0.19273000  1
  S  S12  1  0.90871100  0.19379800  0.32963400  1
  S  S13  1  0.40871100  0.30620200  0.67036600  1
  S  S14  1  0.09128900  0.80620200  0.67036600  1
  S  S15  1  0.59128900  0.69379800  0.32963400  1
