# generated using pymatgen
data_TeF4
_symmetry_space_group_name_H-M   'P 1'
_cell_length_a   5.57553300
_cell_length_b   6.22214700
_cell_length_c   9.83374300
_cell_angle_alpha   90.00000000
_cell_angle_beta   90.00000000
_cell_angle_gamma   90.00000000
_symmetry_Int_Tables_number   1
_chemical_formula_structural   TeF4
_chemical_formula_sum   'Te4 F16'
_cell_volume   341.15010704
_cell_formula_units_Z   4
loop_
 _symmetry_equiv_pos_site_id
 _symmetry_equiv_pos_as_xyz
  1  'x, y, z'
loop_
 _atom_site_type_symbol
 _atom_site_label
 _atom_site_symmetry_multiplicity
 _atom_site_fract_x
 _atom_site_fract_y
 _atom_site_fract_z
 _atom_site_occupancy
  Te  Te0  1  0.15430100  0.99570500  0.62470900  1
  Te  Te1  1  0.34569900  0.00429500  0.12470900  1
  Te  Te2  1  0.65430100  0.50429500  0.37529100  1
  Te  Te3  1  0.84569900  0.49570500  0.87529100  1
  F  F4  1  0.70074600  0.23769200  0.94584800  1
  F  F5  1  0.08520000  0.84330600  0.04385100  1
  F  F6  1  0.58520000  0.65669400  0.95614900  1
  F  F7  1  0.43770100  0.71393100  0.25001600  1
  F  F8  1  0.14056800  0.03546000  0.27529700  1
  F  F9  1  0.35943200  0.96454000  0.77529700  1
  F  F10  1  0.64056800  0.46454000  0.72470300  1
  F  F11  1  0.41480000  0.15669400  0.54385100  1
  F  F12  1  0.06229900  0.28606900  0.75001600  1
  F  F13  1  0.85943200  0.53546000  0.22470300  1
  F  F14  1  0.91480000  0.34330600  0.45614900  1
  F  F15  1  0.29925400  0.73769200  0.55415200  1
  F  F16  1  0.56229900  0.21393100  0.24998400  1
  F  F17  1  0.79925400  0.76230800  0.44584800  1
  F  F18  1  0.93770100  0.78606900  0.74998400  1
  F  F19  1  0.20074600  0.26230800  0.05415200  1
