# generated using pymatgen
data_KV(IO4)2
_symmetry_space_group_name_H-M   'P 1'
_cell_length_a   5.30849200
_cell_length_b   9.79297200
_cell_length_c   16.48693992
_cell_angle_alpha   69.22278719
_cell_angle_beta   90.00000000
_cell_angle_gamma   90.00000000
_symmetry_Int_Tables_number   1
_chemical_formula_structural   KV(IO4)2
_chemical_formula_sum   'K4 V4 I8 O32'
_cell_volume   801.34944452
_cell_formula_units_Z   4
loop_
 _symmetry_equiv_pos_site_id
 _symmetry_equiv_pos_as_xyz
  1  'x, y, z'
loop_
 _atom_site_type_symbol
 _atom_site_label
 _atom_site_symmetry_multiplicity
 _atom_site_fract_x
 _atom_site_fract_y
 _atom_site_fract_z
 _atom_site_occupancy
  K  K0  1  0.22722100  0.91388700  0.90968800  1
  K  K1  1  0.77277900  0.08611300  0.09031200  1
  K  K2  1  0.72722100  0.08611300  0.59031200  1
  K  K3  1  0.27277900  0.91388700  0.40968800  1
  V  V4  1  0.22009500  0.30082500  0.68593900  1
  V  V5  1  0.77990500  0.69917500  0.31406100  1
  V  V6  1  0.72009500  0.69917500  0.81406100  1
  V  V7  1  0.27990500  0.30082500  0.18593900  1
  I  I8  1  0.32605300  0.43808500  0.42854400  1
  I  I9  1  0.17394700  0.43808500  0.92854400  1
  I  I10  1  0.22497800  0.77407300  0.67991700  1
  I  I11  1  0.77502200  0.22592700  0.32008300  1
  I  I12  1  0.82605300  0.56191500  0.07145600  1
  I  I13  1  0.67394700  0.56191500  0.57145600  1
  I  I14  1  0.27502200  0.77407300  0.17991700  1
  I  I15  1  0.72497800  0.22592700  0.82008300  1
  O  O16  1  0.76123600  0.07424700  0.42114900  1
  O  O17  1  0.68073900  0.73551300  0.90461100  1
  O  O18  1  0.05303600  0.15628000  0.27670500  1
  O  O19  1  0.26123600  0.92575300  0.07885100  1
  O  O20  1  0.31889800  0.30206300  0.37617400  1
  O  O21  1  0.94286500  0.54787400  0.32335600  1
  O  O22  1  0.46505800  0.83952700  0.74108400  1
  O  O23  1  0.03494200  0.83952700  0.24108400  1
  O  O24  1  0.55417500  0.39605500  0.66484700  1
  O  O25  1  0.44286500  0.45212600  0.17664400  1
  O  O26  1  0.44582500  0.60394500  0.33515300  1
  O  O27  1  0.53494200  0.16047300  0.25891600  1
  O  O28  1  0.81926100  0.73551300  0.40461100  1
  O  O29  1  0.55713500  0.54787400  0.82335600  1
  O  O30  1  0.12832100  0.61674000  0.01550100  1
  O  O31  1  0.18110200  0.30206300  0.87617400  1
  O  O32  1  0.62832100  0.38326000  0.48449900  1
  O  O33  1  0.94582500  0.39605500  0.16484700  1
  O  O34  1  0.96505800  0.16047300  0.75891600  1
  O  O35  1  0.87167900  0.38326000  0.98449900  1
  O  O36  1  0.23876400  0.92575300  0.57885100  1
  O  O37  1  0.68110200  0.69793700  0.62382600  1
  O  O38  1  0.05417500  0.60394500  0.83515300  1
  O  O39  1  0.94696400  0.84372000  0.72329500  1
  O  O40  1  0.31926100  0.26448700  0.09538900  1
  O  O41  1  0.37167900  0.61674000  0.51550100  1
  O  O42  1  0.81889800  0.69793700  0.12382600  1
  O  O43  1  0.73876400  0.07424700  0.92114900  1
  O  O44  1  0.44696400  0.15628000  0.77670500  1
  O  O45  1  0.05713500  0.45212600  0.67664400  1
  O  O46  1  0.55303600  0.84372000  0.22329500  1
  O  O47  1  0.18073900  0.26448700  0.59538900  1
