# generated using pymatgen
data_TlZn(PO3)3
_symmetry_space_group_name_H-M   'P 1'
_cell_length_a   5.22583500
_cell_length_b   12.11874400
_cell_length_c   13.15465600
_cell_angle_alpha   90.00000000
_cell_angle_beta   90.00000000
_cell_angle_gamma   90.00000000
_symmetry_Int_Tables_number   1
_chemical_formula_structural   TlZn(PO3)3
_chemical_formula_sum   'Tl4 Zn4 P12 O36'
_cell_volume   833.09168572
_cell_formula_units_Z   4
loop_
 _symmetry_equiv_pos_site_id
 _symmetry_equiv_pos_as_xyz
  1  'x, y, z'
loop_
 _atom_site_type_symbol
 _atom_site_label
 _atom_site_symmetry_multiplicity
 _atom_site_fract_x
 _atom_site_fract_y
 _atom_site_fract_z
 _atom_site_occupancy
  Tl  Tl0  1  0.07879900  0.14085200  0.25000000  1
  Tl  Tl1  1  0.92120100  0.85914800  0.75000000  1
  Tl  Tl2  1  0.07879900  0.35914800  0.75000000  1
  Tl  Tl3  1  0.92120100  0.64085200  0.25000000  1
  Zn  Zn4  1  0.00000000  0.00000000  0.00000000  1
  Zn  Zn5  1  0.00000000  0.50000000  0.50000000  1
  Zn  Zn6  1  0.00000000  0.00000000  0.50000000  1
  Zn  Zn7  1  0.00000000  0.50000000  0.00000000  1
  P  P8  1  0.51021000  0.91554800  0.13469600  1
  P  P9  1  0.48979000  0.08445200  0.63469600  1
  P  P10  1  0.51021000  0.58445200  0.86530400  1
  P  P11  1  0.25049500  0.75000000  0.00000000  1
  P  P12  1  0.51021000  0.91554800  0.36530400  1
  P  P13  1  0.48979000  0.41554800  0.36530400  1
  P  P14  1  0.25049500  0.75000000  0.50000000  1
  P  P15  1  0.74950500  0.25000000  0.50000000  1
  P  P16  1  0.48979000  0.41554800  0.13469600  1
  P  P17  1  0.51021000  0.58445200  0.63469600  1
  P  P18  1  0.48979000  0.08445200  0.86530400  1
  P  P19  1  0.74950500  0.25000000  0.00000000  1
  O  O20  1  0.55069900  0.29759000  0.41738900  1
  O  O21  1  0.55069900  0.29759000  0.08261100  1
  O  O22  1  0.79197300  0.93733000  0.37388100  1
  O  O23  1  0.44930100  0.79759000  0.41738900  1
  O  O24  1  0.32314700  0.00288900  0.39889900  1
  O  O25  1  0.44930100  0.70241000  0.91738900  1
  O  O26  1  0.55069900  0.20241000  0.58261100  1
  O  O27  1  0.10459400  0.65759200  0.04940400  1
  O  O28  1  0.32314700  0.49711100  0.89889900  1
  O  O29  1  0.55706000  0.37934500  0.25000000  1
  O  O30  1  0.67685300  0.50288900  0.39889900  1
  O  O31  1  0.44294000  0.62065500  0.75000000  1
  O  O32  1  0.79197300  0.56267000  0.62611900  1
  O  O33  1  0.67685300  0.99711100  0.89889900  1
  O  O34  1  0.20802700  0.43733000  0.12611900  1
  O  O35  1  0.10459400  0.65759200  0.45059600  1
  O  O36  1  0.44294000  0.87934500  0.25000000  1
  O  O37  1  0.67685300  0.99711100  0.60110100  1
  O  O38  1  0.10459400  0.84240800  0.95059600  1
  O  O39  1  0.44930100  0.70241000  0.58261100  1
  O  O40  1  0.20802700  0.06267000  0.62611900  1
  O  O41  1  0.32314700  0.00288900  0.10110100  1
  O  O42  1  0.67685300  0.50288900  0.10110100  1
  O  O43  1  0.20802700  0.06267000  0.87388100  1
  O  O44  1  0.20802700  0.43733000  0.37388100  1
  O  O45  1  0.89540600  0.15759200  0.45059600  1
  O  O46  1  0.79197300  0.56267000  0.87388100  1
  O  O47  1  0.55706000  0.12065500  0.75000000  1
  O  O48  1  0.10459400  0.84240800  0.54940400  1
  O  O49  1  0.32314700  0.49711100  0.60110100  1
  O  O50  1  0.89540600  0.15759200  0.04940400  1
  O  O51  1  0.55069900  0.20241000  0.91738900  1
  O  O52  1  0.79197300  0.93733000  0.12611900  1
  O  O53  1  0.89540600  0.34240800  0.95059600  1
  O  O54  1  0.89540600  0.34240800  0.54940400  1
  O  O55  1  0.44930100  0.79759000  0.08261100  1
