# generated using pymatgen
data_Mo2NCl7
_symmetry_space_group_name_H-M   'P 1'
_cell_length_a   9.49019500
_cell_length_b   10.17152311
_cell_length_c   13.72531757
_cell_angle_alpha   101.99526782
_cell_angle_beta   107.77263443
_cell_angle_gamma   102.24229282
_symmetry_Int_Tables_number   1
_chemical_formula_structural   Mo2NCl7
_chemical_formula_sum   'Mo8 N4 Cl28'
_cell_volume   1178.91442051
_cell_formula_units_Z   4
loop_
 _symmetry_equiv_pos_site_id
 _symmetry_equiv_pos_as_xyz
  1  'x, y, z'
loop_
 _atom_site_type_symbol
 _atom_site_label
 _atom_site_symmetry_multiplicity
 _atom_site_fract_x
 _atom_site_fract_y
 _atom_site_fract_z
 _atom_site_occupancy
  Mo  Mo0  1  0.06201000  0.93800700  0.73139200  1
  Mo  Mo1  1  0.93799000  0.06199300  0.26860800  1
  Mo  Mo2  1  0.84729700  0.57186200  0.67915000  1
  Mo  Mo3  1  0.15270300  0.42813800  0.32085000  1
  Mo  Mo4  1  0.61517600  0.40028400  0.81727600  1
  Mo  Mo5  1  0.38482400  0.59971600  0.18272400  1
  Mo  Mo6  1  0.46940200  0.10865700  0.76900000  1
  Mo  Mo7  1  0.53059800  0.89134300  0.23100000  1
  N  N8  1  0.25335000  0.01345100  0.75307000  1
  N  N9  1  0.74665000  0.98654900  0.24693000  1
  N  N10  1  0.74401200  0.49554900  0.74695900  1
  N  N11  1  0.25598800  0.50445100  0.25304100  1
  Cl  Cl12  1  0.94826100  0.04961100  0.61722400  1
  Cl  Cl13  1  0.05173900  0.95038900  0.38277600  1
  Cl  Cl14  1  0.04974100  0.07013900  0.88389500  1
  Cl  Cl15  1  0.95025900  0.92986100  0.11610500  1
  Cl  Cl16  1  0.02669000  0.73503900  0.59113000  1
  Cl  Cl17  1  0.97331000  0.26496100  0.40887000  1
  Cl  Cl18  1  0.07797300  0.75598000  0.83325000  1
  Cl  Cl19  1  0.92202700  0.24402000  0.16675000  1
  Cl  Cl20  1  0.75515400  0.77358900  0.69017400  1
  Cl  Cl21  1  0.24484600  0.22641100  0.30982600  1
  Cl  Cl22  1  0.02050300  0.44433100  0.69043800  1
  Cl  Cl23  1  0.97949700  0.55566900  0.30956200  1
  Cl  Cl24  1  0.68517800  0.45751900  0.50834200  1
  Cl  Cl25  1  0.31482200  0.54248100  0.49165800  1
  Cl  Cl26  1  0.50027700  0.57728600  0.81346500  1
  Cl  Cl27  1  0.49972300  0.42271400  0.18653500  1
  Cl  Cl28  1  0.80154400  0.49148500  0.98386900  1
  Cl  Cl29  1  0.19845600  0.50851500  0.01613100  1
  Cl  Cl30  1  0.72883000  0.21469600  0.76823200  1
  Cl  Cl31  1  0.27117000  0.78530400  0.23176800  1
  Cl  Cl32  1  0.39433800  0.25611900  0.64774800  1
  Cl  Cl33  1  0.60566200  0.74388100  0.35225200  1
  Cl  Cl34  1  0.43531700  0.29315100  0.89697800  1
  Cl  Cl35  1  0.56468300  0.70684900  0.10302200  1
  Cl  Cl36  1  0.42804200  0.93490600  0.61792200  1
  Cl  Cl37  1  0.57195800  0.06509400  0.38207800  1
  Cl  Cl38  1  0.58178100  0.01331900  0.89681800  1
  Cl  Cl39  1  0.41821900  0.98668100  0.10318200  1
