# generated using pymatgen
data_Ag4PIO4
_symmetry_space_group_name_H-M   'P 1'
_cell_length_a   6.92830800
_cell_length_b   9.31627100
_cell_length_c   11.31477650
_cell_angle_alpha   71.47942085
_cell_angle_beta   90.00000000
_cell_angle_gamma   90.00000000
_symmetry_Int_Tables_number   1
_chemical_formula_structural   Ag4PIO4
_chemical_formula_sum   'Ag16 P4 I4 O16'
_cell_volume   692.49977916
_cell_formula_units_Z   4
loop_
 _symmetry_equiv_pos_site_id
 _symmetry_equiv_pos_as_xyz
  1  'x, y, z'
loop_
 _atom_site_type_symbol
 _atom_site_label
 _atom_site_symmetry_multiplicity
 _atom_site_fract_x
 _atom_site_fract_y
 _atom_site_fract_z
 _atom_site_occupancy
  Ag  Ag0  1  0.03586700  0.35642600  0.92425300  1
  Ag  Ag1  1  0.53785600  0.99439200  0.78154100  1
  Ag  Ag2  1  0.75000000  0.62083300  0.30766400  1
  Ag  Ag3  1  0.03785600  0.00560800  0.21845900  1
  Ag  Ag4  1  0.53586700  0.64357400  0.07574700  1
  Ag  Ag5  1  0.46214400  0.00560800  0.21845900  1
  Ag  Ag6  1  0.25000000  0.37916700  0.69233600  1
  Ag  Ag7  1  0.01821600  0.29000100  0.46024000  1
  Ag  Ag8  1  0.46413300  0.35642600  0.92425300  1
  Ag  Ag9  1  0.48178400  0.29000100  0.46024000  1
  Ag  Ag10  1  0.96413300  0.64357400  0.07574700  1
  Ag  Ag11  1  0.96214400  0.99439200  0.78154100  1
  Ag  Ag12  1  0.25000000  0.31417100  0.21955100  1
  Ag  Ag13  1  0.98178400  0.70999900  0.53976000  1
  Ag  Ag14  1  0.75000000  0.68582900  0.78044900  1
  Ag  Ag15  1  0.51821600  0.70999900  0.53976000  1
  P  P16  1  0.25000000  0.63657100  0.32352100  1
  P  P17  1  0.75000000  0.36342900  0.67647900  1
  P  P18  1  0.25000000  0.69299100  0.79873100  1
  P  P19  1  0.75000000  0.30700900  0.20126900  1
  I  I20  1  0.75000000  0.94790300  0.57042700  1
  I  I21  1  0.25000000  0.09560200  0.97600100  1
  I  I22  1  0.75000000  0.90439800  0.02399900  1
  I  I23  1  0.25000000  0.05209700  0.42957300  1
  O  O24  1  0.43502800  0.62324900  0.87525100  1
  O  O25  1  0.25000000  0.49398400  0.44160600  1
  O  O26  1  0.75000000  0.35085300  0.32476600  1
  O  O27  1  0.25000000  0.86760300  0.77008200  1
  O  O28  1  0.25000000  0.64914700  0.67523400  1
  O  O29  1  0.93612900  0.26670600  0.67434500  1
  O  O30  1  0.75000000  0.13239700  0.22991800  1
  O  O31  1  0.56497200  0.37675100  0.12474900  1
  O  O32  1  0.06497200  0.62324900  0.87525100  1
  O  O33  1  0.75000000  0.40825900  0.79882200  1
  O  O34  1  0.25000000  0.59174100  0.20117800  1
  O  O35  1  0.93502800  0.37675100  0.12474900  1
  O  O36  1  0.43612900  0.73329400  0.32565500  1
  O  O37  1  0.75000000  0.50601600  0.55839400  1
  O  O38  1  0.56387100  0.26670600  0.67434500  1
  O  O39  1  0.06387100  0.73329400  0.32565500  1
