# generated using pymatgen
data_K2Hg(PSe3)2
_symmetry_space_group_name_H-M   'P 1'
_cell_length_a   7.44604500
_cell_length_b   13.31263700
_cell_length_c   14.59300517
_cell_angle_alpha   69.57044265
_cell_angle_beta   90.00000000
_cell_angle_gamma   90.00000000
_symmetry_Int_Tables_number   1
_chemical_formula_structural   K2Hg(PSe3)2
_chemical_formula_sum   'K8 Hg4 P8 Se24'
_cell_volume   1355.56818986
_cell_formula_units_Z   4
loop_
 _symmetry_equiv_pos_site_id
 _symmetry_equiv_pos_as_xyz
  1  'x, y, z'
loop_
 _atom_site_type_symbol
 _atom_site_label
 _atom_site_symmetry_multiplicity
 _atom_site_fract_x
 _atom_site_fract_y
 _atom_site_fract_z
 _atom_site_occupancy
  K  K0  1  0.55397100  0.40064700  0.21581700  1
  K  K1  1  0.96002900  0.09799500  0.62056800  1
  K  K2  1  0.94602900  0.40064700  0.71581700  1
  K  K3  1  0.03997100  0.90200500  0.37943200  1
  K  K4  1  0.05397100  0.59935300  0.28418300  1
  K  K5  1  0.44602900  0.59935300  0.78418300  1
  K  K6  1  0.46002900  0.90200500  0.87943200  1
  K  K7  1  0.53997100  0.09799500  0.12056800  1
  Hg  Hg8  1  0.60803400  0.74240400  0.52206400  1
  Hg  Hg9  1  0.89196600  0.74240400  0.02206400  1
  Hg  Hg10  1  0.39196600  0.25759600  0.47793600  1
  Hg  Hg11  1  0.10803400  0.25759600  0.97793600  1
  P  P12  1  0.03748400  0.96078400  0.08247600  1
  P  P13  1  0.61208500  0.51846800  0.44054300  1
  P  P14  1  0.11208500  0.48153200  0.05945700  1
  P  P15  1  0.38791500  0.48153200  0.55945700  1
  P  P16  1  0.96251600  0.03921600  0.91752400  1
  P  P17  1  0.46251600  0.96078400  0.58247600  1
  P  P18  1  0.53748400  0.03921600  0.41752400  1
  P  P19  1  0.88791500  0.51846800  0.94054300  1
  Se  Se20  1  0.16864000  0.40222100  0.50199200  1
  Se  Se21  1  0.01104700  0.38305900  0.20141900  1
  Se  Se22  1  0.99071600  0.90995400  0.85451200  1
  Se  Se23  1  0.00928400  0.09004600  0.14548800  1
  Se  Se24  1  0.72022900  0.36003200  0.44554600  1
  Se  Se25  1  0.19806400  0.88827200  0.60208300  1
  Se  Se26  1  0.83136000  0.59777900  0.49800800  1
  Se  Se27  1  0.81545800  0.84285200  0.14785300  1
  Se  Se28  1  0.80193600  0.11172800  0.39791700  1
  Se  Se29  1  0.98895300  0.61694100  0.79858100  1
  Se  Se30  1  0.33136000  0.40222100  0.00199200  1
  Se  Se31  1  0.30193600  0.88827200  0.10208300  1
  Se  Se32  1  0.68454200  0.84285200  0.64785300  1
  Se  Se33  1  0.31545800  0.15714800  0.35214700  1
  Se  Se34  1  0.66864000  0.59777900  0.99800800  1
  Se  Se35  1  0.51104700  0.61694100  0.29858100  1
  Se  Se36  1  0.49071600  0.09004600  0.64548800  1
  Se  Se37  1  0.48895300  0.38305900  0.70141900  1
  Se  Se38  1  0.18454200  0.15714800  0.85214700  1
  Se  Se39  1  0.50928400  0.90995400  0.35451200  1
  Se  Se40  1  0.22022900  0.63996800  0.05445400  1
  Se  Se41  1  0.27977100  0.63996800  0.55445400  1
  Se  Se42  1  0.69806500  0.11172800  0.89791700  1
  Se  Se43  1  0.77977100  0.36003200  0.94554600  1
