# generated using pymatgen
data_Yb14MnSb11
_symmetry_space_group_name_H-M   'P 1'
_cell_length_a   16.14745604
_cell_length_b   16.14745680
_cell_length_c   16.14745594
_cell_angle_alpha   94.24658479
_cell_angle_beta   117.57927651
_cell_angle_gamma   117.57927686
_symmetry_Int_Tables_number   1
_chemical_formula_structural   Yb14MnSb11
_chemical_formula_sum   'Yb56 Mn4 Sb44'
_cell_volume   3076.91472666
_cell_formula_units_Z   4
loop_
 _symmetry_equiv_pos_site_id
 _symmetry_equiv_pos_as_xyz
  1  'x, y, z'
loop_
 _atom_site_type_symbol
 _atom_site_label
 _atom_site_symmetry_multiplicity
 _atom_site_fract_x
 _atom_site_fract_y
 _atom_site_fract_z
 _atom_site_occupancy
  Yb  Yb0  1  0.64417017  0.39417017  0.25000000  1
  Yb  Yb1  1  0.72951668  0.56673387  0.47720864  1
  Yb  Yb2  1  0.77048332  0.02279136  0.93326613  1
  Yb  Yb3  1  0.14417017  0.75000000  0.89417017  1
  Yb  Yb4  1  0.38323468  0.59819266  0.12913741  1
  Yb  Yb5  1  0.08952523  0.06673387  0.33721718  1
  Yb  Yb6  1  0.85398254  0.98013430  0.37765709  1
  Yb  Yb7  1  0.22951668  0.75230804  0.16278282  1
  Yb  Yb8  1  0.89752279  0.87384824  0.01986570  1
  Yb  Yb9  1  0.39752279  0.51986570  0.37384824  1
  Yb  Yb10  1  0.60247721  0.62234291  0.97632544  1
  Yb  Yb11  1  0.27048332  0.33721718  0.74769196  1
  Yb  Yb12  1  0.38323468  0.28504202  0.25409727  1
  Yb  Yb13  1  0.27048332  0.43326613  0.52279136  1
  Yb  Yb14  1  0.10247721  0.47632544  0.12234291  1
  Yb  Yb15  1  0.85582983  0.25000000  0.10582983  1
  Yb  Yb16  1  0.91047477  0.93326613  0.66278282  1
  Yb  Yb17  1  0.41047477  0.74769196  0.97720864  1
  Yb  Yb18  1  0.35582983  0.25000000  0.60582983  1
  Yb  Yb19  1  0.08952523  0.52279136  0.75230804  1
  Yb  Yb20  1  0.89752279  0.52367456  0.87765709  1
  Yb  Yb21  1  0.03094475  0.74590273  0.62913741  1
  Yb  Yb22  1  0.14601746  0.01986570  0.62234291  1
  Yb  Yb23  1  0.64601746  0.02367456  0.12615176  1
  Yb  Yb24  1  0.14417017  0.89417017  0.25000000  1
  Yb  Yb25  1  0.58952523  0.25230804  0.02279136  1
  Yb  Yb26  1  0.88323468  0.62913741  0.09819266  1
  Yb  Yb27  1  0.77048332  0.24769196  0.83721718  1
  Yb  Yb28  1  0.41047477  0.16278282  0.43326613  1
  Yb  Yb29  1  0.39752279  0.37765709  0.02367456  1
  Yb  Yb30  1  0.03094475  0.78504202  0.40180734  1
  Yb  Yb31  1  0.14601746  0.62615176  0.52367456  1
  Yb  Yb32  1  0.58952523  0.83721718  0.56673387  1
  Yb  Yb33  1  0.85398254  0.37384824  0.47632544  1
  Yb  Yb34  1  0.64417017  0.75000000  0.39417017  1
  Yb  Yb35  1  0.60247721  0.48013430  0.62615176  1
  Yb  Yb36  1  0.53094475  0.90180734  0.28504202  1
  Yb  Yb37  1  0.85582983  0.10582983  0.75000000  1
  Yb  Yb38  1  0.10247721  0.12615176  0.98013430  1
  Yb  Yb39  1  0.11676532  0.24590273  0.21495798  1
  Yb  Yb40  1  0.96905525  0.25409727  0.37086259  1
  Yb  Yb41  1  0.72951668  0.66278282  0.25230804  1
  Yb  Yb42  1  0.91047477  0.47720864  0.24769196  1
  Yb  Yb43  1  0.53094475  0.12913741  0.24590273  1
  Yb  Yb44  1  0.35398254  0.97632544  0.87384824  1
  Yb  Yb45  1  0.96905525  0.21495798  0.59819266  1
  Yb  Yb46  1  0.22951668  0.97720864  0.06673387  1
  Yb  Yb47  1  0.46905525  0.87086259  0.75409727  1
  Yb  Yb48  1  0.61676532  0.71495798  0.74590273  1
  Yb  Yb49  1  0.61676532  0.40180734  0.87086259  1
  Yb  Yb50  1  0.46905525  0.09819266  0.71495798  1
  Yb  Yb51  1  0.35582983  0.60582983  0.75000000  1
  Yb  Yb52  1  0.64601746  0.12234291  0.51986570  1
  Yb  Yb53  1  0.35398254  0.87765709  0.48013430  1
  Yb  Yb54  1  0.88323468  0.75409727  0.78504202  1
  Yb  Yb55  1  0.11676532  0.37086259  0.90180734  1
  Mn  Mn56  1  0.75000000  0.87500000  0.12500000  1
  Mn  Mn57  1  0.25000000  0.12500000  0.87500000  1
  Mn  Mn58  1  0.75000000  0.37500000  0.62500000  1
  Mn  Mn59  1  0.25000000  0.62500000  0.37500000  1
  Sb  Sb60  1  0.88459122  0.30781422  0.70163368  1
  Sb  Sb61  1  0.10618055  0.42322301  0.30781422  1
  Sb  Sb62  1  0.60618055  0.80781422  0.92322301  1
  Sb  Sb63  1  0.52090058  0.51045029  0.26045029  1
  Sb  Sb64  1  0.34341414  0.32250568  0.42712729  1
  Sb  Sb65  1  0.75000000  0.98954971  0.51045029  1
  Sb  Sb66  1  0.25000000  0.01045029  0.48954971  1
  Sb  Sb67  1  0.60462160  0.08371314  0.92712729  1
  Sb  Sb68  1  0.65658586  0.47909154  0.08371314  1
  Sb  Sb69  1  0.38459122  0.68295754  0.57677699  1
  Sb  Sb70  1  0.60618055  0.29836632  0.68295754  1
  Sb  Sb71  1  0.10462160  0.42712729  0.58371314  1
  Sb  Sb72  1  0.47909942  0.48954971  0.73954971  1
  Sb  Sb73  1  0.88459122  0.07677699  0.18295754  1
  Sb  Sb74  1  0.89381945  0.81704246  0.20163368  1
  Sb  Sb75  1  0.84341414  0.92712729  0.82250568  1
  Sb  Sb76  1  0.39537840  0.91628686  0.07287271  1
  Sb  Sb77  1  0.25000000  0.87500000  0.62500000  1
  Sb  Sb78  1  0.39537840  0.97909154  0.32250568  1
  Sb  Sb79  1  0.60462160  0.02090846  0.67749432  1
  Sb  Sb80  1  0.10618055  0.18295754  0.79836632  1
  Sb  Sb81  1  0.11540878  0.92322301  0.81704246  1
  Sb  Sb82  1  0.38459122  0.20163368  0.80781422  1
  Sb  Sb83  1  0.61540878  0.31704246  0.42322301  1
  Sb  Sb84  1  0.39381945  0.70163368  0.31704246  1
  Sb  Sb85  1  0.61540878  0.79836632  0.19218578  1
  Sb  Sb86  1  0.25000000  0.73954971  0.76045029  1
  Sb  Sb87  1  0.75000000  0.62500000  0.87500000  1
  Sb  Sb88  1  0.65658586  0.67749432  0.57287271  1
  Sb  Sb89  1  0.75000000  0.12500000  0.37500000  1
  Sb  Sb90  1  0.89381945  0.57677699  0.69218578  1
  Sb  Sb91  1  0.75000000  0.26045029  0.23954971  1
  Sb  Sb92  1  0.89537840  0.82250568  0.47909154  1
  Sb  Sb93  1  0.15658586  0.07287271  0.17749432  1
  Sb  Sb94  1  0.39381945  0.19218578  0.07677699  1
  Sb  Sb95  1  0.10462160  0.17749432  0.52090846  1
  Sb  Sb96  1  0.15658586  0.58371314  0.97909154  1
  Sb  Sb97  1  0.84341414  0.41628686  0.02090846  1
  Sb  Sb98  1  0.89537840  0.57287271  0.41628686  1
  Sb  Sb99  1  0.25000000  0.37500000  0.12500000  1
  Sb  Sb100  1  0.11540878  0.69218578  0.29836632  1
  Sb  Sb101  1  0.02090058  0.76045029  0.01045029  1
  Sb  Sb102  1  0.97909942  0.23954971  0.98954971  1
  Sb  Sb103  1  0.34341414  0.52090846  0.91628686  1
