# generated using pymatgen
data_NdCu3Se2ClO8
_symmetry_space_group_name_H-M   'P 1'
_cell_length_a   6.44002000
_cell_length_b   7.18149800
_cell_length_c   9.72641300
_cell_angle_alpha   90.00000000
_cell_angle_beta   90.00000000
_cell_angle_gamma   90.00000000
_symmetry_Int_Tables_number   1
_chemical_formula_structural   NdCu3Se2ClO8
_chemical_formula_sum   'Nd2 Cu6 Se4 Cl2 O16'
_cell_volume   449.83678487
_cell_formula_units_Z   2
loop_
 _symmetry_equiv_pos_site_id
 _symmetry_equiv_pos_as_xyz
  1  'x, y, z'
loop_
 _atom_site_type_symbol
 _atom_site_label
 _atom_site_symmetry_multiplicity
 _atom_site_fract_x
 _atom_site_fract_y
 _atom_site_fract_z
 _atom_site_occupancy
  Nd  Nd0  1  0.25000000  0.26318200  0.25000000  1
  Nd  Nd1  1  0.75000000  0.73681800  0.75000000  1
  Cu  Cu2  1  0.50000000  0.00000000  0.50000000  1
  Cu  Cu3  1  0.25000000  0.79459300  0.25000000  1
  Cu  Cu4  1  0.00000000  0.00000000  0.00000000  1
  Cu  Cu5  1  0.75000000  0.20540700  0.75000000  1
  Cu  Cu6  1  0.00000000  0.00000000  0.50000000  1
  Cu  Cu7  1  0.50000000  0.00000000  0.00000000  1
  Se  Se8  1  0.75000000  0.40146400  0.44285400  1
  Se  Se9  1  0.25000000  0.59853600  0.55714600  1
  Se  Se10  1  0.25000000  0.59853600  0.94285400  1
  Se  Se11  1  0.75000000  0.40146400  0.05714600  1
  Cl  Cl12  1  0.25000000  0.15945100  0.75000000  1
  Cl  Cl13  1  0.75000000  0.84054900  0.25000000  1
  O  O14  1  0.75000000  0.42268800  0.87962700  1
  O  O15  1  0.03937800  0.74543100  0.58445200  1
  O  O16  1  0.46062200  0.74543100  0.58445200  1
  O  O17  1  0.53937800  0.25456900  0.41554800  1
  O  O18  1  0.96062200  0.25456900  0.08445200  1
  O  O19  1  0.75000000  0.42268800  0.62037300  1
  O  O20  1  0.03937800  0.74543100  0.91554800  1
  O  O21  1  0.75000000  0.01179400  0.61053400  1
  O  O22  1  0.75000000  0.01179400  0.88946600  1
  O  O23  1  0.96062200  0.25456900  0.41554800  1
  O  O24  1  0.25000000  0.57731200  0.37962700  1
  O  O25  1  0.53937800  0.25456900  0.08445200  1
  O  O26  1  0.46062200  0.74543100  0.91554800  1
  O  O27  1  0.25000000  0.57731200  0.12037300  1
  O  O28  1  0.25000000  0.98820600  0.38946600  1
  O  O29  1  0.25000000  0.98820600  0.11053400  1
