# generated using pymatgen
data_Er4InIr
_symmetry_space_group_name_H-M   'P 1'
_cell_length_a   9.58663696
_cell_length_b   9.58663696
_cell_length_c   9.58663696
_cell_angle_alpha   60.00000000
_cell_angle_beta   60.00000000
_cell_angle_gamma   60.00000000
_symmetry_Int_Tables_number   1
_chemical_formula_structural   Er4InIr
_chemical_formula_sum   'Er16 In4 Ir4'
_cell_volume   622.99397301
_cell_formula_units_Z   4
loop_
 _symmetry_equiv_pos_site_id
 _symmetry_equiv_pos_as_xyz
  1  'x, y, z'
loop_
 _atom_site_type_symbol
 _atom_site_label
 _atom_site_symmetry_multiplicity
 _atom_site_fract_x
 _atom_site_fract_y
 _atom_site_fract_z
 _atom_site_occupancy
  Er  Er0  1  0.06043200  0.06043200  0.43956800  1
  Er  Er1  1  0.65067000  0.04799100  0.65067000  1
  Er  Er2  1  0.19117000  0.80883000  0.19117000  1
  Er  Er3  1  0.43956800  0.06043200  0.43956800  1
  Er  Er4  1  0.19117000  0.19117000  0.80883000  1
  Er  Er5  1  0.65067000  0.65067000  0.65067000  1
  Er  Er6  1  0.04799100  0.65067000  0.65067000  1
  Er  Er7  1  0.43956800  0.06043200  0.06043200  1
  Er  Er8  1  0.65067000  0.65067000  0.04799100  1
  Er  Er9  1  0.19117000  0.80883000  0.80883000  1
  Er  Er10  1  0.80883000  0.19117000  0.80883000  1
  Er  Er11  1  0.80883000  0.19117000  0.19117000  1
  Er  Er12  1  0.80883000  0.80883000  0.19117000  1
  Er  Er13  1  0.06043200  0.43956800  0.43956800  1
  Er  Er14  1  0.43956800  0.43956800  0.06043200  1
  Er  Er15  1  0.06043200  0.43956800  0.06043200  1
  In  In16  1  0.74922200  0.41692600  0.41692600  1
  In  In17  1  0.41692600  0.41692600  0.74922200  1
  In  In18  1  0.41692600  0.74922200  0.41692600  1
  In  In19  1  0.41692600  0.41692600  0.41692600  1
  Ir  Ir20  1  0.85861900  0.85861900  0.85861900  1
  Ir  Ir21  1  0.42414400  0.85861900  0.85861900  1
  Ir  Ir22  1  0.85861900  0.85861900  0.42414400  1
  Ir  Ir23  1  0.85861900  0.42414400  0.85861900  1
