# generated using pymatgen
data_Tl4SnSe3
_symmetry_space_group_name_H-M   'P 1'
_cell_length_a   8.68089000
_cell_length_b   8.69016400
_cell_length_c   26.80623249
_cell_angle_alpha   89.91501033
_cell_angle_beta   90.00000000
_cell_angle_gamma   90.00000000
_symmetry_Int_Tables_number   1
_chemical_formula_structural   Tl4SnSe3
_chemical_formula_sum   'Tl32 Sn8 Se24'
_cell_volume   2022.21593226
_cell_formula_units_Z   8
loop_
 _symmetry_equiv_pos_site_id
 _symmetry_equiv_pos_as_xyz
  1  'x, y, z'
loop_
 _atom_site_type_symbol
 _atom_site_label
 _atom_site_symmetry_multiplicity
 _atom_site_fract_x
 _atom_site_fract_y
 _atom_site_fract_z
 _atom_site_occupancy
  Tl  Tl0  1  0.07390700  0.13442800  0.06827200  1
  Tl  Tl1  1  0.08333400  0.37405000  0.32359400  1
  Tl  Tl2  1  0.08607800  0.11602400  0.57455900  1
  Tl  Tl3  1  0.08079900  0.37963500  0.82638900  1
  Tl  Tl4  1  0.12728800  0.41724000  0.17467700  1
  Tl  Tl5  1  0.11909700  0.40996200  0.67889200  1
  Tl  Tl6  1  0.12555900  0.07612300  0.92549400  1
  Tl  Tl7  1  0.12135600  0.08124200  0.42326300  1
  Tl  Tl8  1  0.25779200  0.74556800  0.02832700  1
  Tl  Tl9  1  0.37138300  0.42269800  0.92433900  1
  Tl  Tl10  1  0.37306700  0.08758600  0.17274400  1
  Tl  Tl11  1  0.37994100  0.41072500  0.42706100  1
  Tl  Tl12  1  0.37146700  0.07864800  0.67351400  1
  Tl  Tl13  1  0.41448000  0.11489000  0.32449800  1
  Tl  Tl14  1  0.40921800  0.11448100  0.82507100  1
  Tl  Tl15  1  0.41318700  0.37520900  0.57485100  1
  Tl  Tl16  1  0.58079900  0.62036500  0.17361100  1
  Tl  Tl17  1  0.57390700  0.86557200  0.93172800  1
  Tl  Tl18  1  0.58333400  0.62595000  0.67640600  1
  Tl  Tl19  1  0.58607800  0.88397600  0.42544100  1
  Tl  Tl20  1  0.62555900  0.92387700  0.07450600  1
  Tl  Tl21  1  0.62135600  0.91875800  0.57673700  1
  Tl  Tl22  1  0.62728800  0.58276000  0.82532300  1
  Tl  Tl23  1  0.61909700  0.59003800  0.32110800  1
  Tl  Tl24  1  0.75779200  0.25443200  0.97167300  1
  Tl  Tl25  1  0.87138300  0.57730200  0.07566100  1
  Tl  Tl26  1  0.87994100  0.58927500  0.57293900  1
  Tl  Tl27  1  0.87306700  0.91241400  0.82725600  1
  Tl  Tl28  1  0.87146700  0.92135200  0.32648600  1
  Tl  Tl29  1  0.90921800  0.88551900  0.17492900  1
  Tl  Tl30  1  0.91448000  0.88511000  0.67550200  1
  Tl  Tl31  1  0.91318700  0.62479100  0.42514900  1
  Sn  Sn32  1  0.26722500  0.75646800  0.50583600  1
  Sn  Sn33  1  0.22774200  0.75882300  0.25682100  1
  Sn  Sn34  1  0.23231400  0.75545900  0.75738300  1
  Sn  Sn35  1  0.45542600  0.35031900  0.06760400  1
  Sn  Sn36  1  0.73231400  0.24454100  0.24261700  1
  Sn  Sn37  1  0.76722500  0.24353200  0.49416400  1
  Sn  Sn38  1  0.72774200  0.24117700  0.74317900  1
  Sn  Sn39  1  0.95542600  0.64968100  0.93239600  1
  Se  Se40  1  0.08503300  0.43280900  0.99560600  1
  Se  Se41  1  0.05970100  0.39468400  0.49730300  1
  Se  Se42  1  0.10203000  0.06080900  0.25248500  1
  Se  Se43  1  0.10362000  0.05776300  0.75435300  1
  Se  Se44  1  0.24377200  0.74036900  0.40391500  1
  Se  Se45  1  0.23214700  0.74823600  0.89792400  1
  Se  Se46  1  0.25331500  0.74465400  0.15454200  1
  Se  Se47  1  0.25282100  0.73838900  0.65402200  1
  Se  Se48  1  0.40811300  0.10575000  0.00248600  1
  Se  Se49  1  0.43761400  0.39243800  0.24623000  1
  Se  Se50  1  0.39300100  0.06097900  0.50211900  1
  Se  Se51  1  0.43817400  0.39365400  0.74880400  1
  Se  Se52  1  0.60362000  0.94223700  0.24564700  1
  Se  Se53  1  0.58503300  0.56719100  0.00439400  1
  Se  Se54  1  0.60203000  0.93919100  0.74751500  1
  Se  Se55  1  0.55970100  0.60531600  0.50269700  1
  Se  Se56  1  0.73214700  0.25176400  0.10207600  1
  Se  Se57  1  0.74377200  0.25963100  0.59608500  1
  Se  Se58  1  0.75282100  0.26161100  0.34597800  1
  Se  Se59  1  0.75331500  0.25534600  0.84545800  1
  Se  Se60  1  0.90811300  0.89425000  0.99751400  1
  Se  Se61  1  0.89300100  0.93902100  0.49788100  1
  Se  Se62  1  0.93817400  0.60634600  0.25119600  1
  Se  Se63  1  0.93761400  0.60756200  0.75377000  1
