# generated using pymatgen
data_Sr5V3ClO12
_symmetry_space_group_name_H-M   'P 1'
_cell_length_a   10.45052017
_cell_length_b   10.45052017
_cell_length_c   7.31511400
_cell_angle_alpha   90.00000000
_cell_angle_beta   90.00000000
_cell_angle_gamma   120.00000108
_symmetry_Int_Tables_number   1
_chemical_formula_structural   Sr5V3ClO12
_chemical_formula_sum   'Sr10 V6 Cl2 O24'
_cell_volume   691.87484554
_cell_formula_units_Z   2
loop_
 _symmetry_equiv_pos_site_id
 _symmetry_equiv_pos_as_xyz
  1  'x, y, z'
loop_
 _atom_site_type_symbol
 _atom_site_label
 _atom_site_symmetry_multiplicity
 _atom_site_fract_x
 _atom_site_fract_y
 _atom_site_fract_z
 _atom_site_occupancy
  Sr  Sr0  1  0.00781800  0.75168800  0.75000000  1
  Sr  Sr1  1  0.25613000  0.00781800  0.25000000  1
  Sr  Sr2  1  0.33333300  0.66666700  0.00255600  1
  Sr  Sr3  1  0.66666700  0.33333300  0.50255600  1
  Sr  Sr4  1  0.99218200  0.24831200  0.25000000  1
  Sr  Sr5  1  0.33333300  0.66666700  0.49744400  1
  Sr  Sr6  1  0.24831200  0.25613000  0.75000000  1
  Sr  Sr7  1  0.66666700  0.33333300  0.99744400  1
  Sr  Sr8  1  0.74387000  0.99218200  0.75000000  1
  Sr  Sr9  1  0.75168800  0.74387000  0.25000000  1
  V  V10  1  0.62510500  0.03217500  0.25000000  1
  V  V11  1  0.03217500  0.40707000  0.75000000  1
  V  V12  1  0.59293000  0.62510500  0.75000000  1
  V  V13  1  0.40707000  0.37489500  0.25000000  1
  V  V14  1  0.96782500  0.59293000  0.25000000  1
  V  V15  1  0.37489500  0.96782500  0.75000000  1
  Cl  Cl16  1  0.00000000  0.00000000  0.00000000  1
  Cl  Cl17  1  0.00000000  0.00000000  0.50000000  1
  O  O18  1  0.86900300  0.39873500  0.25000000  1
  O  O19  1  0.33349500  0.49217400  0.25000000  1
  O  O20  1  0.90659400  0.64829900  0.06166900  1
  O  O21  1  0.49217400  0.15867900  0.75000000  1
  O  O22  1  0.35170100  0.25829500  0.06166900  1
  O  O23  1  0.09340600  0.35170100  0.56166900  1
  O  O24  1  0.47026800  0.86900300  0.75000000  1
  O  O25  1  0.25829500  0.90659400  0.93833100  1
  O  O26  1  0.25829500  0.90659400  0.56166900  1
  O  O27  1  0.90659400  0.64829900  0.43833100  1
  O  O28  1  0.60126500  0.47026800  0.25000000  1
  O  O29  1  0.52973200  0.13099700  0.25000000  1
  O  O30  1  0.15867900  0.66650500  0.25000000  1
  O  O31  1  0.74170500  0.09340600  0.43833100  1
  O  O32  1  0.13099700  0.60126500  0.75000000  1
  O  O33  1  0.35170100  0.25829500  0.43833100  1
  O  O34  1  0.09340600  0.35170100  0.93833100  1
  O  O35  1  0.74170500  0.09340600  0.06166900  1
  O  O36  1  0.64829900  0.74170500  0.56166900  1
  O  O37  1  0.39873500  0.52973200  0.75000000  1
  O  O38  1  0.84132100  0.33349500  0.75000000  1
  O  O39  1  0.66650500  0.50782600  0.75000000  1
  O  O40  1  0.64829900  0.74170500  0.93833100  1
  O  O41  1  0.50782600  0.84132100  0.25000000  1
