# generated using pymatgen
data_NaMo3P3O16
_symmetry_space_group_name_H-M   'P 1'
_cell_length_a   6.50186100
_cell_length_b   7.78467394
_cell_length_c   13.00519863
_cell_angle_alpha   80.00681135
_cell_angle_beta   79.19740860
_cell_angle_gamma   82.98117281
_symmetry_Int_Tables_number   1
_chemical_formula_structural   NaMo3P3O16
_chemical_formula_sum   'Na2 Mo6 P6 O32'
_cell_volume   634.03981566
_cell_formula_units_Z   2
loop_
 _symmetry_equiv_pos_site_id
 _symmetry_equiv_pos_as_xyz
  1  'x, y, z'
loop_
 _atom_site_type_symbol
 _atom_site_label
 _atom_site_symmetry_multiplicity
 _atom_site_fract_x
 _atom_site_fract_y
 _atom_site_fract_z
 _atom_site_occupancy
  Na  Na0  1  0.59906700  0.33772100  0.32897000  1
  Na  Na1  1  0.40093300  0.66227900  0.67103000  1
  Mo  Mo2  1  0.20305900  0.21628400  0.53994300  1
  Mo  Mo3  1  0.79694100  0.78371600  0.46005700  1
  Mo  Mo4  1  0.40371800  0.75698100  0.16340000  1
  Mo  Mo5  1  0.59628200  0.24301900  0.83660000  1
  Mo  Mo6  1  0.05871300  0.20647900  0.14423800  1
  Mo  Mo7  1  0.94128700  0.79352100  0.85576200  1
  P  P8  1  0.57310900  0.16456100  0.10178300  1
  P  P9  1  0.42689100  0.83543900  0.89821700  1
  P  P10  1  0.30781200  0.85490800  0.42196500  1
  P  P11  1  0.69218800  0.14509200  0.57803500  1
  P  P12  1  0.06433400  0.48364600  0.31613000  1
  P  P13  1  0.93566600  0.51635400  0.68387000  1
  O  O14  1  0.19580100  0.04900100  0.64426000  1
  O  O15  1  0.80419900  0.95099900  0.35574000  1
  O  O16  1  0.89793500  0.22327900  0.52187800  1
  O  O17  1  0.10206500  0.77672100  0.47812200  1
  O  O18  1  0.51860400  0.25498500  0.52050500  1
  O  O19  1  0.48139600  0.74501500  0.47949500  1
  O  O20  1  0.29962000  0.05145300  0.42815900  1
  O  O21  1  0.70038000  0.94854700  0.57184100  1
  O  O22  1  0.13545700  0.42502600  0.62268900  1
  O  O23  1  0.86454300  0.57497400  0.37731100  1
  O  O24  1  0.22519000  0.40637100  0.38851600  1
  O  O25  1  0.77481000  0.59362900  0.61148400  1
  O  O26  1  0.08636100  0.31084500  0.01707000  1
  O  O27  1  0.91363900  0.68915500  0.98293000  1
  O  O28  1  0.98072600  0.33376600  0.27174200  1
  O  O29  1  0.01927400  0.66623400  0.72825800  1
  O  O30  1  0.74163900  0.20068700  0.16504600  1
  O  O31  1  0.25836100  0.79931300  0.83495400  1
  O  O32  1  0.13113000  0.98301800  0.13782500  1
  O  O33  1  0.86887000  0.01698200  0.86217500  1
  O  O34  1  0.35786000  0.23836200  0.16128800  1
  O  O35  1  0.64214000  0.76163800  0.83871200  1
  O  O36  1  0.60013000  0.59523200  0.18428200  1
  O  O37  1  0.39987000  0.40476800  0.81571800  1
  O  O38  1  0.37740700  0.73637900  0.01166400  1
  O  O39  1  0.62259300  0.26362100  0.98833600  1
  O  O40  1  0.15944500  0.60844900  0.21758900  1
  O  O41  1  0.84055500  0.39155100  0.78241100  1
  O  O42  1  0.35662000  0.84122700  0.30372400  1
  O  O43  1  0.64338000  0.15877300  0.69627600  1
  O  O44  1  0.57590100  0.96672500  0.10258100  1
  O  O45  1  0.42409900  0.03327500  0.89741900  1
