# generated using pymatgen
data_KNi(PO3)3
_symmetry_space_group_name_H-M   'P 1'
_cell_length_a   6.35827633
_cell_length_b   7.06776709
_cell_length_c   20.45913379
_cell_angle_alpha   90.00168531
_cell_angle_beta   90.00624914
_cell_angle_gamma   68.26132545
_symmetry_Int_Tables_number   1
_chemical_formula_structural   KNi(PO3)3
_chemical_formula_sum   'K4 Ni4 P12 O36'
_cell_volume   854.02341954
_cell_formula_units_Z   4
loop_
 _symmetry_equiv_pos_site_id
 _symmetry_equiv_pos_as_xyz
  1  'x, y, z'
loop_
 _atom_site_type_symbol
 _atom_site_label
 _atom_site_symmetry_multiplicity
 _atom_site_fract_x
 _atom_site_fract_y
 _atom_site_fract_z
 _atom_site_occupancy
  K  K0  1  0.00013500  0.49318500  0.49990600  1
  K  K1  1  0.00016200  0.49309100  0.00011100  1
  K  K2  1  0.50016500  0.99324300  0.75005800  1
  K  K3  1  0.50015700  0.99317300  0.24996900  1
  Ni  Ni4  1  0.00028000  0.00096200  0.50008800  1
  Ni  Ni5  1  0.49987900  0.50148100  0.74988600  1
  Ni  Ni6  1  0.00032900  0.00080300  0.99982300  1
  Ni  Ni7  1  0.50002900  0.50093200  0.25005300  1
  P  P8  1  0.34369800  0.68840400  0.39544300  1
  P  P9  1  0.34389900  0.68824300  0.89542700  1
  P  P10  1  0.84374400  0.18838900  0.64547300  1
  P  P11  1  0.84375900  0.18833400  0.14537900  1
  P  P12  1  0.64183700  0.25571900  0.38826700  1
  P  P13  1  0.64171500  0.25577700  0.88822700  1
  P  P14  1  0.14169200  0.75576000  0.63827800  1
  P  P15  1  0.14179600  0.75578400  0.13821900  1
  P  P16  1  0.01440400  0.46486800  0.71635500  1
  P  P17  1  0.01443800  0.46483800  0.21630000  1
  P  P18  1  0.51446000  0.96485600  0.96633500  1
  P  P19  1  0.51446700  0.96482600  0.46630300  1
  O  O20  1  0.28208700  0.08257900  0.49229200  1
  O  O21  1  0.28201200  0.08259900  0.99229100  1
  O  O22  1  0.78201400  0.58266800  0.74231400  1
  O  O23  1  0.78206900  0.58260100  0.24229900  1
  O  O24  1  0.83595700  0.23119400  0.43340500  1
  O  O25  1  0.83590500  0.23136600  0.93333500  1
  O  O26  1  0.33585600  0.73145300  0.68338100  1
  O  O27  1  0.33589900  0.73130600  0.18336900  1
  O  O28  1  0.88200600  0.21595900  0.57438600  1
  O  O29  1  0.88206200  0.21570200  0.07427300  1
  O  O30  1  0.38202000  0.71592600  0.82434400  1
  O  O31  1  0.38188500  0.71601900  0.32434600  1
  O  O32  1  0.52977100  0.74704500  0.43755400  1
  O  O33  1  0.52975700  0.74709000  0.93760700  1
  O  O34  1  0.02977900  0.24707400  0.68760400  1
  O  O35  1  0.02970800  0.24705100  0.18754700  1
  O  O36  1  0.42235200  0.44951700  0.41366100  1
  O  O37  1  0.42239300  0.44945300  0.91371300  1
  O  O38  1  0.92231100  0.94954500  0.66371300  1
  O  O39  1  0.92235000  0.94953500  0.16365200  1
  O  O40  1  0.04768900  0.57441100  0.64878100  1
  O  O41  1  0.04774100  0.57444600  0.14873500  1
  O  O42  1  0.54772900  0.07439100  0.89877200  1
  O  O43  1  0.54769500  0.07445500  0.39873200  1
  O  O44  1  0.11269900  0.78969400  0.42458200  1
  O  O45  1  0.11268100  0.78942600  0.92446400  1
  O  O46  1  0.61265600  0.28965600  0.67457400  1
  O  O47  1  0.61276800  0.28962300  0.17454600  1
  O  O48  1  0.17001800  0.77052600  0.56596900  1
  O  O49  1  0.16997300  0.77062200  0.06589200  1
  O  O50  1  0.66980700  0.27081200  0.81592100  1
  O  O51  1  0.67005900  0.27056300  0.31594000  1
  O  O52  1  0.71729200  0.92154300  0.50952100  1
  O  O53  1  0.71738800  0.92151200  0.00952100  1
  O  O54  1  0.21728600  0.42160900  0.75954400  1
  O  O55  1  0.21727700  0.42156000  0.25953000  1
