# generated using pymatgen
data_Y2GeO5
_symmetry_space_group_name_H-M   'P 1'
_cell_length_a   8.26767348
_cell_length_b   8.26767348
_cell_length_c   10.58415241
_cell_angle_alpha   61.34404817
_cell_angle_beta   61.34404817
_cell_angle_gamma   49.45903968
_symmetry_Int_Tables_number   1
_chemical_formula_structural   Y2GeO5
_chemical_formula_sum   'Y8 Ge4 O20'
_cell_volume   466.92367521
_cell_formula_units_Z   4
loop_
 _symmetry_equiv_pos_site_id
 _symmetry_equiv_pos_as_xyz
  1  'x, y, z'
loop_
 _atom_site_type_symbol
 _atom_site_label
 _atom_site_symmetry_multiplicity
 _atom_site_fract_x
 _atom_site_fract_y
 _atom_site_fract_z
 _atom_site_occupancy
  Y  Y0  1  0.98888300  0.73550900  0.83767900  1
  Y  Y1  1  0.27703200  0.79363800  0.03433900  1
  Y  Y2  1  0.73550900  0.98888300  0.33767900  1
  Y  Y3  1  0.01111700  0.26449100  0.16232100  1
  Y  Y4  1  0.26449100  0.01111700  0.66232100  1
  Y  Y5  1  0.79363800  0.27703200  0.53433900  1
  Y  Y6  1  0.72296800  0.20636200  0.96566100  1
  Y  Y7  1  0.20636200  0.72296800  0.46566100  1
  Ge  Ge8  1  0.22052000  0.40974400  0.30788700  1
  Ge  Ge9  1  0.40974400  0.22052000  0.80788700  1
  Ge  Ge10  1  0.59025600  0.77948000  0.19211300  1
  Ge  Ge11  1  0.77948000  0.59025600  0.69211300  1
  O  O12  1  0.11409300  0.91901500  0.60312600  1
  O  O13  1  0.91385000  0.31984000  0.67613500  1
  O  O14  1  0.68016000  0.08615000  0.82386500  1
  O  O15  1  0.57674200  0.59098000  0.36710800  1
  O  O16  1  0.08615000  0.68016000  0.32386500  1
  O  O17  1  0.08098500  0.88590700  0.89687400  1
  O  O18  1  0.31984000  0.91385000  0.17613500  1
  O  O19  1  0.91901500  0.11409300  0.10312600  1
  O  O20  1  0.21951600  0.37067400  0.94457200  1
  O  O21  1  0.04101800  0.35126300  0.32387400  1
  O  O22  1  0.40902000  0.42325800  0.13289200  1
  O  O23  1  0.62932600  0.78048400  0.55542800  1
  O  O24  1  0.59098000  0.57674200  0.86710800  1
  O  O25  1  0.37067400  0.21951600  0.44457200  1
  O  O26  1  0.95898200  0.64873700  0.67612600  1
  O  O27  1  0.88590700  0.08098500  0.39687400  1
  O  O28  1  0.78048400  0.62932600  0.05542800  1
  O  O29  1  0.64873700  0.95898200  0.17612600  1
  O  O30  1  0.42325800  0.40902000  0.63289200  1
  O  O31  1  0.35126300  0.04101800  0.82387400  1
