# generated using pymatgen
data_Na3Ca(BO2)5
_symmetry_space_group_name_H-M   'P 1'
_cell_length_a   7.51304900
_cell_length_b   9.83416496
_cell_length_c   13.08957179
_cell_angle_alpha   91.24417983
_cell_angle_beta   90.07142730
_cell_angle_gamma   109.48306130
_symmetry_Int_Tables_number   1
_chemical_formula_structural   Na3Ca(BO2)5
_chemical_formula_sum   'Na12 Ca4 B20 O40'
_cell_volume   911.48836482
_cell_formula_units_Z   4
loop_
 _symmetry_equiv_pos_site_id
 _symmetry_equiv_pos_as_xyz
  1  'x, y, z'
loop_
 _atom_site_type_symbol
 _atom_site_label
 _atom_site_symmetry_multiplicity
 _atom_site_fract_x
 _atom_site_fract_y
 _atom_site_fract_z
 _atom_site_occupancy
  Na  Na0  1  0.50823400  0.26292000  0.22928100  1
  Na  Na1  1  0.49176600  0.73708000  0.77071900  1
  Na  Na2  1  0.12661300  0.05325600  0.10979400  1
  Na  Na3  1  0.87338700  0.94674400  0.89020600  1
  Na  Na4  1  0.18447500  0.68466100  0.00321200  1
  Na  Na5  1  0.81552500  0.31533900  0.99678800  1
  Na  Na6  1  0.38315000  0.95798900  0.38893400  1
  Na  Na7  1  0.61685000  0.04201100  0.61106600  1
  Na  Na8  1  0.00156500  0.76218000  0.26276700  1
  Na  Na9  1  0.99843500  0.23782000  0.73723300  1
  Na  Na10  1  0.68365700  0.66884300  0.51949300  1
  Na  Na11  1  0.31634300  0.33115700  0.48050700  1
  Ca  Ca12  1  0.47639300  0.61156500  0.26711700  1
  Ca  Ca13  1  0.52360700  0.38843500  0.73288300  1
  Ca  Ca14  1  0.00378600  0.37163300  0.24099700  1
  Ca  Ca15  1  0.99621400  0.62836700  0.75900300  1
  B  B16  1  0.82062500  0.36734700  0.58192500  1
  B  B17  1  0.17937500  0.63265300  0.41807500  1
  B  B18  1  0.69642000  0.40664300  0.41391200  1
  B  B19  1  0.30358000  0.59335700  0.58608800  1
  B  B20  1  0.83753500  0.20385700  0.43226500  1
  B  B21  1  0.16246500  0.79614300  0.56773500  1
  B  B22  1  0.74828700  0.93707100  0.38243300  1
  B  B23  1  0.25171300  0.06292900  0.61756700  1
  B  B24  1  0.07803400  0.09948400  0.35249600  1
  B  B25  1  0.92196600  0.90051600  0.64750400  1
  B  B26  1  0.29147900  0.37027000  0.07561600  1
  B  B27  1  0.70852100  0.62973000  0.92438400  1
  B  B28  1  0.21969700  0.43497500  0.90227100  1
  B  B29  1  0.78030300  0.56502500  0.09772900  1
  B  B30  1  0.33894900  0.22089300  0.92398400  1
  B  B31  1  0.66105100  0.77910700  0.07601600  1
  B  B32  1  0.24955500  0.95504500  0.87554600  1
  B  B33  1  0.75044500  0.04495500  0.12445400  1
  B  B34  1  0.58511500  0.11170300  0.86193200  1
  B  B35  1  0.41488500  0.88829700  0.13806800  1
  O  O36  1  0.83624700  0.40024300  0.68264200  1
  O  O37  1  0.16375300  0.59975700  0.31735800  1
  O  O38  1  0.86244000  0.25016900  0.54130800  1
  O  O39  1  0.13756000  0.74983100  0.45869200  1
  O  O40  1  0.74936600  0.44915000  0.51656300  1
  O  O41  1  0.25063400  0.55085000  0.48343700  1
  O  O42  1  0.75696700  0.29775100  0.37106300  1
  O  O43  1  0.24303300  0.70224900  0.62893700  1
  O  O44  1  0.58724200  0.46707800  0.36541000  1
  O  O45  1  0.41275800  0.53292200  0.63459000  1
  O  O46  1  0.70679000  0.05414400  0.42681500  1
  O  O47  1  0.29321000  0.94585600  0.57318500  1
  O  O48  1  0.02231300  0.21733900  0.38628500  1
  O  O49  1  0.97768700  0.78266100  0.61371500  1
  O  O50  1  0.93348400  0.96212900  0.34616800  1
  O  O51  1  0.06651600  0.03787100  0.65383200  1
  O  O52  1  0.61590100  0.80592100  0.37659600  1
  O  O53  1  0.38409900  0.19407900  0.62340400  1
  O  O54  1  0.25574100  0.11873600  0.32847500  1
  O  O55  1  0.74425900  0.88126400  0.67152500  1
  O  O56  1  0.30569500  0.40199700  0.17630100  1
  O  O57  1  0.69430500  0.59800300  0.82369900  1
  O  O58  1  0.35723300  0.26567400  0.03349200  1
  O  O59  1  0.64276700  0.73432600  0.96650800  1
  O  O60  1  0.20462000  0.44283700  0.01022400  1
  O  O61  1  0.79538000  0.55716300  0.98977600  1
  O  O62  1  0.27278100  0.32161000  0.86078300  1
  O  O63  1  0.72721900  0.67839000  0.13921700  1
  O  O64  1  0.18025400  0.53201000  0.84615300  1
  O  O65  1  0.81974600  0.46799000  0.15384700  1
  O  O66  1  0.20477000  0.07352500  0.91467500  1
  O  O67  1  0.79523000  0.92647500  0.08532500  1
  O  O68  1  0.52601400  0.23190200  0.88301600  1
  O  O69  1  0.47398600  0.76809800  0.11698400  1
  O  O70  1  0.44005600  0.97538500  0.84943300  1
  O  O71  1  0.55994400  0.02461500  0.15056700  1
  O  O72  1  0.11432100  0.82585800  0.86628200  1
  O  O73  1  0.88567900  0.17414200  0.13371800  1
  O  O74  1  0.76810700  0.13066800  0.85527900  1
  O  O75  1  0.23189300  0.86933200  0.14472100  1
