# generated using pymatgen
data_Na2Zr12B2I5Cl23
_symmetry_space_group_name_H-M   'P 1'
_cell_length_a   13.62145300
_cell_length_b   13.49807200
_cell_length_c   13.49946427
_cell_angle_alpha   89.96676713
_cell_angle_beta   90.00000000
_cell_angle_gamma   90.00000000
_symmetry_Int_Tables_number   1
_chemical_formula_structural   Na2Zr12B2I5Cl23
_chemical_formula_sum   'Na4 Zr24 B4 I10 Cl46'
_cell_volume   2482.05635159
_cell_formula_units_Z   2
loop_
 _symmetry_equiv_pos_site_id
 _symmetry_equiv_pos_as_xyz
  1  'x, y, z'
loop_
 _atom_site_type_symbol
 _atom_site_label
 _atom_site_symmetry_multiplicity
 _atom_site_fract_x
 _atom_site_fract_y
 _atom_site_fract_z
 _atom_site_occupancy
  Na  Na0  1  0.46599900  0.71573900  0.28278200  1
  Na  Na1  1  0.53400100  0.71573900  0.78278200  1
  Na  Na2  1  0.96972100  0.77616200  0.28427700  1
  Na  Na3  1  0.03027900  0.77616200  0.78427700  1
  Zr  Zr4  1  0.90099500  0.05107600  0.43657400  1
  Zr  Zr5  1  0.09900500  0.05107600  0.93657400  1
  Zr  Zr6  1  0.20624300  0.06664100  0.15203500  1
  Zr  Zr7  1  0.79375700  0.06664100  0.65203500  1
  Zr  Zr8  1  0.68457800  0.15459200  0.45336300  1
  Zr  Zr9  1  0.31542200  0.15459200  0.95336300  1
  Zr  Zr10  1  0.18670300  0.34534100  0.45374400  1
  Zr  Zr11  1  0.81329700  0.34534100  0.95374400  1
  Zr  Zr12  1  0.70394800  0.43319200  0.15269200  1
  Zr  Zr13  1  0.29605200  0.43319200  0.65269200  1
  Zr  Zr14  1  0.40189400  0.45061900  0.43699100  1
  Zr  Zr15  1  0.59810600  0.45061900  0.93699100  1
  Zr  Zr16  1  0.90007800  0.54176000  0.06447700  1
  Zr  Zr17  1  0.09992200  0.54176000  0.56447700  1
  Zr  Zr18  1  0.20503600  0.56054700  0.34800100  1
  Zr  Zr19  1  0.79496400  0.56054700  0.84800100  1
  Zr  Zr20  1  0.68686800  0.64977400  0.04538800  1
  Zr  Zr21  1  0.31313200  0.64977400  0.54538800  1
  Zr  Zr22  1  0.81195800  0.85017800  0.54419100  1
  Zr  Zr23  1  0.18804200  0.85017800  0.04419100  1
  Zr  Zr24  1  0.30076200  0.93801900  0.84786800  1
  Zr  Zr25  1  0.69923800  0.93801900  0.34786800  1
  Zr  Zr26  1  0.40158200  0.95719200  0.06468700  1
  Zr  Zr27  1  0.59841800  0.95719200  0.56468700  1
  B  B28  1  0.25067000  0.00309500  0.99906400  1
  B  B29  1  0.74933000  0.00309500  0.49906400  1
  B  B30  1  0.25081600  0.49665400  0.50032600  1
  B  B31  1  0.74918400  0.49665400  0.00032600  1
  I  I32  1  0.11691600  0.13175000  0.36943200  1
  I  I33  1  0.88308400  0.13175000  0.86943200  1
  I  I34  1  0.61650000  0.36866300  0.36859300  1
  I  I35  1  0.38350000  0.36866300  0.86859300  1
  I  I36  1  0.88525700  0.63543300  0.63490400  1
  I  I37  1  0.11474300  0.63543300  0.13490400  1
  I  I38  1  0.38843200  0.86289900  0.63664100  1
  I  I39  1  0.61156800  0.86289900  0.13664100  1
  I  I40  1  0.87185800  0.98310800  0.23218400  1
  I  I41  1  0.12814200  0.98310800  0.73218400  1
  Cl  Cl42  1  0.36643100  0.01988000  0.23885900  1
  Cl  Cl43  1  0.63356900  0.01988000  0.73885900  1
  Cl  Cl44  1  0.62470900  0.09766100  0.28387100  1
  Cl  Cl45  1  0.37529100  0.09766100  0.78387100  1
  Cl  Cl46  1  0.48778100  0.11781600  0.02127900  1
  Cl  Cl47  1  0.51221900  0.11781600  0.52127900  1
  Cl  Cl48  1  0.03837200  0.12626000  0.09656400  1
  Cl  Cl49  1  0.96162800  0.12626000  0.59656400  1
  Cl  Cl50  1  0.84456400  0.21986600  0.37912700  1
  Cl  Cl51  1  0.15543600  0.21986600  0.87912700  1
  Cl  Cl52  1  0.27310000  0.23908000  0.11734600  1
  Cl  Cl53  1  0.72690000  0.23908000  0.61734600  1
  Cl  Cl54  1  0.77023300  0.26058400  0.11757300  1
  Cl  Cl55  1  0.22976700  0.26058400  0.61757300  1
  Cl  Cl56  1  0.34672200  0.28227900  0.37784600  1
  Cl  Cl57  1  0.65327800  0.28227900  0.87784600  1
  Cl  Cl58  1  0.53333300  0.37994300  0.09818400  1
  Cl  Cl59  1  0.46666700  0.37994300  0.59818400  1
  Cl  Cl60  1  0.98642500  0.38175200  0.01996700  1
  Cl  Cl61  1  0.01357500  0.38175200  0.51996700  1
  Cl  Cl62  1  0.13061000  0.40225700  0.28242700  1
  Cl  Cl63  1  0.86939000  0.40225700  0.78242700  1
  Cl  Cl64  1  0.86517300  0.47984100  0.23906000  1
  Cl  Cl65  1  0.13482700  0.47984100  0.73906000  1
  Cl  Cl66  1  0.36920800  0.52301700  0.26120800  1
  Cl  Cl67  1  0.63079200  0.52301700  0.76120800  1
  Cl  Cl68  1  0.62995000  0.59756600  0.21796400  1
  Cl  Cl69  1  0.37005000  0.59756600  0.71796400  1
  Cl  Cl70  1  0.51256900  0.61802900  0.97713000  1
  Cl  Cl71  1  0.48743100  0.61802900  0.47713000  1
  Cl  Cl72  1  0.03406800  0.61943800  0.40281700  1
  Cl  Cl73  1  0.96593200  0.61943800  0.90281700  1
  Cl  Cl74  1  0.84749900  0.71703000  0.11828300  1
  Cl  Cl75  1  0.15250100  0.71703000  0.61828300  1
  Cl  Cl76  1  0.27215900  0.73799600  0.38124200  1
  Cl  Cl77  1  0.72784100  0.73799600  0.88124200  1
  Cl  Cl78  1  0.76987900  0.76141300  0.38114000  1
  Cl  Cl79  1  0.23012100  0.76141300  0.88114000  1
  Cl  Cl80  1  0.34781200  0.78167100  0.11843900  1
  Cl  Cl81  1  0.65218800  0.78167100  0.61843900  1
  Cl  Cl82  1  0.46982600  0.87882600  0.90435000  1
  Cl  Cl83  1  0.53017400  0.87882600  0.40435000  1
  Cl  Cl84  1  0.01357600  0.88328100  0.97716800  1
  Cl  Cl85  1  0.98642400  0.88328100  0.47716800  1
  Cl  Cl86  1  0.13322300  0.90198200  0.21744200  1
  Cl  Cl87  1  0.86677700  0.90198200  0.71744200  1
