# generated using pymatgen
data_K2Cr2O7
_symmetry_space_group_name_H-M   'P 1'
_cell_length_a   7.59042500
_cell_length_b   7.64621348
_cell_length_c   13.66442959
_cell_angle_alpha   95.21704610
_cell_angle_beta   97.49818582
_cell_angle_gamma   90.92919407
_symmetry_Int_Tables_number   1
_chemical_formula_structural   K2Cr2O7
_chemical_formula_sum   'K8 Cr8 O28'
_cell_volume   782.70085482
_cell_formula_units_Z   4
loop_
 _symmetry_equiv_pos_site_id
 _symmetry_equiv_pos_as_xyz
  1  'x, y, z'
loop_
 _atom_site_type_symbol
 _atom_site_label
 _atom_site_symmetry_multiplicity
 _atom_site_fract_x
 _atom_site_fract_y
 _atom_site_fract_z
 _atom_site_occupancy
  K  K0  1  0.10567300  0.66453400  0.63874600  1
  K  K1  1  0.89432700  0.33546600  0.36125400  1
  K  K2  1  0.25444600  0.75860200  0.34894200  1
  K  K3  1  0.74555400  0.24139800  0.65105800  1
  K  K4  1  0.66088700  0.91430300  0.15945900  1
  K  K5  1  0.33911300  0.08569700  0.84054100  1
  K  K6  1  0.68928000  0.65213300  0.86356600  1
  K  K7  1  0.31072000  0.34786700  0.13643400  1
  Cr  Cr8  1  0.59455400  0.77204900  0.60714200  1
  Cr  Cr9  1  0.40544600  0.22795100  0.39285800  1
  Cr  Cr10  1  0.79360000  0.80967700  0.41345200  1
  Cr  Cr11  1  0.20640000  0.19032300  0.58654800  1
  Cr  Cr12  1  0.81736500  0.42167900  0.11330700  1
  Cr  Cr13  1  0.18263500  0.57832100  0.88669300  1
  Cr  Cr14  1  0.81183200  0.15317800  0.91691600  1
  Cr  Cr15  1  0.18816800  0.84682200  0.08308400  1
  O  O16  1  0.71768500  0.61421700  0.64967900  1
  O  O17  1  0.28231500  0.38578300  0.35032100  1
  O  O18  1  0.56089100  0.91254900  0.69994500  1
  O  O19  1  0.43910900  0.08745100  0.30005500  1
  O  O20  1  0.40604200  0.69271500  0.54772500  1
  O  O21  1  0.59395800  0.30728500  0.45227500  1
  O  O22  1  0.71019500  0.89010200  0.52568500  1
  O  O23  1  0.28980500  0.10989800  0.47431500  1
  O  O24  1  0.95848500  0.67845100  0.44108200  1
  O  O25  1  0.04151500  0.32154900  0.55891800  1
  O  O26  1  0.86582700  0.97481200  0.36043900  1
  O  O27  1  0.13417300  0.02518800  0.63956100  1
  O  O28  1  0.63739500  0.70142600  0.33795100  1
  O  O29  1  0.36260500  0.29857400  0.66204900  1
  O  O30  1  0.68655000  0.29571000  0.16552500  1
  O  O31  1  0.31345000  0.70429000  0.83447500  1
  O  O32  1  0.97785100  0.50466500  0.19694900  1
  O  O33  1  0.02214900  0.49533500  0.80305100  1
  O  O34  1  0.70296000  0.57655100  0.06252400  1
  O  O35  1  0.29704000  0.42344900  0.93747600  1
  O  O36  1  0.91943400  0.29126500  0.02217600  1
  O  O37  1  0.08056600  0.70873500  0.97782400  1
  O  O38  1  0.69279600  0.99762000  0.95438700  1
  O  O39  1  0.30720400  0.00238000  0.04561300  1
  O  O40  1  0.96189700  0.06843400  0.85371200  1
  O  O41  1  0.03810300  0.93156600  0.14628800  1
  O  O42  1  0.67860700  0.27378200  0.84826700  1
  O  O43  1  0.32139300  0.72621800  0.15173300  1
