# generated using pymatgen
data_Pr(CoP)2
_symmetry_space_group_name_H-M   'P 1'
_cell_length_a   5.90295819
_cell_length_b   5.90295819
_cell_length_c   5.90295819
_cell_angle_alpha   141.98152567
_cell_angle_beta   141.98152567
_cell_angle_gamma   54.85662894
_symmetry_Int_Tables_number   1
_chemical_formula_structural   Pr(CoP)2
_chemical_formula_sum   'Pr1 Co2 P2'
_cell_volume   77.47665795
_cell_formula_units_Z   1
loop_
 _symmetry_equiv_pos_site_id
 _symmetry_equiv_pos_as_xyz
  1  'x, y, z'
loop_
 _atom_site_type_symbol
 _atom_site_label
 _atom_site_symmetry_multiplicity
 _atom_site_fract_x
 _atom_site_fract_y
 _atom_site_fract_z
 _atom_site_occupancy
  Pr  Pr0  1  0.00000000  0.00000000  0.00000000  1
  Co  Co1  1  0.75000000  0.25000000  0.50000000  1
  Co  Co2  1  0.25000000  0.75000000  0.50000000  1
  P  P3  1  0.64238900  0.64238900  0.00000000  1
  P  P4  1  0.35761100  0.35761100  0.00000000  1
