# generated using pymatgen
data_ZrSb
_symmetry_space_group_name_H-M   'P 1'
_cell_length_a   5.69197000
_cell_length_b   5.69197000
_cell_length_c   5.69197000
_cell_angle_alpha   90.00000000
_cell_angle_beta   90.00000000
_cell_angle_gamma   90.00000000
_symmetry_Int_Tables_number   1
_chemical_formula_structural   ZrSb
_chemical_formula_sum   'Zr4 Sb4'
_cell_volume   184.41141801
_cell_formula_units_Z   4
loop_
 _symmetry_equiv_pos_site_id
 _symmetry_equiv_pos_as_xyz
  1  'x, y, z'
loop_
 _atom_site_type_symbol
 _atom_site_label
 _atom_site_symmetry_multiplicity
 _atom_site_fract_x
 _atom_site_fract_y
 _atom_site_fract_z
 _atom_site_occupancy
  Zr  Zr0  1  0.35665700  0.85665700  0.64334300  1
  Zr  Zr1  1  0.64334300  0.35665700  0.85665700  1
  Zr  Zr2  1  0.85665700  0.64334300  0.35665700  1
  Zr  Zr3  1  0.14334300  0.14334300  0.14334300  1
  Sb  Sb4  1  0.34320800  0.65679200  0.15679200  1
  Sb  Sb5  1  0.84320800  0.84320800  0.84320800  1
  Sb  Sb6  1  0.65679200  0.15679200  0.34320800  1
  Sb  Sb7  1  0.15679200  0.34320800  0.65679200  1
