# generated using pymatgen
data_Hf3P
_symmetry_space_group_name_H-M   'P 1'
_cell_length_a   10.69933400
_cell_length_b   10.69933400
_cell_length_c   5.32310900
_cell_angle_alpha   90.00000000
_cell_angle_beta   90.00000000
_cell_angle_gamma   90.00000000
_symmetry_Int_Tables_number   1
_chemical_formula_structural   Hf3P
_chemical_formula_sum   'Hf24 P8'
_cell_volume   609.36688469
_cell_formula_units_Z   8
loop_
 _symmetry_equiv_pos_site_id
 _symmetry_equiv_pos_as_xyz
  1  'x, y, z'
loop_
 _atom_site_type_symbol
 _atom_site_label
 _atom_site_symmetry_multiplicity
 _atom_site_fract_x
 _atom_site_fract_y
 _atom_site_fract_z
 _atom_site_occupancy
  Hf  Hf0  1  0.91581400  0.60804500  0.53249300  1
  Hf  Hf1  1  0.08418600  0.39195500  0.53249300  1
  Hf  Hf2  1  0.89195500  0.41581400  0.03249300  1
  Hf  Hf3  1  0.10804500  0.58418600  0.03249300  1
  Hf  Hf4  1  0.58418600  0.89195500  0.96750700  1
  Hf  Hf5  1  0.41581400  0.10804500  0.96750700  1
  Hf  Hf6  1  0.60804500  0.08418600  0.46750700  1
  Hf  Hf7  1  0.39195500  0.91581400  0.46750700  1
  Hf  Hf8  1  0.86205000  0.97238300  0.71971700  1
  Hf  Hf9  1  0.13795000  0.02761700  0.71971700  1
  Hf  Hf10  1  0.52761700  0.36205000  0.21971700  1
  Hf  Hf11  1  0.47238300  0.63795000  0.21971700  1
  Hf  Hf12  1  0.63795000  0.52761700  0.78028300  1
  Hf  Hf13  1  0.36205000  0.47238300  0.78028300  1
  Hf  Hf14  1  0.97238300  0.13795000  0.28028300  1
  Hf  Hf15  1  0.02761700  0.86205000  0.28028300  1
  Hf  Hf16  1  0.81963900  0.71612500  0.01179100  1
  Hf  Hf17  1  0.18036100  0.28387500  0.01179100  1
  Hf  Hf18  1  0.78387500  0.31963900  0.51179100  1
  Hf  Hf19  1  0.21612500  0.68036100  0.51179100  1
  Hf  Hf20  1  0.68036100  0.78387500  0.48820900  1
  Hf  Hf21  1  0.31963900  0.21612500  0.48820900  1
  Hf  Hf22  1  0.71612500  0.18036100  0.98820900  1
  Hf  Hf23  1  0.28387500  0.81963900  0.98820900  1
  P  P24  1  0.79435800  0.95862900  0.21283200  1
  P  P25  1  0.20564200  0.04137100  0.21283200  1
  P  P26  1  0.54137100  0.29435800  0.71283200  1
  P  P27  1  0.45862900  0.70564200  0.71283200  1
  P  P28  1  0.70564200  0.54137100  0.28716800  1
  P  P29  1  0.29435800  0.45862900  0.28716800  1
  P  P30  1  0.95862900  0.20564200  0.78716800  1
  P  P31  1  0.04137100  0.79435800  0.78716800  1
