# generated using pymatgen
data_KBi(PO3)4
_symmetry_space_group_name_H-M   'P 1'
_cell_length_a   9.12823900
_cell_length_b   10.62004100
_cell_length_c   12.96811954
_cell_angle_alpha   54.02561658
_cell_angle_beta   90.00000000
_cell_angle_gamma   90.00000000
_symmetry_Int_Tables_number   1
_chemical_formula_structural   KBi(PO3)4
_chemical_formula_sum   'K4 Bi4 P16 O48'
_cell_volume   1017.39325070
_cell_formula_units_Z   4
loop_
 _symmetry_equiv_pos_site_id
 _symmetry_equiv_pos_as_xyz
  1  'x, y, z'
loop_
 _atom_site_type_symbol
 _atom_site_label
 _atom_site_symmetry_multiplicity
 _atom_site_fract_x
 _atom_site_fract_y
 _atom_site_fract_z
 _atom_site_occupancy
  K  K0  1  0.92834200  0.24796400  0.04573500  1
  K  K1  1  0.57165800  0.24796400  0.54573500  1
  K  K2  1  0.42834200  0.75203600  0.45426500  1
  K  K3  1  0.07165800  0.75203600  0.95426500  1
  Bi  Bi4  1  0.22468600  0.18496000  0.31483900  1
  Bi  Bi5  1  0.77531400  0.81504000  0.68516100  1
  Bi  Bi6  1  0.72468600  0.81504000  0.18516100  1
  Bi  Bi7  1  0.27531400  0.18496000  0.81483900  1
  P  P8  1  0.10612300  0.30372800  0.51707800  1
  P  P9  1  0.97636000  0.48067400  0.26582500  1
  P  P10  1  0.89387700  0.69627200  0.48292200  1
  P  P11  1  0.67106800  0.18256500  0.85655800  1
  P  P12  1  0.82893200  0.18256500  0.35655800  1
  P  P13  1  0.52364000  0.48067400  0.76582500  1
  P  P14  1  0.60612300  0.69627200  0.98292200  1
  P  P15  1  0.17106800  0.81743500  0.64344200  1
  P  P16  1  0.40600100  0.88370200  0.76045900  1
  P  P17  1  0.09399900  0.88370200  0.26045900  1
  P  P18  1  0.90600100  0.11629800  0.73954100  1
  P  P19  1  0.47636000  0.51932600  0.23417500  1
  P  P20  1  0.39387700  0.30372800  0.01707800  1
  P  P21  1  0.02364000  0.51932600  0.73417500  1
  P  P22  1  0.32893200  0.81743500  0.14344200  1
  P  P23  1  0.59399900  0.11629800  0.23954100  1
  O  O24  1  0.15338000  0.64846300  0.67064000  1
  O  O25  1  0.20539900  0.77231600  0.24967000  1
  O  O26  1  0.03493700  0.86147100  0.68087200  1
  O  O27  1  0.31782000  0.01074100  0.74845400  1
  O  O28  1  0.54674800  0.53681800  0.11139600  1
  O  O29  1  0.46514000  0.07011500  0.32723300  1
  O  O30  1  0.45325200  0.46318200  0.88860400  1
  O  O31  1  0.76328600  0.07916700  0.48738400  1
  O  O32  1  0.96514000  0.92988500  0.17276700  1
  O  O33  1  0.29460100  0.77231600  0.74967000  1
  O  O34  1  0.54804200  0.24321500  0.09352200  1
  O  O35  1  0.34757400  0.19468100  0.98513700  1
  O  O36  1  0.03486000  0.07011500  0.82723300  1
  O  O37  1  0.84662000  0.35153700  0.32936000  1
  O  O38  1  0.53493700  0.13852900  0.81912800  1
  O  O39  1  0.96506300  0.13852900  0.31912800  1
  O  O40  1  0.53486000  0.92988500  0.67276700  1
  O  O41  1  0.91338700  0.55908600  0.79766600  1
  O  O42  1  0.95195800  0.24321500  0.59352200  1
  O  O43  1  0.09076800  0.36024800  0.81664000  1
  O  O44  1  0.95325200  0.53681800  0.61139600  1
  O  O45  1  0.65338000  0.35153700  0.82936000  1
  O  O46  1  0.79460100  0.22768400  0.75033000  1
  O  O47  1  0.78761100  0.65726300  0.41709200  1
  O  O48  1  0.26328600  0.92083300  0.01261600  1
  O  O49  1  0.73671400  0.07916700  0.98738400  1
  O  O50  1  0.59076800  0.63975200  0.68336000  1
  O  O51  1  0.68218000  0.98925900  0.25154600  1
  O  O52  1  0.04804200  0.75678500  0.40647800  1
  O  O53  1  0.65242600  0.80531900  0.01486300  1
  O  O54  1  0.41338700  0.44091400  0.70233400  1
  O  O55  1  0.21238900  0.34273700  0.58290800  1
  O  O56  1  0.58661300  0.55908600  0.29766600  1
  O  O57  1  0.28761100  0.34273700  0.08290800  1
  O  O58  1  0.34662000  0.64846300  0.17064000  1
  O  O59  1  0.23671400  0.92083300  0.51261600  1
  O  O60  1  0.71238900  0.65726300  0.91709200  1
  O  O61  1  0.40923200  0.36024800  0.31664000  1
  O  O62  1  0.04674800  0.46318200  0.38860400  1
  O  O63  1  0.08661300  0.44091400  0.20233400  1
  O  O64  1  0.81782000  0.98925900  0.75154600  1
  O  O65  1  0.70539900  0.22768400  0.25033000  1
  O  O66  1  0.18218000  0.01074100  0.24845400  1
  O  O67  1  0.46506300  0.86147100  0.18087200  1
  O  O68  1  0.90923200  0.63975200  0.18336000  1
  O  O69  1  0.45195800  0.75678500  0.90647800  1
  O  O70  1  0.15242600  0.19468100  0.48513700  1
  O  O71  1  0.84757400  0.80531900  0.51486300  1
