# generated using pymatgen
data_Cu3Mo8Br2O23
_symmetry_space_group_name_H-M   'P 1'
_cell_length_a   3.99378400
_cell_length_b   24.09775500
_cell_length_c   22.13812900
_cell_angle_alpha   90.00000000
_cell_angle_beta   90.00000000
_cell_angle_gamma   90.00000000
_symmetry_Int_Tables_number   1
_chemical_formula_structural   Cu3Mo8Br2O23
_chemical_formula_sum   'Cu12 Mo32 Br8 O92'
_cell_volume   2130.60072844
_cell_formula_units_Z   4
loop_
 _symmetry_equiv_pos_site_id
 _symmetry_equiv_pos_as_xyz
  1  'x, y, z'
loop_
 _atom_site_type_symbol
 _atom_site_label
 _atom_site_symmetry_multiplicity
 _atom_site_fract_x
 _atom_site_fract_y
 _atom_site_fract_z
 _atom_site_occupancy
  Cu  Cu0  1  0.50000000  0.00000000  0.00000000  1
  Cu  Cu1  1  0.50000000  0.00000000  0.50000000  1
  Cu  Cu2  1  0.50000000  0.50000000  0.00000000  1
  Cu  Cu3  1  0.50000000  0.50000000  0.50000000  1
  Cu  Cu4  1  0.97037800  0.02004000  0.09596700  1
  Cu  Cu5  1  0.02962200  0.97996000  0.59596700  1
  Cu  Cu6  1  0.97037800  0.47996000  0.90403300  1
  Cu  Cu7  1  0.02962200  0.52004000  0.40403300  1
  Cu  Cu8  1  0.02962200  0.97996000  0.90403300  1
  Cu  Cu9  1  0.97037800  0.02004000  0.40403300  1
  Cu  Cu10  1  0.02962200  0.52004000  0.09596700  1
  Cu  Cu11  1  0.97037800  0.47996000  0.59596700  1
  Mo  Mo12  1  0.93396800  0.82489900  0.25000000  1
  Mo  Mo13  1  0.06603200  0.17510100  0.75000000  1
  Mo  Mo14  1  0.93396800  0.67510100  0.75000000  1
  Mo  Mo15  1  0.06603200  0.32489900  0.25000000  1
  Mo  Mo16  1  0.08652500  0.96044300  0.25000000  1
  Mo  Mo17  1  0.91347500  0.03955700  0.75000000  1
  Mo  Mo18  1  0.08652500  0.53955700  0.75000000  1
  Mo  Mo19  1  0.91347500  0.46044300  0.25000000  1
  Mo  Mo20  1  0.06989600  0.87065400  0.10520500  1
  Mo  Mo21  1  0.93010400  0.12934600  0.60520500  1
  Mo  Mo22  1  0.06989600  0.62934600  0.89479500  1
  Mo  Mo23  1  0.93010400  0.37065400  0.39479500  1
  Mo  Mo24  1  0.93010400  0.12934600  0.89479500  1
  Mo  Mo25  1  0.06989600  0.87065400  0.39479500  1
  Mo  Mo26  1  0.93010400  0.37065400  0.10520500  1
  Mo  Mo27  1  0.06989600  0.62934600  0.60520500  1
  Mo  Mo28  1  0.07457700  0.71446900  0.16136500  1
  Mo  Mo29  1  0.92542300  0.28553100  0.66136500  1
  Mo  Mo30  1  0.07457700  0.78553100  0.83863500  1
  Mo  Mo31  1  0.92542300  0.21446900  0.33863500  1
  Mo  Mo32  1  0.92542300  0.28553100  0.83863500  1
  Mo  Mo33  1  0.07457700  0.71446900  0.33863500  1
  Mo  Mo34  1  0.92542300  0.21446900  0.16136500  1
  Mo  Mo35  1  0.07457700  0.78553100  0.66136500  1
  Mo  Mo36  1  0.08102400  0.08489900  0.25000000  1
  Mo  Mo37  1  0.91897600  0.91510100  0.75000000  1
  Mo  Mo38  1  0.08102400  0.41510100  0.75000000  1
  Mo  Mo39  1  0.91897600  0.58489900  0.25000000  1
  Mo  Mo40  1  0.93322900  0.75000000  0.00000000  1
  Mo  Mo41  1  0.06677100  0.25000000  0.50000000  1
  Mo  Mo42  1  0.06677100  0.25000000  0.00000000  1
  Mo  Mo43  1  0.93322900  0.75000000  0.50000000  1
  Br  Br44  1  0.48132000  0.07458200  0.06346500  1
  Br  Br45  1  0.51868000  0.92541800  0.56346500  1
  Br  Br46  1  0.48132000  0.42541800  0.93653500  1
  Br  Br47  1  0.51868000  0.57458200  0.43653500  1
  Br  Br48  1  0.51868000  0.92541800  0.93653500  1
  Br  Br49  1  0.48132000  0.07458200  0.43653500  1
  Br  Br50  1  0.51868000  0.57458200  0.06346500  1
  Br  Br51  1  0.48132000  0.42541800  0.56346500  1
  O  O52  1  0.49603500  0.82532100  0.25000000  1
  O  O53  1  0.50396500  0.17467900  0.75000000  1
  O  O54  1  0.49603500  0.67467900  0.75000000  1
  O  O55  1  0.50396500  0.32532100  0.25000000  1
  O  O56  1  0.00208000  0.79913700  0.16426500  1
  O  O57  1  0.99792000  0.20086300  0.66426500  1
  O  O58  1  0.00208000  0.70086300  0.83573500  1
  O  O59  1  0.99792000  0.29913700  0.33573500  1
  O  O60  1  0.99792000  0.20086300  0.83573500  1
  O  O61  1  0.00208000  0.79913700  0.33573500  1
  O  O62  1  0.99792000  0.29913700  0.16426500  1
  O  O63  1  0.00208000  0.70086300  0.66426500  1
  O  O64  1  0.00185400  0.74117900  0.25000000  1
  O  O65  1  0.99814600  0.25882100  0.75000000  1
  O  O66  1  0.00185400  0.75882100  0.75000000  1
  O  O67  1  0.99814600  0.24117900  0.25000000  1
  O  O68  1  0.00176800  0.89276500  0.19526800  1
  O  O69  1  0.99823200  0.10723500  0.69526800  1
  O  O70  1  0.00176800  0.60723500  0.80473200  1
  O  O71  1  0.99823200  0.39276500  0.30473200  1
  O  O72  1  0.99823200  0.10723500  0.80473200  1
  O  O73  1  0.00176800  0.89276500  0.30473200  1
  O  O74  1  0.99823200  0.39276500  0.19526800  1
  O  O75  1  0.00176800  0.60723500  0.69526800  1
  O  O76  1  0.52728000  0.95786800  0.25000000  1
  O  O77  1  0.47272000  0.04213200  0.75000000  1
  O  O78  1  0.52728000  0.54213200  0.75000000  1
  O  O79  1  0.47272000  0.45786800  0.25000000  1
  O  O80  1  0.01526600  0.02251400  0.19121400  1
  O  O81  1  0.98473400  0.97748600  0.69121400  1
  O  O82  1  0.01526600  0.47748600  0.80878600  1
  O  O83  1  0.98473400  0.52251400  0.30878600  1
  O  O84  1  0.98473400  0.97748600  0.80878600  1
  O  O85  1  0.01526600  0.02251400  0.30878600  1
  O  O86  1  0.98473400  0.52251400  0.19121400  1
  O  O87  1  0.01526600  0.47748600  0.69121400  1
  O  O88  1  0.51267500  0.86743000  0.11074800  1
  O  O89  1  0.48732500  0.13257000  0.61074800  1
  O  O90  1  0.51267500  0.63257000  0.88925200  1
  O  O91  1  0.48732500  0.36743000  0.38925200  1
  O  O92  1  0.48732500  0.13257000  0.88925200  1
  O  O93  1  0.51267500  0.86743000  0.38925200  1
  O  O94  1  0.48732500  0.36743000  0.11074800  1
  O  O95  1  0.51267500  0.63257000  0.61074800  1
  O  O96  1  0.01516300  0.94055300  0.08040600  1
  O  O97  1  0.98483700  0.05944700  0.58040600  1
  O  O98  1  0.01516300  0.55944700  0.91959400  1
  O  O99  1  0.98483700  0.44055300  0.41959400  1
  O  O100  1  0.98483700  0.05944700  0.91959400  1
  O  O101  1  0.01516300  0.94055300  0.41959400  1
  O  O102  1  0.98483700  0.44055300  0.08040600  1
  O  O103  1  0.01516300  0.55944700  0.58040600  1
  O  O104  1  0.00263500  0.82466300  0.03925900  1
  O  O105  1  0.99736500  0.17533700  0.53925900  1
  O  O106  1  0.00263500  0.67533700  0.96074100  1
  O  O107  1  0.99736500  0.32466300  0.46074100  1
  O  O108  1  0.99736500  0.17533700  0.96074100  1
  O  O109  1  0.00263500  0.82466300  0.46074100  1
  O  O110  1  0.99736500  0.32466300  0.03925900  1
  O  O111  1  0.00263500  0.67533700  0.53925900  1
  O  O112  1  0.51440200  0.71777700  0.16393300  1
  O  O113  1  0.48559800  0.28222300  0.66393300  1
  O  O114  1  0.51440200  0.78222300  0.83606700  1
  O  O115  1  0.48559800  0.21777700  0.33606700  1
  O  O116  1  0.48559800  0.28222300  0.83606700  1
  O  O117  1  0.51440200  0.71777700  0.33606700  1
  O  O118  1  0.48559800  0.21777700  0.16393300  1
  O  O119  1  0.51440200  0.78222300  0.66393300  1
  O  O120  1  0.00522200  0.64279000  0.18483500  1
  O  O121  1  0.99477800  0.35721000  0.68483500  1
  O  O122  1  0.00522200  0.85721000  0.81516500  1
  O  O123  1  0.99477800  0.14279000  0.31516500  1
  O  O124  1  0.99477800  0.35721000  0.81516500  1
  O  O125  1  0.00522200  0.64279000  0.31516500  1
  O  O126  1  0.99477800  0.14279000  0.18483500  1
  O  O127  1  0.00522200  0.85721000  0.68483500  1
  O  O128  1  0.00487200  0.71252700  0.07997800  1
  O  O129  1  0.99512800  0.28747300  0.57997800  1
  O  O130  1  0.00487200  0.78747300  0.92002200  1
  O  O131  1  0.99512800  0.21252700  0.42002200  1
  O  O132  1  0.99512800  0.28747300  0.92002200  1
  O  O133  1  0.00487200  0.71252700  0.42002200  1
  O  O134  1  0.99512800  0.21252700  0.07997800  1
  O  O135  1  0.00487200  0.78747300  0.57997800  1
  O  O136  1  0.52094900  0.08922900  0.25000000  1
  O  O137  1  0.47905100  0.91077100  0.75000000  1
  O  O138  1  0.52094900  0.41077100  0.75000000  1
  O  O139  1  0.47905100  0.58922900  0.25000000  1
  O  O140  1  0.49070100  0.75000000  0.00000000  1
  O  O141  1  0.50929900  0.25000000  0.50000000  1
  O  O142  1  0.50929900  0.25000000  0.00000000  1
  O  O143  1  0.49070100  0.75000000  0.50000000  1
