# generated using pymatgen
data_KSrVO4
_symmetry_space_group_name_H-M   'P 1'
_cell_length_a   5.93148100
_cell_length_b   7.55570300
_cell_length_c   10.09797900
_cell_angle_alpha   90.00000000
_cell_angle_beta   90.00000000
_cell_angle_gamma   90.00000000
_symmetry_Int_Tables_number   1
_chemical_formula_structural   KSrVO4
_chemical_formula_sum   'K4 Sr4 V4 O16'
_cell_volume   452.55616458
_cell_formula_units_Z   4
loop_
 _symmetry_equiv_pos_site_id
 _symmetry_equiv_pos_as_xyz
  1  'x, y, z'
loop_
 _atom_site_type_symbol
 _atom_site_label
 _atom_site_symmetry_multiplicity
 _atom_site_fract_x
 _atom_site_fract_y
 _atom_site_fract_z
 _atom_site_occupancy
  K  K0  1  0.48445600  0.09088600  0.57722800  1
  K  K1  1  0.51554400  0.59088600  0.92277200  1
  K  K2  1  0.01554400  0.90911400  0.07722800  1
  K  K3  1  0.98445600  0.40911400  0.42277200  1
  Sr  Sr4  1  0.98082700  0.24986300  0.80081900  1
  Sr  Sr5  1  0.48082700  0.25013700  0.19918100  1
  Sr  Sr6  1  0.51917300  0.75013700  0.30081900  1
  Sr  Sr7  1  0.01917300  0.74986300  0.69918100  1
  V  V8  1  0.48532400  0.52525700  0.58373000  1
  V  V9  1  0.01467600  0.47474300  0.08373000  1
  V  V10  1  0.98532400  0.97474300  0.41627000  1
  V  V11  1  0.51467600  0.02525700  0.91627000  1
  O  O12  1  0.50621700  0.92990900  0.07416100  1
  O  O13  1  0.24479600  0.55554100  0.17261200  1
  O  O14  1  0.25520400  0.44445900  0.67261200  1
  O  O15  1  0.06464600  0.25122800  0.06214200  1
  O  O16  1  0.74479600  0.94445900  0.82738800  1
  O  O17  1  0.56464600  0.24877200  0.93785800  1
  O  O18  1  0.76234800  0.51668800  0.16883800  1
  O  O19  1  0.26234800  0.98331200  0.83116200  1
  O  O20  1  0.99378300  0.07009100  0.57416100  1
  O  O21  1  0.75520400  0.05554100  0.32738800  1
  O  O22  1  0.00621700  0.57009100  0.92583900  1
  O  O23  1  0.49378300  0.42990900  0.42583900  1
  O  O24  1  0.23765200  0.01668800  0.33116200  1
  O  O25  1  0.43535400  0.74877200  0.56214200  1
  O  O26  1  0.73765200  0.48331200  0.66883800  1
  O  O27  1  0.93535400  0.75122800  0.43785800  1
