# generated using pymatgen
data_ZnAsHPbO5
_symmetry_space_group_name_H-M   'P 1'
_cell_length_a   6.19840400
_cell_length_b   7.81000500
_cell_length_c   9.47579300
_cell_angle_alpha   90.00000000
_cell_angle_beta   90.00000000
_cell_angle_gamma   90.00000000
_symmetry_Int_Tables_number   1
_chemical_formula_structural   ZnAsHPbO5
_chemical_formula_sum   'Zn4 As4 H4 Pb4 O20'
_cell_volume   458.71902883
_cell_formula_units_Z   4
loop_
 _symmetry_equiv_pos_site_id
 _symmetry_equiv_pos_as_xyz
  1  'x, y, z'
loop_
 _atom_site_type_symbol
 _atom_site_label
 _atom_site_symmetry_multiplicity
 _atom_site_fract_x
 _atom_site_fract_y
 _atom_site_fract_z
 _atom_site_occupancy
  Zn  Zn0  1  0.23086500  0.22965500  0.51247300  1
  Zn  Zn1  1  0.73086500  0.27034500  0.48752700  1
  Zn  Zn2  1  0.76913500  0.72965500  0.98752700  1
  Zn  Zn3  1  0.26913500  0.77034500  0.01247300  1
  As  As4  1  0.98612400  0.37696400  0.81475900  1
  As  As5  1  0.48612400  0.12303600  0.18524100  1
  As  As6  1  0.01387600  0.87696400  0.68524100  1
  As  As7  1  0.51387600  0.62303600  0.31475900  1
  H  H8  1  0.51185600  0.00429900  0.51055100  1
  H  H9  1  0.01185600  0.49570100  0.48944900  1
  H  H10  1  0.48814400  0.50429900  0.98944900  1
  H  H11  1  0.98814400  0.99570100  0.01055100  1
  Pb  Pb12  1  0.03362500  0.36868000  0.17144700  1
  Pb  Pb13  1  0.53362500  0.13132000  0.82855300  1
  Pb  Pb14  1  0.96637500  0.86868000  0.32855300  1
  Pb  Pb15  1  0.46637500  0.63132000  0.67144700  1
  O  O16  1  0.49265700  0.44638300  0.42625200  1
  O  O17  1  0.99265700  0.05361700  0.57374800  1
  O  O18  1  0.50734300  0.94638300  0.07374800  1
  O  O19  1  0.00734300  0.55361700  0.92625200  1
  O  O20  1  0.43868500  0.29580700  0.07661300  1
  O  O21  1  0.93868500  0.20419300  0.92338700  1
  O  O22  1  0.56131500  0.79580700  0.42338700  1
  O  O23  1  0.06131500  0.70419300  0.57661300  1
  O  O24  1  0.72749700  0.14271400  0.27801800  1
  O  O25  1  0.22749700  0.35728600  0.72198200  1
  O  O26  1  0.27250300  0.64271400  0.22198200  1
  O  O27  1  0.77250300  0.85728600  0.77801800  1
  O  O28  1  0.73929400  0.61142500  0.20562400  1
  O  O29  1  0.23929400  0.88857500  0.79437600  1
  O  O30  1  0.26070600  0.11142500  0.29437600  1
  O  O31  1  0.76070600  0.38857500  0.70562400  1
  O  O32  1  0.50452100  0.11455000  0.56212100  1
  O  O33  1  0.00452100  0.38545000  0.43787900  1
  O  O34  1  0.49547900  0.61455000  0.93787900  1
  O  O35  1  0.99547900  0.88545000  0.06212100  1
