# generated using pymatgen
data_ErNi
_symmetry_space_group_name_H-M   'P 1'
_cell_length_a   4.08211500
_cell_length_b   5.38741000
_cell_length_c   7.01255800
_cell_angle_alpha   90.00000000
_cell_angle_beta   90.00000000
_cell_angle_gamma   90.00000000
_symmetry_Int_Tables_number   1
_chemical_formula_structural   ErNi
_chemical_formula_sum   'Er4 Ni4'
_cell_volume   154.22036608
_cell_formula_units_Z   4
loop_
 _symmetry_equiv_pos_site_id
 _symmetry_equiv_pos_as_xyz
  1  'x, y, z'
loop_
 _atom_site_type_symbol
 _atom_site_label
 _atom_site_symmetry_multiplicity
 _atom_site_fract_x
 _atom_site_fract_y
 _atom_site_fract_z
 _atom_site_occupancy
  Er  Er0  1  0.75000000  0.86973000  0.82077600  1
  Er  Er1  1  0.25000000  0.13027000  0.17922400  1
  Er  Er2  1  0.25000000  0.36973000  0.67922400  1
  Er  Er3  1  0.75000000  0.63027000  0.32077600  1
  Ni  Ni4  1  0.25000000  0.87514200  0.53756700  1
  Ni  Ni5  1  0.75000000  0.12485800  0.46243300  1
  Ni  Ni6  1  0.75000000  0.37514200  0.96243300  1
  Ni  Ni7  1  0.25000000  0.62485800  0.03756700  1
