# generated using pymatgen
data_Lu4B3C4
_symmetry_space_group_name_H-M   'P 1'
_cell_length_a   3.41419500
_cell_length_b   3.49909636
_cell_length_c   11.76727471
_cell_angle_alpha   92.63859807
_cell_angle_beta   96.05965910
_cell_angle_gamma   90.14601113
_symmetry_Int_Tables_number   1
_chemical_formula_structural   Lu4B3C4
_chemical_formula_sum   'Lu4 B3 C4'
_cell_volume   139.64131542
_cell_formula_units_Z   1
loop_
 _symmetry_equiv_pos_site_id
 _symmetry_equiv_pos_as_xyz
  1  'x, y, z'
loop_
 _atom_site_type_symbol
 _atom_site_label
 _atom_site_symmetry_multiplicity
 _atom_site_fract_x
 _atom_site_fract_y
 _atom_site_fract_z
 _atom_site_occupancy
  Lu  Lu0  1  0.80456600  0.02493600  0.65042700  1
  Lu  Lu1  1  0.38463600  0.55385500  0.85886000  1
  Lu  Lu2  1  0.61536400  0.44614500  0.14114000  1
  Lu  Lu3  1  0.19543400  0.97506400  0.34957300  1
  B  B4  1  0.26680100  0.50729000  0.54027000  1
  B  B5  1  0.73319900  0.49271000  0.45973000  1
  B  B6  1  0.00000000  0.00000000  0.00000000  1
  C  C7  1  0.88580600  0.06371100  0.87861800  1
  C  C8  1  0.68803000  0.47183800  0.33104300  1
  C  C9  1  0.31197000  0.52816200  0.66895700  1
  C  C10  1  0.11419400  0.93628900  0.12138200  1
