# generated using pymatgen
data_Nd2Ti3(ClO4)2
_symmetry_space_group_name_H-M   'P 1'
_cell_length_a   5.05581700
_cell_length_b   11.66970700
_cell_length_c   14.98365600
_cell_angle_alpha   90.00000000
_cell_angle_beta   90.00000000
_cell_angle_gamma   90.00000000
_symmetry_Int_Tables_number   1
_chemical_formula_structural   Nd2Ti3(ClO4)2
_chemical_formula_sum   'Nd8 Ti12 Cl8 O32'
_cell_volume   884.03425112
_cell_formula_units_Z   4
loop_
 _symmetry_equiv_pos_site_id
 _symmetry_equiv_pos_as_xyz
  1  'x, y, z'
loop_
 _atom_site_type_symbol
 _atom_site_label
 _atom_site_symmetry_multiplicity
 _atom_site_fract_x
 _atom_site_fract_y
 _atom_site_fract_z
 _atom_site_occupancy
  Nd  Nd0  1  0.02170600  0.36279400  0.33656900  1
  Nd  Nd1  1  0.47829400  0.36279400  0.66343100  1
  Nd  Nd2  1  0.47829400  0.86279400  0.83656900  1
  Nd  Nd3  1  0.52170600  0.13720600  0.16343100  1
  Nd  Nd4  1  0.97829400  0.13720600  0.83656900  1
  Nd  Nd5  1  0.97829400  0.63720600  0.66343100  1
  Nd  Nd6  1  0.02170600  0.86279400  0.16343100  1
  Nd  Nd7  1  0.52170600  0.63720600  0.33656900  1
  Ti  Ti8  1  0.75000000  0.09227700  0.50000000  1
  Ti  Ti9  1  0.87184100  0.42286300  0.83772100  1
  Ti  Ti10  1  0.12815900  0.57713700  0.16227900  1
  Ti  Ti11  1  0.12815900  0.07713700  0.33772100  1
  Ti  Ti12  1  0.25000000  0.40772300  0.00000000  1
  Ti  Ti13  1  0.37184100  0.07713700  0.66227900  1
  Ti  Ti14  1  0.25000000  0.90772300  0.50000000  1
  Ti  Ti15  1  0.37184100  0.57713700  0.83772100  1
  Ti  Ti16  1  0.62815900  0.92286300  0.33772100  1
  Ti  Ti17  1  0.62815900  0.42286300  0.16227900  1
  Ti  Ti18  1  0.75000000  0.59227700  0.00000000  1
  Ti  Ti19  1  0.87184100  0.92286300  0.66227900  1
  Cl  Cl20  1  0.01779700  0.60146000  0.42209400  1
  Cl  Cl21  1  0.48220300  0.10146000  0.92209400  1
  Cl  Cl22  1  0.98220300  0.89854000  0.92209400  1
  Cl  Cl23  1  0.48220300  0.60146000  0.57790600  1
  Cl  Cl24  1  0.01779700  0.10146000  0.07790600  1
  Cl  Cl25  1  0.51779700  0.89854000  0.07790600  1
  Cl  Cl26  1  0.51779700  0.39854000  0.42209400  1
  Cl  Cl27  1  0.98220300  0.39854000  0.57790600  1
  O  O28  1  0.06238300  0.04516700  0.57654900  1
  O  O29  1  0.06238300  0.54516700  0.92345100  1
  O  O30  1  0.57446300  0.68304900  0.91879100  1
  O  O31  1  0.42553700  0.81695100  0.41879100  1
  O  O32  1  0.32680500  0.46886000  0.23698000  1
  O  O33  1  0.43761700  0.04516700  0.42345100  1
  O  O34  1  0.75073000  0.79844000  0.72080300  1
  O  O35  1  0.07446300  0.31695100  0.91879100  1
  O  O36  1  0.24927000  0.70156000  0.22080300  1
  O  O37  1  0.17319500  0.96886000  0.73698000  1
  O  O38  1  0.25073000  0.70156000  0.77919700  1
  O  O39  1  0.24927000  0.20156000  0.27919700  1
  O  O40  1  0.17319500  0.46886000  0.76302000  1
  O  O41  1  0.82680500  0.03114000  0.26302000  1
  O  O42  1  0.74927000  0.29844000  0.22080300  1
  O  O43  1  0.43761700  0.54516700  0.07654900  1
  O  O44  1  0.56238300  0.95483300  0.57654900  1
  O  O45  1  0.93761700  0.95483300  0.42345100  1
  O  O46  1  0.92553700  0.18304900  0.41879100  1
  O  O47  1  0.67319500  0.03114000  0.73698000  1
  O  O48  1  0.82680500  0.53114000  0.23698000  1
  O  O49  1  0.56238300  0.45483300  0.92345100  1
  O  O50  1  0.74927000  0.79844000  0.27919700  1
  O  O51  1  0.92553700  0.68304900  0.08120900  1
  O  O52  1  0.42553700  0.31695100  0.08120900  1
  O  O53  1  0.75073000  0.29844000  0.77919700  1
  O  O54  1  0.67319500  0.53114000  0.76302000  1
  O  O55  1  0.93761700  0.45483300  0.07654900  1
  O  O56  1  0.25073000  0.20156000  0.72080300  1
  O  O57  1  0.32680500  0.96886000  0.26302000  1
  O  O58  1  0.57446300  0.18304900  0.58120900  1
  O  O59  1  0.07446300  0.81695100  0.58120900  1
