# generated using pymatgen
data_Ti3Tl3(PO4)5
_symmetry_space_group_name_H-M   'P 1'
_cell_length_a   6.40304600
_cell_length_b   14.94300500
_cell_length_c   18.52175000
_cell_angle_alpha   90.00000000
_cell_angle_beta   90.00000000
_cell_angle_gamma   90.00000000
_symmetry_Int_Tables_number   1
_chemical_formula_structural   Ti3Tl3(PO4)5
_chemical_formula_sum   'Ti12 Tl12 P20 O80'
_cell_volume   1772.17490155
_cell_formula_units_Z   4
loop_
 _symmetry_equiv_pos_site_id
 _symmetry_equiv_pos_as_xyz
  1  'x, y, z'
loop_
 _atom_site_type_symbol
 _atom_site_label
 _atom_site_symmetry_multiplicity
 _atom_site_fract_x
 _atom_site_fract_y
 _atom_site_fract_z
 _atom_site_occupancy
  Ti  Ti0  1  0.74414500  0.37752300  0.54374200  1
  Ti  Ti1  1  0.25585500  0.37752300  0.04374200  1
  Ti  Ti2  1  0.24684000  0.74788800  0.14735700  1
  Ti  Ti3  1  0.75316000  0.74788800  0.64735700  1
  Ti  Ti4  1  0.74422700  0.63962100  0.94840900  1
  Ti  Ti5  1  0.25577300  0.13962100  0.05159100  1
  Ti  Ti6  1  0.25585500  0.87752300  0.45625800  1
  Ti  Ti7  1  0.24684000  0.24788800  0.35264300  1
  Ti  Ti8  1  0.74414500  0.87752300  0.95625800  1
  Ti  Ti9  1  0.25577300  0.63962100  0.44840900  1
  Ti  Ti10  1  0.74422700  0.13962100  0.55159100  1
  Ti  Ti11  1  0.75316000  0.24788800  0.85264300  1
  Tl  Tl12  1  0.85483600  0.47556000  0.34496600  1
  Tl  Tl13  1  0.14377000  0.02722400  0.85065200  1
  Tl  Tl14  1  0.85623000  0.52722400  0.14934800  1
  Tl  Tl15  1  0.82772600  0.24955300  0.17766400  1
  Tl  Tl16  1  0.82772600  0.74955300  0.32233600  1
  Tl  Tl17  1  0.14516400  0.97556000  0.65503400  1
  Tl  Tl18  1  0.85483600  0.97556000  0.15503400  1
  Tl  Tl19  1  0.14516400  0.47556000  0.84496600  1
  Tl  Tl20  1  0.85623000  0.02722400  0.35065200  1
  Tl  Tl21  1  0.14377000  0.52722400  0.64934800  1
  Tl  Tl22  1  0.17227400  0.24955300  0.67766400  1
  Tl  Tl23  1  0.17227400  0.74955300  0.82233600  1
  P  P24  1  0.64299000  0.39991400  0.72184900  1
  P  P25  1  0.25485200  0.75152300  0.60338000  1
  P  P26  1  0.64299000  0.89991400  0.77815100  1
  P  P27  1  0.64439900  0.59167800  0.77312300  1
  P  P28  1  0.35701000  0.89991400  0.27815100  1
  P  P29  1  0.75326900  0.10991500  0.00303600  1
  P  P30  1  0.25485200  0.25152300  0.89662000  1
  P  P31  1  0.64439900  0.09167800  0.72687700  1
  P  P32  1  0.35560100  0.09167800  0.22687700  1
  P  P33  1  0.74514800  0.75152300  0.10338000  1
  P  P34  1  0.74514800  0.25152300  0.39662000  1
  P  P35  1  0.35560100  0.59167800  0.27312300  1
  P  P36  1  0.24641400  0.40618000  0.48919100  1
  P  P37  1  0.75358600  0.40618000  0.98919100  1
  P  P38  1  0.24641400  0.90618000  0.01080900  1
  P  P39  1  0.75326900  0.60991500  0.49696400  1
  P  P40  1  0.35701000  0.39991400  0.22184900  1
  P  P41  1  0.24673100  0.60991500  0.99696400  1
  P  P42  1  0.75358600  0.90618000  0.51080900  1
  P  P43  1  0.24673100  0.10991500  0.50303600  1
  O  O44  1  0.23814300  0.85123800  0.08227800  1
  O  O45  1  0.44069800  0.13490300  0.54865000  1
  O  O46  1  0.06522500  0.24829400  0.84468000  1
  O  O47  1  0.75340200  0.51008300  0.51519900  1
  O  O48  1  0.75496400  0.82415500  0.73669800  1
  O  O49  1  0.55930200  0.13490300  0.04865000  1
  O  O50  1  0.05578400  0.63356600  0.94904400  1
  O  O51  1  0.75238300  0.11731400  0.65554600  1
  O  O52  1  0.23997400  0.66709400  0.06674000  1
  O  O53  1  0.24698700  0.50630700  0.47075700  1
  O  O54  1  0.05624200  0.38323800  0.53805000  1
  O  O55  1  0.75769400  0.13958100  0.78934700  1
  O  O56  1  0.59052800  0.59875800  0.27267000  1
  O  O57  1  0.93477500  0.24829400  0.34468000  1
  O  O58  1  0.74970800  0.34032600  0.43931700  1
  O  O59  1  0.05624200  0.88323800  0.96195000  1
  O  O60  1  0.28274700  0.48751400  0.26726600  1
  O  O61  1  0.25050200  0.26044300  0.06900400  1
  O  O62  1  0.24230600  0.63958100  0.21065300  1
  O  O63  1  0.76185700  0.85123800  0.58227800  1
  O  O64  1  0.44069800  0.63490300  0.95135000  1
  O  O65  1  0.25029200  0.34032600  0.93931700  1
  O  O66  1  0.55930200  0.63490300  0.45135000  1
  O  O67  1  0.54668600  0.74948100  0.15093200  1
  O  O68  1  0.94421600  0.13356600  0.05095600  1
  O  O69  1  0.75496400  0.32415500  0.76330200  1
  O  O70  1  0.24659800  0.01008300  0.48480100  1
  O  O71  1  0.25200100  0.66763600  0.55436300  1
  O  O72  1  0.25029200  0.84032600  0.56068300  1
  O  O73  1  0.74799900  0.16763600  0.44563700  1
  O  O74  1  0.75238300  0.61731400  0.84445400  1
  O  O75  1  0.76185700  0.35123800  0.91772200  1
  O  O76  1  0.71725300  0.98751400  0.73273400  1
  O  O77  1  0.59052800  0.09875800  0.22733000  1
  O  O78  1  0.74949800  0.76044300  0.93099600  1
  O  O79  1  0.28274700  0.98751400  0.23273400  1
  O  O80  1  0.24230600  0.13958100  0.28934700  1
  O  O81  1  0.24761700  0.11731400  0.15554600  1
  O  O82  1  0.25050200  0.76044300  0.43099600  1
  O  O83  1  0.25315600  0.41362000  0.14719500  1
  O  O84  1  0.25200100  0.16763600  0.94563700  1
  O  O85  1  0.54668600  0.24948100  0.34906800  1
  O  O86  1  0.75769400  0.63958100  0.71065300  1
  O  O87  1  0.93477500  0.74829400  0.15532000  1
  O  O88  1  0.75301300  0.00630700  0.52924300  1
  O  O89  1  0.05578400  0.13356600  0.55095600  1
  O  O90  1  0.44090900  0.38151100  0.53476200  1
  O  O91  1  0.40947200  0.59875800  0.77267000  1
  O  O92  1  0.74684400  0.41362000  0.64719500  1
  O  O93  1  0.23814300  0.35123800  0.41772200  1
  O  O94  1  0.24503600  0.32415500  0.26330200  1
  O  O95  1  0.25315600  0.91362000  0.35280500  1
  O  O96  1  0.94375800  0.38323800  0.03805000  1
  O  O97  1  0.24761700  0.61731400  0.34445400  1
  O  O98  1  0.23997400  0.16709400  0.43326000  1
  O  O99  1  0.75340200  0.01008300  0.98480100  1
  O  O100  1  0.74684400  0.91362000  0.85280500  1
  O  O101  1  0.24659800  0.51008300  0.01519900  1
  O  O102  1  0.74799900  0.66763600  0.05436300  1
  O  O103  1  0.40947200  0.09875800  0.72733000  1
  O  O104  1  0.94375800  0.88323800  0.46195000  1
  O  O105  1  0.24503600  0.82415500  0.23669800  1
  O  O106  1  0.59230500  0.39488900  0.22003200  1
  O  O107  1  0.06522500  0.74829400  0.65532000  1
  O  O108  1  0.71725300  0.48751400  0.76726600  1
  O  O109  1  0.75301300  0.50630700  0.97075700  1
  O  O110  1  0.44090900  0.88151100  0.96523800  1
  O  O111  1  0.55909100  0.38151100  0.03476200  1
  O  O112  1  0.40769500  0.39488900  0.72003200  1
  O  O113  1  0.45331400  0.74948100  0.65093200  1
  O  O114  1  0.74949800  0.26044300  0.56900400  1
  O  O115  1  0.24698700  0.00630700  0.02924300  1
  O  O116  1  0.76002600  0.66709400  0.56674000  1
  O  O117  1  0.59230500  0.89488900  0.27996800  1
  O  O118  1  0.94421600  0.63356600  0.44904400  1
  O  O119  1  0.74970800  0.84032600  0.06068300  1
  O  O120  1  0.40769500  0.89488900  0.77996800  1
  O  O121  1  0.76002600  0.16709400  0.93326000  1
  O  O122  1  0.55909100  0.88151100  0.46523800  1
  O  O123  1  0.45331400  0.24948100  0.84906800  1
