# generated using pymatgen
data_HoNiC2
_symmetry_space_group_name_H-M   'P 1'
_cell_length_a   3.74957046
_cell_length_b   3.74957046
_cell_length_c   3.56541500
_cell_angle_alpha   90.00000000
_cell_angle_beta   90.00000000
_cell_angle_gamma   106.02559194
_symmetry_Int_Tables_number   1
_chemical_formula_structural   HoNiC2
_chemical_formula_sum   'Ho1 Ni1 C2'
_cell_volume   48.17914530
_cell_formula_units_Z   1
loop_
 _symmetry_equiv_pos_site_id
 _symmetry_equiv_pos_as_xyz
  1  'x, y, z'
loop_
 _atom_site_type_symbol
 _atom_site_label
 _atom_site_symmetry_multiplicity
 _atom_site_fract_x
 _atom_site_fract_y
 _atom_site_fract_z
 _atom_site_occupancy
  Ho  Ho0  1  0.99867400  0.00132600  0.00000000  1
  Ni  Ni1  1  0.38736300  0.61263700  0.50000000  1
  C  C2  1  0.54669600  0.14873400  0.50000000  1
  C  C3  1  0.85126600  0.45330400  0.50000000  1
