# generated using pymatgen
data_DyP5O14
_symmetry_space_group_name_H-M   'P 1'
_cell_length_a   9.18432911
_cell_length_b   9.18432911
_cell_length_c   12.60306614
_cell_angle_alpha   88.89835724
_cell_angle_beta   88.89835724
_cell_angle_gamma   89.51196595
_symmetry_Int_Tables_number   1
_chemical_formula_structural   DyP5O14
_chemical_formula_sum   'Dy4 P20 O56'
_cell_volume   1062.66432244
_cell_formula_units_Z   4
loop_
 _symmetry_equiv_pos_site_id
 _symmetry_equiv_pos_as_xyz
  1  'x, y, z'
loop_
 _atom_site_type_symbol
 _atom_site_label
 _atom_site_symmetry_multiplicity
 _atom_site_fract_x
 _atom_site_fract_y
 _atom_site_fract_z
 _atom_site_occupancy
  Dy  Dy0  1  0.47856600  0.52143400  0.25000000  1
  Dy  Dy1  1  0.03198900  0.96801100  0.25000000  1
  Dy  Dy2  1  0.52143400  0.47856600  0.75000000  1
  Dy  Dy3  1  0.96801100  0.03198900  0.75000000  1
  P  P4  1  0.38657900  0.32167100  0.50012800  1
  P  P5  1  0.32167100  0.38657900  0.00012800  1
  P  P6  1  0.52002700  0.18374900  0.10486500  1
  P  P7  1  0.82522900  0.12694900  0.03314600  1
  P  P8  1  0.87305100  0.17477100  0.46685400  1
  P  P9  1  0.57099900  0.07246000  0.75825400  1
  P  P10  1  0.81625100  0.47997300  0.39513500  1
  P  P11  1  0.07246000  0.57099900  0.25825400  1
  P  P12  1  0.61342100  0.67832900  0.49987200  1
  P  P13  1  0.47997300  0.81625100  0.89513500  1
  P  P14  1  0.31845300  0.04546300  0.60935300  1
  P  P15  1  0.95453700  0.68154700  0.89064700  1
  P  P16  1  0.18374900  0.52002700  0.60486500  1
  P  P17  1  0.67832900  0.61342100  0.99987200  1
  P  P18  1  0.68154700  0.95453700  0.39064700  1
  P  P19  1  0.17477100  0.87305100  0.96685400  1
  P  P20  1  0.04546300  0.31845300  0.10935300  1
  P  P21  1  0.42900100  0.92754000  0.24174600  1
  P  P22  1  0.92754000  0.42900100  0.74174600  1
  P  P23  1  0.12694900  0.82522900  0.53314600  1
  O  O24  1  0.35941900  0.48793600  0.08635100  1
  O  O25  1  0.07908500  0.87120500  0.42603200  1
  O  O26  1  0.17496700  0.65434000  0.52447800  1
  O  O27  1  0.72016400  0.01986400  0.73103100  1
  O  O28  1  0.89835500  0.79874000  0.82061000  1
  O  O29  1  0.20126000  0.10164500  0.67939000  1
  O  O30  1  0.28386800  0.53824400  0.69353700  1
  O  O31  1  0.22751900  0.54000900  0.28147300  1
  O  O32  1  0.65434000  0.17496700  0.02447800  1
  O  O33  1  0.98013600  0.27983600  0.76896900  1
  O  O34  1  0.34566000  0.82503300  0.97552200  1
  O  O35  1  0.12879500  0.92091500  0.07396800  1
  O  O36  1  0.51206400  0.64058100  0.41364900  1
  O  O37  1  0.46910700  0.01392800  0.66320400  1
  O  O38  1  0.98607200  0.53089300  0.83679600  1
  O  O39  1  0.38969200  0.22280200  0.02873900  1
  O  O40  1  0.61030800  0.77719800  0.97126100  1
  O  O41  1  0.01392800  0.46910700  0.16320400  1
  O  O42  1  0.35054100  0.42071700  0.88654700  1
  O  O43  1  0.15395300  0.96439300  0.86889200  1
  O  O44  1  0.57928300  0.64945900  0.61345300  1
  O  O45  1  0.54000900  0.22751900  0.78147300  1
  O  O46  1  0.53824400  0.28386800  0.19353700  1
  O  O47  1  0.14792500  0.35115200  0.00916400  1
  O  O48  1  0.77719800  0.61030800  0.47126100  1
  O  O49  1  0.71613200  0.46175600  0.30646300  1
  O  O50  1  0.64884800  0.85207500  0.49083600  1
  O  O51  1  0.01958800  0.49448100  0.63870500  1
  O  O52  1  0.85207500  0.64884800  0.99083600  1
  O  O53  1  0.49448100  0.01958800  0.13870500  1
  O  O54  1  0.01986400  0.72016400  0.23103100  1
  O  O55  1  0.92091500  0.12879500  0.57396800  1
  O  O56  1  0.10164500  0.20126000  0.17939000  1
  O  O57  1  0.03560700  0.84604700  0.63110800  1
  O  O58  1  0.64945900  0.57928300  0.11345300  1
  O  O59  1  0.28953300  0.89470500  0.55510400  1
  O  O60  1  0.96439300  0.15395300  0.36889200  1
  O  O61  1  0.35115200  0.14792500  0.50916400  1
  O  O62  1  0.48793600  0.35941900  0.58635100  1
  O  O63  1  0.98041200  0.50551900  0.36129500  1
  O  O64  1  0.50551900  0.98041200  0.86129500  1
  O  O65  1  0.46175600  0.71613200  0.80646300  1
  O  O66  1  0.27983600  0.98013600  0.26896900  1
  O  O67  1  0.89470500  0.28953300  0.05510400  1
  O  O68  1  0.53089300  0.98607200  0.33679600  1
  O  O69  1  0.87120500  0.07908500  0.92603200  1
  O  O70  1  0.77248100  0.45999100  0.71852700  1
  O  O71  1  0.82503300  0.34566000  0.47552200  1
  O  O72  1  0.84604700  0.03560700  0.13110800  1
  O  O73  1  0.42071700  0.35054100  0.38654700  1
  O  O74  1  0.10529500  0.71046700  0.94489600  1
  O  O75  1  0.45999100  0.77248100  0.21852700  1
  O  O76  1  0.64058100  0.51206400  0.91364900  1
  O  O77  1  0.79874000  0.89835500  0.32061000  1
  O  O78  1  0.71046700  0.10529500  0.44489600  1
  O  O79  1  0.22280200  0.38969200  0.52873900  1
