# generated using pymatgen
data_RbP4N7
_symmetry_space_group_name_H-M   'P 1'
_cell_length_a   4.72653700
_cell_length_b   10.00555000
_cell_length_c   12.42463700
_cell_angle_alpha   90.00000000
_cell_angle_beta   90.00000000
_cell_angle_gamma   90.00000000
_symmetry_Int_Tables_number   1
_chemical_formula_structural   RbP4N7
_chemical_formula_sum   'Rb4 P16 N28'
_cell_volume   587.58099148
_cell_formula_units_Z   4
loop_
 _symmetry_equiv_pos_site_id
 _symmetry_equiv_pos_as_xyz
  1  'x, y, z'
loop_
 _atom_site_type_symbol
 _atom_site_label
 _atom_site_symmetry_multiplicity
 _atom_site_fract_x
 _atom_site_fract_y
 _atom_site_fract_z
 _atom_site_occupancy
  Rb  Rb0  1  0.26754300  0.14610300  0.75000000  1
  Rb  Rb1  1  0.76754300  0.35389700  0.25000000  1
  Rb  Rb2  1  0.73245700  0.85389700  0.25000000  1
  Rb  Rb3  1  0.23245700  0.64610300  0.75000000  1
  P  P4  1  0.78722000  0.41146600  0.86997600  1
  P  P5  1  0.28722000  0.08853400  0.13002400  1
  P  P6  1  0.21278000  0.58853400  0.36997600  1
  P  P7  1  0.71278000  0.91146600  0.63002400  1
  P  P8  1  0.21278000  0.58853400  0.13002400  1
  P  P9  1  0.71278000  0.91146600  0.86997600  1
  P  P10  1  0.78722000  0.41146600  0.63002400  1
  P  P11  1  0.28722000  0.08853400  0.36997600  1
  P  P12  1  0.77772400  0.15731800  0.00031600  1
  P  P13  1  0.27772400  0.34268200  0.99968400  1
  P  P14  1  0.22227600  0.84268200  0.50031600  1
  P  P15  1  0.72227600  0.65731800  0.49968400  1
  P  P16  1  0.22227600  0.84268200  0.99968400  1
  P  P17  1  0.72227600  0.65731800  0.00031600  1
  P  P18  1  0.77772400  0.15731800  0.49968400  1
  P  P19  1  0.27772400  0.34268200  0.50031600  1
  N  N20  1  0.70220300  0.37334200  0.75000000  1
  N  N21  1  0.20220300  0.12665800  0.25000000  1
  N  N22  1  0.29779700  0.62665800  0.25000000  1
  N  N23  1  0.79779700  0.87334200  0.75000000  1
  N  N24  1  0.11679200  0.38330700  0.89274700  1
  N  N25  1  0.61679200  0.11669300  0.10725300  1
  N  N26  1  0.88320800  0.61669300  0.39274700  1
  N  N27  1  0.38320800  0.88330700  0.60725300  1
  N  N28  1  0.88320800  0.61669300  0.10725300  1
  N  N29  1  0.38320800  0.88330700  0.89274700  1
  N  N30  1  0.11679200  0.38330700  0.60725300  1
  N  N31  1  0.61679200  0.11669300  0.39274700  1
  N  N32  1  0.81385000  0.06013000  0.90027100  1
  N  N33  1  0.31385000  0.43987000  0.09972900  1
  N  N34  1  0.18615000  0.93987000  0.40027100  1
  N  N35  1  0.68615000  0.56013000  0.59972900  1
  N  N36  1  0.18615000  0.93987000  0.09972900  1
  N  N37  1  0.68615000  0.56013000  0.90027100  1
  N  N38  1  0.81385000  0.06013000  0.59972900  1
  N  N39  1  0.31385000  0.43987000  0.40027100  1
  N  N40  1  0.61491100  0.30043800  0.95645800  1
  N  N41  1  0.11491100  0.19956200  0.04354200  1
  N  N42  1  0.38508900  0.69956200  0.45645800  1
  N  N43  1  0.88508900  0.80043800  0.54354200  1
  N  N44  1  0.38508900  0.69956200  0.04354200  1
  N  N45  1  0.88508900  0.80043800  0.95645800  1
  N  N46  1  0.61491100  0.30043800  0.54354200  1
  N  N47  1  0.11491100  0.19956200  0.45645800  1
