# generated using pymatgen
data_Cs2Bi4O7
_symmetry_space_group_name_H-M   'P 1'
_cell_length_a   13.00015197
_cell_length_b   13.00015197
_cell_length_c   16.14734499
_cell_angle_alpha   85.34704822
_cell_angle_beta   85.34704822
_cell_angle_gamma   61.18070983
_symmetry_Int_Tables_number   1
_chemical_formula_structural   Cs2Bi4O7
_chemical_formula_sum   'Cs16 Bi32 O56'
_cell_volume   2380.32773981
_cell_formula_units_Z   8
loop_
 _symmetry_equiv_pos_site_id
 _symmetry_equiv_pos_as_xyz
  1  'x, y, z'
loop_
 _atom_site_type_symbol
 _atom_site_label
 _atom_site_symmetry_multiplicity
 _atom_site_fract_x
 _atom_site_fract_y
 _atom_site_fract_z
 _atom_site_occupancy
  Cs  Cs0  1  0.37755400  0.97915300  0.20466500  1
  Cs  Cs1  1  0.03178600  0.12164400  0.29470900  1
  Cs  Cs2  1  0.13485000  0.54405800  0.79380200  1
  Cs  Cs3  1  0.12164400  0.03178600  0.79470900  1
  Cs  Cs4  1  0.02084700  0.62244600  0.29533500  1
  Cs  Cs5  1  0.36187100  0.46687600  0.21135600  1
  Cs  Cs6  1  0.54405800  0.13485000  0.29380200  1
  Cs  Cs7  1  0.96821400  0.87835600  0.70529100  1
  Cs  Cs8  1  0.45594200  0.86515000  0.70619800  1
  Cs  Cs9  1  0.63812900  0.53312400  0.78864400  1
  Cs  Cs10  1  0.46687600  0.36187100  0.71135600  1
  Cs  Cs11  1  0.62244600  0.02084700  0.79533500  1
  Cs  Cs12  1  0.86515000  0.45594200  0.20619800  1
  Cs  Cs13  1  0.97915300  0.37755400  0.70466500  1
  Cs  Cs14  1  0.87835600  0.96821400  0.20529100  1
  Cs  Cs15  1  0.53312400  0.63812900  0.28864400  1
  Bi  Bi16  1  0.69772300  0.29724000  0.38056500  1
  Bi  Bi17  1  0.45953200  0.40152300  0.96652800  1
  Bi  Bi18  1  0.90584600  0.88612000  0.45804400  1
  Bi  Bi19  1  0.38974100  0.90587000  0.95682300  1
  Bi  Bi20  1  0.54046800  0.59847700  0.03347200  1
  Bi  Bi21  1  0.59915400  0.03694300  0.53804000  1
  Bi  Bi22  1  0.20782000  0.30048800  0.11364500  1
  Bi  Bi23  1  0.09413000  0.61025900  0.54317700  1
  Bi  Bi24  1  0.88612000  0.90584600  0.95804400  1
  Bi  Bi25  1  0.09415400  0.11388000  0.54195600  1
  Bi  Bi26  1  0.59847700  0.54046800  0.53347200  1
  Bi  Bi27  1  0.29724000  0.69772300  0.88056500  1
  Bi  Bi28  1  0.24102700  0.79241900  0.12055400  1
  Bi  Bi29  1  0.30227700  0.70276000  0.61943500  1
  Bi  Bi30  1  0.20747600  0.26481300  0.37167600  1
  Bi  Bi31  1  0.75897300  0.20758100  0.87944600  1
  Bi  Bi32  1  0.79218000  0.69951200  0.88635500  1
  Bi  Bi33  1  0.40152300  0.45953200  0.46652800  1
  Bi  Bi34  1  0.79241900  0.24102700  0.62055400  1
  Bi  Bi35  1  0.73518700  0.79252400  0.12832400  1
  Bi  Bi36  1  0.30048800  0.20782000  0.61364500  1
  Bi  Bi37  1  0.61025900  0.09413000  0.04317700  1
  Bi  Bi38  1  0.96305700  0.40084600  0.96196000  1
  Bi  Bi39  1  0.69951200  0.79218000  0.38635500  1
  Bi  Bi40  1  0.79252400  0.73518700  0.62832400  1
  Bi  Bi41  1  0.20758100  0.75897300  0.37944600  1
  Bi  Bi42  1  0.26481300  0.20747600  0.87167600  1
  Bi  Bi43  1  0.70276000  0.30227700  0.11943500  1
  Bi  Bi44  1  0.40084600  0.96305700  0.46196000  1
  Bi  Bi45  1  0.11388000  0.09415400  0.04195600  1
  Bi  Bi46  1  0.90587000  0.38974100  0.45682300  1
  Bi  Bi47  1  0.03694300  0.59915400  0.03804000  1
  O  O48  1  0.58506300  0.23120300  0.89870800  1
  O  O49  1  0.43485500  0.74054800  0.88151500  1
  O  O50  1  0.08556000  0.77819800  0.52483300  1
  O  O51  1  0.61562700  0.41473700  0.97257000  1
  O  O52  1  0.02444600  0.84542700  0.34830100  1
  O  O53  1  0.65299300  0.97585500  0.15499600  1
  O  O54  1  0.41473700  0.61562700  0.47257000  1
  O  O55  1  0.11656100  0.41680000  0.97300700  1
  O  O56  1  0.25945200  0.56514500  0.61848500  1
  O  O57  1  0.26817500  0.24629300  0.24140300  1
  O  O58  1  0.74054800  0.43485500  0.38151500  1
  O  O59  1  0.34700700  0.02414500  0.84500400  1
  O  O60  1  0.74958600  0.25041400  0.25000000  1
  O  O61  1  0.22180200  0.91444000  0.97516700  1
  O  O62  1  0.84542700  0.02444600  0.84830100  1
  O  O63  1  0.28187200  0.08515600  0.02208700  1
  O  O64  1  0.76100000  0.91203800  0.61212900  1
  O  O65  1  0.91484400  0.71812800  0.47791300  1
  O  O66  1  0.51769600  0.90016300  0.35336000  1
  O  O67  1  0.41493700  0.76879700  0.10129200  1
  O  O68  1  0.91444000  0.22180200  0.47516700  1
  O  O69  1  0.08515600  0.28187200  0.52208700  1
  O  O70  1  0.41680000  0.11656100  0.47300700  1
  O  O71  1  0.75370700  0.73182500  0.25859700  1
  O  O72  1  0.40148600  0.51314500  0.85429500  1
  O  O73  1  0.02414500  0.34700700  0.34500400  1
  O  O74  1  0.73182500  0.75370700  0.75859700  1
  O  O75  1  0.24629300  0.26817500  0.74140300  1
  O  O76  1  0.25317600  0.07231900  0.61891500  1
  O  O77  1  0.90016300  0.51769600  0.85336000  1
  O  O78  1  0.91203800  0.76100000  0.11212900  1
  O  O79  1  0.23900000  0.08796200  0.38787100  1
  O  O80  1  0.58526300  0.38437300  0.52743000  1
  O  O81  1  0.76879700  0.41493700  0.60129200  1
  O  O82  1  0.97585500  0.65299300  0.65499600  1
  O  O83  1  0.74682400  0.92768100  0.38108500  1
  O  O84  1  0.27149900  0.72850100  0.25000000  1
  O  O85  1  0.25041400  0.74958600  0.75000000  1
  O  O86  1  0.38437300  0.58526300  0.02743000  1
  O  O87  1  0.72850100  0.27149900  0.75000000  1
  O  O88  1  0.71812800  0.91484400  0.97791300  1
  O  O89  1  0.48685500  0.59851400  0.64570500  1
  O  O90  1  0.48230400  0.09983700  0.64664000  1
  O  O91  1  0.07231900  0.25317600  0.11891500  1
  O  O92  1  0.92768100  0.74682400  0.88108500  1
  O  O93  1  0.77819800  0.08556000  0.02483300  1
  O  O94  1  0.51314500  0.40148600  0.35429500  1
  O  O95  1  0.56514500  0.25945200  0.11848500  1
  O  O96  1  0.15457300  0.97555400  0.15169900  1
  O  O97  1  0.08796200  0.23900000  0.88787100  1
  O  O98  1  0.59851400  0.48685500  0.14570500  1
  O  O99  1  0.97555400  0.15457300  0.65169900  1
  O  O100  1  0.09983700  0.48230400  0.14664000  1
  O  O101  1  0.88343900  0.58320000  0.02699300  1
  O  O102  1  0.23120300  0.58506300  0.39870800  1
  O  O103  1  0.58320000  0.88343900  0.52699300  1
