# generated using pymatgen
data_K2Ag2GeS4
_symmetry_space_group_name_H-M   'P 1'
_cell_length_a   12.65172276
_cell_length_b   11.13340135
_cell_length_c   7.53179542
_cell_angle_alpha   82.93945297
_cell_angle_beta   60.84650873
_cell_angle_gamma   36.21403830
_symmetry_Int_Tables_number   1
_chemical_formula_structural   K2Ag2GeS4
_chemical_formula_sum   'K4 Ag4 Ge2 S8'
_cell_volume   466.37250732
_cell_formula_units_Z   2
loop_
 _symmetry_equiv_pos_site_id
 _symmetry_equiv_pos_as_xyz
  1  'x, y, z'
loop_
 _atom_site_type_symbol
 _atom_site_label
 _atom_site_symmetry_multiplicity
 _atom_site_fract_x
 _atom_site_fract_y
 _atom_site_fract_z
 _atom_site_occupancy
  K  K0  1  0.31290300  0.31290300  0.68709700  1
  K  K1  1  0.68709700  0.68709700  0.31290300  1
  K  K2  1  0.56290300  0.56290300  0.93709700  1
  K  K3  1  0.93709700  0.93709700  0.56290300  1
  Ag  Ag4  1  0.17523400  0.17523400  0.32476600  1
  Ag  Ag5  1  0.92523400  0.92523400  0.07476600  1
  Ag  Ag6  1  0.07476600  0.07476600  0.92523400  1
  Ag  Ag7  1  0.32476600  0.32476600  0.17523400  1
  Ge  Ge8  1  0.50000000  0.50000000  0.50000000  1
  Ge  Ge9  1  0.75000000  0.75000000  0.75000000  1
  S  S10  1  0.90201100  0.71928800  0.39568000  1
  S  S11  1  0.98302200  0.39568000  0.71928800  1
  S  S12  1  0.53071200  0.34798900  0.26697800  1
  S  S13  1  0.39568000  0.98302200  0.90201100  1
  S  S14  1  0.26697800  0.85432000  0.53071200  1
  S  S15  1  0.71928800  0.90201100  0.98302200  1
  S  S16  1  0.85432000  0.26697800  0.34798900  1
  S  S17  1  0.34798900  0.53071200  0.85432000  1
