# generated using pymatgen
data_Ba(CuS)2
_symmetry_space_group_name_H-M   'P 1'
_cell_length_a   4.05115200
_cell_length_b   9.28425900
_cell_length_c   10.41640300
_cell_angle_alpha   90.00000000
_cell_angle_beta   90.00000000
_cell_angle_gamma   90.00000000
_symmetry_Int_Tables_number   1
_chemical_formula_structural   Ba(CuS)2
_chemical_formula_sum   'Ba4 Cu8 S8'
_cell_volume   391.78117065
_cell_formula_units_Z   4
loop_
 _symmetry_equiv_pos_site_id
 _symmetry_equiv_pos_as_xyz
  1  'x, y, z'
loop_
 _atom_site_type_symbol
 _atom_site_label
 _atom_site_symmetry_multiplicity
 _atom_site_fract_x
 _atom_site_fract_y
 _atom_site_fract_z
 _atom_site_occupancy
  Ba  Ba0  1  0.75000000  0.25955200  0.67578000  1
  Ba  Ba1  1  0.25000000  0.74044800  0.32422000  1
  Ba  Ba2  1  0.75000000  0.75955200  0.82422000  1
  Ba  Ba3  1  0.25000000  0.24044800  0.17578000  1
  Cu  Cu4  1  0.25000000  0.08331200  0.45624200  1
  Cu  Cu5  1  0.75000000  0.91668800  0.54375800  1
  Cu  Cu6  1  0.25000000  0.58331200  0.04375800  1
  Cu  Cu7  1  0.75000000  0.41668800  0.95624200  1
  Cu  Cu8  1  0.25000000  0.55655700  0.61438500  1
  Cu  Cu9  1  0.75000000  0.44344300  0.38561500  1
  Cu  Cu10  1  0.25000000  0.05655700  0.88561500  1
  Cu  Cu11  1  0.75000000  0.94344300  0.11438500  1
  S  S12  1  0.75000000  0.15639200  0.95878400  1
  S  S13  1  0.25000000  0.84360800  0.04121600  1
  S  S14  1  0.75000000  0.65639200  0.54121600  1
  S  S15  1  0.25000000  0.34360800  0.45878400  1
  S  S16  1  0.25000000  0.98041600  0.66689400  1
  S  S17  1  0.75000000  0.01958400  0.33310600  1
  S  S18  1  0.25000000  0.48041600  0.83310600  1
  S  S19  1  0.75000000  0.51958400  0.16689400  1
