# generated using pymatgen
data_CrF2
_symmetry_space_group_name_H-M   'P 1'
_cell_length_a   3.57084207
_cell_length_b   4.80145500
_cell_length_c   4.85961684
_cell_angle_alpha   89.99919582
_cell_angle_beta   96.66106099
_cell_angle_gamma   90.00029567
_symmetry_Int_Tables_number   1
_chemical_formula_structural   CrF2
_chemical_formula_sum   'Cr2 F4'
_cell_volume   82.75685562
_cell_formula_units_Z   2
loop_
 _symmetry_equiv_pos_site_id
 _symmetry_equiv_pos_as_xyz
  1  'x, y, z'
loop_
 _atom_site_type_symbol
 _atom_site_label
 _atom_site_symmetry_multiplicity
 _atom_site_fract_x
 _atom_site_fract_y
 _atom_site_fract_z
 _atom_site_occupancy
  Cr  Cr0  1  0.00000000  0.00000000  0.00000000  1
  Cr  Cr1  1  0.50000000  0.50000000  0.49999900  1
  F  F2  1  0.45414600  0.79933900  0.20275900  1
  F  F3  1  0.04584600  0.29933800  0.29723800  1
  F  F4  1  0.95415400  0.70066300  0.70276200  1
  F  F5  1  0.54585400  0.20066100  0.79724200  1
