# generated using pymatgen
data_Tl3AsS4
_symmetry_space_group_name_H-M   'P 1'
_cell_length_a   9.27887100
_cell_length_b   9.34549000
_cell_length_c   11.13504400
_cell_angle_alpha   90.00000000
_cell_angle_beta   90.00000000
_cell_angle_gamma   90.00000000
_symmetry_Int_Tables_number   1
_chemical_formula_structural   Tl3AsS4
_chemical_formula_sum   'Tl12 As4 S16'
_cell_volume   965.58197853
_cell_formula_units_Z   4
loop_
 _symmetry_equiv_pos_site_id
 _symmetry_equiv_pos_as_xyz
  1  'x, y, z'
loop_
 _atom_site_type_symbol
 _atom_site_label
 _atom_site_symmetry_multiplicity
 _atom_site_fract_x
 _atom_site_fract_y
 _atom_site_fract_z
 _atom_site_occupancy
  Tl  Tl0  1  0.92646900  0.19455900  0.44416000  1
  Tl  Tl1  1  0.42646900  0.30544100  0.05584000  1
  Tl  Tl2  1  0.57353100  0.69455900  0.55584000  1
  Tl  Tl3  1  0.07353100  0.80544100  0.94416000  1
  Tl  Tl4  1  0.07353100  0.80544100  0.55584000  1
  Tl  Tl5  1  0.57353100  0.69455900  0.94416000  1
  Tl  Tl6  1  0.42646900  0.30544100  0.44416000  1
  Tl  Tl7  1  0.92646900  0.19455900  0.05584000  1
  Tl  Tl8  1  0.40251400  0.10560900  0.75000000  1
  Tl  Tl9  1  0.90251400  0.39439100  0.75000000  1
  Tl  Tl10  1  0.09748600  0.60560900  0.25000000  1
  Tl  Tl11  1  0.59748600  0.89439100  0.25000000  1
  As  As12  1  0.28022600  0.52601300  0.75000000  1
  As  As13  1  0.21977400  0.02601300  0.25000000  1
  As  As14  1  0.78022600  0.97398700  0.75000000  1
  As  As15  1  0.71977400  0.47398700  0.25000000  1
  S  S16  1  0.00432500  0.93038900  0.25000000  1
  S  S17  1  0.49567500  0.43038900  0.75000000  1
  S  S18  1  0.50432500  0.56961100  0.25000000  1
  S  S19  1  0.99567500  0.06961100  0.75000000  1
  S  S20  1  0.84227600  0.53308600  0.41106800  1
  S  S21  1  0.34227600  0.96691400  0.08893200  1
  S  S22  1  0.65772400  0.03308600  0.58893200  1
  S  S23  1  0.15772400  0.46691400  0.91106800  1
  S  S24  1  0.15772400  0.46691400  0.58893200  1
  S  S25  1  0.65772400  0.03308600  0.91106800  1
  S  S26  1  0.34227600  0.96691400  0.41106800  1
  S  S27  1  0.84227600  0.53308600  0.08893200  1
  S  S28  1  0.68943900  0.23849100  0.25000000  1
  S  S29  1  0.18943900  0.26150900  0.25000000  1
  S  S30  1  0.81056100  0.73849100  0.75000000  1
  S  S31  1  0.31056100  0.76150900  0.75000000  1
