# generated using pymatgen
data_SmHgPd
_symmetry_space_group_name_H-M   'P 1'
_cell_length_a   7.78942977
_cell_length_b   7.78942977
_cell_length_c   3.91766800
_cell_angle_alpha   90.00000000
_cell_angle_beta   90.00000000
_cell_angle_gamma   119.99999808
_symmetry_Int_Tables_number   1
_chemical_formula_structural   SmHgPd
_chemical_formula_sum   'Sm3 Hg3 Pd3'
_cell_volume   205.85887822
_cell_formula_units_Z   3
loop_
 _symmetry_equiv_pos_site_id
 _symmetry_equiv_pos_as_xyz
  1  'x, y, z'
loop_
 _atom_site_type_symbol
 _atom_site_label
 _atom_site_symmetry_multiplicity
 _atom_site_fract_x
 _atom_site_fract_y
 _atom_site_fract_z
 _atom_site_occupancy
  Sm  Sm0  1  0.59893800  0.00000000  0.50000000  1
  Sm  Sm1  1  0.00000000  0.59893800  0.50000000  1
  Sm  Sm2  1  0.40106200  0.40106200  0.50000000  1
  Hg  Hg3  1  0.26497800  0.00000000  0.00000000  1
  Hg  Hg4  1  0.73502200  0.73502200  0.00000000  1
  Hg  Hg5  1  0.00000000  0.26497800  0.00000000  1
  Pd  Pd6  1  0.00000000  0.00000000  0.50000000  1
  Pd  Pd7  1  0.66666700  0.33333300  0.00000000  1
  Pd  Pd8  1  0.33333300  0.66666700  0.00000000  1
