# generated using pymatgen
data_Ba(Mo3S4)2
_symmetry_space_group_name_H-M   'P 1'
_cell_length_a   6.65851500
_cell_length_b   6.73156318
_cell_length_c   6.79470461
_cell_angle_alpha   89.11259020
_cell_angle_beta   89.24878508
_cell_angle_gamma   87.91486625
_symmetry_Int_Tables_number   1
_chemical_formula_structural   Ba(Mo3S4)2
_chemical_formula_sum   'Ba1 Mo6 S8'
_cell_volume   304.29155502
_cell_formula_units_Z   1
loop_
 _symmetry_equiv_pos_site_id
 _symmetry_equiv_pos_as_xyz
  1  'x, y, z'
loop_
 _atom_site_type_symbol
 _atom_site_label
 _atom_site_symmetry_multiplicity
 _atom_site_fract_x
 _atom_site_fract_y
 _atom_site_fract_z
 _atom_site_occupancy
  Ba  Ba0  1  0.00000000  0.00000000  0.00000000  1
  Mo  Mo1  1  0.56742500  0.41651700  0.23325000  1
  Mo  Mo2  1  0.43257500  0.58348300  0.76675000  1
  Mo  Mo3  1  0.41801600  0.23352500  0.56388700  1
  Mo  Mo4  1  0.58198400  0.76647500  0.43611300  1
  Mo  Mo5  1  0.24177600  0.56369900  0.41952600  1
  Mo  Mo6  1  0.75822400  0.43630100  0.58047400  1
  S  S7  1  0.26099100  0.24574000  0.25218000  1
  S  S8  1  0.73900900  0.75426000  0.74782000  1
  S  S9  1  0.39204000  0.73021000  0.12582700  1
  S  S10  1  0.60796000  0.26979000  0.87417300  1
  S  S11  1  0.73358000  0.12317100  0.38671100  1
  S  S12  1  0.26642000  0.87682900  0.61328900  1
  S  S13  1  0.12568200  0.39161700  0.73312400  1
  S  S14  1  0.87431800  0.60838300  0.26687600  1
