# generated using pymatgen
data_Ba2V4Cd3O15
_symmetry_space_group_name_H-M   'P 1'
_cell_length_a   7.33627600
_cell_length_b   10.12253000
_cell_length_c   19.96722300
_cell_angle_alpha   90.00000000
_cell_angle_beta   90.00000000
_cell_angle_gamma   90.00000000
_symmetry_Int_Tables_number   1
_chemical_formula_structural   Ba2V4Cd3O15
_chemical_formula_sum   'Ba8 V16 Cd12 O60'
_cell_volume   1482.79940308
_cell_formula_units_Z   4
loop_
 _symmetry_equiv_pos_site_id
 _symmetry_equiv_pos_as_xyz
  1  'x, y, z'
loop_
 _atom_site_type_symbol
 _atom_site_label
 _atom_site_symmetry_multiplicity
 _atom_site_fract_x
 _atom_site_fract_y
 _atom_site_fract_z
 _atom_site_occupancy
  Ba  Ba0  1  0.04911300  0.75405000  0.20180800  1
  Ba  Ba1  1  0.45088700  0.24595000  0.70180800  1
  Ba  Ba2  1  0.26635800  0.37116300  0.50189200  1
  Ba  Ba3  1  0.23364200  0.62883700  0.00189200  1
  Ba  Ba4  1  0.73364200  0.87116300  0.99810800  1
  Ba  Ba5  1  0.95088700  0.25405000  0.29819200  1
  Ba  Ba6  1  0.54911300  0.74595000  0.79819200  1
  Ba  Ba7  1  0.76635800  0.12883700  0.49810800  1
  V  V8  1  0.17124600  0.56444800  0.34767900  1
  V  V9  1  0.76982600  0.47570200  0.49322700  1
  V  V10  1  0.55767200  0.78140400  0.16686100  1
  V  V11  1  0.82875400  0.06444800  0.15232100  1
  V  V12  1  0.14713700  0.40201400  0.13543100  1
  V  V13  1  0.73017400  0.52429800  0.99322700  1
  V  V14  1  0.23017400  0.97570200  0.00677300  1
  V  V15  1  0.67124600  0.93555200  0.65232100  1
  V  V16  1  0.26982600  0.02429800  0.50677300  1
  V  V17  1  0.32875400  0.43555200  0.84767900  1
  V  V18  1  0.85286300  0.90201400  0.36456900  1
  V  V19  1  0.64713700  0.09798600  0.86456900  1
  V  V20  1  0.94232800  0.21859600  0.66686100  1
  V  V21  1  0.05767200  0.71859600  0.83313900  1
  V  V22  1  0.35286300  0.59798600  0.63543100  1
  V  V23  1  0.44232800  0.28140400  0.33313900  1
  Cd  Cd24  1  0.62832900  0.40779500  0.16737100  1
  Cd  Cd25  1  0.93198700  0.24239300  0.98749300  1
  Cd  Cd26  1  0.12832900  0.09220500  0.83262900  1
  Cd  Cd27  1  0.35069100  0.09716900  0.17940200  1
  Cd  Cd28  1  0.43198700  0.25760700  0.01250700  1
  Cd  Cd29  1  0.06801300  0.74239300  0.51250700  1
  Cd  Cd30  1  0.85069100  0.40283100  0.82059800  1
  Cd  Cd31  1  0.87167100  0.59220500  0.66737100  1
  Cd  Cd32  1  0.64930900  0.59716900  0.32059800  1
  Cd  Cd33  1  0.56801300  0.75760700  0.48749300  1
  Cd  Cd34  1  0.37167100  0.90779500  0.33262900  1
  Cd  Cd35  1  0.14930900  0.90283100  0.67940200  1
  O  O36  1  0.58952600  0.62730900  0.94902100  1
  O  O37  1  0.20004000  0.56643000  0.13416700  1
  O  O38  1  0.89016600  0.62600900  0.78999100  1
  O  O39  1  0.64573400  0.15048900  0.94837900  1
  O  O40  1  0.66171800  0.88779800  0.57103500  1
  O  O41  1  0.13838700  0.86636400  0.79815300  1
  O  O42  1  0.24455900  0.38940700  0.34629500  1
  O  O43  1  0.98295300  0.74814300  0.91044500  1
  O  O44  1  0.83124900  0.17792400  0.82341400  1
  O  O45  1  0.29996000  0.43357000  0.63416700  1
  O  O46  1  0.96506700  0.57024900  0.30577600  1
  O  O47  1  0.60868200  0.42008200  0.05227900  1
  O  O48  1  0.01704700  0.24814300  0.58955500  1
  O  O49  1  0.66923600  0.15738400  0.19385100  1
  O  O50  1  0.36161300  0.13363600  0.29815300  1
  O  O51  1  0.93933800  0.37680100  0.17608000  1
  O  O52  1  0.70004000  0.93357000  0.86583300  1
  O  O53  1  0.86928000  0.62330500  0.03883200  1
  O  O54  1  0.08952600  0.87269100  0.05097900  1
  O  O55  1  0.16875100  0.67792400  0.67658600  1
  O  O56  1  0.10868200  0.07991800  0.94772100  1
  O  O57  1  0.43933800  0.12319900  0.82392000  1
  O  O58  1  0.25544100  0.61059300  0.84629500  1
  O  O59  1  0.39016600  0.87399100  0.21000900  1
  O  O60  1  0.56066200  0.62319900  0.67608000  1
  O  O61  1  0.10983400  0.12600900  0.71000900  1
  O  O62  1  0.33076400  0.65738400  0.30614900  1
  O  O63  1  0.41047400  0.12730900  0.55097900  1
  O  O64  1  0.36928000  0.87669500  0.96116800  1
  O  O65  1  0.48295300  0.75185700  0.08955500  1
  O  O66  1  0.03493300  0.07024900  0.19422400  1
  O  O67  1  0.63072000  0.37669500  0.53883200  1
  O  O68  1  0.63677900  0.57163800  0.43500700  1
  O  O69  1  0.66875100  0.82207600  0.32341400  1
  O  O70  1  0.33828200  0.38779800  0.92896500  1
  O  O71  1  0.85426600  0.84951100  0.44837900  1
  O  O72  1  0.33124900  0.32207600  0.17658600  1
  O  O73  1  0.89131800  0.57991800  0.55227900  1
  O  O74  1  0.86322100  0.42836200  0.93500700  1
  O  O75  1  0.83828200  0.11220200  0.07103500  1
  O  O76  1  0.13677900  0.92836200  0.56499300  1
  O  O77  1  0.53493300  0.42975100  0.80577600  1
  O  O78  1  0.63838700  0.63363600  0.20184700  1
  O  O79  1  0.14573400  0.34951100  0.05162100  1
  O  O80  1  0.13072000  0.12330500  0.46116800  1
  O  O81  1  0.79996000  0.06643000  0.36583300  1
  O  O82  1  0.16923600  0.34261600  0.80614900  1
  O  O83  1  0.35426600  0.65048900  0.55162100  1
  O  O84  1  0.06066200  0.87680100  0.32392000  1
  O  O85  1  0.83076400  0.84261600  0.69385100  1
  O  O86  1  0.86161300  0.36636400  0.70184700  1
  O  O87  1  0.36322100  0.07163800  0.06499300  1
  O  O88  1  0.60983400  0.37399100  0.28999100  1
  O  O89  1  0.46506700  0.92975100  0.69422400  1
  O  O90  1  0.51704700  0.25185700  0.41044500  1
  O  O91  1  0.91047400  0.37269100  0.44902100  1
  O  O92  1  0.39131800  0.92008200  0.44772100  1
  O  O93  1  0.16171800  0.61220200  0.42896500  1
  O  O94  1  0.75544100  0.88940700  0.15370500  1
  O  O95  1  0.74455900  0.11059300  0.65370500  1
