# generated using pymatgen
data_RbTl(SO4)2
_symmetry_space_group_name_H-M   'P 1'
_cell_length_a   9.26504997
_cell_length_b   9.26504997
_cell_length_c   9.26504993
_cell_angle_alpha   31.38542670
_cell_angle_beta   31.38542670
_cell_angle_gamma   31.38542281
_symmetry_Int_Tables_number   1
_chemical_formula_structural   RbTl(SO4)2
_chemical_formula_sum   'Rb1 Tl1 S2 O8'
_cell_volume   191.47440288
_cell_formula_units_Z   1
loop_
 _symmetry_equiv_pos_site_id
 _symmetry_equiv_pos_as_xyz
  1  'x, y, z'
loop_
 _atom_site_type_symbol
 _atom_site_label
 _atom_site_symmetry_multiplicity
 _atom_site_fract_x
 _atom_site_fract_y
 _atom_site_fract_z
 _atom_site_occupancy
  Rb  Rb0  1  0.00000000  0.00000000  0.00000000  1
  Tl  Tl1  1  0.50000000  0.50000000  0.50000000  1
  S  S2  1  0.75919900  0.75919900  0.75919900  1
  S  S3  1  0.24080100  0.24080100  0.24080100  1
  O  O4  1  0.70380500  0.70380500  0.70380500  1
  O  O5  1  0.29619500  0.29619500  0.29619500  1
  O  O6  1  0.23389200  0.93279300  0.49848300  1
  O  O7  1  0.50151700  0.06720700  0.76610800  1
  O  O8  1  0.76610800  0.50151700  0.06720700  1
  O  O9  1  0.93279300  0.49848300  0.23389200  1
  O  O10  1  0.49848300  0.23389200  0.93279300  1
  O  O11  1  0.06720700  0.76610800  0.50151700  1
