# generated using pymatgen
data_La6S4BrN3
_symmetry_space_group_name_H-M   'P 1'
_cell_length_a   4.11180000
_cell_length_b   11.70436000
_cell_length_c   27.89318900
_cell_angle_alpha   90.00000000
_cell_angle_beta   90.00000000
_cell_angle_gamma   90.00000000
_symmetry_Int_Tables_number   1
_chemical_formula_structural   La6S4BrN3
_chemical_formula_sum   'La24 S16 Br4 N12'
_cell_volume   1342.38726370
_cell_formula_units_Z   4
loop_
 _symmetry_equiv_pos_site_id
 _symmetry_equiv_pos_as_xyz
  1  'x, y, z'
loop_
 _atom_site_type_symbol
 _atom_site_label
 _atom_site_symmetry_multiplicity
 _atom_site_fract_x
 _atom_site_fract_y
 _atom_site_fract_z
 _atom_site_occupancy
  La  La0  1  0.75000000  0.10003000  0.03605900  1
  La  La1  1  0.25000000  0.24656700  0.67153400  1
  La  La2  1  0.75000000  0.75501100  0.06385700  1
  La  La3  1  0.75000000  0.60003000  0.46394100  1
  La  La4  1  0.25000000  0.37563000  0.28290800  1
  La  La5  1  0.25000000  0.44176600  0.07774500  1
  La  La6  1  0.75000000  0.55823400  0.92225500  1
  La  La7  1  0.25000000  0.43903600  0.80834500  1
  La  La8  1  0.25000000  0.24498900  0.93614300  1
  La  La9  1  0.75000000  0.25501100  0.43614300  1
  La  La10  1  0.25000000  0.74656700  0.82846600  1
  La  La11  1  0.75000000  0.05823400  0.57774500  1
  La  La12  1  0.75000000  0.75343300  0.32846600  1
  La  La13  1  0.75000000  0.12437000  0.78290800  1
  La  La14  1  0.25000000  0.94176600  0.42225500  1
  La  La15  1  0.25000000  0.87563000  0.21709200  1
  La  La16  1  0.75000000  0.06096400  0.30834500  1
  La  La17  1  0.75000000  0.62437000  0.71709200  1
  La  La18  1  0.25000000  0.93903600  0.69165500  1
  La  La19  1  0.25000000  0.89997000  0.96394100  1
  La  La20  1  0.75000000  0.25343300  0.17153400  1
  La  La21  1  0.25000000  0.74498900  0.56385700  1
  La  La22  1  0.75000000  0.56096400  0.19165500  1
  La  La23  1  0.25000000  0.39997000  0.53605900  1
  S  S24  1  0.75000000  0.81047300  0.63700500  1
  S  S25  1  0.75000000  0.79298500  0.89750000  1
  S  S26  1  0.25000000  0.63577500  0.26389400  1
  S  S27  1  0.75000000  0.86422500  0.76389400  1
  S  S28  1  0.75000000  0.85435400  0.50498600  1
  S  S29  1  0.25000000  0.68952700  0.13700500  1
  S  S30  1  0.75000000  0.31047300  0.86299500  1
  S  S31  1  0.25000000  0.14564600  0.49501400  1
  S  S32  1  0.25000000  0.13577500  0.23610600  1
  S  S33  1  0.75000000  0.29298500  0.60250000  1
  S  S34  1  0.75000000  0.35435400  0.99501400  1
  S  S35  1  0.75000000  0.36422500  0.73610600  1
  S  S36  1  0.25000000  0.20701500  0.10250000  1
  S  S37  1  0.25000000  0.64564600  0.00498600  1
  S  S38  1  0.25000000  0.18952700  0.36299500  1
  S  S39  1  0.25000000  0.70701500  0.39750000  1
  Br  Br40  1  0.75000000  0.46201400  0.36233200  1
  Br  Br41  1  0.75000000  0.96201400  0.13766800  1
  Br  Br42  1  0.25000000  0.53798600  0.63766800  1
  Br  Br43  1  0.25000000  0.03798600  0.86233200  1
  N  N44  1  0.25000000  0.59812000  0.51402100  1
  N  N45  1  0.25000000  0.09812000  0.98597900  1
  N  N46  1  0.75000000  0.40188000  0.48597900  1
  N  N47  1  0.25000000  0.61344100  0.76256900  1
  N  N48  1  0.75000000  0.43704200  0.12566300  1
  N  N49  1  0.75000000  0.38655900  0.23743100  1
  N  N50  1  0.25000000  0.11344100  0.73743100  1
  N  N51  1  0.25000000  0.06295800  0.62566300  1
  N  N52  1  0.75000000  0.88655900  0.26256900  1
  N  N53  1  0.75000000  0.93704200  0.37433700  1
  N  N54  1  0.25000000  0.56295800  0.87433700  1
  N  N55  1  0.75000000  0.90188000  0.01402100  1
