# generated using pymatgen
data_LiTaSiO5
_symmetry_space_group_name_H-M   'P 1'
_cell_length_a   7.98990900
_cell_length_b   7.49631600
_cell_length_c   7.54174046
_cell_angle_alpha   60.74916919
_cell_angle_beta   90.00000000
_cell_angle_gamma   90.00000000
_symmetry_Int_Tables_number   1
_chemical_formula_structural   LiTaSiO5
_chemical_formula_sum   'Li4 Ta4 Si4 O20'
_cell_volume   394.11341907
_cell_formula_units_Z   4
loop_
 _symmetry_equiv_pos_site_id
 _symmetry_equiv_pos_as_xyz
  1  'x, y, z'
loop_
 _atom_site_type_symbol
 _atom_site_label
 _atom_site_symmetry_multiplicity
 _atom_site_fract_x
 _atom_site_fract_y
 _atom_site_fract_z
 _atom_site_occupancy
  Li  Li0  1  0.43218200  0.25045500  0.30604000  1
  Li  Li1  1  0.56781800  0.74954500  0.69396000  1
  Li  Li2  1  0.06781800  0.25045500  0.80604000  1
  Li  Li3  1  0.93218200  0.74954500  0.19396000  1
  Ta  Ta4  1  0.74012000  0.25159400  0.00861100  1
  Ta  Ta5  1  0.75988000  0.25159400  0.50861100  1
  Ta  Ta6  1  0.25988000  0.74840600  0.99138900  1
  Ta  Ta7  1  0.24012000  0.74840600  0.49138900  1
  Si  Si8  1  0.60801600  0.74928900  0.25799200  1
  Si  Si9  1  0.89198400  0.74928900  0.75799200  1
  Si  Si10  1  0.10801600  0.25071100  0.24200800  1
  Si  Si11  1  0.39198400  0.25071100  0.74200800  1
  O  O12  1  0.75989200  0.55745100  0.85495600  1
  O  O13  1  0.32787500  0.75087100  0.74747900  1
  O  O14  1  0.26465100  0.05518400  0.85546400  1
  O  O15  1  0.67212500  0.24912900  0.25252100  1
  O  O16  1  0.51357100  0.26881300  0.90784700  1
  O  O17  1  0.99023900  0.23864200  0.06977100  1
  O  O18  1  0.48642900  0.73118700  0.09215300  1
  O  O19  1  0.23534900  0.05518400  0.35546400  1
  O  O20  1  0.74010800  0.55745100  0.35495600  1
  O  O21  1  0.98642900  0.26881300  0.40784700  1
  O  O22  1  0.76465100  0.94481600  0.64453600  1
  O  O23  1  0.49023900  0.76135800  0.43022900  1
  O  O24  1  0.82787500  0.24912900  0.75252100  1
  O  O25  1  0.50976100  0.23864200  0.56977100  1
  O  O26  1  0.17212500  0.75087100  0.24747900  1
  O  O27  1  0.01357100  0.73118700  0.59215300  1
  O  O28  1  0.73534900  0.94481600  0.14453600  1
  O  O29  1  0.00976100  0.76135800  0.93022900  1
  O  O30  1  0.24010800  0.44254900  0.14504400  1
  O  O31  1  0.25989200  0.44254900  0.64504400  1
