# generated using pymatgen
data_Cs2Te2O5
_symmetry_space_group_name_H-M   'P 1'
_cell_length_a   11.16787900
_cell_length_b   12.27062600
_cell_length_c   12.30753300
_cell_angle_alpha   90.00000000
_cell_angle_beta   90.00000000
_cell_angle_gamma   90.00000000
_symmetry_Int_Tables_number   1
_chemical_formula_structural   Cs2Te2O5
_chemical_formula_sum   'Cs16 Te16 O40'
_cell_volume   1686.58575571
_cell_formula_units_Z   8
loop_
 _symmetry_equiv_pos_site_id
 _symmetry_equiv_pos_as_xyz
  1  'x, y, z'
loop_
 _atom_site_type_symbol
 _atom_site_label
 _atom_site_symmetry_multiplicity
 _atom_site_fract_x
 _atom_site_fract_y
 _atom_site_fract_z
 _atom_site_occupancy
  Cs  Cs0  1  0.25057100  0.24775700  0.75266200  1
  Cs  Cs1  1  0.78772300  0.00411400  0.00278900  1
  Cs  Cs2  1  0.25057100  0.74775700  0.74733800  1
  Cs  Cs3  1  0.71227700  0.00411400  0.50278900  1
  Cs  Cs4  1  0.74942900  0.25224300  0.25266200  1
  Cs  Cs5  1  0.24942900  0.74775700  0.24733800  1
  Cs  Cs6  1  0.24942900  0.24775700  0.25266200  1
  Cs  Cs7  1  0.28772300  0.99588600  0.49721100  1
  Cs  Cs8  1  0.75057100  0.75224300  0.74733800  1
  Cs  Cs9  1  0.71227700  0.50411400  0.99721100  1
  Cs  Cs10  1  0.21227700  0.49588600  0.50278900  1
  Cs  Cs11  1  0.78772300  0.50411400  0.49721100  1
  Cs  Cs12  1  0.75057100  0.25224300  0.75266200  1
  Cs  Cs13  1  0.21227700  0.99588600  0.99721100  1
  Cs  Cs14  1  0.74942900  0.75224300  0.24733800  1
  Cs  Cs15  1  0.28772300  0.49588600  0.00278900  1
  Te  Te16  1  0.50370200  0.98903000  0.76137000  1
  Te  Te17  1  0.00556500  0.73766600  0.98615700  1
  Te  Te18  1  0.49443500  0.73766600  0.48615700  1
  Te  Te19  1  0.00370200  0.01097000  0.73863000  1
  Te  Te20  1  0.49629800  0.51097000  0.26137000  1
  Te  Te21  1  0.50370200  0.48903000  0.73863000  1
  Te  Te22  1  0.00556500  0.23766600  0.51384300  1
  Te  Te23  1  0.99443500  0.76233400  0.48615700  1
  Te  Te24  1  0.99629800  0.48903000  0.23863000  1
  Te  Te25  1  0.50556500  0.26233400  0.51384300  1
  Te  Te26  1  0.99443500  0.26233400  0.01384300  1
  Te  Te27  1  0.49443500  0.23766600  0.01384300  1
  Te  Te28  1  0.50556500  0.76233400  0.98615700  1
  Te  Te29  1  0.49629800  0.01097000  0.23863000  1
  Te  Te30  1  0.00370200  0.51097000  0.76137000  1
  Te  Te31  1  0.99629800  0.98903000  0.26137000  1
  O  O32  1  0.66871100  0.00549300  0.77329800  1
  O  O33  1  0.46778900  0.89195300  0.89098100  1
  O  O34  1  0.00815800  0.38463200  0.34894300  1
  O  O35  1  0.99184200  0.61536800  0.65105700  1
  O  O36  1  0.33128900  0.49450700  0.27329800  1
  O  O37  1  0.17124600  0.72739700  0.99689700  1
  O  O38  1  0.49184200  0.38463200  0.84894300  1
  O  O39  1  0.83128900  0.00549300  0.27329800  1
  O  O40  1  0.98582600  0.84871800  0.88313700  1
  O  O41  1  0.32875400  0.72739700  0.49689700  1
  O  O42  1  0.82875400  0.27260300  0.00310300  1
  O  O43  1  0.03221100  0.39195300  0.10901900  1
  O  O44  1  0.96778900  0.10804700  0.60901900  1
  O  O45  1  0.48582600  0.15128200  0.61686300  1
  O  O46  1  0.83128900  0.50549300  0.22670200  1
  O  O47  1  0.48582600  0.65128200  0.88313700  1
  O  O48  1  0.66871100  0.50549300  0.72670200  1
  O  O49  1  0.82875400  0.77260300  0.49689700  1
  O  O50  1  0.16871100  0.49450700  0.77329800  1
  O  O51  1  0.01417400  0.15128200  0.11686300  1
  O  O52  1  0.51417400  0.34871800  0.11686300  1
  O  O53  1  0.67124600  0.27260300  0.50310300  1
  O  O54  1  0.98582600  0.34871800  0.61686300  1
  O  O55  1  0.50815800  0.11536800  0.34894300  1
  O  O56  1  0.53221100  0.10804700  0.10901900  1
  O  O57  1  0.99184200  0.11536800  0.84894300  1
  O  O58  1  0.00815800  0.88463200  0.15105700  1
  O  O59  1  0.16871100  0.99450700  0.72670200  1
  O  O60  1  0.01417400  0.65128200  0.38313700  1
  O  O61  1  0.49184200  0.88463200  0.65105700  1
  O  O62  1  0.51417400  0.84871800  0.38313700  1
  O  O63  1  0.33128900  0.99450700  0.22670200  1
  O  O64  1  0.53221100  0.60804700  0.39098100  1
  O  O65  1  0.50815800  0.61536800  0.15105700  1
  O  O66  1  0.17124600  0.22739700  0.50310300  1
  O  O67  1  0.32875400  0.22739700  0.00310300  1
  O  O68  1  0.67124600  0.77260300  0.99689700  1
  O  O69  1  0.96778900  0.60804700  0.89098100  1
  O  O70  1  0.03221100  0.89195300  0.39098100  1
  O  O71  1  0.46778900  0.39195300  0.60901900  1
