# generated using pymatgen
data_Lu5Sb3
_symmetry_space_group_name_H-M   'P 1'
_cell_length_a   7.94554100
_cell_length_b   9.16377900
_cell_length_c   11.59378500
_cell_angle_alpha   90.00000000
_cell_angle_beta   90.00000000
_cell_angle_gamma   90.00000000
_symmetry_Int_Tables_number   1
_chemical_formula_structural   Lu5Sb3
_chemical_formula_sum   'Lu20 Sb12'
_cell_volume   844.15718691
_cell_formula_units_Z   4
loop_
 _symmetry_equiv_pos_site_id
 _symmetry_equiv_pos_as_xyz
  1  'x, y, z'
loop_
 _atom_site_type_symbol
 _atom_site_label
 _atom_site_symmetry_multiplicity
 _atom_site_fract_x
 _atom_site_fract_y
 _atom_site_fract_z
 _atom_site_occupancy
  Lu  Lu0  1  0.19438000  0.56189900  0.43933800  1
  Lu  Lu1  1  0.69438000  0.93810100  0.06066200  1
  Lu  Lu2  1  0.80562000  0.06189900  0.56066200  1
  Lu  Lu3  1  0.30562000  0.43810100  0.93933800  1
  Lu  Lu4  1  0.80562000  0.43810100  0.56066200  1
  Lu  Lu5  1  0.30562000  0.06189900  0.93933800  1
  Lu  Lu6  1  0.19438000  0.93810100  0.43933800  1
  Lu  Lu7  1  0.69438000  0.56189900  0.06066200  1
  Lu  Lu8  1  0.02716100  0.75000000  0.99032100  1
  Lu  Lu9  1  0.52716100  0.75000000  0.50967900  1
  Lu  Lu10  1  0.97283900  0.25000000  0.00967900  1
  Lu  Lu11  1  0.47283900  0.25000000  0.49032100  1
  Lu  Lu12  1  0.18639900  0.75000000  0.71902600  1
  Lu  Lu13  1  0.68639900  0.75000000  0.78097400  1
  Lu  Lu14  1  0.81360100  0.25000000  0.28097400  1
  Lu  Lu15  1  0.31360100  0.25000000  0.21902600  1
  Lu  Lu16  1  0.85526500  0.75000000  0.28495300  1
  Lu  Lu17  1  0.35526500  0.75000000  0.21504700  1
  Lu  Lu18  1  0.14473500  0.25000000  0.71504700  1
  Lu  Lu19  1  0.64473500  0.25000000  0.78495300  1
  Sb  Sb20  1  0.93376000  0.49695600  0.82640300  1
  Sb  Sb21  1  0.43376000  0.00304400  0.67359700  1
  Sb  Sb22  1  0.06624000  0.99695600  0.17359700  1
  Sb  Sb23  1  0.56624000  0.50304400  0.32640300  1
  Sb  Sb24  1  0.06624000  0.50304400  0.17359700  1
  Sb  Sb25  1  0.56624000  0.99695600  0.32640300  1
  Sb  Sb26  1  0.93376000  0.00304400  0.82640300  1
  Sb  Sb27  1  0.43376000  0.49695600  0.67359700  1
  Sb  Sb28  1  0.91027400  0.75000000  0.54113300  1
  Sb  Sb29  1  0.41027400  0.75000000  0.95886700  1
  Sb  Sb30  1  0.08972600  0.25000000  0.45886700  1
  Sb  Sb31  1  0.58972600  0.25000000  0.04113300  1
