# generated using pymatgen
data_CaMgGeO4
_symmetry_space_group_name_H-M   'P 1'
_cell_length_a   5.05135100
_cell_length_b   6.45656100
_cell_length_c   11.37664900
_cell_angle_alpha   90.00000000
_cell_angle_beta   90.00000000
_cell_angle_gamma   90.00000000
_symmetry_Int_Tables_number   1
_chemical_formula_structural   CaMgGeO4
_chemical_formula_sum   'Ca4 Mg4 Ge4 O16'
_cell_volume   371.04207902
_cell_formula_units_Z   4
loop_
 _symmetry_equiv_pos_site_id
 _symmetry_equiv_pos_as_xyz
  1  'x, y, z'
loop_
 _atom_site_type_symbol
 _atom_site_label
 _atom_site_symmetry_multiplicity
 _atom_site_fract_x
 _atom_site_fract_y
 _atom_site_fract_z
 _atom_site_occupancy
  Ca  Ca0  1  0.51148100  0.25000000  0.77539700  1
  Ca  Ca1  1  0.98851900  0.25000000  0.27539700  1
  Ca  Ca2  1  0.48851900  0.75000000  0.22460300  1
  Ca  Ca3  1  0.01148100  0.75000000  0.72460300  1
  Mg  Mg4  1  0.00000000  0.50000000  0.00000000  1
  Mg  Mg5  1  0.50000000  0.00000000  0.50000000  1
  Mg  Mg6  1  0.50000000  0.50000000  0.50000000  1
  Mg  Mg7  1  0.00000000  0.00000000  0.00000000  1
  Ge  Ge8  1  0.07881800  0.25000000  0.58081000  1
  Ge  Ge9  1  0.42118200  0.25000000  0.08081000  1
  Ge  Ge10  1  0.57881800  0.75000000  0.91919000  1
  Ge  Ge11  1  0.92118200  0.75000000  0.41919000  1
  O  O12  1  0.26408100  0.46804600  0.14818400  1
  O  O13  1  0.76408100  0.53195400  0.35181600  1
  O  O14  1  0.75615000  0.75000000  0.05710800  1
  O  O15  1  0.23591900  0.03195400  0.64818400  1
  O  O16  1  0.23591900  0.46804600  0.64818400  1
  O  O17  1  0.73058600  0.25000000  0.57981200  1
  O  O18  1  0.76408100  0.96804600  0.35181600  1
  O  O19  1  0.23058600  0.75000000  0.92018800  1
  O  O20  1  0.74385000  0.75000000  0.55710800  1
  O  O21  1  0.26408100  0.03195400  0.14818400  1
  O  O22  1  0.73591900  0.53195400  0.85181600  1
  O  O23  1  0.26941400  0.75000000  0.42018800  1
  O  O24  1  0.76941400  0.25000000  0.07981200  1
  O  O25  1  0.73591900  0.96804600  0.85181600  1
  O  O26  1  0.24385000  0.25000000  0.94289200  1
  O  O27  1  0.25615000  0.25000000  0.44289200  1
