# generated using pymatgen
data_K6Na3AlSb4
_symmetry_space_group_name_H-M   'P 1'
_cell_length_a   10.29181454
_cell_length_b   10.29181454
_cell_length_c   10.59554700
_cell_angle_alpha   90.00000000
_cell_angle_beta   90.00000000
_cell_angle_gamma   120.00000348
_symmetry_Int_Tables_number   1
_chemical_formula_structural   K6Na3AlSb4
_chemical_formula_sum   'K12 Na6 Al2 Sb8'
_cell_volume   971.93652258
_cell_formula_units_Z   2
loop_
 _symmetry_equiv_pos_site_id
 _symmetry_equiv_pos_as_xyz
  1  'x, y, z'
loop_
 _atom_site_type_symbol
 _atom_site_label
 _atom_site_symmetry_multiplicity
 _atom_site_fract_x
 _atom_site_fract_y
 _atom_site_fract_z
 _atom_site_occupancy
  K  K0  1  0.20738300  0.41476600  0.54212000  1
  K  K1  1  0.79261700  0.20738300  0.04212000  1
  K  K2  1  0.41476600  0.20738300  0.04212000  1
  K  K3  1  0.58523400  0.79261700  0.54212000  1
  K  K4  1  0.20738300  0.79261700  0.54212000  1
  K  K5  1  0.79261700  0.58523400  0.45788000  1
  K  K6  1  0.79261700  0.20738300  0.45788000  1
  K  K7  1  0.79261700  0.58523400  0.04212000  1
  K  K8  1  0.41476600  0.20738300  0.45788000  1
  K  K9  1  0.58523400  0.79261700  0.95788000  1
  K  K10  1  0.20738300  0.41476600  0.95788000  1
  K  K11  1  0.20738300  0.79261700  0.95788000  1
  Na  Na12  1  0.11590700  0.23181400  0.25000000  1
  Na  Na13  1  0.88409300  0.11590700  0.75000000  1
  Na  Na14  1  0.23181400  0.11590700  0.75000000  1
  Na  Na15  1  0.76818600  0.88409300  0.25000000  1
  Na  Na16  1  0.11590700  0.88409300  0.25000000  1
  Na  Na17  1  0.88409300  0.76818600  0.75000000  1
  Al  Al18  1  0.33333300  0.66666700  0.25000000  1
  Al  Al19  1  0.66666700  0.33333300  0.75000000  1
  Sb  Sb20  1  0.48160000  0.51840000  0.25000000  1
  Sb  Sb21  1  0.96320100  0.48160000  0.75000000  1
  Sb  Sb22  1  0.51840000  0.03679900  0.75000000  1
  Sb  Sb23  1  0.48160000  0.96320100  0.25000000  1
  Sb  Sb24  1  0.03679900  0.51840000  0.25000000  1
  Sb  Sb25  1  0.51840000  0.48160000  0.75000000  1
  Sb  Sb26  1  0.00000000  0.00000000  0.00000000  1
  Sb  Sb27  1  0.00000000  0.00000000  0.50000000  1
