# generated using pymatgen
data_Rb4Hf3S14
_symmetry_space_group_name_H-M   'P 1'
_cell_length_a   11.81057008
_cell_length_b   11.81057008
_cell_length_c   13.84202337
_cell_angle_alpha   68.76953202
_cell_angle_beta   68.76953202
_cell_angle_gamma   41.71635261
_symmetry_Int_Tables_number   1
_chemical_formula_structural   Rb4Hf3S14
_chemical_formula_sum   'Rb8 Hf6 S28'
_cell_volume   1184.45549399
_cell_formula_units_Z   2
loop_
 _symmetry_equiv_pos_site_id
 _symmetry_equiv_pos_as_xyz
  1  'x, y, z'
loop_
 _atom_site_type_symbol
 _atom_site_label
 _atom_site_symmetry_multiplicity
 _atom_site_fract_x
 _atom_site_fract_y
 _atom_site_fract_z
 _atom_site_occupancy
  Rb  Rb0  1  0.02161900  0.38369700  0.88992500  1
  Rb  Rb1  1  0.61630300  0.97838100  0.61007500  1
  Rb  Rb2  1  0.97838100  0.61630300  0.11007500  1
  Rb  Rb3  1  0.38369700  0.02161900  0.38992500  1
  Rb  Rb4  1  0.19689400  0.67239400  0.64386800  1
  Rb  Rb5  1  0.32760600  0.80310600  0.85613200  1
  Rb  Rb6  1  0.80310600  0.32760600  0.35613200  1
  Rb  Rb7  1  0.67239400  0.19689400  0.14386800  1
  Hf  Hf8  1  0.92077900  0.41564200  0.58812500  1
  Hf  Hf9  1  0.58435800  0.07922100  0.91187500  1
  Hf  Hf10  1  0.07922100  0.58435800  0.41187500  1
  Hf  Hf11  1  0.41564200  0.92077900  0.08812500  1
  Hf  Hf12  1  0.76573000  0.23427000  0.75000000  1
  Hf  Hf13  1  0.23427000  0.76573000  0.25000000  1
  S  S14  1  0.88450400  0.19508000  0.89425500  1
  S  S15  1  0.80492000  0.11549600  0.60574500  1
  S  S16  1  0.11549600  0.80492000  0.10574500  1
  S  S17  1  0.19508000  0.88450400  0.39425500  1
  S  S18  1  0.65421300  0.48354400  0.58511900  1
  S  S19  1  0.51645600  0.34578700  0.91488100  1
  S  S20  1  0.34578700  0.51645600  0.41488100  1
  S  S21  1  0.48354400  0.65421300  0.08511900  1
  S  S22  1  0.07080600  0.10030600  0.63200800  1
  S  S23  1  0.89969400  0.92919400  0.86799200  1
  S  S24  1  0.92919400  0.89969400  0.36799200  1
  S  S25  1  0.10030600  0.07080600  0.13200800  1
  S  S26  1  0.76062000  0.43107800  0.79330000  1
  S  S27  1  0.56892200  0.23938000  0.70670000  1
  S  S28  1  0.23938000  0.56892200  0.20670000  1
  S  S29  1  0.43107800  0.76062000  0.29330000  1
  S  S30  1  0.99015200  0.56825200  0.60140200  1
  S  S31  1  0.43174800  0.00984800  0.89859800  1
  S  S32  1  0.00984800  0.43174800  0.39859800  1
  S  S33  1  0.56825200  0.99015200  0.10140200  1
  S  S34  1  0.85294300  0.80977900  0.83184800  1
  S  S35  1  0.19022100  0.14705700  0.66815200  1
  S  S36  1  0.14705700  0.19022100  0.16815200  1
  S  S37  1  0.80977900  0.85294300  0.33184800  1
  S  S38  1  0.31050200  0.40470000  0.89039200  1
  S  S39  1  0.59530000  0.68949800  0.60960800  1
  S  S40  1  0.68949800  0.59530000  0.10960800  1
  S  S41  1  0.40470000  0.31050200  0.39039200  1
