# generated using pymatgen
data_K4WO5
_symmetry_space_group_name_H-M   'P 1'
_cell_length_a   6.39104600
_cell_length_b   10.39343566
_cell_length_c   17.22942567
_cell_angle_alpha   94.21112875
_cell_angle_beta   92.58120114
_cell_angle_gamma   96.27504554
_symmetry_Int_Tables_number   1
_chemical_formula_structural   K4WO5
_chemical_formula_sum   'K24 W6 O30'
_cell_volume   1132.90877644
_cell_formula_units_Z   6
loop_
 _symmetry_equiv_pos_site_id
 _symmetry_equiv_pos_as_xyz
  1  'x, y, z'
loop_
 _atom_site_type_symbol
 _atom_site_label
 _atom_site_symmetry_multiplicity
 _atom_site_fract_x
 _atom_site_fract_y
 _atom_site_fract_z
 _atom_site_occupancy
  K  K0  1  0.44051100  0.42035800  0.08475000  1
  K  K1  1  0.55948900  0.57964200  0.91525000  1
  K  K2  1  0.73205900  0.54013600  0.55797100  1
  K  K3  1  0.26794100  0.45986400  0.44202900  1
  K  K4  1  0.95783200  0.29638000  0.99373300  1
  K  K5  1  0.04216800  0.70362000  0.00626700  1
  K  K6  1  0.51091800  0.01165200  0.67974800  1
  K  K7  1  0.48908200  0.98834800  0.32025200  1
  K  K8  1  0.42454900  0.80539600  0.49434700  1
  K  K9  1  0.57545100  0.19460400  0.50565300  1
  K  K10  1  0.94873600  0.49941800  0.18014900  1
  K  K11  1  0.05126400  0.50058200  0.81985100  1
  K  K12  1  0.06845900  0.08742400  0.40510300  1
  K  K13  1  0.93154100  0.91257600  0.59489700  1
  K  K14  1  0.23472300  0.59572300  0.64875500  1
  K  K15  1  0.76527700  0.40427700  0.35124500  1
  K  K16  1  0.94959400  0.16104100  0.78885900  1
  K  K17  1  0.05040600  0.83895900  0.21114100  1
  K  K18  1  0.74428300  0.95298600  0.93017700  1
  K  K19  1  0.25571700  0.04701400  0.06982300  1
  K  K20  1  0.78075800  0.11464300  0.15455200  1
  K  K21  1  0.21924200  0.88535700  0.84544800  1
  K  K22  1  0.42690900  0.64810100  0.28123100  1
  K  K23  1  0.57309100  0.35189900  0.71876900  1
  W  W24  1  0.71816100  0.73385400  0.74890400  1
  W  W25  1  0.28183900  0.26614600  0.25109600  1
  W  W26  1  0.10029200  0.25686500  0.59696400  1
  W  W27  1  0.89970800  0.74313500  0.40303600  1
  W  W28  1  0.56324900  0.77398400  0.09264800  1
  W  W29  1  0.43675100  0.22601600  0.90735200  1
  O  O30  1  0.15873300  0.84145700  0.37554600  1
  O  O31  1  0.84126700  0.15854300  0.62445400  1
  O  O32  1  0.31659200  0.66223500  0.12046800  1
  O  O33  1  0.68340800  0.33776500  0.87953200  1
  O  O34  1  0.64135200  0.63400300  0.42416300  1
  O  O35  1  0.35864800  0.36599700  0.57583700  1
  O  O36  1  0.42754100  0.81726200  0.00129700  1
  O  O37  1  0.57245900  0.18273800  0.99870300  1
  O  O38  1  0.71257300  0.62653300  0.08136600  1
  O  O39  1  0.28742700  0.37346700  0.91863400  1
  O  O40  1  0.58818900  0.76159200  0.64676100  1
  O  O41  1  0.41181100  0.23840800  0.35323900  1
  O  O42  1  0.85912800  0.71799900  0.85055700  1
  O  O43  1  0.14087200  0.28200100  0.14944300  1
  O  O44  1  0.82378600  0.88220500  0.07327700  1
  O  O45  1  0.17621400  0.11779500  0.92672300  1
  O  O46  1  0.12785500  0.33973300  0.69849000  1
  O  O47  1  0.87214500  0.66026700  0.30151000  1
  O  O48  1  0.84268100  0.59296700  0.70527800  1
  O  O49  1  0.15731900  0.40703300  0.29472200  1
  O  O50  1  0.04219400  0.68087200  0.48865500  1
  O  O51  1  0.95780600  0.31912800  0.51134500  1
  O  O52  1  0.77167100  0.89558400  0.42606700  1
  O  O53  1  0.22832900  0.10441600  0.57393300  1
  O  O54  1  0.85491500  0.90535400  0.75250800  1
  O  O55  1  0.14508500  0.09464600  0.24749200  1
  O  O56  1  0.46055900  0.11834400  0.81589500  1
  O  O57  1  0.53944100  0.88165600  0.18410500  1
  O  O58  1  0.45074000  0.69215800  0.78752100  1
  O  O59  1  0.54926000  0.30784200  0.21247900  1
