# generated using pymatgen
data_NaCe(PO3)4
_symmetry_space_group_name_H-M   'P 1'
_cell_length_a   13.33945500
_cell_length_b   7.33986100
_cell_length_c   12.47315472
_cell_angle_alpha   54.12989118
_cell_angle_beta   90.00000000
_cell_angle_gamma   90.00000000
_symmetry_Int_Tables_number   1
_chemical_formula_structural   NaCe(PO3)4
_chemical_formula_sum   'Na4 Ce4 P16 O48'
_cell_volume   989.63146677
_cell_formula_units_Z   4
loop_
 _symmetry_equiv_pos_site_id
 _symmetry_equiv_pos_as_xyz
  1  'x, y, z'
loop_
 _atom_site_type_symbol
 _atom_site_label
 _atom_site_symmetry_multiplicity
 _atom_site_fract_x
 _atom_site_fract_y
 _atom_site_fract_z
 _atom_site_occupancy
  Na  Na0  1  0.22018500  0.43396100  0.06525800  1
  Na  Na1  1  0.77981500  0.56603900  0.93474200  1
  Na  Na2  1  0.72018500  0.56603900  0.43474200  1
  Na  Na3  1  0.27981500  0.43396100  0.56525800  1
  Ce  Ce4  1  0.21831100  0.03744800  0.97653300  1
  Ce  Ce5  1  0.28168900  0.03744800  0.47653300  1
  Ce  Ce6  1  0.71831100  0.96255200  0.52346700  1
  Ce  Ce7  1  0.78168900  0.96255200  0.02346700  1
  P  P8  1  0.59965600  0.49360900  0.25700100  1
  P  P9  1  0.61417100  0.38237500  0.73575700  1
  P  P10  1  0.11417100  0.61762500  0.76424300  1
  P  P11  1  0.91008600  0.92681500  0.30232400  1
  P  P12  1  0.87289000  0.16254300  0.69409800  1
  P  P13  1  0.90034400  0.49360900  0.75700100  1
  P  P14  1  0.88582900  0.38237500  0.23575700  1
  P  P15  1  0.09965600  0.50639100  0.24299900  1
  P  P16  1  0.12711000  0.83745700  0.30590200  1
  P  P17  1  0.41008600  0.07318500  0.19767600  1
  P  P18  1  0.40034400  0.50639100  0.74299900  1
  P  P19  1  0.62711000  0.16254300  0.19409800  1
  P  P20  1  0.37289000  0.83745700  0.80590200  1
  P  P21  1  0.38582900  0.61762500  0.26424300  1
  P  P22  1  0.08991400  0.07318500  0.69767600  1
  P  P23  1  0.58991400  0.92681500  0.80232400  1
  O  O24  1  0.66415000  0.69836400  0.20562000  1
  O  O25  1  0.70769100  0.18655900  0.10235200  1
  O  O26  1  0.62148600  0.40529400  0.16815100  1
  O  O27  1  0.42006100  0.80222600  0.28795900  1
  O  O28  1  0.81194700  0.28410500  0.34687700  1
  O  O29  1  0.52134600  0.15130900  0.13504000  1
  O  O30  1  0.18805300  0.71589500  0.65312300  1
  O  O31  1  0.07993900  0.80222600  0.78795900  1
  O  O32  1  0.13419700  0.02058100  0.16028700  1
  O  O33  1  0.31194700  0.71589500  0.15312300  1
  O  O34  1  0.48615300  0.57563800  0.21140000  1
  O  O35  1  0.98615300  0.42436200  0.28860000  1
  O  O36  1  0.87851400  0.40529400  0.66815100  1
  O  O37  1  0.12148600  0.59470600  0.33184900  1
  O  O38  1  0.92006100  0.19777400  0.21204100  1
  O  O39  1  0.66046000  0.84088800  0.91640000  1
  O  O40  1  0.88964000  0.86246800  0.21006800  1
  O  O41  1  0.35535800  0.41204100  0.39735400  1
  O  O42  1  0.38964000  0.13753200  0.28993200  1
  O  O43  1  0.16046000  0.15911200  0.58360000  1
  O  O44  1  0.64464200  0.58795900  0.60264600  1
  O  O45  1  0.86580300  0.97941900  0.83971300  1
  O  O46  1  0.51384700  0.42436200  0.78860000  1
  O  O47  1  0.60708400  0.31018600  0.40318200  1
  O  O48  1  0.16415000  0.30163600  0.29438000  1
  O  O49  1  0.85535800  0.58795900  0.10264600  1
  O  O50  1  0.36580300  0.02058100  0.66028700  1
  O  O51  1  0.63419700  0.97941900  0.33971300  1
  O  O52  1  0.02134600  0.84869100  0.36496000  1
  O  O53  1  0.29230900  0.81344100  0.89764800  1
  O  O54  1  0.79230900  0.18655900  0.60235200  1
  O  O55  1  0.83954000  0.84088800  0.41640000  1
  O  O56  1  0.10708400  0.68981400  0.09681800  1
  O  O57  1  0.14464200  0.41204100  0.89735400  1
  O  O58  1  0.39291600  0.68981400  0.59681800  1
  O  O59  1  0.37851400  0.59470600  0.83184900  1
  O  O60  1  0.33585000  0.30163600  0.79438000  1
  O  O61  1  0.89291600  0.31018600  0.90318200  1
  O  O62  1  0.01384700  0.57563800  0.71140000  1
  O  O63  1  0.33954000  0.15911200  0.08360000  1
  O  O64  1  0.61036000  0.86246800  0.71006800  1
  O  O65  1  0.20769100  0.81344100  0.39764800  1
  O  O66  1  0.47865400  0.84869100  0.86496000  1
  O  O67  1  0.57993900  0.19777400  0.71204100  1
  O  O68  1  0.83585000  0.69836400  0.70562000  1
  O  O69  1  0.11036000  0.13753200  0.78993200  1
  O  O70  1  0.97865400  0.15130900  0.63504000  1
  O  O71  1  0.68805300  0.28410500  0.84687700  1
