# generated using pymatgen
data_La3MnGaS7
_symmetry_space_group_name_H-M   'P 1'
_cell_length_a   10.26502352
_cell_length_b   10.26502352
_cell_length_c   6.07469500
_cell_angle_alpha   90.00000000
_cell_angle_beta   90.00000000
_cell_angle_gamma   119.99999691
_symmetry_Int_Tables_number   1
_chemical_formula_structural   La3MnGaS7
_chemical_formula_sum   'La6 Mn2 Ga2 S14'
_cell_volume   554.33847208
_cell_formula_units_Z   2
loop_
 _symmetry_equiv_pos_site_id
 _symmetry_equiv_pos_as_xyz
  1  'x, y, z'
loop_
 _atom_site_type_symbol
 _atom_site_label
 _atom_site_symmetry_multiplicity
 _atom_site_fract_x
 _atom_site_fract_y
 _atom_site_fract_z
 _atom_site_occupancy
  La  La0  1  0.13928200  0.37429000  0.00059600  1
  La  La1  1  0.76499200  0.13928200  0.50059600  1
  La  La2  1  0.37429000  0.23500800  0.50059600  1
  La  La3  1  0.62571000  0.76499200  0.00059600  1
  La  La4  1  0.23500800  0.86071800  0.00059600  1
  La  La5  1  0.86071800  0.62571000  0.50059600  1
  Mn  Mn6  1  0.00000000  0.00000000  0.22706800  1
  Mn  Mn7  1  0.00000000  0.00000000  0.72706800  1
  Ga  Ga8  1  0.66666700  0.33333300  0.08124200  1
  Ga  Ga9  1  0.33333300  0.66666700  0.58124200  1
  S  S10  1  0.23469200  0.14619400  0.96535100  1
  S  S11  1  0.08849800  0.23469200  0.46535100  1
  S  S12  1  0.14619400  0.91150200  0.46535100  1
  S  S13  1  0.85380600  0.08849800  0.96535100  1
  S  S14  1  0.91150200  0.76530800  0.96535100  1
  S  S15  1  0.76530800  0.85380600  0.46535100  1
  S  S16  1  0.51711600  0.09872600  0.23144100  1
  S  S17  1  0.41839000  0.51711600  0.73144100  1
  S  S18  1  0.09872600  0.58161000  0.73144100  1
  S  S19  1  0.90127400  0.41839000  0.23144100  1
  S  S20  1  0.58161000  0.48288400  0.23144100  1
  S  S21  1  0.48288400  0.90127400  0.73144100  1
  S  S22  1  0.33333300  0.66666700  0.21022600  1
  S  S23  1  0.66666700  0.33333300  0.71022600  1
