# generated using pymatgen
data_Li2U3P2O15
_symmetry_space_group_name_H-M   'P 1'
_cell_length_a   13.67743445
_cell_length_b   13.67743445
_cell_length_c   13.67743445
_cell_angle_alpha   149.41633234
_cell_angle_beta   149.41633234
_cell_angle_gamma   43.79884407
_symmetry_Int_Tables_number   1
_chemical_formula_structural   Li2U3P2O15
_chemical_formula_sum   'Li4 U6 P4 O30'
_cell_volume   660.51766587
_cell_formula_units_Z   2
loop_
 _symmetry_equiv_pos_site_id
 _symmetry_equiv_pos_as_xyz
  1  'x, y, z'
loop_
 _atom_site_type_symbol
 _atom_site_label
 _atom_site_symmetry_multiplicity
 _atom_site_fract_x
 _atom_site_fract_y
 _atom_site_fract_z
 _atom_site_occupancy
  Li  Li0  1  0.31585900  0.31585900  0.00000000  1
  Li  Li1  1  0.06585900  0.56585900  0.50000000  1
  Li  Li2  1  0.43414100  0.93414100  0.50000000  1
  Li  Li3  1  0.68414100  0.68414100  0.00000000  1
  U  U4  1  0.08367900  0.08367900  0.00000000  1
  U  U5  1  0.66632100  0.16632100  0.50000000  1
  U  U6  1  0.91632100  0.91632100  0.00000000  1
  U  U7  1  0.50000000  0.50000000  0.00000000  1
  U  U8  1  0.83367900  0.33367900  0.50000000  1
  U  U9  1  0.25000000  0.75000000  0.50000000  1
  P  P10  1  0.78830500  0.78830500  0.00000000  1
  P  P11  1  0.53830500  0.03830500  0.50000000  1
  P  P12  1  0.96169500  0.46169500  0.50000000  1
  P  P13  1  0.21169500  0.21169500  0.00000000  1
  O  O14  1  0.66275200  0.41531400  0.75256100  1
  O  O15  1  0.00000000  0.00000000  0.00000000  1
  O  O16  1  0.24854200  0.07673300  0.82819100  1
  O  O17  1  0.82683000  0.65893400  0.83210400  1
  O  O18  1  0.08724800  0.83468600  0.74743900  1
  O  O19  1  0.24854200  0.42035100  0.17180900  1
  O  O20  1  0.17035100  0.49854200  0.67180900  1
  O  O21  1  0.08980900  0.33724800  0.75256100  1
  O  O22  1  0.74472600  0.07683000  0.66789600  1
  O  O23  1  0.40893400  0.07683000  0.33210400  1
  O  O24  1  0.08724800  0.33980900  0.25256100  1
  O  O25  1  0.58468600  0.33724800  0.24743900  1
  O  O26  1  0.92317000  0.25527400  0.33210400  1
  O  O27  1  0.82673300  0.49854200  0.32819100  1
  O  O28  1  0.66275200  0.91019100  0.24743900  1
  O  O29  1  0.32088800  0.82088800  0.50000000  1
  O  O30  1  0.66019100  0.91275200  0.74743900  1
  O  O31  1  0.42911200  0.42911200  0.00000000  1
  O  O32  1  0.00527400  0.17317000  0.83210400  1
  O  O33  1  0.92326700  0.75145800  0.17180900  1
  O  O34  1  0.92317000  0.59106600  0.66789600  1
  O  O35  1  0.34106600  0.17317000  0.16789600  1
  O  O36  1  0.50145800  0.17326700  0.67180900  1
  O  O37  1  0.17911200  0.67911200  0.50000000  1
  O  O38  1  0.82683000  0.99472600  0.16789600  1
  O  O39  1  0.57088800  0.57088800  0.00000000  1
  O  O40  1  0.16531400  0.91275200  0.25256100  1
  O  O41  1  0.57964900  0.75145800  0.82819100  1
  O  O42  1  0.50145800  0.82964900  0.32819100  1
  O  O43  1  0.75000000  0.25000000  0.50000000  1
