# generated using pymatgen
data_K2P3
_symmetry_space_group_name_H-M   'P 1'
_cell_length_a   12.06045282
_cell_length_b   10.35578808
_cell_length_c   8.57298214
_cell_angle_alpha   78.53816849
_cell_angle_beta   57.30232702
_cell_angle_gamma   44.15950449
_symmetry_Int_Tables_number   1
_chemical_formula_structural   K2P3
_chemical_formula_sum   'K8 P12'
_cell_volume   594.27234501
_cell_formula_units_Z   4
loop_
 _symmetry_equiv_pos_site_id
 _symmetry_equiv_pos_as_xyz
  1  'x, y, z'
loop_
 _atom_site_type_symbol
 _atom_site_label
 _atom_site_symmetry_multiplicity
 _atom_site_fract_x
 _atom_site_fract_y
 _atom_site_fract_z
 _atom_site_occupancy
  K  K0  1  0.37541200  0.37541200  0.12458800  1
  K  K1  1  0.12458800  0.12458800  0.37541200  1
  K  K2  1  0.63668400  0.63668400  0.36331600  1
  K  K3  1  0.36331600  0.36331600  0.63668400  1
  K  K4  1  0.88668400  0.88668400  0.61331600  1
  K  K5  1  0.12541200  0.12541200  0.87458800  1
  K  K6  1  0.87458800  0.87458800  0.12541200  1
  K  K7  1  0.61331600  0.61331600  0.88668400  1
  P  P8  1  0.20525100  0.79917000  0.64950200  1
  P  P9  1  0.60525400  0.89474600  0.60525400  1
  P  P10  1  0.35525400  0.64474600  0.35525400  1
  P  P11  1  0.45083000  0.04474900  0.90392300  1
  P  P12  1  0.64474600  0.35525400  0.64474600  1
  P  P13  1  0.34607700  0.64950200  0.79917000  1
  P  P14  1  0.90392300  0.60049800  0.45083000  1
  P  P15  1  0.89474600  0.60525400  0.89474600  1
  P  P16  1  0.64950200  0.34607700  0.20525100  1
  P  P17  1  0.04474900  0.45083000  0.60049800  1
  P  P18  1  0.79917000  0.20525100  0.34607700  1
  P  P19  1  0.60049800  0.90392300  0.04474900  1
