# generated using pymatgen
data_Ba3Nb16O23
_symmetry_space_group_name_H-M   'P 1'
_cell_length_a   12.34588165
_cell_length_b   12.34588165
_cell_length_c   4.21703000
_cell_angle_alpha   90.00000000
_cell_angle_beta   90.00000000
_cell_angle_gamma   118.44531004
_symmetry_Int_Tables_number   1
_chemical_formula_structural   Ba3Nb16O23
_chemical_formula_sum   'Ba3 Nb16 O23'
_cell_volume   565.16367022
_cell_formula_units_Z   1
loop_
 _symmetry_equiv_pos_site_id
 _symmetry_equiv_pos_as_xyz
  1  'x, y, z'
loop_
 _atom_site_type_symbol
 _atom_site_label
 _atom_site_symmetry_multiplicity
 _atom_site_fract_x
 _atom_site_fract_y
 _atom_site_fract_z
 _atom_site_occupancy
  Ba  Ba0  1  0.20099600  0.79900400  0.00000000  1
  Ba  Ba1  1  0.79900400  0.20099600  0.00000000  1
  Ba  Ba2  1  0.00000000  0.00000000  0.00000000  1
  Nb  Nb3  1  0.47200700  0.86193600  0.50000000  1
  Nb  Nb4  1  0.52799300  0.13806400  0.50000000  1
  Nb  Nb5  1  0.86193600  0.47200700  0.50000000  1
  Nb  Nb6  1  0.13806400  0.52799300  0.50000000  1
  Nb  Nb7  1  0.72970900  0.93168100  0.50000000  1
  Nb  Nb8  1  0.27029100  0.06831900  0.50000000  1
  Nb  Nb9  1  0.93168100  0.72970900  0.50000000  1
  Nb  Nb10  1  0.06831900  0.27029100  0.50000000  1
  Nb  Nb11  1  0.60132100  0.39867900  0.50000000  1
  Nb  Nb12  1  0.39867900  0.60132100  0.50000000  1
  Nb  Nb13  1  0.56927900  0.77225500  0.00000000  1
  Nb  Nb14  1  0.43072100  0.22774500  0.00000000  1
  Nb  Nb15  1  0.77225500  0.56927900  0.00000000  1
  Nb  Nb16  1  0.22774500  0.43072100  0.00000000  1
  Nb  Nb17  1  0.67243800  0.67243800  0.50000000  1
  Nb  Nb18  1  0.32756200  0.32756200  0.50000000  1
  O  O19  1  0.10301300  0.89698700  0.50000000  1
  O  O20  1  0.89698700  0.10301300  0.50000000  1
  O  O21  1  0.70121400  0.29878600  0.50000000  1
  O  O22  1  0.29878600  0.70121400  0.50000000  1
  O  O23  1  0.53926400  0.14090100  0.00000000  1
  O  O24  1  0.46073600  0.85909900  0.00000000  1
  O  O25  1  0.14090100  0.53926400  0.00000000  1
  O  O26  1  0.85909900  0.46073600  0.00000000  1
  O  O27  1  0.63409000  0.03321000  0.50000000  1
  O  O28  1  0.36591000  0.96679000  0.50000000  1
  O  O29  1  0.03321000  0.63409000  0.50000000  1
  O  O30  1  0.96679000  0.36591000  0.50000000  1
  O  O31  1  0.73888200  0.93720300  0.00000000  1
  O  O32  1  0.26111800  0.06279700  0.00000000  1
  O  O33  1  0.93720300  0.73888200  0.00000000  1
  O  O34  1  0.06279700  0.26111800  0.00000000  1
  O  O35  1  0.83995900  0.83995900  0.50000000  1
  O  O36  1  0.16004100  0.16004100  0.50000000  1
  O  O37  1  0.59637900  0.40362100  0.00000000  1
  O  O38  1  0.50000000  0.50000000  0.50000000  1
  O  O39  1  0.33408800  0.33408800  0.00000000  1
  O  O40  1  0.66591200  0.66591200  0.00000000  1
  O  O41  1  0.40362100  0.59637900  0.00000000  1
