# generated using pymatgen
data_NdTl(PO3)4
_symmetry_space_group_name_H-M   'P 1'
_cell_length_a   9.13905700
_cell_length_b   10.61618500
_cell_length_c   13.10514701
_cell_angle_alpha   54.90312264
_cell_angle_beta   90.00000000
_cell_angle_gamma   90.00000000
_symmetry_Int_Tables_number   1
_chemical_formula_structural   NdTl(PO3)4
_chemical_formula_sum   'Nd4 Tl4 P16 O48'
_cell_volume   1040.30618389
_cell_formula_units_Z   4
loop_
 _symmetry_equiv_pos_site_id
 _symmetry_equiv_pos_as_xyz
  1  'x, y, z'
loop_
 _atom_site_type_symbol
 _atom_site_label
 _atom_site_symmetry_multiplicity
 _atom_site_fract_x
 _atom_site_fract_y
 _atom_site_fract_z
 _atom_site_occupancy
  Nd  Nd0  1  0.72789200  0.68370600  0.81668700  1
  Nd  Nd1  1  0.22789200  0.31629400  0.68331300  1
  Nd  Nd2  1  0.27210800  0.31629400  0.18331300  1
  Nd  Nd3  1  0.77210800  0.68370600  0.31668700  1
  Tl  Tl4  1  0.06276900  0.75211900  0.03918600  1
  Tl  Tl5  1  0.56276900  0.24788100  0.46081400  1
  Tl  Tl6  1  0.93723100  0.24788100  0.96081400  1
  Tl  Tl7  1  0.43723100  0.75211900  0.53918600  1
  P  P8  1  0.97628100  0.02609800  0.72364400  1
  P  P9  1  0.47628100  0.97390200  0.77635600  1
  P  P10  1  0.02371900  0.97390200  0.27635600  1
  P  P11  1  0.52371900  0.02609800  0.22364400  1
  P  P12  1  0.17402000  0.68134300  0.35890400  1
  P  P13  1  0.67402000  0.31865700  0.14109600  1
  P  P14  1  0.82598000  0.31865700  0.64109600  1
  P  P15  1  0.32598000  0.68134300  0.85890400  1
  P  P16  1  0.40304600  0.61448600  0.23889000  1
  P  P17  1  0.90304600  0.38551400  0.26111000  1
  P  P18  1  0.59695400  0.38551400  0.76111000  1
  P  P19  1  0.09695400  0.61448600  0.73889000  1
  P  P20  1  0.60485500  0.80017800  0.02263600  1
  P  P21  1  0.10485500  0.19982200  0.47736400  1
  P  P22  1  0.39514500  0.19982200  0.97736400  1
  P  P23  1  0.89514500  0.80017800  0.52263600  1
  O  O24  1  0.29200300  0.72553800  0.25030500  1
  O  O25  1  0.79200300  0.27446200  0.24969500  1
  O  O26  1  0.70799700  0.27446200  0.74969500  1
  O  O27  1  0.20799700  0.72553800  0.75030500  1
  O  O28  1  0.91181400  0.92996100  0.21781400  1
  O  O29  1  0.41181400  0.07003900  0.28218600  1
  O  O30  1  0.08818600  0.07003900  0.78218600  1
  O  O31  1  0.58818600  0.92996100  0.71781400  1
  O  O32  1  0.31690500  0.48665500  0.25084400  1
  O  O33  1  0.81690500  0.51334500  0.24915600  1
  O  O34  1  0.68309500  0.51334500  0.74915600  1
  O  O35  1  0.18309500  0.48665500  0.75084400  1
  O  O36  1  0.03435900  0.63347100  0.33022000  1
  O  O37  1  0.53435900  0.36652900  0.16978000  1
  O  O38  1  0.96564100  0.36652900  0.66978000  1
  O  O39  1  0.46564100  0.63347100  0.83022000  1
  O  O40  1  0.03197600  0.42777600  0.17555500  1
  O  O41  1  0.53197600  0.57222400  0.32444500  1
  O  O42  1  0.96802400  0.57222400  0.82444500  1
  O  O43  1  0.46802400  0.42777600  0.67555500  1
  O  O44  1  0.91169500  0.86749300  0.80445300  1
  O  O45  1  0.41169500  0.13250700  0.69554700  1
  O  O46  1  0.08830500  0.13250700  0.19554700  1
  O  O47  1  0.58830500  0.86749300  0.30445300  1
  O  O48  1  0.66079400  0.69912100  0.98566100  1
  O  O49  1  0.16079400  0.30087900  0.51433900  1
  O  O50  1  0.33920600  0.30087900  0.01433900  1
  O  O51  1  0.83920600  0.69912100  0.48566100  1
  O  O52  1  0.34321500  0.84952400  0.83324600  1
  O  O53  1  0.84321500  0.15047600  0.66675400  1
  O  O54  1  0.65678500  0.15047600  0.16675400  1
  O  O55  1  0.15678500  0.84952400  0.33324600  1
  O  O56  1  0.45004200  0.73434100  0.09590500  1
  O  O57  1  0.95004200  0.26565900  0.40409500  1
  O  O58  1  0.54995800  0.26565900  0.90409500  1
  O  O59  1  0.04995800  0.73434100  0.59590500  1
  O  O60  1  0.74596600  0.41982200  0.01551600  1
  O  O61  1  0.24596600  0.58017800  0.48448400  1
  O  O62  1  0.25403400  0.58017800  0.98448400  1
  O  O63  1  0.75403400  0.41982200  0.51551600  1
  O  O64  1  0.79507300  0.83727700  0.59270900  1
  O  O65  1  0.29507300  0.16272300  0.90729100  1
  O  O66  1  0.20492700  0.16272300  0.40729100  1
  O  O67  1  0.70492700  0.83727700  0.09270900  1
  O  O68  1  0.04238600  0.04276400  0.60133900  1
  O  O69  1  0.54238600  0.95723600  0.89866100  1
  O  O70  1  0.95761400  0.95723600  0.39866100  1
  O  O71  1  0.45761400  0.04276400  0.10133900  1
