# generated using pymatgen
data_La2Te3MoO12
_symmetry_space_group_name_H-M   'P 1'
_cell_length_a   7.48331900
_cell_length_b   11.82914600
_cell_length_c   13.71221900
_cell_angle_alpha   90.00000000
_cell_angle_beta   90.00000000
_cell_angle_gamma   90.00000000
_symmetry_Int_Tables_number   1
_chemical_formula_structural   La2Te3MoO12
_chemical_formula_sum   'La8 Te12 Mo4 O48'
_cell_volume   1213.82308175
_cell_formula_units_Z   4
loop_
 _symmetry_equiv_pos_site_id
 _symmetry_equiv_pos_as_xyz
  1  'x, y, z'
loop_
 _atom_site_type_symbol
 _atom_site_label
 _atom_site_symmetry_multiplicity
 _atom_site_fract_x
 _atom_site_fract_y
 _atom_site_fract_z
 _atom_site_occupancy
  La  La0  1  0.40715400  0.41563400  0.86964400  1
  La  La1  1  0.59284600  0.91563400  0.13035600  1
  La  La2  1  0.40715400  0.08436600  0.86964400  1
  La  La3  1  0.90715400  0.41563400  0.63035600  1
  La  La4  1  0.90715400  0.08436600  0.63035600  1
  La  La5  1  0.59284600  0.58436600  0.13035600  1
  La  La6  1  0.09284600  0.58436600  0.36964400  1
  La  La7  1  0.09284600  0.91563400  0.36964400  1
  Te  Te8  1  0.34462300  0.95590000  0.62177400  1
  Te  Te9  1  0.53134100  0.75000000  0.38032500  1
  Te  Te10  1  0.65537700  0.45590000  0.37822600  1
  Te  Te11  1  0.84462300  0.95590000  0.87822600  1
  Te  Te12  1  0.34462300  0.54410000  0.62177400  1
  Te  Te13  1  0.03134100  0.75000000  0.11967500  1
  Te  Te14  1  0.96865900  0.25000000  0.88032500  1
  Te  Te15  1  0.15537700  0.45590000  0.12177400  1
  Te  Te16  1  0.46865900  0.25000000  0.61967500  1
  Te  Te17  1  0.15537700  0.04410000  0.12177400  1
  Te  Te18  1  0.65537700  0.04410000  0.37822600  1
  Te  Te19  1  0.84462300  0.54410000  0.87822600  1
  Mo  Mo20  1  0.35266100  0.75000000  0.90440300  1
  Mo  Mo21  1  0.85266100  0.75000000  0.59559700  1
  Mo  Mo22  1  0.64733900  0.25000000  0.09559700  1
  Mo  Mo23  1  0.14733900  0.25000000  0.40440300  1
  O  O24  1  0.17366200  0.50066100  0.52779600  1
  O  O25  1  0.17366200  0.99933900  0.52779600  1
  O  O26  1  0.05384600  0.25000000  0.52752700  1
  O  O27  1  0.22821900  0.45819700  0.71933900  1
  O  O28  1  0.21546400  0.25000000  0.91131500  1
  O  O29  1  0.92368300  0.87350500  0.66206700  1
  O  O30  1  0.78453600  0.75000000  0.08868500  1
  O  O31  1  0.07631700  0.37350500  0.33793300  1
  O  O32  1  0.61648700  0.75000000  0.58384000  1
  O  O33  1  0.67366200  0.99933900  0.97220400  1
  O  O34  1  0.47469200  0.93110700  0.40109800  1
  O  O35  1  0.72821900  0.45819700  0.78066100  1
  O  O36  1  0.52530800  0.06889300  0.59890200  1
  O  O37  1  0.72821900  0.04180300  0.78066100  1
  O  O38  1  0.67366200  0.50066100  0.97220400  1
  O  O39  1  0.55384600  0.25000000  0.97247300  1
  O  O40  1  0.32633800  0.00066100  0.02779600  1
  O  O41  1  0.77178100  0.95819700  0.28066100  1
  O  O42  1  0.48608500  0.25000000  0.75777500  1
  O  O43  1  0.27178100  0.95819700  0.21933900  1
  O  O44  1  0.22821900  0.04180300  0.71933900  1
  O  O45  1  0.71546400  0.25000000  0.58868500  1
  O  O46  1  0.44615400  0.75000000  0.02752700  1
  O  O47  1  0.52530800  0.43110700  0.59890200  1
  O  O48  1  0.02530800  0.06889300  0.90109800  1
  O  O49  1  0.11648700  0.75000000  0.91616000  1
  O  O50  1  0.57631700  0.37350500  0.16206700  1
  O  O51  1  0.82633800  0.00066100  0.47220400  1
  O  O52  1  0.07631700  0.12649500  0.33793300  1
  O  O53  1  0.92368300  0.62649500  0.66206700  1
  O  O54  1  0.42368400  0.87350500  0.83793300  1
  O  O55  1  0.47469200  0.56889300  0.40109800  1
  O  O56  1  0.51391500  0.75000000  0.24222500  1
  O  O57  1  0.32633800  0.49933900  0.02779600  1
  O  O58  1  0.28453600  0.75000000  0.41131500  1
  O  O59  1  0.27178100  0.54180300  0.21933900  1
  O  O60  1  0.38351300  0.25000000  0.41616000  1
  O  O61  1  0.57631700  0.12649500  0.16206700  1
  O  O62  1  0.88351300  0.25000000  0.08384000  1
  O  O63  1  0.77178100  0.54180300  0.28066100  1
  O  O64  1  0.97469200  0.56889300  0.09890200  1
  O  O65  1  0.97469200  0.93110700  0.09890200  1
  O  O66  1  0.42368400  0.62649500  0.83793300  1
  O  O67  1  0.01391500  0.75000000  0.25777500  1
  O  O68  1  0.94615400  0.75000000  0.47247300  1
  O  O69  1  0.82633800  0.49933900  0.47220400  1
  O  O70  1  0.02530800  0.43110700  0.90109800  1
  O  O71  1  0.98608500  0.25000000  0.74222500  1
