# generated using pymatgen
data_Ba6Na2Si4O15
_symmetry_space_group_name_H-M   'P 1'
_cell_length_a   7.97304700
_cell_length_b   9.65510900
_cell_length_c   11.67912973
_cell_angle_alpha   72.35801922
_cell_angle_beta   90.00000000
_cell_angle_gamma   90.00000000
_symmetry_Int_Tables_number   1
_chemical_formula_structural   Ba6Na2Si4O15
_chemical_formula_sum   'Ba12 Na4 Si8 O30'
_cell_volume   856.78272120
_cell_formula_units_Z   2
loop_
 _symmetry_equiv_pos_site_id
 _symmetry_equiv_pos_as_xyz
  1  'x, y, z'
loop_
 _atom_site_type_symbol
 _atom_site_label
 _atom_site_symmetry_multiplicity
 _atom_site_fract_x
 _atom_site_fract_y
 _atom_site_fract_z
 _atom_site_occupancy
  Ba  Ba0  1  0.97854800  0.33268700  0.91629000  1
  Ba  Ba1  1  0.99596500  0.65917600  0.58548100  1
  Ba  Ba2  1  0.50249900  0.00129200  0.22570800  1
  Ba  Ba3  1  0.99750100  0.00129200  0.72570800  1
  Ba  Ba4  1  0.00249900  0.99870800  0.27429200  1
  Ba  Ba5  1  0.47854800  0.66731300  0.58371000  1
  Ba  Ba6  1  0.52145200  0.33268700  0.41629000  1
  Ba  Ba7  1  0.02145200  0.66731300  0.08371000  1
  Ba  Ba8  1  0.00403500  0.34082400  0.41451900  1
  Ba  Ba9  1  0.49596500  0.34082400  0.91451900  1
  Ba  Ba10  1  0.50403500  0.65917600  0.08548100  1
  Ba  Ba11  1  0.49750100  0.99870800  0.77429200  1
  Na  Na12  1  0.24813000  0.32139200  0.66942400  1
  Na  Na13  1  0.74813000  0.67860800  0.83057600  1
  Na  Na14  1  0.25187000  0.32139200  0.16942400  1
  Na  Na15  1  0.75187000  0.67860800  0.33057600  1
  Si  Si16  1  0.25548400  0.62145500  0.34477500  1
  Si  Si17  1  0.74451600  0.37854500  0.65522500  1
  Si  Si18  1  0.20959400  0.03551500  0.99091600  1
  Si  Si19  1  0.29040600  0.03551500  0.49091600  1
  Si  Si20  1  0.24451600  0.62145500  0.84477500  1
  Si  Si21  1  0.79040600  0.96448500  0.00908400  1
  Si  Si22  1  0.75548400  0.37854500  0.15522500  1
  Si  Si23  1  0.70959400  0.96448500  0.50908400  1
  O  O24  1  0.92301200  0.28792600  0.68231600  1
  O  O25  1  0.30714400  0.88096000  0.02966300  1
  O  O26  1  0.42301200  0.71207400  0.81768400  1
  O  O27  1  0.75696600  0.86653700  0.14806600  1
  O  O28  1  0.57698800  0.28792600  0.18231600  1
  O  O29  1  0.93064700  0.28403400  0.17487500  1
  O  O30  1  0.75146800  0.48644800  0.01301600  1
  O  O31  1  0.23849700  0.51295700  0.75710300  1
  O  O32  1  0.75437400  0.86608600  0.91997100  1
  O  O33  1  0.69285600  0.11904000  0.97033700  1
  O  O34  1  0.24562600  0.13391400  0.08002900  1
  O  O35  1  0.26150300  0.51295700  0.25710300  1
  O  O36  1  0.25696600  0.13346300  0.35193400  1
  O  O37  1  0.19285600  0.88096000  0.52966300  1
  O  O38  1  0.24303400  0.13346300  0.85193400  1
  O  O39  1  0.74303400  0.86653700  0.64806600  1
  O  O40  1  0.25146800  0.51355200  0.48698400  1
  O  O41  1  0.25437400  0.13391400  0.58002900  1
  O  O42  1  0.74853200  0.48644800  0.51301600  1
  O  O43  1  0.76150300  0.48704300  0.24289700  1
  O  O44  1  0.73849700  0.48704300  0.74289700  1
  O  O45  1  0.43064700  0.71596600  0.32512500  1
  O  O46  1  0.74562600  0.86608600  0.41997100  1
  O  O47  1  0.56935300  0.28403400  0.67487500  1
  O  O48  1  0.07698800  0.71207400  0.31768400  1
  O  O49  1  0.00000000  0.00000000  0.00000000  1
  O  O50  1  0.80714400  0.11904000  0.47033700  1
  O  O51  1  0.24853200  0.51355200  0.98698400  1
  O  O52  1  0.06935300  0.71596600  0.82512500  1
  O  O53  1  0.50000000  0.00000000  0.50000000  1
