# generated using pymatgen
data_Eu4Al2O9
_symmetry_space_group_name_H-M   'P 1'
_cell_length_a   10.86914300
_cell_length_b   7.72297000
_cell_length_c   11.34323524
_cell_angle_alpha   70.91785577
_cell_angle_beta   90.00000000
_cell_angle_gamma   90.00000000
_symmetry_Int_Tables_number   1
_chemical_formula_structural   Eu4Al2O9
_chemical_formula_sum   'Eu16 Al8 O36'
_cell_volume   899.85340000
_cell_formula_units_Z   4
loop_
 _symmetry_equiv_pos_site_id
 _symmetry_equiv_pos_as_xyz
  1  'x, y, z'
loop_
 _atom_site_type_symbol
 _atom_site_label
 _atom_site_symmetry_multiplicity
 _atom_site_fract_x
 _atom_site_fract_y
 _atom_site_fract_z
 _atom_site_occupancy
  Eu  Eu0  1  0.58978900  0.97539400  0.30572200  1
  Eu  Eu1  1  0.08978900  0.02460600  0.19427800  1
  Eu  Eu2  1  0.41021100  0.02460600  0.69427800  1
  Eu  Eu3  1  0.91021100  0.97539400  0.80572200  1
  Eu  Eu4  1  0.60169000  0.47490700  0.28830600  1
  Eu  Eu5  1  0.10169000  0.52509300  0.21169400  1
  Eu  Eu6  1  0.39831000  0.52509300  0.71169400  1
  Eu  Eu7  1  0.89831000  0.47490700  0.78830600  1
  Eu  Eu8  1  0.87265300  0.66534800  0.43139100  1
  Eu  Eu9  1  0.37265300  0.33465200  0.06860900  1
  Eu  Eu10  1  0.12734700  0.33465200  0.56860900  1
  Eu  Eu11  1  0.62734700  0.66534800  0.93139100  1
  Eu  Eu12  1  0.87451900  0.16154800  0.41838400  1
  Eu  Eu13  1  0.37451900  0.83845200  0.08161600  1
  Eu  Eu14  1  0.12548100  0.83845200  0.58161600  1
  Eu  Eu15  1  0.62548100  0.16154800  0.91838400  1
  Al  Al16  1  0.81358600  0.77688200  0.12990000  1
  Al  Al17  1  0.31358600  0.22311800  0.37010000  1
  Al  Al18  1  0.18641400  0.22311800  0.87010000  1
  Al  Al19  1  0.68641400  0.77688200  0.62990000  1
  Al  Al20  1  0.81512700  0.34922500  0.11859000  1
  Al  Al21  1  0.31512700  0.65077500  0.38141000  1
  Al  Al22  1  0.18487300  0.65077500  0.88141000  1
  Al  Al23  1  0.68487300  0.34922500  0.61859000  1
  O  O24  1  0.50705600  0.42903300  0.89867400  1
  O  O25  1  0.00705600  0.57096700  0.60132600  1
  O  O26  1  0.49294400  0.57096700  0.10132600  1
  O  O27  1  0.99294400  0.42903300  0.39867400  1
  O  O28  1  0.49726100  0.92616000  0.89641900  1
  O  O29  1  0.99726100  0.07384000  0.60358100  1
  O  O30  1  0.50273900  0.07384000  0.10358100  1
  O  O31  1  0.00273900  0.92616000  0.39641900  1
  O  O32  1  0.53170200  0.29945400  0.66972000  1
  O  O33  1  0.03170200  0.70054600  0.83028000  1
  O  O34  1  0.46829800  0.70054600  0.33028000  1
  O  O35  1  0.96829800  0.29945400  0.16972000  1
  O  O36  1  0.72939000  0.36127700  0.46592900  1
  O  O37  1  0.22939000  0.63872300  0.03407100  1
  O  O38  1  0.53075500  0.78317600  0.66732400  1
  O  O39  1  0.27061000  0.63872300  0.53407100  1
  O  O40  1  0.73849400  0.56615200  0.61761300  1
  O  O41  1  0.23849400  0.43384800  0.88238700  1
  O  O42  1  0.26150600  0.43384800  0.38238700  1
  O  O43  1  0.76150600  0.56615200  0.11761300  1
  O  O44  1  0.73283300  0.92213000  0.48120700  1
  O  O45  1  0.23283300  0.07787000  0.01879300  1
  O  O46  1  0.26716700  0.07787000  0.51879300  1
  O  O47  1  0.76716700  0.92213000  0.98120700  1
  O  O48  1  0.77437700  0.21587200  0.74770700  1
  O  O49  1  0.27437700  0.78412800  0.75229300  1
  O  O50  1  0.22562300  0.78412800  0.25229300  1
  O  O51  1  0.72562300  0.21587200  0.24770700  1
  O  O52  1  0.77066600  0.76962200  0.76636900  1
  O  O53  1  0.27066600  0.23037800  0.73363100  1
  O  O54  1  0.22933400  0.23037800  0.23363100  1
  O  O55  1  0.72933400  0.76962200  0.26636900  1
  O  O56  1  0.96924500  0.78317600  0.16732400  1
  O  O57  1  0.46924500  0.21682400  0.33267600  1
  O  O58  1  0.03075500  0.21682400  0.83267600  1
  O  O59  1  0.77061000  0.36127700  0.96592900  1
