# generated using pymatgen
data_CsSmCdSe3
_symmetry_space_group_name_H-M   'P 1'
_cell_length_a   8.47050667
_cell_length_b   8.47050667
_cell_length_c   11.38591900
_cell_angle_alpha   90.00000000
_cell_angle_beta   90.00000000
_cell_angle_gamma   150.15336735
_symmetry_Int_Tables_number   1
_chemical_formula_structural   CsSmCdSe3
_chemical_formula_sum   'Cs2 Sm2 Cd2 Se6'
_cell_volume   406.57166878
_cell_formula_units_Z   2
loop_
 _symmetry_equiv_pos_site_id
 _symmetry_equiv_pos_as_xyz
  1  'x, y, z'
loop_
 _atom_site_type_symbol
 _atom_site_label
 _atom_site_symmetry_multiplicity
 _atom_site_fract_x
 _atom_site_fract_y
 _atom_site_fract_z
 _atom_site_occupancy
  Cs  Cs0  1  0.25685300  0.74314700  0.75000000  1
  Cs  Cs1  1  0.74314700  0.25685300  0.25000000  1
  Sm  Sm2  1  0.00000000  0.00000000  0.00000000  1
  Sm  Sm3  1  0.00000000  0.00000000  0.50000000  1
  Cd  Cd4  1  0.54038700  0.45961300  0.75000000  1
  Cd  Cd5  1  0.45961300  0.54038700  0.25000000  1
  Se  Se6  1  0.61905900  0.38094100  0.95104100  1
  Se  Se7  1  0.38094100  0.61905900  0.04895900  1
  Se  Se8  1  0.38094100  0.61905900  0.45104100  1
  Se  Se9  1  0.61905900  0.38094100  0.54895900  1
  Se  Se10  1  0.94037700  0.05962300  0.75000000  1
  Se  Se11  1  0.05962300  0.94037700  0.25000000  1
