# generated using pymatgen
data_Ho3CuGeS7
_symmetry_space_group_name_H-M   'P 1'
_cell_length_a   9.81482544
_cell_length_b   9.81482544
_cell_length_c   5.84716800
_cell_angle_alpha   90.00000000
_cell_angle_beta   90.00000000
_cell_angle_gamma   119.99999621
_symmetry_Int_Tables_number   1
_chemical_formula_structural   Ho3CuGeS7
_chemical_formula_sum   'Ho6 Cu2 Ge2 S14'
_cell_volume   487.79953280
_cell_formula_units_Z   2
loop_
 _symmetry_equiv_pos_site_id
 _symmetry_equiv_pos_as_xyz
  1  'x, y, z'
loop_
 _atom_site_type_symbol
 _atom_site_label
 _atom_site_symmetry_multiplicity
 _atom_site_fract_x
 _atom_site_fract_y
 _atom_site_fract_z
 _atom_site_occupancy
  Ho  Ho0  1  0.64187800  0.78009500  0.75001400  1
  Ho  Ho1  1  0.21990500  0.86178300  0.75001400  1
  Ho  Ho2  1  0.13821700  0.35812200  0.75001400  1
  Ho  Ho3  1  0.86178300  0.64187800  0.25001400  1
  Ho  Ho4  1  0.78009500  0.13821700  0.25001400  1
  Ho  Ho5  1  0.35812200  0.21990500  0.25001400  1
  Cu  Cu6  1  0.00000000  0.00000000  0.68617600  1
  Cu  Cu7  1  0.00000000  0.00000000  0.18617600  1
  Ge  Ge8  1  0.66666700  0.33333300  0.83082800  1
  Ge  Ge9  1  0.33333300  0.66666700  0.33082800  1
  S  S10  1  0.15690100  0.89614400  0.20467200  1
  S  S11  1  0.84309900  0.10385600  0.70467200  1
  S  S12  1  0.66666700  0.33333300  0.45256600  1
  S  S13  1  0.73924200  0.84309900  0.20467200  1
  S  S14  1  0.42482300  0.52117600  0.49352500  1
  S  S15  1  0.57517700  0.47882400  0.99352500  1
  S  S16  1  0.10385600  0.26075800  0.20467200  1
  S  S17  1  0.52117600  0.09635300  0.99352500  1
  S  S18  1  0.90364700  0.42482300  0.99352500  1
  S  S19  1  0.89614400  0.73924200  0.70467200  1
  S  S20  1  0.26075800  0.15690100  0.70467200  1
  S  S21  1  0.47882400  0.90364700  0.49352500  1
  S  S22  1  0.33333300  0.66666700  0.95256600  1
  S  S23  1  0.09635300  0.57517700  0.49352500  1
