# generated using pymatgen
data_CsK2AuO2
_symmetry_space_group_name_H-M   'P 1'
_cell_length_a   6.36480600
_cell_length_b   7.46010000
_cell_length_c   12.71218700
_cell_angle_alpha   90.00000000
_cell_angle_beta   90.00000000
_cell_angle_gamma   90.00000000
_symmetry_Int_Tables_number   1
_chemical_formula_structural   CsK2AuO2
_chemical_formula_sum   'Cs4 K8 Au4 O8'
_cell_volume   603.60119758
_cell_formula_units_Z   4
loop_
 _symmetry_equiv_pos_site_id
 _symmetry_equiv_pos_as_xyz
  1  'x, y, z'
loop_
 _atom_site_type_symbol
 _atom_site_label
 _atom_site_symmetry_multiplicity
 _atom_site_fract_x
 _atom_site_fract_y
 _atom_site_fract_z
 _atom_site_occupancy
  Cs  Cs0  1  0.18273800  0.75000000  0.90579000  1
  Cs  Cs1  1  0.81726200  0.25000000  0.09421000  1
  Cs  Cs2  1  0.68273800  0.25000000  0.59421000  1
  Cs  Cs3  1  0.31726200  0.75000000  0.40579000  1
  K  K4  1  0.13887300  0.99769400  0.63937700  1
  K  K5  1  0.63887300  0.49769400  0.86062300  1
  K  K6  1  0.36112700  0.99769400  0.13937700  1
  K  K7  1  0.63887300  0.00230600  0.86062300  1
  K  K8  1  0.13887300  0.50230600  0.63937700  1
  K  K9  1  0.36112700  0.50230600  0.13937700  1
  K  K10  1  0.86112700  0.00230600  0.36062300  1
  K  K11  1  0.86112700  0.49769400  0.36062300  1
  Au  Au12  1  0.67252300  0.75000000  0.62288700  1
  Au  Au13  1  0.17252300  0.25000000  0.87711300  1
  Au  Au14  1  0.32747700  0.25000000  0.37711300  1
  Au  Au15  1  0.82747700  0.75000000  0.12288700  1
  O  O16  1  0.58480800  0.75000000  0.01815700  1
  O  O17  1  0.08480800  0.25000000  0.48184300  1
  O  O18  1  0.57219400  0.25000000  0.27386100  1
  O  O19  1  0.41519200  0.25000000  0.98184300  1
  O  O20  1  0.91519200  0.75000000  0.51815700  1
  O  O21  1  0.42780600  0.75000000  0.72613900  1
  O  O22  1  0.92780600  0.25000000  0.77386100  1
  O  O23  1  0.07219400  0.75000000  0.22613900  1
