# generated using pymatgen
data_K2SeO4
_symmetry_space_group_name_H-M   'P 1'
_cell_length_a   6.14655000
_cell_length_b   10.65273400
_cell_length_c   23.36993700
_cell_angle_alpha   90.00000000
_cell_angle_beta   90.00000000
_cell_angle_gamma   90.00000000
_symmetry_Int_Tables_number   1
_chemical_formula_structural   K2SeO4
_chemical_formula_sum   'K24 Se12 O48'
_cell_volume   1530.20650277
_cell_formula_units_Z   12
loop_
 _symmetry_equiv_pos_site_id
 _symmetry_equiv_pos_as_xyz
  1  'x, y, z'
loop_
 _atom_site_type_symbol
 _atom_site_label
 _atom_site_symmetry_multiplicity
 _atom_site_fract_x
 _atom_site_fract_y
 _atom_site_fract_z
 _atom_site_occupancy
  K  K0  1  0.76762400  0.29421400  0.33345400  1
  K  K1  1  0.26762400  0.70578600  0.66654600  1
  K  K2  1  0.25108900  0.42177700  0.10986800  1
  K  K3  1  0.23237800  0.70586700  0.00022900  1
  K  K4  1  0.73237800  0.20586700  0.49977100  1
  K  K5  1  0.26762400  0.79421400  0.16654600  1
  K  K6  1  0.23237800  0.79413300  0.50022900  1
  K  K7  1  0.75108900  0.57822300  0.89013200  1
  K  K8  1  0.75653500  0.20653700  0.16689500  1
  K  K9  1  0.75653500  0.29346300  0.66689500  1
  K  K10  1  0.73427200  0.92327300  0.05660900  1
  K  K11  1  0.73427200  0.57672700  0.55660900  1
  K  K12  1  0.23427200  0.07672700  0.94339100  1
  K  K13  1  0.26562200  0.07997700  0.27672600  1
  K  K14  1  0.26562200  0.42002300  0.77672600  1
  K  K15  1  0.76562200  0.57997700  0.22327400  1
  K  K16  1  0.25108900  0.07822300  0.60986800  1
  K  K17  1  0.76762400  0.20578600  0.83345400  1
  K  K18  1  0.25653500  0.79346300  0.83310500  1
  K  K19  1  0.23427200  0.42327300  0.44339100  1
  K  K20  1  0.76562200  0.92002300  0.72327400  1
  K  K21  1  0.25653500  0.70653700  0.33310500  1
  K  K22  1  0.73237800  0.29413300  0.99977100  1
  K  K23  1  0.75108900  0.92177700  0.39013200  1
  Se  Se24  1  0.25445600  0.41804000  0.25925200  1
  Se  Se25  1  0.23588000  0.08213000  0.09285000  1
  Se  Se26  1  0.25348500  0.08135400  0.42591900  1
  Se  Se27  1  0.73588000  0.58213000  0.40715000  1
  Se  Se28  1  0.25348500  0.41864600  0.92591900  1
  Se  Se29  1  0.75445600  0.91804000  0.24074800  1
  Se  Se30  1  0.23588000  0.41787000  0.59285000  1
  Se  Se31  1  0.75348500  0.58135400  0.07408100  1
  Se  Se32  1  0.75445600  0.58196000  0.74074800  1
  Se  Se33  1  0.73588000  0.91787000  0.90715000  1
  Se  Se34  1  0.25445600  0.08196000  0.75925200  1
  Se  Se35  1  0.75348500  0.91864600  0.57408100  1
  O  O36  1  0.52913500  0.64405800  0.77006500  1
  O  O37  1  0.01841300  0.33972100  0.56790800  1
  O  O38  1  0.97402000  0.84795400  0.60187500  1
  O  O39  1  0.46375500  0.33920900  0.57600300  1
  O  O40  1  0.24421400  0.55932100  0.56053500  1
  O  O41  1  0.52990600  0.83585300  0.59066200  1
  O  O42  1  0.96375500  0.83920900  0.92399700  1
  O  O43  1  0.28267600  0.42967500  0.99665300  1
  O  O44  1  0.02913500  0.35594200  0.22993500  1
  O  O45  1  0.01841300  0.16027900  0.06790800  1
  O  O46  1  0.78267600  0.57032500  0.00334700  1
  O  O47  1  0.74421400  0.05932100  0.93946500  1
  O  O48  1  0.23234600  0.93771600  0.39635100  1
  O  O49  1  0.97402000  0.65204600  0.10187500  1
  O  O50  1  0.46375500  0.16079100  0.07600300  1
  O  O51  1  0.71389200  0.93498000  0.83651400  1
  O  O52  1  0.79557800  0.44031800  0.77089900  1
  O  O53  1  0.71389200  0.56502000  0.33651400  1
  O  O54  1  0.47402000  0.15204600  0.39812500  1
  O  O55  1  0.96375500  0.66079100  0.42399700  1
  O  O56  1  0.29557800  0.94031800  0.72910100  1
  O  O57  1  0.74421400  0.44067900  0.43946500  1
  O  O58  1  0.24421400  0.94067900  0.06053500  1
  O  O59  1  0.02913500  0.14405800  0.72993500  1
  O  O60  1  0.28267600  0.07032500  0.49665300  1
  O  O61  1  0.02990600  0.33585300  0.90933800  1
  O  O62  1  0.21389200  0.43498000  0.66348600  1
  O  O63  1  0.71618900  0.93218300  0.17040400  1
  O  O64  1  0.46816800  0.17488500  0.74490300  1
  O  O65  1  0.79557800  0.05968200  0.27089900  1
  O  O66  1  0.51841300  0.83972100  0.93209200  1
  O  O67  1  0.52990600  0.66414700  0.09066200  1
  O  O68  1  0.21618900  0.06781700  0.82959600  1
  O  O69  1  0.73234500  0.06228400  0.60364900  1
  O  O70  1  0.73234500  0.43771600  0.10364900  1
  O  O71  1  0.46816800  0.32511500  0.24490300  1
  O  O72  1  0.21389200  0.06502000  0.16348600  1
  O  O73  1  0.52913500  0.85594200  0.27006500  1
  O  O74  1  0.71618900  0.56781700  0.67040400  1
  O  O75  1  0.29557800  0.55968200  0.22910100  1
  O  O76  1  0.02990600  0.16414700  0.40933800  1
  O  O77  1  0.78267600  0.92967500  0.50334700  1
  O  O78  1  0.51841300  0.66027900  0.43209200  1
  O  O79  1  0.21618900  0.43218300  0.32959600  1
  O  O80  1  0.47402000  0.34795400  0.89812500  1
  O  O81  1  0.23234600  0.56228400  0.89635100  1
  O  O82  1  0.96816800  0.67488500  0.75509700  1
  O  O83  1  0.96816800  0.82511500  0.25509700  1
