# generated using pymatgen
data_SbICl8
_symmetry_space_group_name_H-M   'P 1'
_cell_length_a   7.42379600
_cell_length_b   7.42379600
_cell_length_c   24.94347800
_cell_angle_alpha   90.00000000
_cell_angle_beta   90.00000000
_cell_angle_gamma   90.00000000
_symmetry_Int_Tables_number   1
_chemical_formula_structural   SbICl8
_chemical_formula_sum   'Sb4 I4 Cl32'
_cell_volume   1374.70359355
_cell_formula_units_Z   4
loop_
 _symmetry_equiv_pos_site_id
 _symmetry_equiv_pos_as_xyz
  1  'x, y, z'
loop_
 _atom_site_type_symbol
 _atom_site_label
 _atom_site_symmetry_multiplicity
 _atom_site_fract_x
 _atom_site_fract_y
 _atom_site_fract_z
 _atom_site_occupancy
  Sb  Sb0  1  0.77079100  0.00531700  0.50117300  1
  Sb  Sb1  1  0.00531700  0.22920900  0.25117300  1
  Sb  Sb2  1  0.22920900  0.99468300  0.00117300  1
  Sb  Sb3  1  0.99468300  0.77079100  0.75117300  1
  I  I4  1  0.13767700  0.76485000  0.37253300  1
  I  I5  1  0.23515000  0.13767700  0.62253300  1
  I  I6  1  0.86232300  0.23515000  0.87253300  1
  I  I7  1  0.76485000  0.86232300  0.12253300  1
  Cl  Cl8  1  0.23572400  0.26885000  0.31543200  1
  Cl  Cl9  1  0.90995200  0.93713300  0.29625000  1
  Cl  Cl10  1  0.61010000  0.22059900  0.81434100  1
  Cl  Cl11  1  0.07294600  0.49615900  0.20351200  1
  Cl  Cl12  1  0.77940100  0.61010000  0.06434100  1
  Cl  Cl13  1  0.83464400  0.74060400  0.43727500  1
  Cl  Cl14  1  0.09004800  0.06286700  0.79625000  1
  Cl  Cl15  1  0.81190700  0.94773000  0.69383600  1
  Cl  Cl16  1  0.74060400  0.16535600  0.18727500  1
  Cl  Cl17  1  0.49615900  0.92705400  0.95351200  1
  Cl  Cl18  1  0.41432500  0.29185400  0.68629500  1
  Cl  Cl19  1  0.58567500  0.70814600  0.18629500  1
  Cl  Cl20  1  0.16535600  0.25939600  0.93727500  1
  Cl  Cl21  1  0.38990000  0.77940100  0.31434100  1
  Cl  Cl22  1  0.94773000  0.18809300  0.44383600  1
  Cl  Cl23  1  0.76427600  0.73115000  0.81543200  1
  Cl  Cl24  1  0.06286700  0.90995200  0.54625000  1
  Cl  Cl25  1  0.93713300  0.09004800  0.04625000  1
  Cl  Cl26  1  0.21725600  0.62413000  0.80385300  1
  Cl  Cl27  1  0.22059900  0.38990000  0.56434100  1
  Cl  Cl28  1  0.25939600  0.83464400  0.68727500  1
  Cl  Cl29  1  0.18809300  0.05227000  0.19383600  1
  Cl  Cl30  1  0.62413000  0.78274400  0.55385300  1
  Cl  Cl31  1  0.73115000  0.23572400  0.56543200  1
  Cl  Cl32  1  0.92705400  0.50384100  0.70351200  1
  Cl  Cl33  1  0.37587000  0.21725600  0.05385300  1
  Cl  Cl34  1  0.29185400  0.58567500  0.43629500  1
  Cl  Cl35  1  0.26885000  0.76427600  0.06543200  1
  Cl  Cl36  1  0.70814600  0.41432500  0.93629500  1
  Cl  Cl37  1  0.78274400  0.37587000  0.30385300  1
  Cl  Cl38  1  0.50384100  0.07294600  0.45351200  1
  Cl  Cl39  1  0.05227000  0.81190700  0.94383600  1
