# generated using pymatgen
data_F2
_symmetry_space_group_name_H-M   'P 1'
_cell_length_a   3.55698303
_cell_length_b   3.55698303
_cell_length_c   6.88793804
_cell_angle_alpha   84.22036383
_cell_angle_beta   84.22036383
_cell_angle_gamma   61.84072101
_symmetry_Int_Tables_number   1
_chemical_formula_structural   F2
_chemical_formula_sum   F4
_cell_volume   76.30108455
_cell_formula_units_Z   2
loop_
 _symmetry_equiv_pos_site_id
 _symmetry_equiv_pos_as_xyz
  1  'x, y, z'
loop_
 _atom_site_type_symbol
 _atom_site_label
 _atom_site_symmetry_multiplicity
 _atom_site_fract_x
 _atom_site_fract_y
 _atom_site_fract_z
 _atom_site_occupancy
  F  F0  1  0.08591600  0.42397900  0.90535200  1
  F  F1  1  0.57602100  0.91408400  0.59464800  1
  F  F2  1  0.91408400  0.57602100  0.09464800  1
  F  F3  1  0.42397900  0.08591600  0.40535200  1
