# generated using pymatgen
data_Pr2Ti2S2O5
_symmetry_space_group_name_H-M   'P 1'
_cell_length_a   12.02598015
_cell_length_b   12.02598015
_cell_length_c   12.02598015
_cell_angle_alpha   161.39048286
_cell_angle_beta   161.39048286
_cell_angle_gamma   26.43617744
_symmetry_Int_Tables_number   1
_chemical_formula_structural   Pr2Ti2S2O5
_chemical_formula_sum   'Pr2 Ti2 S2 O5'
_cell_volume   177.05331916
_cell_formula_units_Z   1
loop_
 _symmetry_equiv_pos_site_id
 _symmetry_equiv_pos_as_xyz
  1  'x, y, z'
loop_
 _atom_site_type_symbol
 _atom_site_label
 _atom_site_symmetry_multiplicity
 _atom_site_fract_x
 _atom_site_fract_y
 _atom_site_fract_z
 _atom_site_occupancy
  Pr  Pr0  1  0.66570400  0.66570400  0.00000000  1
  Pr  Pr1  1  0.33429600  0.33429600  0.00000000  1
  Ti  Ti2  1  0.07736400  0.07736400  0.00000000  1
  Ti  Ti3  1  0.92263600  0.92263600  0.00000000  1
  S  S4  1  0.79670400  0.79670400  0.00000000  1
  S  S5  1  0.20329600  0.20329600  0.00000000  1
  O  O6  1  0.09604200  0.59604200  0.50000000  1
  O  O7  1  0.90395800  0.40395800  0.50000000  1
  O  O8  1  0.00000000  0.00000000  0.00000000  1
  O  O9  1  0.40395800  0.90395800  0.50000000  1
  O  O10  1  0.59604200  0.09604200  0.50000000  1
