# generated using pymatgen
data_Ba5As3ClO12
_symmetry_space_group_name_H-M   'P 1'
_cell_length_a   10.79341784
_cell_length_b   10.79341784
_cell_length_c   7.83249400
_cell_angle_alpha   90.00000000
_cell_angle_beta   90.00000000
_cell_angle_gamma   119.99999904
_symmetry_Int_Tables_number   1
_chemical_formula_structural   Ba5As3ClO12
_chemical_formula_sum   'Ba10 As6 Cl2 O24'
_cell_volume   790.22121871
_cell_formula_units_Z   2
loop_
 _symmetry_equiv_pos_site_id
 _symmetry_equiv_pos_as_xyz
  1  'x, y, z'
loop_
 _atom_site_type_symbol
 _atom_site_label
 _atom_site_symmetry_multiplicity
 _atom_site_fract_x
 _atom_site_fract_y
 _atom_site_fract_z
 _atom_site_occupancy
  Ba  Ba0  1  0.66666700  0.33333300  0.50148600  1
  Ba  Ba1  1  0.33333300  0.66666700  0.49851400  1
  Ba  Ba2  1  0.00547900  0.25423500  0.25000000  1
  Ba  Ba3  1  0.33333300  0.66666700  0.00148600  1
  Ba  Ba4  1  0.74576500  0.75124400  0.25000000  1
  Ba  Ba5  1  0.24875600  0.99452100  0.25000000  1
  Ba  Ba6  1  0.75124400  0.00547900  0.75000000  1
  Ba  Ba7  1  0.99452100  0.74576500  0.75000000  1
  Ba  Ba8  1  0.66666700  0.33333300  0.99851400  1
  Ba  Ba9  1  0.25423500  0.24875600  0.75000000  1
  As  As10  1  0.96601800  0.59382300  0.25000000  1
  As  As11  1  0.59382300  0.62780500  0.75000000  1
  As  As12  1  0.37219500  0.96601800  0.75000000  1
  As  As13  1  0.40617700  0.37219500  0.25000000  1
  As  As14  1  0.03398200  0.40617700  0.75000000  1
  As  As15  1  0.62780500  0.03398200  0.25000000  1
  Cl  Cl16  1  0.00000000  0.00000000  0.00000000  1
  Cl  Cl17  1  0.00000000  0.00000000  0.50000000  1
  O  O18  1  0.64439600  0.73741000  0.92710600  1
  O  O19  1  0.33300600  0.48232600  0.25000000  1
  O  O20  1  0.35560400  0.26259000  0.42710600  1
  O  O21  1  0.40842000  0.53101600  0.75000000  1
  O  O22  1  0.09301500  0.35560400  0.57289400  1
  O  O23  1  0.66699400  0.51767400  0.75000000  1
  O  O24  1  0.85067900  0.33300600  0.75000000  1
  O  O25  1  0.12259600  0.59158000  0.75000000  1
  O  O26  1  0.59158000  0.46898400  0.25000000  1
  O  O27  1  0.73741000  0.09301500  0.07289400  1
  O  O28  1  0.09301500  0.35560400  0.92710600  1
  O  O29  1  0.87740400  0.40842000  0.25000000  1
  O  O30  1  0.46898400  0.87740400  0.75000000  1
  O  O31  1  0.90698500  0.64439600  0.07289400  1
  O  O32  1  0.90698500  0.64439600  0.42710600  1
  O  O33  1  0.48232600  0.14932100  0.75000000  1
  O  O34  1  0.35560400  0.26259000  0.07289400  1
  O  O35  1  0.73741000  0.09301500  0.42710600  1
  O  O36  1  0.14932100  0.66699400  0.25000000  1
  O  O37  1  0.26259000  0.90698500  0.92710600  1
  O  O38  1  0.51767400  0.85067900  0.25000000  1
  O  O39  1  0.26259000  0.90698500  0.57289400  1
  O  O40  1  0.64439600  0.73741000  0.57289400  1
  O  O41  1  0.53101600  0.12259600  0.25000000  1
