# generated using pymatgen
data_CsPr9Nb(Br5N2)3
_symmetry_space_group_name_H-M   'P 1'
_cell_length_a   12.46944240
_cell_length_b   12.46944240
_cell_length_c   13.86577000
_cell_angle_alpha   90.00000000
_cell_angle_beta   90.00000000
_cell_angle_gamma   120.00000210
_symmetry_Int_Tables_number   1
_chemical_formula_structural   CsPr9Nb(Br5N2)3
_chemical_formula_sum   'Cs2 Pr18 Nb2 Br30 N12'
_cell_volume   1867.10473826
_cell_formula_units_Z   2
loop_
 _symmetry_equiv_pos_site_id
 _symmetry_equiv_pos_as_xyz
  1  'x, y, z'
loop_
 _atom_site_type_symbol
 _atom_site_label
 _atom_site_symmetry_multiplicity
 _atom_site_fract_x
 _atom_site_fract_y
 _atom_site_fract_z
 _atom_site_occupancy
  Cs  Cs0  1  0.00000000  0.00000000  0.25000000  1
  Cs  Cs1  1  0.00000000  0.00000000  0.75000000  1
  Pr  Pr2  1  0.97530400  0.41792100  0.25000000  1
  Pr  Pr3  1  0.72243000  0.18416600  0.06506900  1
  Pr  Pr4  1  0.18416600  0.46173600  0.56506900  1
  Pr  Pr5  1  0.81583400  0.53826400  0.43493100  1
  Pr  Pr6  1  0.27757000  0.81583400  0.93493100  1
  Pr  Pr7  1  0.58207900  0.55738300  0.25000000  1
  Pr  Pr8  1  0.53826400  0.72243000  0.93493100  1
  Pr  Pr9  1  0.53826400  0.72243000  0.56506900  1
  Pr  Pr10  1  0.81583400  0.53826400  0.06506900  1
  Pr  Pr11  1  0.27757000  0.81583400  0.56506900  1
  Pr  Pr12  1  0.46173600  0.27757000  0.43493100  1
  Pr  Pr13  1  0.18416600  0.46173600  0.93493100  1
  Pr  Pr14  1  0.44261700  0.02469600  0.25000000  1
  Pr  Pr15  1  0.55738300  0.97530400  0.75000000  1
  Pr  Pr16  1  0.46173600  0.27757000  0.06506900  1
  Pr  Pr17  1  0.02469600  0.58207900  0.75000000  1
  Pr  Pr18  1  0.41792100  0.44261700  0.75000000  1
  Pr  Pr19  1  0.72243000  0.18416600  0.43493100  1
  Nb  Nb20  1  0.66666700  0.33333300  0.25000000  1
  Nb  Nb21  1  0.33333300  0.66666700  0.75000000  1
  Br  Br22  1  0.13612100  0.61231500  0.09161200  1
  Br  Br23  1  0.05705400  0.32710900  0.75000000  1
  Br  Br24  1  0.86387900  0.38768500  0.59161200  1
  Br  Br25  1  0.75525600  0.01146800  0.59584000  1
  Br  Br26  1  0.67289100  0.72994400  0.75000000  1
  Br  Br27  1  0.01146800  0.25621300  0.09584000  1
  Br  Br28  1  0.98853200  0.74378700  0.90416000  1
  Br  Br29  1  0.61231500  0.47619400  0.59161200  1
  Br  Br30  1  0.72994400  0.05705400  0.25000000  1
  Br  Br31  1  0.32710900  0.27005600  0.25000000  1
  Br  Br32  1  0.86387900  0.38768500  0.90838800  1
  Br  Br33  1  0.98853200  0.74378700  0.59584000  1
  Br  Br34  1  0.38768500  0.52380600  0.09161200  1
  Br  Br35  1  0.27005600  0.94294600  0.75000000  1
  Br  Br36  1  0.13612100  0.61231500  0.40838800  1
  Br  Br37  1  0.94294600  0.67289100  0.25000000  1
  Br  Br38  1  0.24474400  0.98853200  0.09584000  1
  Br  Br39  1  0.01146800  0.25621300  0.40416000  1
  Br  Br40  1  0.25621300  0.24474400  0.59584000  1
  Br  Br41  1  0.52380600  0.13612100  0.59161200  1
  Br  Br42  1  0.61231500  0.47619400  0.90838800  1
  Br  Br43  1  0.74378700  0.75525600  0.09584000  1
  Br  Br44  1  0.24474400  0.98853200  0.40416000  1
  Br  Br45  1  0.38768500  0.52380600  0.40838800  1
  Br  Br46  1  0.47619400  0.86387900  0.09161200  1
  Br  Br47  1  0.75525600  0.01146800  0.90416000  1
  Br  Br48  1  0.25621300  0.24474400  0.90416000  1
  Br  Br49  1  0.47619400  0.86387900  0.40838800  1
  Br  Br50  1  0.74378700  0.75525600  0.40416000  1
  Br  Br51  1  0.52380600  0.13612100  0.90838800  1
  N  N52  1  0.37267600  0.56043900  0.85116900  1
  N  N53  1  0.37267600  0.56043900  0.64883100  1
  N  N54  1  0.43956100  0.81223600  0.85116900  1
  N  N55  1  0.81223600  0.37267600  0.35116900  1
  N  N56  1  0.56043900  0.18776400  0.35116900  1
  N  N57  1  0.56043900  0.18776400  0.14883100  1
  N  N58  1  0.18776400  0.62732400  0.85116900  1
  N  N59  1  0.62732400  0.43956100  0.35116900  1
  N  N60  1  0.81223600  0.37267600  0.14883100  1
  N  N61  1  0.18776400  0.62732400  0.64883100  1
  N  N62  1  0.62732400  0.43956100  0.14883100  1
  N  N63  1  0.43956100  0.81223600  0.64883100  1
