# generated using pymatgen
data_TaPt3
_symmetry_space_group_name_H-M   'P 1'
_cell_length_a   5.61204800
_cell_length_b   4.93681300
_cell_length_c   9.39611013
_cell_angle_alpha   79.40663879
_cell_angle_beta   90.00000000
_cell_angle_gamma   90.00000000
_symmetry_Int_Tables_number   1
_chemical_formula_structural   TaPt3
_chemical_formula_sum   'Ta4 Pt12'
_cell_volume   255.88835387
_cell_formula_units_Z   4
loop_
 _symmetry_equiv_pos_site_id
 _symmetry_equiv_pos_as_xyz
  1  'x, y, z'
loop_
 _atom_site_type_symbol
 _atom_site_label
 _atom_site_symmetry_multiplicity
 _atom_site_fract_x
 _atom_site_fract_y
 _atom_site_fract_z
 _atom_site_occupancy
  Ta  Ta0  1  0.25000000  0.37680800  0.87799500  1
  Ta  Ta1  1  0.75000000  0.62319200  0.12200500  1
  Ta  Ta2  1  0.25000000  0.21437700  0.37273900  1
  Ta  Ta3  1  0.75000000  0.78562300  0.62726100  1
  Pt  Pt4  1  0.25000000  0.61130800  0.12415400  1
  Pt  Pt5  1  0.75000000  0.38869200  0.87584600  1
  Pt  Pt6  1  0.25000000  0.79348800  0.62709000  1
  Pt  Pt7  1  0.75000000  0.20651200  0.37291000  1
  Pt  Pt8  1  0.49842000  0.87647400  0.87429600  1
  Pt  Pt9  1  0.99842000  0.12352600  0.12570400  1
  Pt  Pt10  1  0.50158000  0.12352600  0.12570400  1
  Pt  Pt11  1  0.00158000  0.87647400  0.87429600  1
  Pt  Pt12  1  0.50098500  0.70852900  0.37646700  1
  Pt  Pt13  1  0.00098500  0.29147100  0.62353300  1
  Pt  Pt14  1  0.49901500  0.29147100  0.62353300  1
  Pt  Pt15  1  0.99901500  0.70852900  0.37646700  1
