# generated using pymatgen
data_Yb2(Ni5B3)3
_symmetry_space_group_name_H-M   'P 1'
_cell_length_a   9.76730505
_cell_length_b   9.76730505
_cell_length_c   11.19306100
_cell_angle_alpha   90.00000000
_cell_angle_beta   90.00000000
_cell_angle_gamma   107.55369782
_symmetry_Int_Tables_number   1
_chemical_formula_structural   Yb2(Ni5B3)3
_chemical_formula_sum   'Yb8 Ni60 B36'
_cell_volume   1018.09740837
_cell_formula_units_Z   4
loop_
 _symmetry_equiv_pos_site_id
 _symmetry_equiv_pos_as_xyz
  1  'x, y, z'
loop_
 _atom_site_type_symbol
 _atom_site_label
 _atom_site_symmetry_multiplicity
 _atom_site_fract_x
 _atom_site_fract_y
 _atom_site_fract_z
 _atom_site_occupancy
  Yb  Yb0  1  0.26112800  0.26112800  0.45988000  1
  Yb  Yb1  1  0.73887200  0.73887200  0.54012000  1
  Yb  Yb2  1  0.69451700  0.19451700  0.25000000  1
  Yb  Yb3  1  0.19451700  0.69451700  0.25000000  1
  Yb  Yb4  1  0.30548300  0.80548300  0.75000000  1
  Yb  Yb5  1  0.76112800  0.76112800  0.04012000  1
  Yb  Yb6  1  0.80548300  0.30548300  0.75000000  1
  Yb  Yb7  1  0.23887200  0.23887200  0.95988000  1
  Ni  Ni8  1  0.00697400  0.81517200  0.66026700  1
  Ni  Ni9  1  0.16291600  0.63563100  0.97107000  1
  Ni  Ni10  1  0.06745900  0.56745900  0.75000000  1
  Ni  Ni11  1  0.63563100  0.16291600  0.97107000  1
  Ni  Ni12  1  0.00985200  0.16914900  0.80676300  1
  Ni  Ni13  1  0.53074900  0.74255000  0.90299100  1
  Ni  Ni14  1  0.50985200  0.66914900  0.69323700  1
  Ni  Ni15  1  0.39204400  0.05365100  0.91490600  1
  Ni  Ni16  1  0.49302600  0.68482800  0.16026700  1
  Ni  Ni17  1  0.27139500  0.50364800  0.61687500  1
  Ni  Ni18  1  0.49635200  0.72860500  0.38312500  1
  Ni  Ni19  1  0.66914900  0.50985200  0.69323700  1
  Ni  Ni20  1  0.74255000  0.53074900  0.90299100  1
  Ni  Ni21  1  0.31517200  0.50697400  0.83973300  1
  Ni  Ni22  1  0.36436900  0.83708400  0.02893000  1
  Ni  Ni23  1  0.60795600  0.94634900  0.08509400  1
  Ni  Ni24  1  0.49014800  0.33085100  0.30676300  1
  Ni  Ni25  1  0.68482800  0.49302600  0.16026700  1
  Ni  Ni26  1  0.22860500  0.99635200  0.11687500  1
  Ni  Ni27  1  0.55365100  0.89204400  0.58509400  1
  Ni  Ni28  1  0.75745000  0.96925100  0.40299100  1
  Ni  Ni29  1  0.18482800  0.99302600  0.33973300  1
  Ni  Ni30  1  0.10795600  0.44634900  0.41490600  1
  Ni  Ni31  1  0.46925100  0.25745000  0.09700900  1
  Ni  Ni32  1  0.99014800  0.83085100  0.19323700  1
  Ni  Ni33  1  0.00000000  0.00000000  0.50000000  1
  Ni  Ni34  1  0.33085100  0.49014800  0.30676300  1
  Ni  Ni35  1  0.50697400  0.31517200  0.83973300  1
  Ni  Ni36  1  0.44634900  0.10795600  0.41490600  1
  Ni  Ni37  1  0.93254100  0.43254100  0.25000000  1
  Ni  Ni38  1  0.23526200  0.23526200  0.21297400  1
  Ni  Ni39  1  0.50000000  0.50000000  0.50000000  1
  Ni  Ni40  1  0.33708400  0.86436900  0.47107000  1
  Ni  Ni41  1  0.16914900  0.00985200  0.80676300  1
  Ni  Ni42  1  0.94634900  0.60795600  0.08509400  1
  Ni  Ni43  1  0.50364800  0.27139500  0.61687500  1
  Ni  Ni44  1  0.96925100  0.75745000  0.40299100  1
  Ni  Ni45  1  0.00364800  0.77139500  0.88312500  1
  Ni  Ni46  1  0.73526200  0.73526200  0.28702600  1
  Ni  Ni47  1  0.83708400  0.36436900  0.02893000  1
  Ni  Ni48  1  0.76473800  0.76473800  0.78702600  1
  Ni  Ni49  1  0.83085100  0.99014800  0.19323700  1
  Ni  Ni50  1  0.50000000  0.50000000  0.00000000  1
  Ni  Ni51  1  0.99635200  0.22860500  0.11687500  1
  Ni  Ni52  1  0.05365100  0.39204400  0.91490600  1
  Ni  Ni53  1  0.72860500  0.49635200  0.38312500  1
  Ni  Ni54  1  0.56745900  0.06745900  0.75000000  1
  Ni  Ni55  1  0.03074900  0.24255000  0.59700900  1
  Ni  Ni56  1  0.81517200  0.00697400  0.66026700  1
  Ni  Ni57  1  0.99302600  0.18482800  0.33973300  1
  Ni  Ni58  1  0.24255000  0.03074900  0.59700900  1
  Ni  Ni59  1  0.89204400  0.55365100  0.58509400  1
  Ni  Ni60  1  0.00000000  0.00000000  0.00000000  1
  Ni  Ni61  1  0.25745000  0.46925100  0.09700900  1
  Ni  Ni62  1  0.43254100  0.93254100  0.25000000  1
  Ni  Ni63  1  0.86436900  0.33708400  0.47107000  1
  Ni  Ni64  1  0.66291600  0.13563100  0.52893000  1
  Ni  Ni65  1  0.26473800  0.26473800  0.71297400  1
  Ni  Ni66  1  0.77139500  0.00364800  0.88312500  1
  Ni  Ni67  1  0.13563100  0.66291600  0.52893000  1
  B  B68  1  0.79776800  0.09432500  0.05126200  1
  B  B69  1  0.86556100  0.13443900  0.50000000  1
  B  B70  1  0.45027800  0.04847000  0.59857100  1
  B  B71  1  0.87837300  0.62028600  0.75601100  1
  B  B72  1  0.62162700  0.87971400  0.25601100  1
  B  B73  1  0.37971400  0.12162700  0.24398900  1
  B  B74  1  0.37837300  0.12028600  0.74398900  1
  B  B75  1  0.04847000  0.45027800  0.59857100  1
  B  B76  1  0.90567500  0.20223200  0.94873800  1
  B  B77  1  0.54368900  0.54368900  0.82725000  1
  B  B78  1  0.13443900  0.86556100  0.50000000  1
  B  B79  1  0.45153000  0.04972200  0.09857100  1
  B  B80  1  0.63443900  0.36556100  0.00000000  1
  B  B81  1  0.12028600  0.37837300  0.74398900  1
  B  B82  1  0.55787300  0.55787300  0.30089900  1
  B  B83  1  0.95027800  0.54847000  0.90142900  1
  B  B84  1  0.40567500  0.70223200  0.55126200  1
  B  B85  1  0.12162700  0.37971400  0.24398900  1
  B  B86  1  0.54972200  0.95153000  0.40142900  1
  B  B87  1  0.44212700  0.44212700  0.69910100  1
  B  B88  1  0.70223200  0.40567500  0.55126200  1
  B  B89  1  0.95153000  0.54972200  0.40142900  1
  B  B90  1  0.62028600  0.87837300  0.75601100  1
  B  B91  1  0.59432500  0.29776800  0.44873800  1
  B  B92  1  0.05787300  0.05787300  0.19910100  1
  B  B93  1  0.45631100  0.45631100  0.17275000  1
  B  B94  1  0.20223200  0.90567500  0.94873800  1
  B  B95  1  0.95631100  0.95631100  0.32725000  1
  B  B96  1  0.36556100  0.63443900  0.00000000  1
  B  B97  1  0.04972200  0.45153000  0.09857100  1
  B  B98  1  0.94212700  0.94212700  0.80089900  1
  B  B99  1  0.29776800  0.59432500  0.44873800  1
  B  B100  1  0.87971400  0.62162700  0.25601100  1
  B  B101  1  0.54847000  0.95027800  0.90142900  1
  B  B102  1  0.04368900  0.04368900  0.67275000  1
  B  B103  1  0.09432500  0.79776800  0.05126200  1
