# generated using pymatgen
data_SrV4(AgO6)2
_symmetry_space_group_name_H-M   'P 1'
_cell_length_a   10.73786800
_cell_length_b   10.73786800
_cell_length_c   5.08656300
_cell_angle_alpha   90.00000000
_cell_angle_beta   90.00000000
_cell_angle_gamma   90.00000000
_symmetry_Int_Tables_number   1
_chemical_formula_structural   SrV4(AgO6)2
_chemical_formula_sum   'Sr2 V8 Ag4 O24'
_cell_volume   586.48991644
_cell_formula_units_Z   2
loop_
 _symmetry_equiv_pos_site_id
 _symmetry_equiv_pos_as_xyz
  1  'x, y, z'
loop_
 _atom_site_type_symbol
 _atom_site_label
 _atom_site_symmetry_multiplicity
 _atom_site_fract_x
 _atom_site_fract_y
 _atom_site_fract_z
 _atom_site_occupancy
  Sr  Sr0  1  0.00000000  0.00000000  0.50000000  1
  Sr  Sr1  1  0.50000000  0.50000000  0.50000000  1
  V  V2  1  0.50000000  0.21727400  0.00000000  1
  V  V3  1  0.21727400  0.50000000  0.00000000  1
  V  V4  1  0.00000000  0.28272600  0.00000000  1
  V  V5  1  0.71727400  0.00000000  0.00000000  1
  V  V6  1  0.50000000  0.78272600  0.00000000  1
  V  V7  1  0.00000000  0.71727400  0.00000000  1
  V  V8  1  0.78272600  0.50000000  0.00000000  1
  V  V9  1  0.28272600  0.00000000  0.00000000  1
  Ag  Ag10  1  0.75000000  0.75000000  0.50000000  1
  Ag  Ag11  1  0.75000000  0.25000000  0.50000000  1
  Ag  Ag12  1  0.25000000  0.25000000  0.50000000  1
  Ag  Ag13  1  0.25000000  0.75000000  0.50000000  1
  O  O14  1  0.43033600  0.30323500  0.23675100  1
  O  O15  1  0.69676500  0.43033600  0.23675100  1
  O  O16  1  0.19676500  0.06966400  0.23675100  1
  O  O17  1  0.06966400  0.19676500  0.76324900  1
  O  O18  1  0.38296400  0.88296400  0.15103000  1
  O  O19  1  0.93033600  0.19676500  0.23675100  1
  O  O20  1  0.11703600  0.38296400  0.15103000  1
  O  O21  1  0.61703600  0.88296400  0.84897000  1
  O  O22  1  0.30323500  0.56966400  0.23675100  1
  O  O23  1  0.88296400  0.38296400  0.84897000  1
  O  O24  1  0.93033600  0.80323500  0.76324900  1
  O  O25  1  0.80323500  0.93033600  0.23675100  1
  O  O26  1  0.06966400  0.80323500  0.23675100  1
  O  O27  1  0.56966400  0.30323500  0.76324900  1
  O  O28  1  0.30323500  0.43033600  0.76324900  1
  O  O29  1  0.61703600  0.11703600  0.15103000  1
  O  O30  1  0.11703600  0.61703600  0.84897000  1
  O  O31  1  0.43033600  0.69676500  0.76324900  1
  O  O32  1  0.80323500  0.06966400  0.76324900  1
  O  O33  1  0.19676500  0.93033600  0.76324900  1
  O  O34  1  0.88296400  0.61703600  0.15103000  1
  O  O35  1  0.38296400  0.11703600  0.84897000  1
  O  O36  1  0.56966400  0.69676500  0.23675100  1
  O  O37  1  0.69676500  0.56966400  0.76324900  1
