# generated using pymatgen
data_MoF3
_symmetry_space_group_name_H-M   'P 1'
_cell_length_a   5.80171381
_cell_length_b   5.80171381
_cell_length_c   5.80171370
_cell_angle_alpha   55.34509272
_cell_angle_beta   55.34509272
_cell_angle_gamma   55.34509548
_symmetry_Int_Tables_number   1
_chemical_formula_structural   MoF3
_chemical_formula_sum   'Mo2 F6'
_cell_volume   123.15319184
_cell_formula_units_Z   2
loop_
 _symmetry_equiv_pos_site_id
 _symmetry_equiv_pos_as_xyz
  1  'x, y, z'
loop_
 _atom_site_type_symbol
 _atom_site_label
 _atom_site_symmetry_multiplicity
 _atom_site_fract_x
 _atom_site_fract_y
 _atom_site_fract_z
 _atom_site_occupancy
  Mo  Mo0  1  0.00000000  0.00000000  0.00000000  1
  Mo  Mo1  1  0.50000000  0.50000000  0.50000000  1
  F  F2  1  0.25000000  0.88339700  0.61660300  1
  F  F3  1  0.61660300  0.25000000  0.88339700  1
  F  F4  1  0.11660300  0.38339700  0.75000000  1
  F  F5  1  0.38339700  0.75000000  0.11660300  1
  F  F6  1  0.75000000  0.11660300  0.38339700  1
  F  F7  1  0.88339700  0.61660300  0.25000000  1
