# generated using pymatgen
data_Nb7S2I19
_symmetry_space_group_name_H-M   'P 1'
_cell_length_a   13.16024882
_cell_length_b   16.21341645
_cell_length_c   22.70485800
_cell_angle_alpha   90.00000000
_cell_angle_beta   90.00000000
_cell_angle_gamma   93.53081658
_symmetry_Int_Tables_number   1
_chemical_formula_structural   Nb7S2I19
_chemical_formula_sum   'Nb28 S8 I76'
_cell_volume   4835.39854659
_cell_formula_units_Z   4
loop_
 _symmetry_equiv_pos_site_id
 _symmetry_equiv_pos_as_xyz
  1  'x, y, z'
loop_
 _atom_site_type_symbol
 _atom_site_label
 _atom_site_symmetry_multiplicity
 _atom_site_fract_x
 _atom_site_fract_y
 _atom_site_fract_z
 _atom_site_occupancy
  Nb  Nb0  1  0.62748260  0.23360694  0.91036184  1
  Nb  Nb1  1  0.65505166  0.21821551  0.50425849  1
  Nb  Nb2  1  0.75362658  0.69771852  0.88690023  1
  Nb  Nb3  1  0.24637342  0.80228148  0.38690023  1
  Nb  Nb4  1  0.24637342  0.30228148  0.11309977  1
  Nb  Nb5  1  0.37251740  0.76639306  0.08963816  1
  Nb  Nb6  1  0.13130712  0.28342573  0.00856375  1
  Nb  Nb7  1  0.37251740  0.26639306  0.41036184  1
  Nb  Nb8  1  0.65505166  0.71821551  0.99574151  1
  Nb  Nb9  1  0.84115280  0.73396238  0.58525992  1
  Nb  Nb10  1  0.84115280  0.23396238  0.91474008  1
  Nb  Nb11  1  0.25880880  0.92499431  0.79014976  1
  Nb  Nb12  1  0.13130712  0.78342573  0.49143625  1
  Nb  Nb13  1  0.73887209  0.20792448  0.80665297  1
  Nb  Nb14  1  0.26112791  0.79207552  0.19334703  1
  Nb  Nb15  1  0.26112791  0.29207552  0.30665297  1
  Nb  Nb16  1  0.73887209  0.70792448  0.69334703  1
  Nb  Nb17  1  0.15884720  0.26603762  0.41474008  1
  Nb  Nb18  1  0.74119120  0.07500569  0.20985024  1
  Nb  Nb19  1  0.86869288  0.21657427  0.50856375  1
  Nb  Nb20  1  0.86869288  0.71657427  0.99143625  1
  Nb  Nb21  1  0.25880880  0.42499431  0.70985024  1
  Nb  Nb22  1  0.75362658  0.19771852  0.61309977  1
  Nb  Nb23  1  0.34494834  0.78178449  0.49574151  1
  Nb  Nb24  1  0.15884720  0.76603762  0.08525992  1
  Nb  Nb25  1  0.62748260  0.73360694  0.58963816  1
  Nb  Nb26  1  0.74119120  0.57500569  0.29014976  1
  Nb  Nb27  1  0.34494834  0.28178449  0.00425849  1
  S  S28  1  0.76828223  0.82207502  0.94743719  1
  S  S29  1  0.25514848  0.16383924  0.36341003  1
  S  S30  1  0.23171777  0.17792498  0.05256281  1
  S  S31  1  0.76828223  0.32207502  0.55256281  1
  S  S32  1  0.23171777  0.67792498  0.44743719  1
  S  S33  1  0.74485152  0.83616076  0.63658997  1
  S  S34  1  0.74485152  0.33616076  0.86341003  1
  S  S35  1  0.25514848  0.66383924  0.13658997  1
  I  I36  1  0.26538313  0.41974232  0.21324650  1
  I  I37  1  0.23560510  0.26095694  0.71223181  1
  I  I38  1  0.19319746  0.49718217  0.61257175  1
  I  I39  1  0.48939288  0.62648898  0.06335656  1
  I  I40  1  0.45592470  0.64143430  0.52776743  1
  I  I41  1  0.75793341  0.31818313  0.70680806  1
  I  I42  1  0.19319746  0.99718217  0.88742825  1
  I  I43  1  0.02576138  0.12485625  0.44511967  1
  I  I44  1  0.51060712  0.87351102  0.56335656  1
  I  I45  1  0.97423862  0.37514375  0.94511967  1
  I  I46  1  0.26538313  0.91974232  0.28675350  1
  I  I47  1  0.25273982  0.93424724  0.47200085  1
  I  I48  1  0.02576138  0.62485625  0.05488033  1
  I  I49  1  0.52264668  0.20040941  0.80282033  1
  I  I50  1  0.96714180  0.68040712  0.88397085  1
  I  I51  1  0.95350124  0.19702901  0.81228165  1
  I  I52  1  0.54407530  0.35856570  0.47223257  1
  I  I53  1  0.72893938  0.74646946  0.47920003  1
  I  I54  1  0.46244866  0.81287894  0.39229037  1
  I  I55  1  0.55141870  0.57815956  0.33861102  1
  I  I56  1  0.46244866  0.31287894  0.10770963  1
  I  I57  1  0.72326322  0.08117833  0.89478598  1
  I  I58  1  0.24206659  0.18181687  0.20680806  1
  I  I59  1  0.27106062  0.25353054  0.52079997  1
  I  I60  1  0.07460622  0.44242777  0.76178130  1
  I  I61  1  0.76439490  0.23904306  0.21223181  1
  I  I62  1  0.03285820  0.81959288  0.38397085  1
  I  I63  1  0.53755134  0.18712106  0.60770963  1
  I  I64  1  0.25273982  0.43424724  0.02799915  1
  I  I65  1  0.92539378  0.05757223  0.26178130  1
  I  I66  1  0.99219160  0.64437632  0.51652807  1
  I  I67  1  0.72893938  0.24646946  0.02079997  1
  I  I68  1  0.47735332  0.79959059  0.19717967  1
  I  I69  1  0.44858130  0.92184044  0.83861102  1
  I  I70  1  0.80680254  0.50281783  0.38742825  1
  I  I71  1  0.54407530  0.85856570  0.02776743  1
  I  I72  1  0.65371197  0.49566671  0.19700917  1
  I  I73  1  0.52264668  0.70040941  0.69717967  1
  I  I74  1  0.03285820  0.31959288  0.11602915  1
  I  I75  1  0.51060712  0.37351102  0.93664344  1
  I  I76  1  0.95350124  0.69702901  0.68771835  1
  I  I77  1  0.23560510  0.76095694  0.78776819  1
  I  I78  1  0.45592470  0.14143430  0.97223257  1
  I  I79  1  0.97423862  0.87514375  0.55488033  1
  I  I80  1  0.92539378  0.55757223  0.23821870  1
  I  I81  1  0.48939288  0.12648898  0.43664344  1
  I  I82  1  0.23095094  0.77413963  0.60171593  1
  I  I83  1  0.34628803  0.00433329  0.69700917  1
  I  I84  1  0.76439490  0.73904306  0.28776819  1
  I  I85  1  0.96714180  0.18040712  0.61602915  1
  I  I86  1  0.00780840  0.35562368  0.48347193  1
  I  I87  1  0.07460622  0.94242777  0.73821870  1
  I  I88  1  0.73461687  0.08025768  0.71324650  1
  I  I89  1  0.76904906  0.22586037  0.39828407  1
  I  I90  1  0.00780840  0.85562368  0.01652807  1
  I  I91  1  0.23095094  0.27413963  0.89828407  1
  I  I92  1  0.04649876  0.80297099  0.18771835  1
  I  I93  1  0.74726018  0.56575276  0.97200085  1
  I  I94  1  0.27673678  0.41882167  0.39478598  1
  I  I95  1  0.27106062  0.75353054  0.97920003  1
  I  I96  1  0.24206659  0.68181687  0.29319194  1
  I  I97  1  0.80680254  0.00281783  0.11257175  1
  I  I98  1  0.73461687  0.58025768  0.78675350  1
  I  I99  1  0.99219160  0.14437632  0.98347193  1
  I  I100  1  0.44858130  0.42184044  0.66138898  1
  I  I101  1  0.76904906  0.72586037  0.10171593  1
  I  I102  1  0.53755134  0.68712106  0.89229037  1
  I  I103  1  0.47735332  0.29959059  0.30282033  1
  I  I104  1  0.55141870  0.07815956  0.16138898  1
  I  I105  1  0.34628803  0.50433329  0.80299083  1
  I  I106  1  0.72326322  0.58117833  0.60521402  1
  I  I107  1  0.74726018  0.06575276  0.52799915  1
  I  I108  1  0.04649876  0.30297099  0.31228165  1
  I  I109  1  0.27673678  0.91882167  0.10521402  1
  I  I110  1  0.65371197  0.99566671  0.30299083  1
  I  I111  1  0.75793341  0.81818313  0.79319194  1
