# generated using pymatgen
data_Nb2Se17Cl12
_symmetry_space_group_name_H-M   'P 1'
_cell_length_a   11.98650500
_cell_length_b   13.79868036
_cell_length_c   13.88599738
_cell_angle_alpha   111.19191376
_cell_angle_beta   99.42492798
_cell_angle_gamma   99.59816125
_symmetry_Int_Tables_number   1
_chemical_formula_structural   Nb2Se17Cl12
_chemical_formula_sum   'Nb4 Se34 Cl24'
_cell_volume   2047.77059668
_cell_formula_units_Z   2
loop_
 _symmetry_equiv_pos_site_id
 _symmetry_equiv_pos_as_xyz
  1  'x, y, z'
loop_
 _atom_site_type_symbol
 _atom_site_label
 _atom_site_symmetry_multiplicity
 _atom_site_fract_x
 _atom_site_fract_y
 _atom_site_fract_z
 _atom_site_occupancy
  Nb  Nb0  1  0.31340700  0.72925000  0.52185900  1
  Nb  Nb1  1  0.68659300  0.27075000  0.47814100  1
  Nb  Nb2  1  0.83497400  0.71715500  0.99720400  1
  Nb  Nb3  1  0.16502600  0.28284500  0.00279600  1
  Se  Se4  1  0.47851700  0.83246900  0.98410400  1
  Se  Se5  1  0.11967700  0.39820200  0.66175600  1
  Se  Se6  1  0.73481400  0.10183400  0.78073500  1
  Se  Se7  1  0.68999800  0.62476200  0.35075800  1
  Se  Se8  1  0.32065100  0.90637800  0.96614100  1
  Se  Se9  1  0.12204200  0.30644200  0.37819300  1
  Se  Se10  1  0.18756800  0.62762800  0.92244200  1
  Se  Se11  1  0.81243200  0.37237200  0.07755800  1
  Se  Se12  1  0.39299900  0.64895500  0.96434100  1
  Se  Se13  1  0.04036700  0.04270600  0.39973700  1
  Se  Se14  1  0.15218400  0.58589900  0.73800900  1
  Se  Se15  1  0.44414300  0.84380600  0.25136600  1
  Se  Se16  1  0.55585700  0.15619400  0.74863400  1
  Se  Se17  1  0.67934900  0.09362200  0.03385900  1
  Se  Se18  1  0.95963300  0.95729400  0.60026300  1
  Se  Se19  1  0.67348800  0.98120600  0.85452600  1
  Se  Se20  1  0.74692100  0.80787200  0.34166600  1
  Se  Se21  1  0.23885400  0.07082300  0.49048000  1
  Se  Se22  1  0.07062900  0.11787800  0.27682800  1
  Se  Se23  1  0.61286000  0.33605200  0.84681200  1
  Se  Se24  1  0.76114600  0.92917700  0.50952000  1
  Se  Se25  1  0.84781600  0.41410100  0.26199100  1
  Se  Se26  1  0.52148300  0.16753100  0.01589600  1
  Se  Se27  1  0.31583700  0.33993100  0.46385900  1
  Se  Se28  1  0.31000200  0.37523800  0.64924200  1
  Se  Se29  1  0.88032300  0.60179800  0.33824400  1
  Se  Se30  1  0.25307900  0.19212800  0.65833400  1
  Se  Se31  1  0.87795800  0.69355800  0.62180700  1
  Se  Se32  1  0.92937100  0.88212200  0.72317200  1
  Se  Se33  1  0.38714000  0.66394800  0.15318800  1
  Se  Se34  1  0.60700100  0.35104500  0.03565900  1
  Se  Se35  1  0.68416300  0.66006900  0.53614100  1
  Se  Se36  1  0.26518600  0.89816600  0.21926500  1
  Se  Se37  1  0.32651200  0.01879400  0.14547400  1
  Cl  Cl38  1  0.03075100  0.27729500  0.85496000  1
  Cl  Cl39  1  0.31952400  0.38851200  0.95932800  1
  Cl  Cl40  1  0.30977700  0.29565500  0.14937900  1
  Cl  Cl41  1  0.76025500  0.15743200  0.34298400  1
  Cl  Cl42  1  0.02172200  0.17483700  0.04418500  1
  Cl  Cl43  1  0.23974500  0.84256800  0.65701600  1
  Cl  Cl44  1  0.97827800  0.82516300  0.95581500  1
  Cl  Cl45  1  0.69022300  0.70434500  0.85062100  1
  Cl  Cl46  1  0.39291200  0.61439700  0.38814200  1
  Cl  Cl47  1  0.60708800  0.38560300  0.61185800  1
  Cl  Cl48  1  0.15663400  0.57990200  0.49362300  1
  Cl  Cl49  1  0.78892300  0.87561800  0.11042200  1
  Cl  Cl50  1  0.21107700  0.12438200  0.88957800  1
  Cl  Cl51  1  0.87954500  0.55848000  0.88800900  1
  Cl  Cl52  1  0.96924900  0.72270500  0.14504000  1
  Cl  Cl53  1  0.12045500  0.44152000  0.11199100  1
  Cl  Cl54  1  0.57028400  0.31288200  0.35044800  1
  Cl  Cl55  1  0.46275600  0.87901900  0.54714200  1
  Cl  Cl56  1  0.68047600  0.61148800  0.04067200  1
  Cl  Cl57  1  0.19179000  0.75918900  0.38672700  1
  Cl  Cl58  1  0.80821000  0.24081100  0.61327300  1
  Cl  Cl59  1  0.84336600  0.42009800  0.50637700  1
  Cl  Cl60  1  0.53724400  0.12098100  0.45285800  1
  Cl  Cl61  1  0.42971600  0.68711800  0.64955200  1
