# generated using pymatgen
data_SrZnP2O7
_symmetry_space_group_name_H-M   'P 1'
_cell_length_a   8.31438800
_cell_length_b   5.38833500
_cell_length_c   14.00014388
_cell_angle_alpha   67.58806605
_cell_angle_beta   90.00000000
_cell_angle_gamma   90.00000000
_symmetry_Int_Tables_number   1
_chemical_formula_structural   SrZnP2O7
_chemical_formula_sum   'Sr4 Zn4 P8 O28'
_cell_volume   579.84059845
_cell_formula_units_Z   4
loop_
 _symmetry_equiv_pos_site_id
 _symmetry_equiv_pos_as_xyz
  1  'x, y, z'
loop_
 _atom_site_type_symbol
 _atom_site_label
 _atom_site_symmetry_multiplicity
 _atom_site_fract_x
 _atom_site_fract_y
 _atom_site_fract_z
 _atom_site_occupancy
  Sr  Sr0  1  0.66124000  0.00907100  0.27909200  1
  Sr  Sr1  1  0.16124000  0.99092900  0.22090800  1
  Sr  Sr2  1  0.33876000  0.99092900  0.72090800  1
  Sr  Sr3  1  0.83876000  0.00907100  0.77909200  1
  Zn  Zn4  1  0.65281800  0.72254900  0.60471000  1
  Zn  Zn5  1  0.34718200  0.27745100  0.39529000  1
  Zn  Zn6  1  0.15281800  0.27745100  0.89529000  1
  Zn  Zn7  1  0.84718200  0.72254900  0.10471000  1
  P  P8  1  0.96437100  0.41703200  0.33443100  1
  P  P9  1  0.03562900  0.58296800  0.66556900  1
  P  P10  1  0.80160600  0.33519400  0.98005400  1
  P  P11  1  0.19839400  0.66480600  0.01994600  1
  P  P12  1  0.30160600  0.66480600  0.51994600  1
  P  P13  1  0.69839400  0.33519400  0.48005400  1
  P  P14  1  0.53562900  0.41703200  0.83443100  1
  P  P15  1  0.46437100  0.58296800  0.16556900  1
  O  O16  1  0.40406800  0.72752700  0.60015000  1
  O  O17  1  0.38492400  0.68097000  0.05132800  1
  O  O18  1  0.88036700  0.68032800  0.26587700  1
  O  O19  1  0.31445700  0.88672800  0.41143100  1
  O  O20  1  0.64036500  0.51937800  0.15223200  1
  O  O21  1  0.05888600  0.80811100  0.70492400  1
  O  O22  1  0.90406800  0.27247300  0.89985000  1
  O  O23  1  0.61507600  0.31903000  0.94867200  1
  O  O24  1  0.33238400  0.37835300  0.52547000  1
  O  O25  1  0.18554300  0.88672800  0.91143100  1
  O  O26  1  0.16761600  0.37835300  0.02547000  1
  O  O27  1  0.35963500  0.48062200  0.84776800  1
  O  O28  1  0.94111400  0.19188900  0.29507600  1
  O  O29  1  0.61963300  0.68032800  0.76587700  1
  O  O30  1  0.59593200  0.27247300  0.39985000  1
  O  O31  1  0.11507600  0.68097000  0.55132800  1
  O  O32  1  0.38036700  0.31967200  0.23412300  1
  O  O33  1  0.68554300  0.11327200  0.58856900  1
  O  O34  1  0.81445700  0.11327200  0.08856900  1
  O  O35  1  0.14036500  0.48062200  0.34776800  1
  O  O36  1  0.11963300  0.31967200  0.73412300  1
  O  O37  1  0.85963500  0.51937800  0.65223200  1
  O  O38  1  0.09593200  0.72752700  0.10015000  1
  O  O39  1  0.88492400  0.31903000  0.44867200  1
  O  O40  1  0.66761600  0.62164700  0.47453000  1
  O  O41  1  0.55888600  0.19188900  0.79507600  1
  O  O42  1  0.44111400  0.80811100  0.20492400  1
  O  O43  1  0.83238400  0.62164700  0.97453000  1
