# generated using pymatgen
data_Ba2YbBiO6
_symmetry_space_group_name_H-M   'P 1'
_cell_length_a   6.15787479
_cell_length_b   6.15787479
_cell_length_c   6.15787441
_cell_angle_alpha   60.26042366
_cell_angle_beta   60.26042366
_cell_angle_gamma   60.26042234
_symmetry_Int_Tables_number   1
_chemical_formula_structural   Ba2YbBiO6
_chemical_formula_sum   'Ba2 Yb1 Bi1 O6'
_cell_volume   166.08486048
_cell_formula_units_Z   1
loop_
 _symmetry_equiv_pos_site_id
 _symmetry_equiv_pos_as_xyz
  1  'x, y, z'
loop_
 _atom_site_type_symbol
 _atom_site_label
 _atom_site_symmetry_multiplicity
 _atom_site_fract_x
 _atom_site_fract_y
 _atom_site_fract_z
 _atom_site_occupancy
  Ba  Ba0  1  0.75013600  0.75013600  0.75013600  1
  Ba  Ba1  1  0.24986400  0.24986400  0.24986400  1
  Yb  Yb2  1  0.50000000  0.50000000  0.50000000  1
  Bi  Bi3  1  0.00000000  0.00000000  0.00000000  1
  O  O4  1  0.79075600  0.72445300  0.24160600  1
  O  O5  1  0.20924400  0.27554700  0.75839400  1
  O  O6  1  0.72445300  0.24160600  0.79075600  1
  O  O7  1  0.24160600  0.79075600  0.72445300  1
  O  O8  1  0.27554700  0.75839400  0.20924400  1
  O  O9  1  0.75839400  0.20924400  0.27554700  1
