# generated using pymatgen
data_CaCr2O4
_symmetry_space_group_name_H-M   'P 1'
_cell_length_a   5.13811700
_cell_length_b   5.98289600
_cell_length_c   11.16743200
_cell_angle_alpha   90.00023292
_cell_angle_beta   89.99943904
_cell_angle_gamma   89.99961890
_symmetry_Int_Tables_number   1
_chemical_formula_structural   CaCr2O4
_chemical_formula_sum   'Ca4 Cr8 O16'
_cell_volume   343.29601302
_cell_formula_units_Z   4
loop_
 _symmetry_equiv_pos_site_id
 _symmetry_equiv_pos_as_xyz
  1  'x, y, z'
loop_
 _atom_site_type_symbol
 _atom_site_label
 _atom_site_symmetry_multiplicity
 _atom_site_fract_x
 _atom_site_fract_y
 _atom_site_fract_z
 _atom_site_occupancy
  Ca  Ca0  1  0.85268700  0.25000900  0.75000400  1
  Ca  Ca1  1  0.14730200  0.75001000  0.25002800  1
  Ca  Ca2  1  0.53767100  0.25000900  0.24997900  1
  Ca  Ca3  1  0.46235500  0.75000700  0.75000300  1
  Cr  Cr4  1  0.50776700  0.74987500  0.00905000  1
  Cr  Cr5  1  0.49240000  0.24989500  0.99094500  1
  Cr  Cr6  1  0.99989100  0.50018000  0.50001200  1
  Cr  Cr7  1  0.99997000  0.00007000  0.49999700  1
  Cr  Cr8  1  0.50754900  0.75013300  0.49096500  1
  Cr  Cr9  1  0.49228900  0.25008800  0.50903900  1
  Cr  Cr10  1  0.00004600  0.99992600  0.99999300  1
  Cr  Cr11  1  0.00008800  0.49981300  0.00000400  1
  O  O12  1  0.84477900  0.75012600  0.40145200  1
  O  O13  1  0.84497000  0.74986600  0.09857000  1
  O  O14  1  0.15510900  0.25012700  0.59853900  1
  O  O15  1  0.15515000  0.24986600  0.90143400  1
  O  O16  1  0.17833800  0.75012300  0.59007200  1
  O  O17  1  0.17858100  0.74987100  0.90994900  1
  O  O18  1  0.82150000  0.25011800  0.40992000  1
  O  O19  1  0.82157500  0.24987600  0.09005000  1
  O  O20  1  0.66321300  0.50337300  0.60121500  1
  O  O21  1  0.66334400  0.99660500  0.89877800  1
  O  O22  1  0.33664100  0.00339600  0.39877600  1
  O  O23  1  0.33679700  0.49662800  0.10122700  1
  O  O24  1  0.33662300  0.49679000  0.39878000  1
  O  O25  1  0.33676700  0.00318400  0.10122200  1
  O  O26  1  0.66322900  0.99684300  0.60120200  1
  O  O27  1  0.66337000  0.50319400  0.89879500  1
