# generated using pymatgen
data_Ti4S8Br6O
_symmetry_space_group_name_H-M   'P 1'
_cell_length_a   11.84081300
_cell_length_b   9.70664500
_cell_length_c   20.08474637
_cell_angle_alpha   88.34776321
_cell_angle_beta   90.00000000
_cell_angle_gamma   90.00000000
_symmetry_Int_Tables_number   1
_chemical_formula_structural   Ti4S8Br6O
_chemical_formula_sum   'Ti16 S32 Br24 O4'
_cell_volume   2307.47190733
_cell_formula_units_Z   4
loop_
 _symmetry_equiv_pos_site_id
 _symmetry_equiv_pos_as_xyz
  1  'x, y, z'
loop_
 _atom_site_type_symbol
 _atom_site_label
 _atom_site_symmetry_multiplicity
 _atom_site_fract_x
 _atom_site_fract_y
 _atom_site_fract_z
 _atom_site_occupancy
  Ti  Ti0  1  0.68678100  0.12440600  0.88089600  1
  Ti  Ti1  1  0.20174100  0.53209400  0.15895800  1
  Ti  Ti2  1  0.70174100  0.46790600  0.34104200  1
  Ti  Ti3  1  0.29825900  0.53209400  0.65895800  1
  Ti  Ti4  1  0.28579300  0.63687400  0.01733100  1
  Ti  Ti5  1  0.18678100  0.87559400  0.61910400  1
  Ti  Ti6  1  0.71420700  0.36312600  0.98266900  1
  Ti  Ti7  1  0.55690300  0.21042200  0.38737000  1
  Ti  Ti8  1  0.94309700  0.21042200  0.88737000  1
  Ti  Ti9  1  0.31321900  0.87559400  0.11910400  1
  Ti  Ti10  1  0.44309700  0.78957800  0.61263000  1
  Ti  Ti11  1  0.21420700  0.63687400  0.51733100  1
  Ti  Ti12  1  0.81321900  0.12440600  0.38089600  1
  Ti  Ti13  1  0.78579300  0.36312600  0.48266900  1
  Ti  Ti14  1  0.79825900  0.46790600  0.84104200  1
  Ti  Ti15  1  0.05690300  0.78957800  0.11263000  1
  S  S16  1  0.50103700  0.45684600  0.36177100  1
  S  S17  1  0.35222200  0.88259100  0.00087600  1
  S  S18  1  0.64391200  0.04189600  0.31760300  1
  S  S19  1  0.45270200  0.66080400  0.71687700  1
  S  S20  1  0.84618000  0.98526000  0.91655300  1
  S  S21  1  0.00103700  0.54315400  0.13822900  1
  S  S22  1  0.95270200  0.33919600  0.78312300  1
  S  S23  1  0.85222200  0.11740900  0.49912400  1
  S  S24  1  0.15382000  0.01474000  0.08344700  1
  S  S25  1  0.85608800  0.04189600  0.81760300  1
  S  S26  1  0.36103500  0.45085300  0.08582900  1
  S  S27  1  0.34618000  0.01474000  0.58344700  1
  S  S28  1  0.14391200  0.95810400  0.18239700  1
  S  S29  1  0.30110100  0.41134000  0.55536400  1
  S  S30  1  0.65382000  0.98526000  0.41655300  1
  S  S31  1  0.80110100  0.58866000  0.94463600  1
  S  S32  1  0.49896300  0.54315400  0.63822900  1
  S  S33  1  0.19889900  0.41134000  0.05536400  1
  S  S34  1  0.14777800  0.88259100  0.50087600  1
  S  S35  1  0.54220200  0.25179000  0.94880000  1
  S  S36  1  0.86103500  0.54914700  0.41417100  1
  S  S37  1  0.35608800  0.95810400  0.68239700  1
  S  S38  1  0.95779800  0.25179000  0.44880000  1
  S  S39  1  0.04220200  0.74821000  0.55120000  1
  S  S40  1  0.69889900  0.58866000  0.44463600  1
  S  S41  1  0.45779800  0.74821000  0.05120000  1
  S  S42  1  0.99896300  0.45684600  0.86177100  1
  S  S43  1  0.04729800  0.66080400  0.21687700  1
  S  S44  1  0.64777800  0.11740900  0.99912400  1
  S  S45  1  0.63896500  0.54914700  0.91417100  1
  S  S46  1  0.54729800  0.33919600  0.28312300  1
  S  S47  1  0.13896500  0.45085300  0.58582900  1
  Br  Br48  1  0.83001800  0.43324400  0.59316100  1
  Br  Br49  1  0.63208700  0.87552200  0.60084900  1
  Br  Br50  1  0.21371300  0.34621900  0.23894100  1
  Br  Br51  1  0.36791300  0.12447800  0.39915100  1
  Br  Br52  1  0.35197700  0.69431100  0.22091000  1
  Br  Br53  1  0.86791300  0.87552200  0.10084900  1
  Br  Br54  1  0.94227400  0.95454400  0.34219700  1
  Br  Br55  1  0.78628700  0.65378100  0.76105900  1
  Br  Br56  1  0.14802300  0.69431100  0.72091000  1
  Br  Br57  1  0.55772600  0.95454400  0.84219700  1
  Br  Br58  1  0.44227400  0.04545600  0.15780300  1
  Br  Br59  1  0.28628700  0.34621900  0.73894100  1
  Br  Br60  1  0.16998200  0.56675600  0.40683900  1
  Br  Br61  1  0.71371300  0.65378100  0.26105900  1
  Br  Br62  1  0.33001800  0.56675600  0.90683900  1
  Br  Br63  1  0.05772600  0.04545600  0.65780300  1
  Br  Br64  1  0.64802300  0.30568900  0.77909000  1
  Br  Br65  1  0.42412000  0.72430700  0.48244000  1
  Br  Br66  1  0.57588000  0.27569300  0.51756000  1
  Br  Br67  1  0.66998200  0.43324400  0.09316100  1
  Br  Br68  1  0.92412000  0.27569300  0.01756000  1
  Br  Br69  1  0.85197700  0.30568900  0.27909000  1
  Br  Br70  1  0.07588000  0.72430700  0.98244000  1
  Br  Br71  1  0.13208700  0.12447800  0.89915100  1
  O  O72  1  0.21421100  0.70901700  0.10137900  1
  O  O73  1  0.28578900  0.70901700  0.60137900  1
  O  O74  1  0.78578900  0.29098300  0.89862100  1
  O  O75  1  0.71421100  0.29098300  0.39862100  1
