# generated using pymatgen
data_EuDyCuS3
_symmetry_space_group_name_H-M   'P 1'
_cell_length_a   3.90390100
_cell_length_b   10.22807100
_cell_length_c   12.80250200
_cell_angle_alpha   90.00000000
_cell_angle_beta   90.00000000
_cell_angle_gamma   90.00000000
_symmetry_Int_Tables_number   1
_chemical_formula_structural   EuDyCuS3
_chemical_formula_sum   'Eu4 Dy4 Cu4 S12'
_cell_volume   511.19592384
_cell_formula_units_Z   4
loop_
 _symmetry_equiv_pos_site_id
 _symmetry_equiv_pos_as_xyz
  1  'x, y, z'
loop_
 _atom_site_type_symbol
 _atom_site_label
 _atom_site_symmetry_multiplicity
 _atom_site_fract_x
 _atom_site_fract_y
 _atom_site_fract_z
 _atom_site_occupancy
  Eu  Eu0  1  0.75000000  0.72723500  0.49957200  1
  Eu  Eu1  1  0.25000000  0.27276500  0.50042800  1
  Eu  Eu2  1  0.75000000  0.22723500  0.00042800  1
  Eu  Eu3  1  0.25000000  0.77276500  0.99957200  1
  Dy  Dy4  1  0.75000000  0.48567000  0.75710800  1
  Dy  Dy5  1  0.25000000  0.51433000  0.24289200  1
  Dy  Dy6  1  0.75000000  0.98567000  0.74289200  1
  Dy  Dy7  1  0.25000000  0.01433000  0.25710800  1
  Cu  Cu8  1  0.75000000  0.26293600  0.27653100  1
  Cu  Cu9  1  0.25000000  0.73706400  0.72346900  1
  Cu  Cu10  1  0.75000000  0.76293600  0.22346900  1
  Cu  Cu11  1  0.25000000  0.23706400  0.77653100  1
  S  S12  1  0.75000000  0.44586300  0.38548900  1
  S  S13  1  0.25000000  0.55413700  0.61451100  1
  S  S14  1  0.75000000  0.94586300  0.11451100  1
  S  S15  1  0.25000000  0.05413700  0.88548900  1
  S  S16  1  0.75000000  0.08944200  0.39338500  1
  S  S17  1  0.25000000  0.91055800  0.60661500  1
  S  S18  1  0.75000000  0.58944200  0.10661500  1
  S  S19  1  0.25000000  0.41055800  0.89338500  1
  S  S20  1  0.75000000  0.23938700  0.67067600  1
  S  S21  1  0.25000000  0.76061300  0.32932400  1
  S  S22  1  0.75000000  0.73938700  0.82932400  1
  S  S23  1  0.25000000  0.26061300  0.17067600  1
