# generated using pymatgen
data_Na6PbO5
_symmetry_space_group_name_H-M   'P 1'
_cell_length_a   6.13228175
_cell_length_b   6.13228175
_cell_length_c   11.06125600
_cell_angle_alpha   90.00000000
_cell_angle_beta   90.00000000
_cell_angle_gamma   123.70883964
_symmetry_Int_Tables_number   1
_chemical_formula_structural   Na6PbO5
_chemical_formula_sum   'Na12 Pb2 O10'
_cell_volume   346.02169570
_cell_formula_units_Z   2
loop_
 _symmetry_equiv_pos_site_id
 _symmetry_equiv_pos_as_xyz
  1  'x, y, z'
loop_
 _atom_site_type_symbol
 _atom_site_label
 _atom_site_symmetry_multiplicity
 _atom_site_fract_x
 _atom_site_fract_y
 _atom_site_fract_z
 _atom_site_occupancy
  Na  Na0  1  0.32277000  0.32277000  0.93906700  1
  Na  Na1  1  0.32277000  0.32277000  0.56093300  1
  Na  Na2  1  0.67723000  0.67723000  0.43906600  1
  Na  Na3  1  0.83528600  0.43047100  0.25000000  1
  Na  Na4  1  0.21987500  0.78012500  0.00000000  1
  Na  Na5  1  0.43047100  0.83528600  0.25000000  1
  Na  Na6  1  0.78012500  0.21987500  0.50000000  1
  Na  Na7  1  0.67723000  0.67723000  0.06093300  1
  Na  Na8  1  0.56952900  0.16471400  0.75000000  1
  Na  Na9  1  0.78012500  0.21987500  0.00000000  1
  Na  Na10  1  0.21987500  0.78012500  0.50000000  1
  Na  Na11  1  0.16471400  0.56952900  0.75000000  1
  Pb  Pb12  1  0.20538800  0.20538800  0.25000000  1
  Pb  Pb13  1  0.79461200  0.79461200  0.75000000  1
  O  O14  1  0.16670400  0.16670400  0.75000000  1
  O  O15  1  0.16454500  0.44332800  0.11383200  1
  O  O16  1  0.44332800  0.16454500  0.38616800  1
  O  O17  1  0.16454500  0.44332800  0.38616800  1
  O  O18  1  0.83545500  0.55667200  0.61383200  1
  O  O19  1  0.83545500  0.55667200  0.88616800  1
  O  O20  1  0.44332800  0.16454500  0.11383200  1
  O  O21  1  0.55667200  0.83545500  0.88616800  1
  O  O22  1  0.83329600  0.83329600  0.25000000  1
  O  O23  1  0.55667200  0.83545500  0.61383200  1
