# generated using pymatgen
data_Sr9LuV7O28
_symmetry_space_group_name_H-M   'P 1'
_cell_length_a   14.89978242
_cell_length_b   14.89978242
_cell_length_c   14.89978249
_cell_angle_alpha   44.83848562
_cell_angle_beta   44.83848562
_cell_angle_gamma   44.83848652
_symmetry_Int_Tables_number   1
_chemical_formula_structural   Sr9LuV7O28
_chemical_formula_sum   'Sr18 Lu2 V14 O56'
_cell_volume   1496.35003194
_cell_formula_units_Z   2
loop_
 _symmetry_equiv_pos_site_id
 _symmetry_equiv_pos_as_xyz
  1  'x, y, z'
loop_
 _atom_site_type_symbol
 _atom_site_label
 _atom_site_symmetry_multiplicity
 _atom_site_fract_x
 _atom_site_fract_y
 _atom_site_fract_z
 _atom_site_occupancy
  Sr  Sr0  1  0.54647800  0.52967900  0.94859700  1
  Sr  Sr1  1  0.06486900  0.64678400  0.09265000  1
  Sr  Sr2  1  0.14678400  0.56486900  0.59265000  1
  Sr  Sr3  1  0.84650000  0.43303400  0.42254000  1
  Sr  Sr4  1  0.43303400  0.42254000  0.84650000  1
  Sr  Sr5  1  0.64678400  0.09265000  0.06486900  1
  Sr  Sr6  1  0.59265000  0.14678400  0.56486900  1
  Sr  Sr7  1  0.04647800  0.44859700  0.02967900  1
  Sr  Sr8  1  0.92254000  0.93303400  0.34650000  1
  Sr  Sr9  1  0.93303400  0.34650000  0.92254000  1
  Sr  Sr10  1  0.52967900  0.94859700  0.54647800  1
  Sr  Sr11  1  0.94859700  0.54647800  0.52967900  1
  Sr  Sr12  1  0.34650000  0.92254000  0.93303400  1
  Sr  Sr13  1  0.44859700  0.02967900  0.04647800  1
  Sr  Sr14  1  0.02967900  0.04647800  0.44859700  1
  Sr  Sr15  1  0.09265000  0.06486900  0.64678400  1
  Sr  Sr16  1  0.42254000  0.84650000  0.43303400  1
  Sr  Sr17  1  0.56486900  0.59265000  0.14678400  1
  Lu  Lu18  1  0.50009600  0.50009600  0.50009600  1
  Lu  Lu19  1  0.00009600  0.00009600  0.00009600  1
  V  V20  1  0.69134400  0.72378500  0.17943400  1
  V  V21  1  0.67943400  0.22378500  0.19134400  1
  V  V22  1  0.22378500  0.19134400  0.67943400  1
  V  V23  1  0.31229600  0.28001100  0.81280800  1
  V  V24  1  0.19134400  0.67943400  0.22378500  1
  V  V25  1  0.31280800  0.78001100  0.81229600  1
  V  V26  1  0.72378500  0.17943400  0.69134400  1
  V  V27  1  0.22902500  0.22902500  0.22902500  1
  V  V28  1  0.78001100  0.81229600  0.31280800  1
  V  V29  1  0.81229600  0.31280800  0.78001100  1
  V  V30  1  0.72902500  0.72902500  0.72902500  1
  V  V31  1  0.81280800  0.31229600  0.28001100  1
  V  V32  1  0.17943400  0.69134400  0.72378500  1
  V  V33  1  0.28001100  0.81280800  0.31229600  1
  O  O34  1  0.68579300  0.68579300  0.68579300  1
  O  O35  1  0.62448900  0.14264700  0.37126600  1
  O  O36  1  0.62187600  0.36391500  0.61950600  1
  O  O37  1  0.59559700  0.23671700  0.14167300  1
  O  O38  1  0.32350500  0.31311500  0.89355800  1
  O  O39  1  0.64264700  0.12448900  0.87126600  1
  O  O40  1  0.60615600  0.89237200  0.16496400  1
  O  O41  1  0.86992400  0.88908400  0.12897400  1
  O  O42  1  0.12187600  0.11950600  0.86391500  1
  O  O43  1  0.84442700  0.63668300  0.36478100  1
  O  O44  1  0.11950600  0.86391500  0.12187600  1
  O  O45  1  0.89668900  0.60108300  0.72443100  1
  O  O46  1  0.36478100  0.84442700  0.63668300  1
  O  O47  1  0.12448900  0.87126600  0.64264700  1
  O  O48  1  0.40690100  0.10140200  0.85662100  1
  O  O49  1  0.39355800  0.81311500  0.82350500  1
  O  O50  1  0.86391500  0.12187600  0.11950600  1
  O  O51  1  0.12897400  0.86992400  0.88908400  1
  O  O52  1  0.39668900  0.22443100  0.10108300  1
  O  O53  1  0.90690100  0.35662100  0.60140200  1
  O  O54  1  0.89237200  0.16496400  0.60615600  1
  O  O55  1  0.72443100  0.89668900  0.60108300  1
  O  O56  1  0.89355800  0.32350500  0.31311500  1
  O  O57  1  0.82350500  0.39355800  0.81311500  1
  O  O58  1  0.10140200  0.85662100  0.40690100  1
  O  O59  1  0.63668300  0.36478100  0.84442700  1
  O  O60  1  0.18579300  0.18579300  0.18579300  1
  O  O61  1  0.81311500  0.82350500  0.39355800  1
  O  O62  1  0.85662100  0.40690100  0.10140200  1
  O  O63  1  0.37126600  0.62448900  0.14264700  1
  O  O64  1  0.34442700  0.86478100  0.13668300  1
  O  O65  1  0.38908400  0.36992400  0.62897400  1
  O  O66  1  0.86478100  0.13668300  0.34442700  1
  O  O67  1  0.31311500  0.89355800  0.32350500  1
  O  O68  1  0.22443100  0.10108300  0.39668900  1
  O  O69  1  0.10615600  0.66496400  0.39237200  1
  O  O70  1  0.09559700  0.64167300  0.73671700  1
  O  O71  1  0.14264700  0.37126600  0.62448900  1
  O  O72  1  0.35662100  0.60140200  0.90690100  1
  O  O73  1  0.73671700  0.09559700  0.64167300  1
  O  O74  1  0.36992400  0.62897400  0.38908400  1
  O  O75  1  0.10108300  0.39668900  0.22443100  1
  O  O76  1  0.87126600  0.64264700  0.12448900  1
  O  O77  1  0.13668300  0.34442700  0.86478100  1
  O  O78  1  0.60140200  0.90690100  0.35662100  1
  O  O79  1  0.39237200  0.10615600  0.66496400  1
  O  O80  1  0.62897400  0.38908400  0.36992400  1
  O  O81  1  0.23671700  0.14167300  0.59559700  1
  O  O82  1  0.66496400  0.39237200  0.10615600  1
  O  O83  1  0.88908400  0.12897400  0.86992400  1
  O  O84  1  0.61950600  0.62187600  0.36391500  1
  O  O85  1  0.14167300  0.59559700  0.23671700  1
  O  O86  1  0.64167300  0.73671700  0.09559700  1
  O  O87  1  0.36391500  0.61950600  0.62187600  1
  O  O88  1  0.16496400  0.60615600  0.89237200  1
  O  O89  1  0.60108300  0.72443100  0.89668900  1
