# generated using pymatgen
data_Cs2MoS4
_symmetry_space_group_name_H-M   'P 1'
_cell_length_a   7.39571100
_cell_length_b   10.32630000
_cell_length_c   13.14450600
_cell_angle_alpha   90.00000000
_cell_angle_beta   90.00000000
_cell_angle_gamma   90.00000000
_symmetry_Int_Tables_number   1
_chemical_formula_structural   Cs2MoS4
_chemical_formula_sum   'Cs8 Mo4 S16'
_cell_volume   1003.85026747
_cell_formula_units_Z   4
loop_
 _symmetry_equiv_pos_site_id
 _symmetry_equiv_pos_as_xyz
  1  'x, y, z'
loop_
 _atom_site_type_symbol
 _atom_site_label
 _atom_site_symmetry_multiplicity
 _atom_site_fract_x
 _atom_site_fract_y
 _atom_site_fract_z
 _atom_site_occupancy
  Cs  Cs0  1  0.75000000  0.84385700  0.60126800  1
  Cs  Cs1  1  0.25000000  0.65614300  0.10126800  1
  Cs  Cs2  1  0.25000000  0.46616500  0.66891800  1
  Cs  Cs3  1  0.75000000  0.34385700  0.89873200  1
  Cs  Cs4  1  0.75000000  0.03383500  0.16891800  1
  Cs  Cs5  1  0.25000000  0.15614300  0.39873200  1
  Cs  Cs6  1  0.25000000  0.96616500  0.83108200  1
  Cs  Cs7  1  0.75000000  0.53383500  0.33108200  1
  Mo  Mo8  1  0.75000000  0.25268500  0.57892200  1
  Mo  Mo9  1  0.25000000  0.24731500  0.07892200  1
  Mo  Mo10  1  0.25000000  0.74731500  0.42107800  1
  Mo  Mo11  1  0.75000000  0.75268500  0.92107800  1
  S  S12  1  0.50788000  0.66682300  0.85120600  1
  S  S13  1  0.49212000  0.33317700  0.14879400  1
  S  S14  1  0.75000000  0.96396900  0.89573700  1
  S  S15  1  0.49212000  0.83317700  0.35120600  1
  S  S16  1  0.75000000  0.20911400  0.41471000  1
  S  S17  1  0.25000000  0.79088600  0.58529000  1
  S  S18  1  0.25000000  0.29088600  0.91471000  1
  S  S19  1  0.50788000  0.16682300  0.64879400  1
  S  S20  1  0.00788000  0.33317700  0.14879400  1
  S  S21  1  0.25000000  0.03603100  0.10426300  1
  S  S22  1  0.75000000  0.46396900  0.60426300  1
  S  S23  1  0.99212000  0.66682300  0.85120600  1
  S  S24  1  0.75000000  0.70911400  0.08529000  1
  S  S25  1  0.99212000  0.16682300  0.64879400  1
  S  S26  1  0.00788000  0.83317700  0.35120600  1
  S  S27  1  0.25000000  0.53603100  0.39573700  1
