# generated using pymatgen
data_Sr4Pt4PbO11
_symmetry_space_group_name_H-M   'P 1'
_cell_length_a   5.76505400
_cell_length_b   10.12320308
_cell_length_c   10.22092290
_cell_angle_alpha   89.54840868
_cell_angle_beta   89.82540352
_cell_angle_gamma   89.99267616
_symmetry_Int_Tables_number   1
_chemical_formula_structural   Sr4Pt4PbO11
_chemical_formula_sum   'Sr8 Pt8 Pb2 O22'
_cell_volume   596.48006344
_cell_formula_units_Z   2
loop_
 _symmetry_equiv_pos_site_id
 _symmetry_equiv_pos_as_xyz
  1  'x, y, z'
loop_
 _atom_site_type_symbol
 _atom_site_label
 _atom_site_symmetry_multiplicity
 _atom_site_fract_x
 _atom_site_fract_y
 _atom_site_fract_z
 _atom_site_occupancy
  Sr  Sr0  1  0.25020900  0.12443000  0.95298800  1
  Sr  Sr1  1  0.24882400  0.03389200  0.60506800  1
  Sr  Sr2  1  0.75090700  0.61557300  0.48434300  1
  Sr  Sr3  1  0.25109300  0.46710300  0.87273700  1
  Sr  Sr4  1  0.74890700  0.53289700  0.12726300  1
  Sr  Sr5  1  0.24909300  0.38442700  0.51565700  1
  Sr  Sr6  1  0.74979100  0.87557000  0.04701200  1
  Sr  Sr7  1  0.75117600  0.96610800  0.39493200  1
  Pt  Pt8  1  0.24915400  0.37119400  0.18406000  1
  Pt  Pt9  1  0.74977500  0.20296400  0.10729800  1
  Pt  Pt10  1  0.75084600  0.62880600  0.81594000  1
  Pt  Pt11  1  0.74916200  0.29285700  0.35406800  1
  Pt  Pt12  1  0.75052900  0.87686800  0.72352700  1
  Pt  Pt13  1  0.25083800  0.70714300  0.64593200  1
  Pt  Pt14  1  0.25022500  0.79703600  0.89270200  1
  Pt  Pt15  1  0.24947100  0.12313200  0.27647300  1
  Pb  Pb16  1  0.71573900  0.25531300  0.72901000  1
  Pb  Pb17  1  0.28426100  0.74468700  0.27099000  1
  O  O18  1  0.67641700  0.74739300  0.26356700  1
  O  O19  1  0.24989600  0.63205000  0.46356800  1
  O  O20  1  0.00316300  0.33227200  0.04432400  1
  O  O21  1  0.99582200  0.43230000  0.30948600  1
  O  O22  1  0.75507100  0.05550000  0.63408900  1
  O  O23  1  0.00905300  0.93887600  0.84931400  1
  O  O24  1  0.24492900  0.94450000  0.36591100  1
  O  O25  1  0.50147200  0.66670100  0.95462500  1
  O  O26  1  0.01240800  0.17131000  0.41568000  1
  O  O27  1  0.49852800  0.33329900  0.04537500  1
  O  O28  1  0.51130700  0.83093700  0.58531900  1
  O  O29  1  0.75010400  0.36795000  0.53643200  1
  O  O30  1  0.00417800  0.56770000  0.69051400  1
  O  O31  1  0.49438200  0.93802200  0.85157800  1
  O  O32  1  0.99094700  0.06112400  0.15068600  1
  O  O33  1  0.48869300  0.16906300  0.41468100  1
  O  O34  1  0.32358300  0.25260700  0.73643300  1
  O  O35  1  0.98759200  0.82869000  0.58432000  1
  O  O36  1  0.49983200  0.56926000  0.68981400  1
  O  O37  1  0.50561800  0.06197800  0.14842200  1
  O  O38  1  0.99683700  0.66772800  0.95567600  1
  O  O39  1  0.50016800  0.43074000  0.31018600  1
