# generated using pymatgen
data_Hg(SbS2)4
_symmetry_space_group_name_H-M   'P 1'
_cell_length_a   11.32946714
_cell_length_b   11.32946714
_cell_length_c   30.76659685
_cell_angle_alpha   76.11480176
_cell_angle_beta   76.11480176
_cell_angle_gamma   20.40689844
_symmetry_Int_Tables_number   1
_chemical_formula_structural   Hg(SbS2)4
_chemical_formula_sum   'Hg4 Sb16 S32'
_cell_volume   1335.43084517
_cell_formula_units_Z   4
loop_
 _symmetry_equiv_pos_site_id
 _symmetry_equiv_pos_as_xyz
  1  'x, y, z'
loop_
 _atom_site_type_symbol
 _atom_site_label
 _atom_site_symmetry_multiplicity
 _atom_site_fract_x
 _atom_site_fract_y
 _atom_site_fract_z
 _atom_site_occupancy
  Hg  Hg0  1  0.50000000  0.50000000  0.00000000  1
  Hg  Hg1  1  0.50000000  0.50000000  0.50000000  1
  Hg  Hg2  1  0.00320200  0.99679800  0.25000000  1
  Hg  Hg3  1  0.99679800  0.00320200  0.75000000  1
  Sb  Sb4  1  0.88218700  0.97363200  0.11887400  1
  Sb  Sb5  1  0.02636800  0.11781300  0.38112600  1
  Sb  Sb6  1  0.11781300  0.02636800  0.88112600  1
  Sb  Sb7  1  0.97363200  0.88218700  0.61887400  1
  Sb  Sb8  1  0.73685200  0.83435000  0.04179100  1
  Sb  Sb9  1  0.16565000  0.26314800  0.45820900  1
  Sb  Sb10  1  0.26314800  0.16565000  0.95820900  1
  Sb  Sb11  1  0.83435000  0.73685200  0.54179100  1
  Sb  Sb12  1  0.52363000  0.62138700  0.13119700  1
  Sb  Sb13  1  0.37861300  0.47637000  0.36880300  1
  Sb  Sb14  1  0.47637000  0.37861300  0.86880300  1
  Sb  Sb15  1  0.62138700  0.52363000  0.63119700  1
  Sb  Sb16  1  0.63399100  0.79617000  0.20837600  1
  Sb  Sb17  1  0.20383000  0.36600900  0.29162400  1
  Sb  Sb18  1  0.36600900  0.20383000  0.79162400  1
  Sb  Sb19  1  0.79617000  0.63399100  0.70837600  1
  S  S20  1  0.40919500  0.40876000  0.05982800  1
  S  S21  1  0.59124000  0.59080500  0.44017200  1
  S  S22  1  0.59080500  0.59124000  0.94017200  1
  S  S23  1  0.40876000  0.40919500  0.55982800  1
  S  S24  1  0.78460600  0.84853800  0.22868700  1
  S  S25  1  0.15146200  0.21539400  0.27131300  1
  S  S26  1  0.21539400  0.15146200  0.77131300  1
  S  S27  1  0.84853800  0.78460600  0.72868700  1
  S  S28  1  0.44977900  0.47318000  0.17134700  1
  S  S29  1  0.52682000  0.55022100  0.32865300  1
  S  S30  1  0.55022100  0.52682000  0.82865300  1
  S  S31  1  0.47318000  0.44977900  0.67134700  1
  S  S32  1  0.25644500  0.29667100  0.14868300  1
  S  S33  1  0.70332900  0.74355500  0.35131700  1
  S  S34  1  0.74355500  0.70332900  0.85131700  1
  S  S35  1  0.29667100  0.25644500  0.64868300  1
  S  S36  1  0.08845300  0.09377400  0.19025200  1
  S  S37  1  0.90622600  0.91154700  0.30974800  1
  S  S38  1  0.91154700  0.90622600  0.80974800  1
  S  S39  1  0.09377400  0.08845300  0.69025200  1
  S  S40  1  0.67445400  0.69325200  0.02167500  1
  S  S41  1  0.30674800  0.32554600  0.47832500  1
  S  S42  1  0.32554600  0.30674800  0.97832500  1
  S  S43  1  0.69325200  0.67445400  0.52167500  1
  S  S44  1  0.02753000  0.05020500  0.07867800  1
  S  S45  1  0.94979500  0.97247000  0.42132200  1
  S  S46  1  0.97247000  0.94979500  0.92132200  1
  S  S47  1  0.05020500  0.02753000  0.57867800  1
  S  S48  1  0.23286700  0.21580200  0.10130800  1
  S  S49  1  0.78419800  0.76713300  0.39869200  1
  S  S50  1  0.76713300  0.78419800  0.89869200  1
  S  S51  1  0.21580200  0.23286700  0.60130800  1
