# generated using pymatgen
data_Li3Mn3(PO4)4
_symmetry_space_group_name_H-M   'P 1'
_cell_length_a   8.15786500
_cell_length_b   8.94412089
_cell_length_c   13.20023562
_cell_angle_alpha   84.16998194
_cell_angle_beta   87.58666936
_cell_angle_gamma   88.44686789
_symmetry_Int_Tables_number   1
_chemical_formula_structural   Li3Mn3(PO4)4
_chemical_formula_sum   'Li9 Mn9 P12 O48'
_cell_volume   957.07015146
_cell_formula_units_Z   3
loop_
 _symmetry_equiv_pos_site_id
 _symmetry_equiv_pos_as_xyz
  1  'x, y, z'
loop_
 _atom_site_type_symbol
 _atom_site_label
 _atom_site_symmetry_multiplicity
 _atom_site_fract_x
 _atom_site_fract_y
 _atom_site_fract_z
 _atom_site_occupancy
  Li  Li0  1  0.86622800  0.76663000  0.84398200  1
  Li  Li1  1  0.13302800  0.90465100  0.49256600  1
  Li  Li2  1  0.64044800  0.24662400  0.83866100  1
  Li  Li3  1  0.63538500  0.59175800  0.50599900  1
  Li  Li4  1  0.64370400  0.93206100  0.16564300  1
  Li  Li5  1  0.36402800  0.07775300  0.82585000  1
  Li  Li6  1  0.36295900  0.41468500  0.49906800  1
  Li  Li7  1  0.86788300  0.41948100  0.16624100  1
  Li  Li8  1  0.13057700  0.24289100  0.16288200  1
  Mn  Mn9  1  0.51392300  0.67169900  0.83466400  1
  Mn  Mn10  1  0.48680900  0.99538700  0.49871400  1
  Mn  Mn11  1  0.14821400  0.55914400  0.83176500  1
  Mn  Mn12  1  0.99460700  0.14998400  0.82985900  1
  Mn  Mn13  1  0.00363000  0.51755700  0.50604400  1
  Mn  Mn14  1  0.99547800  0.83862800  0.16671300  1
  Mn  Mn15  1  0.36461800  0.73214200  0.17743500  1
  Mn  Mn16  1  0.84975000  0.10947900  0.50130900  1
  Mn  Mn17  1  0.50696700  0.32174100  0.16150100  1
  P  P18  1  0.19700000  0.85376000  0.94373100  1
  P  P19  1  0.69809000  0.97124900  0.72433500  1
  P  P20  1  0.31458000  0.35378000  0.94929200  1
  P  P21  1  0.30169800  0.69606500  0.60845600  1
  P  P22  1  0.81643100  0.47356100  0.72584400  1
  P  P23  1  0.80634900  0.81372900  0.38937700  1
  P  P24  1  0.18106600  0.19608200  0.60872600  1
  P  P25  1  0.17964100  0.52165700  0.28225500  1
  P  P26  1  0.68396600  0.31360500  0.38208900  1
  P  P27  1  0.69546700  0.63248100  0.05816900  1
  P  P28  1  0.30139500  0.03123700  0.27626400  1
  P  P29  1  0.81881300  0.13915600  0.05286300  1
  O  O30  1  0.87070800  0.97450700  0.76723800  1
  O  O31  1  0.37471600  0.83652000  0.89859900  1
  O  O32  1  0.07874300  0.74514200  0.90378200  1
  O  O33  1  0.70036200  0.67783000  0.94292000  1
  O  O34  1  0.64494900  0.80248100  0.74546600  1
  O  O35  1  0.35343500  0.52711300  0.90810500  1
  O  O36  1  0.35562500  0.86509500  0.58746900  1
  O  O37  1  0.29143500  0.66944700  0.72814600  1
  O  O38  1  0.94022200  0.57613000  0.77126100  1
  O  O39  1  0.29816900  0.99390400  0.39260600  1
  O  O40  1  0.92210100  0.92216700  0.43205600  1
  O  O41  1  0.64309300  0.49587800  0.77510200  1
  O  O42  1  0.13556400  0.35747400  0.90609700  1
  O  O43  1  0.62837300  0.82696300  0.43513600  1
  O  O44  1  0.13013300  0.69373500  0.56393700  1
  O  O45  1  0.42775800  0.24520900  0.90133200  1
  O  O46  1  0.81834200  0.16418100  0.93318000  1
  O  O47  1  0.42377000  0.58571400  0.56757900  1
  O  O48  1  0.81583800  0.51377000  0.60792300  1
  O  O49  1  0.86425200  0.30498000  0.74799000  1
  O  O50  1  0.42399100  0.91950300  0.22680200  1
  O  O51  1  0.80813500  0.84323700  0.27070500  1
  O  O52  1  0.86250900  0.64597700  0.41715400  1
  O  O53  1  0.14438800  0.02073500  0.91597500  1
  O  O54  1  0.86729800  0.96660500  0.07708900  1
  O  O55  1  0.13278500  0.36555200  0.58710900  1
  O  O56  1  0.18081200  0.15530000  0.72624000  1
  O  O57  1  0.57624200  0.08127400  0.76570300  1
  O  O58  1  0.14629700  0.70003700  0.25134200  1
  O  O59  1  0.18434900  0.49900600  0.39935200  1
  O  O60  1  0.57061100  0.42387200  0.42870700  1
  O  O61  1  0.19494100  0.82352700  0.06394800  1
  O  O62  1  0.56984600  0.74290900  0.10859900  1
  O  O63  1  0.86243100  0.31058100  0.42621600  1
  O  O64  1  0.35412100  0.17543900  0.55935000  1
  O  O65  1  0.86040500  0.63929800  0.10809300  1
  O  O66  1  0.36051200  0.51835000  0.23255800  1
  O  O67  1  0.05725900  0.09458100  0.56247200  1
  O  O68  1  0.70574300  0.99894800  0.60429100  1
  O  O69  1  0.06655600  0.42136000  0.23679900  1
  O  O70  1  0.68958900  0.32700100  0.26548400  1
  O  O71  1  0.64450500  0.14075100  0.42472000  1
  O  O72  1  0.63059400  0.46834700  0.07650700  1
  O  O73  1  0.36996000  0.19388400  0.25242900  1
  O  O74  1  0.31039200  0.33854600  0.06612600  1
  O  O75  1  0.93232100  0.24470200  0.09539100  1
  O  O76  1  0.63947900  0.14784100  0.09560500  1
  O  O77  1  0.13361300  0.02594600  0.22901300  1
