# generated using pymatgen
data_Hg9Bi2(AsBr3)4
_symmetry_space_group_name_H-M   'P 1'
_cell_length_a   11.23111700
_cell_length_b   11.23111700
_cell_length_c   29.20922900
_cell_angle_alpha   90.00000000
_cell_angle_beta   90.00000000
_cell_angle_gamma   90.00000000
_symmetry_Int_Tables_number   1
_chemical_formula_structural   Hg9Bi2(AsBr3)4
_chemical_formula_sum   'Hg36 Bi8 As16 Br48'
_cell_volume   3684.39340828
_cell_formula_units_Z   4
loop_
 _symmetry_equiv_pos_site_id
 _symmetry_equiv_pos_as_xyz
  1  'x, y, z'
loop_
 _atom_site_type_symbol
 _atom_site_label
 _atom_site_symmetry_multiplicity
 _atom_site_fract_x
 _atom_site_fract_y
 _atom_site_fract_z
 _atom_site_occupancy
  Hg  Hg0  1  0.83264000  0.53197000  0.99853900  1
  Hg  Hg1  1  0.46803000  0.83264000  0.74853900  1
  Hg  Hg2  1  0.89149400  0.19530500  0.95044300  1
  Hg  Hg3  1  0.42602100  0.24447700  0.88288200  1
  Hg  Hg4  1  0.57444900  0.16588600  0.69905300  1
  Hg  Hg5  1  0.45014600  0.31008500  0.57057500  1
  Hg  Hg6  1  0.02957400  0.89724000  0.89013500  1
  Hg  Hg7  1  0.51051000  0.56041000  0.94422700  1
  Hg  Hg8  1  0.10850600  0.80469500  0.45044300  1
  Hg  Hg9  1  0.73310200  0.86420300  0.95384700  1
  Hg  Hg10  1  0.19530500  0.10850600  0.20044300  1
  Hg  Hg11  1  0.02709100  0.26842100  0.07400700  1
  Hg  Hg12  1  0.97042600  0.10276000  0.39013500  1
  Hg  Hg13  1  0.13579700  0.73310200  0.70384700  1
  Hg  Hg14  1  0.43959000  0.51051000  0.69422700  1
  Hg  Hg15  1  0.83411400  0.57444900  0.44905300  1
  Hg  Hg16  1  0.48949000  0.43959000  0.44422700  1
  Hg  Hg17  1  0.54985400  0.68991500  0.07057500  1
  Hg  Hg18  1  0.56041000  0.48949000  0.19422700  1
  Hg  Hg19  1  0.86420300  0.26689800  0.20384700  1
  Hg  Hg20  1  0.16736000  0.46803000  0.49853900  1
  Hg  Hg21  1  0.89724000  0.97042600  0.14013500  1
  Hg  Hg22  1  0.26842100  0.97290900  0.32400700  1
  Hg  Hg23  1  0.80469500  0.89149400  0.70044300  1
  Hg  Hg24  1  0.42555100  0.83411400  0.19905300  1
  Hg  Hg25  1  0.68991500  0.45014600  0.32057500  1
  Hg  Hg26  1  0.57397900  0.75552300  0.38288200  1
  Hg  Hg27  1  0.75552300  0.42602100  0.63288200  1
  Hg  Hg28  1  0.31008500  0.54985400  0.82057500  1
  Hg  Hg29  1  0.73157900  0.02709100  0.82400700  1
  Hg  Hg30  1  0.24447700  0.57397900  0.13288200  1
  Hg  Hg31  1  0.26689800  0.13579700  0.45384700  1
  Hg  Hg32  1  0.53197000  0.16736000  0.24853900  1
  Hg  Hg33  1  0.97290900  0.73157900  0.57400700  1
  Hg  Hg34  1  0.10276000  0.02957400  0.64013500  1
  Hg  Hg35  1  0.16588600  0.42555100  0.94905300  1
  Bi  Bi36  1  0.77390100  0.13410900  0.50902700  1
  Bi  Bi37  1  0.56845300  0.18705700  0.06299600  1
  Bi  Bi38  1  0.81294300  0.56845300  0.81299600  1
  Bi  Bi39  1  0.18705700  0.43154700  0.31299600  1
  Bi  Bi40  1  0.13410900  0.22609900  0.75902700  1
  Bi  Bi41  1  0.22609900  0.86589100  0.00902700  1
  Bi  Bi42  1  0.43154700  0.81294300  0.56299600  1
  Bi  Bi43  1  0.86589100  0.77390100  0.25902700  1
  As  As44  1  0.32432000  0.65830300  0.74398900  1
  As  As45  1  0.34921500  0.45179500  0.89815900  1
  As  As46  1  0.34169700  0.32432000  0.49398900  1
  As  As47  1  0.63538400  0.98514600  0.74627100  1
  As  As48  1  0.01334300  0.16153200  0.15151100  1
  As  As49  1  0.98514600  0.36461600  0.99627100  1
  As  As50  1  0.65078500  0.54820500  0.39815900  1
  As  As51  1  0.01485400  0.63538400  0.49627100  1
  As  As52  1  0.83846800  0.01334300  0.90151100  1
  As  As53  1  0.45179500  0.65078500  0.14815900  1
  As  As54  1  0.65830300  0.67568000  0.99398900  1
  As  As55  1  0.54820500  0.34921500  0.64815900  1
  As  As56  1  0.67568000  0.34169700  0.24398900  1
  As  As57  1  0.36461600  0.01485400  0.24627100  1
  As  As58  1  0.16153200  0.98665700  0.40151100  1
  As  As59  1  0.98665700  0.83846800  0.65151100  1
  Br  Br60  1  0.79449700  0.10247600  0.60138300  1
  Br  Br61  1  0.23171200  0.79652000  0.89861000  1
  Br  Br62  1  0.04727600  0.47944400  0.76904500  1
  Br  Br63  1  0.38100700  0.30244900  0.34962500  1
  Br  Br64  1  0.61243400  0.70007100  0.27076700  1
  Br  Br65  1  0.76828800  0.20348000  0.39861000  1
  Br  Br66  1  0.89752400  0.79449700  0.35138300  1
  Br  Br67  1  0.20348000  0.23171200  0.64861000  1
  Br  Br68  1  0.39339000  0.70268200  0.47206400  1
  Br  Br69  1  0.30244900  0.61899300  0.59962500  1
  Br  Br70  1  0.69755100  0.38100700  0.09962500  1
  Br  Br71  1  0.61899300  0.69755100  0.84962500  1
  Br  Br72  1  0.20550300  0.89752400  0.10138300  1
  Br  Br73  1  0.52055600  0.04727600  0.51904500  1
  Br  Br74  1  0.90520900  0.16548700  0.72964100  1
  Br  Br75  1  0.29731800  0.39339000  0.22206400  1
  Br  Br76  1  0.16548700  0.09479100  0.97964100  1
  Br  Br77  1  0.70007100  0.38756600  0.52076700  1
  Br  Br78  1  0.58606300  0.06501300  0.14785900  1
  Br  Br79  1  0.06372500  0.20095900  0.29279900  1
  Br  Br80  1  0.41393700  0.93498700  0.64785900  1
  Br  Br81  1  0.51803300  0.97049000  0.37386900  1
  Br  Br82  1  0.28935300  0.65302700  0.33573800  1
  Br  Br83  1  0.60661000  0.29731800  0.97206400  1
  Br  Br84  1  0.00980100  0.21188500  0.50594000  1
  Br  Br85  1  0.99019900  0.78811500  0.00594000  1
  Br  Br86  1  0.93498700  0.58606300  0.89785900  1
  Br  Br87  1  0.09479100  0.83451300  0.22964100  1
  Br  Br88  1  0.78811500  0.00980100  0.25594000  1
  Br  Br89  1  0.65302700  0.71064700  0.58573800  1
  Br  Br90  1  0.95272400  0.52055600  0.26904500  1
  Br  Br91  1  0.34697300  0.28935300  0.08573800  1
  Br  Br92  1  0.93627500  0.79904100  0.79279900  1
  Br  Br93  1  0.29992900  0.61243400  0.02076700  1
  Br  Br94  1  0.21188500  0.99019900  0.75594000  1
  Br  Br95  1  0.79904100  0.06372500  0.04279900  1
  Br  Br96  1  0.71064700  0.34697300  0.83573800  1
  Br  Br97  1  0.38756600  0.29992900  0.77076700  1
  Br  Br98  1  0.10247600  0.20550300  0.85138300  1
  Br  Br99  1  0.97049000  0.48196700  0.62386900  1
  Br  Br100  1  0.47944400  0.95272400  0.01904500  1
  Br  Br101  1  0.02951000  0.51803300  0.12386900  1
  Br  Br102  1  0.79652000  0.76828800  0.14861000  1
  Br  Br103  1  0.48196700  0.02951000  0.87386900  1
  Br  Br104  1  0.06501300  0.41393700  0.39785900  1
  Br  Br105  1  0.70268200  0.60661000  0.72206400  1
  Br  Br106  1  0.20095900  0.93627500  0.54279900  1
  Br  Br107  1  0.83451300  0.90520900  0.47964100  1
