# generated using pymatgen
data_Zr2Ga
_symmetry_space_group_name_H-M   'P 1'
_cell_length_a   5.47842191
_cell_length_b   5.47842191
_cell_length_c   5.47842191
_cell_angle_alpha   104.51493406
_cell_angle_beta   104.51493406
_cell_angle_gamma   119.91636443
_symmetry_Int_Tables_number   1
_chemical_formula_structural   Zr2Ga
_chemical_formula_sum   'Zr4 Ga2'
_cell_volume   123.37010172
_cell_formula_units_Z   2
loop_
 _symmetry_equiv_pos_site_id
 _symmetry_equiv_pos_as_xyz
  1  'x, y, z'
loop_
 _atom_site_type_symbol
 _atom_site_label
 _atom_site_symmetry_multiplicity
 _atom_site_fract_x
 _atom_site_fract_y
 _atom_site_fract_z
 _atom_site_occupancy
  Zr  Zr0  1  0.34593100  0.15406900  0.50000000  1
  Zr  Zr1  1  0.15406900  0.65406900  0.80813700  1
  Zr  Zr2  1  0.65406900  0.84593100  0.50000000  1
  Zr  Zr3  1  0.84593100  0.34593100  0.19186300  1
  Ga  Ga4  1  0.25000000  0.25000000  0.00000000  1
  Ga  Ga5  1  0.75000000  0.75000000  0.00000000  1
