# generated using pymatgen
data_Rb5(CoO2)2
_symmetry_space_group_name_H-M   'P 1'
_cell_length_a   7.07518331
_cell_length_b   9.37825549
_cell_length_c   9.71731688
_cell_angle_alpha   61.69129487
_cell_angle_beta   89.29211496
_cell_angle_gamma   71.25606256
_symmetry_Int_Tables_number   1
_chemical_formula_structural   Rb5(CoO2)2
_chemical_formula_sum   'Rb10 Co4 O8'
_cell_volume   529.91752918
_cell_formula_units_Z   2
loop_
 _symmetry_equiv_pos_site_id
 _symmetry_equiv_pos_as_xyz
  1  'x, y, z'
loop_
 _atom_site_type_symbol
 _atom_site_label
 _atom_site_symmetry_multiplicity
 _atom_site_fract_x
 _atom_site_fract_y
 _atom_site_fract_z
 _atom_site_occupancy
  Rb  Rb0  1  0.90341200  0.83343100  0.77729200  1
  Rb  Rb1  1  0.09658800  0.16656900  0.22270800  1
  Rb  Rb2  1  0.89970100  0.43721700  0.77748300  1
  Rb  Rb3  1  0.10029900  0.56278300  0.22251700  1
  Rb  Rb4  1  0.73092800  0.04984100  0.02407100  1
  Rb  Rb5  1  0.26907200  0.95015900  0.97592900  1
  Rb  Rb6  1  0.38115000  0.35521600  0.63572400  1
  Rb  Rb7  1  0.61885000  0.64478400  0.36427600  1
  Rb  Rb8  1  0.62144500  0.16583500  0.38349000  1
  Rb  Rb9  1  0.37855500  0.83416500  0.61651000  1
  Co  Co10  1  0.61003600  0.58155800  0.02859000  1
  Co  Co11  1  0.38996400  0.41844200  0.97141000  1
  Co  Co12  1  0.98498500  0.79104500  0.42271600  1
  Co  Co13  1  0.01501500  0.20895500  0.57728400  1
  O  O14  1  0.68971100  0.73561100  0.04508400  1
  O  O15  1  0.31028900  0.26438900  0.95491600  1
  O  O16  1  0.22896100  0.20802200  0.47884500  1
  O  O17  1  0.77103900  0.79197800  0.52115500  1
  O  O18  1  0.31956800  0.63993400  0.95163500  1
  O  O19  1  0.68043200  0.36006600  0.04836500  1
  O  O20  1  0.81037400  0.20256900  0.68597900  1
  O  O21  1  0.18962600  0.79743100  0.31402100  1
