# generated using pymatgen
data_EuAl4
_symmetry_space_group_name_H-M   'P 1'
_cell_length_a   6.44031338
_cell_length_b   6.44031338
_cell_length_c   6.44031338
_cell_angle_alpha   140.34735462
_cell_angle_beta   140.34735462
_cell_angle_gamma   57.32626815
_symmetry_Int_Tables_number   1
_chemical_formula_structural   EuAl4
_chemical_formula_sum   'Eu1 Al4'
_cell_volume   107.85519208
_cell_formula_units_Z   1
loop_
 _symmetry_equiv_pos_site_id
 _symmetry_equiv_pos_as_xyz
  1  'x, y, z'
loop_
 _atom_site_type_symbol
 _atom_site_label
 _atom_site_symmetry_multiplicity
 _atom_site_fract_x
 _atom_site_fract_y
 _atom_site_fract_z
 _atom_site_occupancy
  Eu  Eu0  1  0.00000000  0.00000000  0.00000000  1
  Al  Al1  1  0.75000000  0.25000000  0.50000000  1
  Al  Al2  1  0.25000000  0.75000000  0.50000000  1
  Al  Al3  1  0.61361500  0.61361500  0.00000000  1
  Al  Al4  1  0.38638400  0.38638400  0.00000000  1
