# generated using pymatgen
data_TeI4
_symmetry_space_group_name_H-M   'P 1'
_cell_length_a   14.69489100
_cell_length_b   15.21765100
_cell_length_c   17.53049900
_cell_angle_alpha   90.00000000
_cell_angle_beta   90.00000000
_cell_angle_gamma   90.00000000
_symmetry_Int_Tables_number   1
_chemical_formula_structural   TeI4
_chemical_formula_sum   'Te16 I64'
_cell_volume   3920.20038654
_cell_formula_units_Z   16
loop_
 _symmetry_equiv_pos_site_id
 _symmetry_equiv_pos_as_xyz
  1  'x, y, z'
loop_
 _atom_site_type_symbol
 _atom_site_label
 _atom_site_symmetry_multiplicity
 _atom_site_fract_x
 _atom_site_fract_y
 _atom_site_fract_z
 _atom_site_occupancy
  Te  Te0  1  0.13820300  0.32840900  0.88800500  1
  Te  Te1  1  0.13820300  0.32840900  0.61199500  1
  Te  Te2  1  0.13525900  0.06131500  0.75000000  1
  Te  Te3  1  0.64049300  0.90604300  0.75000000  1
  Te  Te4  1  0.36179700  0.82840900  0.38800500  1
  Te  Te5  1  0.35950700  0.09395700  0.25000000  1
  Te  Te6  1  0.36474100  0.56131500  0.25000000  1
  Te  Te7  1  0.14049300  0.59395700  0.75000000  1
  Te  Te8  1  0.86179700  0.67159100  0.11199500  1
  Te  Te9  1  0.86179700  0.67159100  0.38800500  1
  Te  Te10  1  0.63820300  0.17159100  0.88800500  1
  Te  Te11  1  0.85950700  0.40604300  0.25000000  1
  Te  Te12  1  0.63820300  0.17159100  0.61199500  1
  Te  Te13  1  0.63525900  0.43868500  0.75000000  1
  Te  Te14  1  0.36179700  0.82840900  0.11199500  1
  Te  Te15  1  0.86474100  0.93868500  0.25000000  1
  I  I16  1  0.26057400  0.40346400  0.99157500  1
  I  I17  1  0.47975600  0.98715700  0.37612400  1
  I  I18  1  0.76057400  0.09653600  0.50842500  1
  I  I19  1  0.02354200  0.25416200  0.99815100  1
  I  I20  1  0.24585000  0.66544800  0.37490700  1
  I  I21  1  0.73942600  0.59653600  0.00842500  1
  I  I22  1  0.25278800  0.16496300  0.36700900  1
  I  I23  1  0.97645800  0.74583800  0.00184900  1
  I  I24  1  0.97122700  0.01102100  0.36882500  1
  I  I25  1  0.26865500  0.93021400  0.75000000  1
  I  I26  1  0.24282300  0.91212900  0.25000000  1
  I  I27  1  0.52024400  0.01284300  0.87612400  1
  I  I28  1  0.52354200  0.24583800  0.99815100  1
  I  I29  1  0.02877300  0.98897900  0.86882500  1
  I  I30  1  0.47975600  0.98715700  0.12387600  1
  I  I31  1  0.97645800  0.74583800  0.49815100  1
  I  I32  1  0.47122700  0.48897900  0.36882500  1
  I  I33  1  0.75278800  0.33503700  0.36700900  1
  I  I34  1  0.24721200  0.66496300  0.86700900  1
  I  I35  1  0.25415000  0.16544800  0.62509300  1
  I  I36  1  0.23942600  0.90346400  0.49157500  1
  I  I37  1  0.49685500  0.22269200  0.25000000  1
  I  I38  1  0.74585000  0.83455200  0.12509300  1
  I  I39  1  0.97975600  0.51284300  0.37612400  1
  I  I40  1  0.51693400  0.25743200  0.75000000  1
  I  I41  1  0.75415000  0.33455200  0.62509300  1
  I  I42  1  0.01693400  0.24256800  0.75000000  1
  I  I43  1  0.02024400  0.48715700  0.62387600  1
  I  I44  1  0.74282300  0.58787100  0.25000000  1
  I  I45  1  0.76865500  0.56978600  0.75000000  1
  I  I46  1  0.52024400  0.01284300  0.62387600  1
  I  I47  1  0.02877300  0.98897900  0.63117500  1
  I  I48  1  0.98306600  0.75743200  0.25000000  1
  I  I49  1  0.23134500  0.43021400  0.25000000  1
  I  I50  1  0.99685500  0.27730800  0.25000000  1
  I  I51  1  0.50314500  0.77730800  0.75000000  1
  I  I52  1  0.02354200  0.25416200  0.50184900  1
  I  I53  1  0.73134500  0.06978600  0.25000000  1
  I  I54  1  0.75278800  0.33503700  0.13299100  1
  I  I55  1  0.00314500  0.72269200  0.75000000  1
  I  I56  1  0.74721200  0.83503700  0.86700900  1
  I  I57  1  0.52877300  0.51102100  0.86882500  1
  I  I58  1  0.74721200  0.83503700  0.63299100  1
  I  I59  1  0.26057400  0.40346400  0.50842500  1
  I  I60  1  0.74585000  0.83455200  0.37490700  1
  I  I61  1  0.75415000  0.33455200  0.87490700  1
  I  I62  1  0.97122700  0.01102100  0.13117500  1
  I  I63  1  0.23942600  0.90346400  0.00842500  1
  I  I64  1  0.25278800  0.16496300  0.13299100  1
  I  I65  1  0.25415000  0.16544800  0.87490700  1
  I  I66  1  0.73942600  0.59653600  0.49157500  1
  I  I67  1  0.97975600  0.51284300  0.12387600  1
  I  I68  1  0.47645800  0.75416200  0.49815100  1
  I  I69  1  0.02024400  0.48715700  0.87612400  1
  I  I70  1  0.24585000  0.66544800  0.12509300  1
  I  I71  1  0.75717700  0.08787100  0.75000000  1
  I  I72  1  0.47645800  0.75416200  0.00184900  1
  I  I73  1  0.76057400  0.09653600  0.99157500  1
  I  I74  1  0.52354200  0.24583800  0.50184900  1
  I  I75  1  0.47122700  0.48897900  0.13117500  1
  I  I76  1  0.24721200  0.66496300  0.63299100  1
  I  I77  1  0.25717700  0.41212900  0.75000000  1
  I  I78  1  0.52877300  0.51102100  0.63117500  1
  I  I79  1  0.48306600  0.74256800  0.25000000  1
