# generated using pymatgen
data_K2Be(Si2O5)2
_symmetry_space_group_name_H-M   'P 1'
_cell_length_a   9.87571900
_cell_length_b   7.04563700
_cell_length_c   15.22486517
_cell_angle_alpha   66.32289726
_cell_angle_beta   90.00000000
_cell_angle_gamma   90.00000000
_symmetry_Int_Tables_number   1
_chemical_formula_structural   K2Be(Si2O5)2
_chemical_formula_sum   'K8 Be4 Si16 O40'
_cell_volume   970.18389588
_cell_formula_units_Z   4
loop_
 _symmetry_equiv_pos_site_id
 _symmetry_equiv_pos_as_xyz
  1  'x, y, z'
loop_
 _atom_site_type_symbol
 _atom_site_label
 _atom_site_symmetry_multiplicity
 _atom_site_fract_x
 _atom_site_fract_y
 _atom_site_fract_z
 _atom_site_occupancy
  K  K0  1  0.07818400  0.10747600  0.13313000  1
  K  K1  1  0.57818400  0.89252400  0.36687000  1
  K  K2  1  0.12451000  0.13403500  0.40790000  1
  K  K3  1  0.42181600  0.10747600  0.63313000  1
  K  K4  1  0.87549000  0.86596500  0.59210000  1
  K  K5  1  0.37549000  0.13403500  0.90790000  1
  K  K6  1  0.92181600  0.89252400  0.86687000  1
  K  K7  1  0.62451000  0.86596500  0.09210000  1
  Be  Be8  1  0.63556600  0.15073600  0.80476700  1
  Be  Be9  1  0.36443400  0.84926400  0.19523300  1
  Be  Be10  1  0.13556600  0.84926400  0.69523300  1
  Be  Be11  1  0.86443400  0.15073600  0.30476700  1
  Si  Si12  1  0.78361100  0.35213900  0.63005600  1
  Si  Si13  1  0.76538200  0.33379600  0.93329700  1
  Si  Si14  1  0.21638900  0.64786100  0.36994400  1
  Si  Si15  1  0.95154300  0.55846700  0.17058600  1
  Si  Si16  1  0.28361100  0.64786100  0.86994400  1
  Si  Si17  1  0.57401600  0.70330500  0.83377900  1
  Si  Si18  1  0.42598400  0.29669500  0.16622100  1
  Si  Si19  1  0.92598400  0.70330500  0.33377900  1
  Si  Si20  1  0.07401600  0.29669500  0.66622100  1
  Si  Si21  1  0.26538200  0.66620400  0.56670300  1
  Si  Si22  1  0.71638900  0.35213900  0.13005600  1
  Si  Si23  1  0.73461800  0.33379600  0.43329700  1
  Si  Si24  1  0.04845700  0.44153300  0.82941400  1
  Si  Si25  1  0.45154300  0.44153300  0.32941400  1
  Si  Si26  1  0.23461800  0.66620400  0.06670300  1
  Si  Si27  1  0.54845700  0.55846700  0.67058600  1
  O  O28  1  0.92948400  0.33467600  0.91049000  1
  O  O29  1  0.42271200  0.27639000  0.27916200  1
  O  O30  1  0.43385700  0.07486400  0.16253100  1
  O  O31  1  0.06614300  0.07486400  0.66253100  1
  O  O32  1  0.76547700  0.17945500  0.73620500  1
  O  O33  1  0.71319200  0.57689900  0.88543900  1
  O  O34  1  0.42948400  0.66532400  0.58951000  1
  O  O35  1  0.57051600  0.33467600  0.41049000  1
  O  O36  1  0.57728800  0.72361000  0.72083800  1
  O  O37  1  0.44098800  0.55973800  0.88872400  1
  O  O38  1  0.92271200  0.72361000  0.22083800  1
  O  O39  1  0.32040400  0.82477000  0.09557500  1
  O  O40  1  0.25917600  0.74471700  0.44861700  1
  O  O41  1  0.74082400  0.25528300  0.55138300  1
  O  O42  1  0.24082400  0.74471700  0.94861700  1
  O  O43  1  0.67959600  0.17523000  0.90442500  1
  O  O44  1  0.07051600  0.66532400  0.08951000  1
  O  O45  1  0.81217400  0.56245000  0.10748500  1
  O  O46  1  0.82040400  0.17523000  0.40442500  1
  O  O47  1  0.51668200  0.32540800  0.74356600  1
  O  O48  1  0.23452300  0.82054500  0.26379500  1
  O  O49  1  0.48331800  0.67459200  0.25643400  1
  O  O50  1  0.75917600  0.25528300  0.05138300  1
  O  O51  1  0.68782600  0.56245000  0.60748500  1
  O  O52  1  0.31217400  0.43755000  0.39251500  1
  O  O53  1  0.93385700  0.92513600  0.33746900  1
  O  O54  1  0.78680800  0.57689900  0.38543900  1
  O  O55  1  0.94098800  0.44026200  0.61127600  1
  O  O56  1  0.28680800  0.42310100  0.11456100  1
  O  O57  1  0.73452300  0.17945500  0.23620500  1
  O  O58  1  0.55901200  0.44026200  0.11127600  1
  O  O59  1  0.07728800  0.27639000  0.77916200  1
  O  O60  1  0.26547700  0.82054500  0.76379500  1
  O  O61  1  0.98331800  0.32540800  0.24356600  1
  O  O62  1  0.21319200  0.42310100  0.61456100  1
  O  O63  1  0.17959600  0.82477000  0.59557500  1
  O  O64  1  0.05901200  0.55973800  0.38872400  1
  O  O65  1  0.01668200  0.67459200  0.75643400  1
  O  O66  1  0.18782600  0.43755000  0.89251500  1
  O  O67  1  0.56614300  0.92513600  0.83746900  1
