# generated using pymatgen
data_K3AlAs2
_symmetry_space_group_name_H-M   'P 1'
_cell_length_a   9.16589400
_cell_length_b   12.29254856
_cell_length_c   15.69881781
_cell_angle_alpha   72.50435902
_cell_angle_beta   73.06033645
_cell_angle_gamma   71.98349996
_symmetry_Int_Tables_number   1
_chemical_formula_structural   K3AlAs2
_chemical_formula_sum   'K24 Al8 As16'
_cell_volume   1565.43044922
_cell_formula_units_Z   8
loop_
 _symmetry_equiv_pos_site_id
 _symmetry_equiv_pos_as_xyz
  1  'x, y, z'
loop_
 _atom_site_type_symbol
 _atom_site_label
 _atom_site_symmetry_multiplicity
 _atom_site_fract_x
 _atom_site_fract_y
 _atom_site_fract_z
 _atom_site_occupancy
  K  K0  1  0.34408700  0.91738100  0.69139600  1
  K  K1  1  0.65591300  0.08261900  0.30860400  1
  K  K2  1  0.82286000  0.39946500  0.69221500  1
  K  K3  1  0.17714000  0.60053500  0.30778500  1
  K  K4  1  0.80471200  0.76026800  0.68197800  1
  K  K5  1  0.19528800  0.23973200  0.31802200  1
  K  K6  1  0.21897600  0.75171600  0.61670600  1
  K  K7  1  0.78102400  0.24828400  0.38329400  1
  K  K8  1  0.16343800  0.42501600  0.75693800  1
  K  K9  1  0.83656200  0.57498400  0.24306200  1
  K  K10  1  0.98333500  0.10806600  0.58700400  1
  K  K11  1  0.01666500  0.89193400  0.41299600  1
  K  K12  1  0.54124900  0.07856600  0.74472100  1
  K  K13  1  0.45875100  0.92143400  0.25527900  1
  K  K14  1  0.48026500  0.57323400  0.84155900  1
  K  K15  1  0.51973500  0.42676600  0.15844100  1
  K  K16  1  0.02883100  0.09811500  0.85049200  1
  K  K17  1  0.97116900  0.90188500  0.14950800  1
  K  K18  1  0.51307800  0.37616500  0.58466600  1
  K  K19  1  0.48692200  0.62383500  0.41533400  1
  K  K20  1  0.31740900  0.08237700  0.02142000  1
  K  K21  1  0.68259100  0.91762300  0.97858000  1
  K  K22  1  0.81935000  0.62599600  0.97587400  1
  K  K23  1  0.18065000  0.37400400  0.02412600  1
  Al  Al24  1  0.15678800  0.38799800  0.51010400  1
  Al  Al25  1  0.84321200  0.61200200  0.48989600  1
  Al  Al26  1  0.40729600  0.14254700  0.50888300  1
  Al  Al27  1  0.59270400  0.85745300  0.49111700  1
  Al  Al28  1  0.14862400  0.77987500  0.92345400  1
  Al  Al29  1  0.85137600  0.22012500  0.07654600  1
  Al  Al30  1  0.64111600  0.26890000  0.94621400  1
  Al  Al31  1  0.35888400  0.73110000  0.05378600  1
  As  As32  1  0.21880800  0.21905000  0.64516400  1
  As  As33  1  0.78119200  0.78095000  0.35483600  1
  As  As34  1  0.32649000  0.98776500  0.46102300  1
  As  As35  1  0.67351000  0.01223500  0.53897700  1
  As  As36  1  0.58773700  0.66004800  0.60635400  1
  As  As37  1  0.41226300  0.33995200  0.39364600  1
  As  As38  1  0.09383100  0.59103900  0.54088200  1
  As  As39  1  0.90616900  0.40896100  0.45911800  1
  As  As40  1  0.98896400  0.83295500  0.81543600  1
  As  As41  1  0.01103600  0.16704500  0.18456400  1
  As  As42  1  0.48866600  0.29266500  0.84115300  1
  As  As43  1  0.51133400  0.70733500  0.15884700  1
  As  As44  1  0.84647100  0.37013400  0.93078600  1
  As  As45  1  0.15352900  0.62986600  0.06921400  1
  As  As46  1  0.36780000  0.86973300  0.90546300  1
  As  As47  1  0.63220000  0.13026700  0.09453700  1
