# generated using pymatgen
data_BaBiClO2
_symmetry_space_group_name_H-M   'P 1'
_cell_length_a   7.33603537
_cell_length_b   7.33603537
_cell_length_c   5.78393000
_cell_angle_alpha   90.00000000
_cell_angle_beta   90.00000000
_cell_angle_gamma   131.77465084
_symmetry_Int_Tables_number   1
_chemical_formula_structural   BaBiClO2
_chemical_formula_sum   'Ba2 Bi2 Cl2 O4'
_cell_volume   232.14067733
_cell_formula_units_Z   2
loop_
 _symmetry_equiv_pos_site_id
 _symmetry_equiv_pos_as_xyz
  1  'x, y, z'
loop_
 _atom_site_type_symbol
 _atom_site_label
 _atom_site_symmetry_multiplicity
 _atom_site_fract_x
 _atom_site_fract_y
 _atom_site_fract_z
 _atom_site_occupancy
  Ba  Ba0  1  0.61744300  0.38255700  0.75000000  1
  Ba  Ba1  1  0.38255700  0.61744300  0.25000000  1
  Bi  Bi2  1  0.92593200  0.07406800  0.75000000  1
  Bi  Bi3  1  0.07406800  0.92593200  0.25000000  1
  Cl  Cl4  1  0.25414200  0.74585800  0.75000000  1
  Cl  Cl5  1  0.74585800  0.25414200  0.25000000  1
  O  O6  1  0.77237400  0.77237400  0.50000000  1
  O  O7  1  0.22762600  0.22762600  0.50000000  1
  O  O8  1  0.77237400  0.77237400  0.00000000  1
  O  O9  1  0.22762600  0.22762600  0.00000000  1
