# generated using pymatgen
data_K5U2O4F9
_symmetry_space_group_name_H-M   'P 1'
_cell_length_a   10.47210045
_cell_length_b   10.47210045
_cell_length_c   11.71758246
_cell_angle_alpha   78.82069914
_cell_angle_beta   78.82069914
_cell_angle_gamma   34.77241974
_symmetry_Int_Tables_number   1
_chemical_formula_structural   K5U2O4F9
_chemical_formula_sum   'K10 U4 O8 F18'
_cell_volume   717.57937066
_cell_formula_units_Z   2
loop_
 _symmetry_equiv_pos_site_id
 _symmetry_equiv_pos_as_xyz
  1  'x, y, z'
loop_
 _atom_site_type_symbol
 _atom_site_label
 _atom_site_symmetry_multiplicity
 _atom_site_fract_x
 _atom_site_fract_y
 _atom_site_fract_z
 _atom_site_occupancy
  K  K0  1  0.42172900  0.93954800  0.86653500  1
  K  K1  1  0.76961800  0.27573100  0.08107100  1
  K  K2  1  0.23038200  0.72426900  0.91892900  1
  K  K3  1  0.57827100  0.06045200  0.13346500  1
  K  K4  1  0.93954800  0.42172900  0.36653500  1
  K  K5  1  0.72426900  0.23038200  0.41892900  1
  K  K6  1  0.00000000  0.50000000  0.00000000  1
  K  K7  1  0.27573100  0.76961800  0.58107100  1
  K  K8  1  0.06045200  0.57827100  0.63346500  1
  K  K9  1  0.50000000  0.00000000  0.50000000  1
  U  U10  1  0.36988300  0.85532200  0.21558400  1
  U  U11  1  0.63011700  0.14467800  0.78441600  1
  U  U12  1  0.85532200  0.36988300  0.71558400  1
  U  U13  1  0.14467800  0.63011700  0.28441600  1
  O  O14  1  0.33958500  0.37188100  0.85048900  1
  O  O15  1  0.37188100  0.33958500  0.35048900  1
  O  O16  1  0.62811900  0.66041500  0.64951100  1
  O  O17  1  0.07853100  0.08052400  0.28038700  1
  O  O18  1  0.66041500  0.62811900  0.14951100  1
  O  O19  1  0.08052400  0.07853100  0.78038700  1
  O  O20  1  0.92146900  0.91947600  0.71961300  1
  O  O21  1  0.91947600  0.92146900  0.21961300  1
  F  F22  1  0.58815600  0.41184400  0.75000000  1
  F  F23  1  0.76307600  0.10376800  0.93888800  1
  F  F24  1  0.34117900  0.47843800  0.11170900  1
  F  F25  1  0.69768300  0.90843600  0.91831800  1
  F  F26  1  0.41184400  0.58815600  0.25000000  1
  F  F27  1  0.40449900  0.00201600  0.30168600  1
  F  F28  1  0.90843600  0.69768300  0.41831800  1
  F  F29  1  0.09156400  0.30231700  0.58168200  1
  F  F30  1  0.89623200  0.23692400  0.56111200  1
  F  F31  1  0.10376800  0.76307600  0.43888800  1
  F  F32  1  0.47843800  0.34117900  0.61170900  1
  F  F33  1  0.52156200  0.65882100  0.38829100  1
  F  F34  1  0.59550100  0.99798400  0.69831400  1
  F  F35  1  0.30231700  0.09156400  0.08168200  1
  F  F36  1  0.65882100  0.52156200  0.88829100  1
  F  F37  1  0.23692400  0.89623200  0.06111200  1
  F  F38  1  0.99798400  0.59550100  0.19831400  1
  F  F39  1  0.00201600  0.40449900  0.80168600  1
