# generated using pymatgen
data_Sc2V3Si4
_symmetry_space_group_name_H-M   'P 1'
_cell_length_a   6.63056300
_cell_length_b   6.63056300
_cell_length_c   12.27286300
_cell_angle_alpha   90.00000000
_cell_angle_beta   90.00000000
_cell_angle_gamma   90.00000000
_symmetry_Int_Tables_number   1
_chemical_formula_structural   Sc2V3Si4
_chemical_formula_sum   'Sc8 V12 Si16'
_cell_volume   539.56863708
_cell_formula_units_Z   4
loop_
 _symmetry_equiv_pos_site_id
 _symmetry_equiv_pos_as_xyz
  1  'x, y, z'
loop_
 _atom_site_type_symbol
 _atom_site_label
 _atom_site_symmetry_multiplicity
 _atom_site_fract_x
 _atom_site_fract_y
 _atom_site_fract_z
 _atom_site_occupancy
  Sc  Sc0  1  0.00170500  0.66227600  0.03034600  1
  Sc  Sc1  1  0.83772400  0.50170500  0.28034600  1
  Sc  Sc2  1  0.16227600  0.49829500  0.78034600  1
  Sc  Sc3  1  0.50170500  0.83772400  0.71965400  1
  Sc  Sc4  1  0.49829500  0.16227600  0.21965400  1
  Sc  Sc5  1  0.99829500  0.33772400  0.53034600  1
  Sc  Sc6  1  0.66227600  0.00170500  0.96965400  1
  Sc  Sc7  1  0.33772400  0.99829500  0.46965400  1
  V  V8  1  0.33162800  0.33162800  0.00000000  1
  V  V9  1  0.16837200  0.83162800  0.25000000  1
  V  V10  1  0.83162800  0.16837200  0.75000000  1
  V  V11  1  0.66837200  0.66837200  0.50000000  1
  V  V12  1  0.00758300  0.15647300  0.12685000  1
  V  V13  1  0.34352700  0.50758300  0.37685000  1
  V  V14  1  0.65647300  0.49241700  0.87685000  1
  V  V15  1  0.50758300  0.34352700  0.62315000  1
  V  V16  1  0.49241700  0.65647300  0.12315000  1
  V  V17  1  0.99241700  0.84352700  0.62685000  1
  V  V18  1  0.15647300  0.00758300  0.87315000  1
  V  V19  1  0.84352700  0.99241700  0.37315000  1
  Si  Si20  1  0.29419600  0.95984700  0.06435400  1
  Si  Si21  1  0.54015300  0.79419600  0.31435400  1
  Si  Si22  1  0.45984700  0.20580400  0.81435400  1
  Si  Si23  1  0.79419600  0.54015300  0.68564600  1
  Si  Si24  1  0.20580400  0.45984700  0.18564600  1
  Si  Si25  1  0.70580400  0.04015300  0.56435400  1
  Si  Si26  1  0.95984700  0.29419600  0.93564600  1
  Si  Si27  1  0.04015300  0.70580400  0.43564600  1
  Si  Si28  1  0.70357600  0.36937700  0.07008400  1
  Si  Si29  1  0.13062300  0.20357600  0.32008400  1
  Si  Si30  1  0.86937700  0.79642400  0.82008400  1
  Si  Si31  1  0.20357600  0.13062300  0.67991600  1
  Si  Si32  1  0.79642400  0.86937700  0.17991600  1
  Si  Si33  1  0.29642400  0.63062300  0.57008400  1
  Si  Si34  1  0.36937700  0.70357600  0.92991600  1
  Si  Si35  1  0.63062300  0.29642400  0.42991600  1
