# generated using pymatgen
data_Li2U3V2O15
_symmetry_space_group_name_H-M   'P 1'
_cell_length_a   13.55405316
_cell_length_b   13.55405316
_cell_length_c   13.55405316
_cell_angle_alpha   148.10310399
_cell_angle_beta   148.10310399
_cell_angle_gamma   45.73318653
_symmetry_Int_Tables_number   1
_chemical_formula_structural   Li2U3V2O15
_chemical_formula_sum   'Li4 U6 V4 O30'
_cell_volume   692.89514430
_cell_formula_units_Z   2
loop_
 _symmetry_equiv_pos_site_id
 _symmetry_equiv_pos_as_xyz
  1  'x, y, z'
loop_
 _atom_site_type_symbol
 _atom_site_label
 _atom_site_symmetry_multiplicity
 _atom_site_fract_x
 _atom_site_fract_y
 _atom_site_fract_z
 _atom_site_occupancy
  Li  Li0  1  0.34437100  0.34437100  0.00000000  1
  Li  Li1  1  0.40562900  0.90562900  0.50000000  1
  Li  Li2  1  0.09437100  0.59437100  0.50000000  1
  Li  Li3  1  0.65562900  0.65562900  0.00000000  1
  U  U4  1  0.91500400  0.91500400  0.00000000  1
  U  U5  1  0.83499600  0.33499600  0.50000000  1
  U  U6  1  0.08499600  0.08499600  0.00000000  1
  U  U7  1  0.66500400  0.16500400  0.50000000  1
  U  U8  1  0.50000000  0.50000000  0.00000000  1
  U  U9  1  0.25000000  0.75000000  0.50000000  1
  V  V10  1  0.78227300  0.78227300  0.00000000  1
  V  V11  1  0.96772700  0.46772700  0.50000000  1
  V  V12  1  0.53227300  0.03227300  0.50000000  1
  V  V13  1  0.21772700  0.21772700  0.00000000  1
  O  O14  1  0.92225800  0.59982800  0.67756900  1
  O  O15  1  0.08685000  0.84112200  0.75427200  1
  O  O16  1  0.17637200  0.67637200  0.50000000  1
  O  O17  1  0.59112200  0.33685000  0.25427200  1
  O  O18  1  0.49336800  0.79962400  0.30625600  1
  O  O19  1  0.99468900  0.17225800  0.82243100  1
  O  O20  1  0.66742300  0.91315000  0.75427200  1
  O  O21  1  0.15887800  0.91315000  0.24572800  1
  O  O22  1  0.32362800  0.82362800  0.50000000  1
  O  O23  1  0.92225800  0.24468900  0.32243100  1
  O  O24  1  0.82774200  0.00531100  0.17756900  1
  O  O25  1  0.40017200  0.07774200  0.32243100  1
  O  O26  1  0.66315000  0.91742300  0.25427200  1
  O  O27  1  0.54962400  0.74336800  0.80625600  1
  O  O28  1  0.66315000  0.40887800  0.74572800  1
  O  O29  1  0.08685000  0.33257700  0.24572800  1
  O  O30  1  0.20037600  0.50663200  0.69374400  1
  O  O31  1  0.57362800  0.57362800  0.00000000  1
  O  O32  1  0.08257700  0.33685000  0.74572800  1
  O  O33  1  0.75000000  0.25000000  0.50000000  1
  O  O34  1  0.81288800  0.50663200  0.30625600  1
  O  O35  1  0.34982800  0.17225800  0.17756900  1
  O  O36  1  0.75531100  0.07774200  0.67756900  1
  O  O37  1  0.25663200  0.06288800  0.80625600  1
  O  O38  1  0.93711200  0.74336800  0.19374400  1
  O  O39  1  0.49336800  0.18711200  0.69374400  1
  O  O40  1  0.82774200  0.65017200  0.82243100  1
  O  O41  1  0.25663200  0.45037600  0.19374400  1
  O  O42  1  0.00000000  0.00000000  0.00000000  1
  O  O43  1  0.42637200  0.42637200  0.00000000  1
