# generated using pymatgen
data_K2SrP2O7
_symmetry_space_group_name_H-M   'P 1'
_cell_length_a   5.79651500
_cell_length_b   9.28772200
_cell_length_c   14.94606584
_cell_angle_alpha   74.15816140
_cell_angle_beta   90.00000000
_cell_angle_gamma   90.00000000
_symmetry_Int_Tables_number   1
_chemical_formula_structural   K2SrP2O7
_chemical_formula_sum   'K8 Sr4 P8 O28'
_cell_volume   774.08147206
_cell_formula_units_Z   4
loop_
 _symmetry_equiv_pos_site_id
 _symmetry_equiv_pos_as_xyz
  1  'x, y, z'
loop_
 _atom_site_type_symbol
 _atom_site_label
 _atom_site_symmetry_multiplicity
 _atom_site_fract_x
 _atom_site_fract_y
 _atom_site_fract_z
 _atom_site_occupancy
  K  K0  1  0.73820900  0.53429800  0.16368100  1
  K  K1  1  0.26638700  0.03181700  0.38650500  1
  K  K2  1  0.73361300  0.96818300  0.61349500  1
  K  K3  1  0.23820900  0.46570200  0.33631900  1
  K  K4  1  0.26179100  0.46570200  0.83631900  1
  K  K5  1  0.76638700  0.96818300  0.11349500  1
  K  K6  1  0.23361300  0.03181700  0.88650500  1
  K  K7  1  0.76179100  0.53429800  0.66368100  1
  Sr  Sr8  1  0.27368900  0.26321700  0.13249000  1
  Sr  Sr9  1  0.22631100  0.26321700  0.63249000  1
  Sr  Sr10  1  0.77368900  0.73678300  0.36751000  1
  Sr  Sr11  1  0.72631100  0.73678300  0.86751000  1
  P  P12  1  0.80006100  0.30878600  0.96564500  1
  P  P13  1  0.73116400  0.18107500  0.80618300  1
  P  P14  1  0.69993900  0.30878600  0.46564500  1
  P  P15  1  0.23116400  0.81892500  0.69381700  1
  P  P16  1  0.76883600  0.18107500  0.30618300  1
  P  P17  1  0.30006100  0.69121400  0.53435500  1
  P  P18  1  0.26883600  0.81892500  0.19381700  1
  P  P19  1  0.19993900  0.69121400  0.03435500  1
  O  O20  1  0.51946300  0.26564900  0.75694100  1
  O  O21  1  0.01946300  0.73435100  0.74305900  1
  O  O22  1  0.55480500  0.73423700  0.51303800  1
  O  O23  1  0.72825700  0.01390800  0.81281000  1
  O  O24  1  0.27174300  0.98609200  0.18719000  1
  O  O25  1  0.44519500  0.26576300  0.48696200  1
  O  O26  1  0.96102800  0.25803300  0.77175500  1
  O  O27  1  0.15541100  0.71713400  0.44582500  1
  O  O28  1  0.22825700  0.98609200  0.68719000  1
  O  O29  1  0.48053700  0.73435100  0.24305900  1
  O  O30  1  0.03897200  0.74196700  0.22824500  1
  O  O31  1  0.84458900  0.28286600  0.55417500  1
  O  O32  1  0.23454400  0.53871200  0.10468800  1
  O  O33  1  0.46102800  0.74196700  0.72824500  1
  O  O34  1  0.94519500  0.73423700  0.01303800  1
  O  O35  1  0.65541100  0.28286600  0.05417500  1
  O  O36  1  0.34458900  0.71713400  0.94582500  1
  O  O37  1  0.73454400  0.46128800  0.39531200  1
  O  O38  1  0.53897200  0.25803300  0.27175500  1
  O  O39  1  0.05480500  0.26576300  0.98696200  1
  O  O40  1  0.77174300  0.01390800  0.31281000  1
  O  O41  1  0.76545600  0.46128800  0.89531200  1
  O  O42  1  0.98053700  0.26564900  0.25694100  1
  O  O43  1  0.69955000  0.18053500  0.91702300  1
  O  O44  1  0.26545600  0.53871200  0.60468800  1
  O  O45  1  0.30045000  0.81946500  0.08297700  1
  O  O46  1  0.19955000  0.81946500  0.58297700  1
  O  O47  1  0.80045000  0.18053500  0.41702300  1
