# generated using pymatgen
data_Ho2Fe14C
_symmetry_space_group_name_H-M   'P 1'
_cell_length_a   8.71613900
_cell_length_b   8.71613900
_cell_length_c   11.69078400
_cell_angle_alpha   90.00000000
_cell_angle_beta   90.00000000
_cell_angle_gamma   90.00000000
_symmetry_Int_Tables_number   1
_chemical_formula_structural   Ho2Fe14C
_chemical_formula_sum   'Ho8 Fe56 C4'
_cell_volume   888.16147562
_cell_formula_units_Z   4
loop_
 _symmetry_equiv_pos_site_id
 _symmetry_equiv_pos_as_xyz
  1  'x, y, z'
loop_
 _atom_site_type_symbol
 _atom_site_label
 _atom_site_symmetry_multiplicity
 _atom_site_fract_x
 _atom_site_fract_y
 _atom_site_fract_z
 _atom_site_occupancy
  Ho  Ho0  1  0.24096300  0.75903700  0.50000000  1
  Ho  Ho1  1  0.14404700  0.85595300  0.00000000  1
  Ho  Ho2  1  0.75903700  0.24096300  0.50000000  1
  Ho  Ho3  1  0.85595300  0.14404700  0.00000000  1
  Ho  Ho4  1  0.25903700  0.25903700  0.00000000  1
  Ho  Ho5  1  0.35595300  0.35595300  0.50000000  1
  Ho  Ho6  1  0.74096300  0.74096300  0.00000000  1
  Ho  Ho7  1  0.64404700  0.64404700  0.50000000  1
  Fe  Fe8  1  0.90304400  0.90304400  0.20326900  1
  Fe  Fe9  1  0.93585200  0.72540600  0.37970400  1
  Fe  Fe10  1  0.72540600  0.93585200  0.37970400  1
  Fe  Fe11  1  0.31570500  0.31570500  0.75471600  1
  Fe  Fe12  1  0.43585200  0.77459400  0.87970400  1
  Fe  Fe13  1  0.59695600  0.40304400  0.70326900  1
  Fe  Fe14  1  0.27459400  0.06414800  0.62029600  1
  Fe  Fe15  1  0.56414800  0.22540600  0.87970400  1
  Fe  Fe16  1  0.96444700  0.64221600  0.17515400  1
  Fe  Fe17  1  0.00000000  0.50000000  0.00000000  1
  Fe  Fe18  1  0.96444700  0.64221600  0.82484600  1
  Fe  Fe19  1  0.22540600  0.56414800  0.12029600  1
  Fe  Fe20  1  0.68429500  0.68429500  0.75471600  1
  Fe  Fe21  1  0.22540600  0.56414800  0.87970400  1
  Fe  Fe22  1  0.64221600  0.96444700  0.17515400  1
  Fe  Fe23  1  0.50000000  0.50000000  0.10805600  1
  Fe  Fe24  1  0.50000000  0.00000000  0.00000000  1
  Fe  Fe25  1  0.40304400  0.59695600  0.29673100  1
  Fe  Fe26  1  0.18429500  0.81570500  0.25471600  1
  Fe  Fe27  1  0.53555300  0.14221600  0.32484600  1
  Fe  Fe28  1  0.09695600  0.09695600  0.79673100  1
  Fe  Fe29  1  0.06414800  0.27459400  0.62029600  1
  Fe  Fe30  1  0.31570500  0.31570500  0.24528400  1
  Fe  Fe31  1  0.81570500  0.18429500  0.25471600  1
  Fe  Fe32  1  0.14221600  0.53555300  0.67515400  1
  Fe  Fe33  1  0.46444700  0.85778400  0.67515400  1
  Fe  Fe34  1  0.18429500  0.81570500  0.74528400  1
  Fe  Fe35  1  0.68429500  0.68429500  0.24528400  1
  Fe  Fe36  1  0.53555300  0.14221600  0.67515400  1
  Fe  Fe37  1  0.72540600  0.93585200  0.62029600  1
  Fe  Fe38  1  0.35778400  0.03555300  0.17515400  1
  Fe  Fe39  1  0.00000000  0.50000000  0.50000000  1
  Fe  Fe40  1  0.27459400  0.06414800  0.37970400  1
  Fe  Fe41  1  0.03555300  0.35778400  0.17515400  1
  Fe  Fe42  1  0.93585200  0.72540600  0.62029600  1
  Fe  Fe43  1  0.50000000  0.50000000  0.89194400  1
  Fe  Fe44  1  0.59695600  0.40304400  0.29673100  1
  Fe  Fe45  1  0.14221600  0.53555300  0.32484600  1
  Fe  Fe46  1  0.43585200  0.77459400  0.12029600  1
  Fe  Fe47  1  0.40304400  0.59695600  0.70326900  1
  Fe  Fe48  1  0.00000000  0.00000000  0.60805600  1
  Fe  Fe49  1  0.06414800  0.27459400  0.37970400  1
  Fe  Fe50  1  0.09695600  0.09695600  0.20326900  1
  Fe  Fe51  1  0.85778400  0.46444700  0.32484600  1
  Fe  Fe52  1  0.03555300  0.35778400  0.82484600  1
  Fe  Fe53  1  0.77459400  0.43585200  0.87970400  1
  Fe  Fe54  1  0.56414800  0.22540600  0.12029600  1
  Fe  Fe55  1  0.00000000  0.00000000  0.39194400  1
  Fe  Fe56  1  0.64221600  0.96444700  0.82484600  1
  Fe  Fe57  1  0.81570500  0.18429500  0.74528400  1
  Fe  Fe58  1  0.85778400  0.46444700  0.67515400  1
  Fe  Fe59  1  0.90304400  0.90304400  0.79673100  1
  Fe  Fe60  1  0.50000000  0.00000000  0.50000000  1
  Fe  Fe61  1  0.77459400  0.43585200  0.12029600  1
  Fe  Fe62  1  0.35778400  0.03555300  0.82484600  1
  Fe  Fe63  1  0.46444700  0.85778400  0.32484600  1
  C  C64  1  0.37255600  0.62744400  0.00000000  1
  C  C65  1  0.12744400  0.12744400  0.50000000  1
  C  C66  1  0.87255600  0.87255600  0.50000000  1
  C  C67  1  0.62744400  0.37255600  0.00000000  1
