# generated using pymatgen
data_Y2Si2O7
_symmetry_space_group_name_H-M   'P 1'
_cell_length_a   6.65763100
_cell_length_b   6.70696151
_cell_length_c   36.36485839
_cell_angle_alpha   94.47325077
_cell_angle_beta   91.30608856
_cell_angle_gamma   91.76651547
_symmetry_Int_Tables_number   1
_chemical_formula_structural   Y2Si2O7
_chemical_formula_sum   'Y24 Si24 O84'
_cell_volume   1617.54789616
_cell_formula_units_Z   12
loop_
 _symmetry_equiv_pos_site_id
 _symmetry_equiv_pos_as_xyz
  1  'x, y, z'
loop_
 _atom_site_type_symbol
 _atom_site_label
 _atom_site_symmetry_multiplicity
 _atom_site_fract_x
 _atom_site_fract_y
 _atom_site_fract_z
 _atom_site_occupancy
  Y  Y0  1  0.62216400  0.29989100  0.95516300  1
  Y  Y1  1  0.90701500  0.17886800  0.79255200  1
  Y  Y2  1  0.34954000  0.32950100  0.20129600  1
  Y  Y3  1  0.31435900  0.84236400  0.36955600  1
  Y  Y4  1  0.88248700  0.39789500  0.04859400  1
  Y  Y5  1  0.68564100  0.15763600  0.63044400  1
  Y  Y6  1  0.95332600  0.15622600  0.12867100  1
  Y  Y7  1  0.38158500  0.79057700  0.69651000  1
  Y  Y8  1  0.11751300  0.60210500  0.95140600  1
  Y  Y9  1  0.62362600  0.80925300  0.45429700  1
  Y  Y10  1  0.11725300  0.10969700  0.45199500  1
  Y  Y11  1  0.09298500  0.82113200  0.20744800  1
  Y  Y12  1  0.65046000  0.67049900  0.79870400  1
  Y  Y13  1  0.88274700  0.89030300  0.54800500  1
  Y  Y14  1  0.04885900  0.33147800  0.70630500  1
  Y  Y15  1  0.04667400  0.84377400  0.87132900  1
  Y  Y16  1  0.95014800  0.66433800  0.63058300  1
  Y  Y17  1  0.37783600  0.70010900  0.04483700  1
  Y  Y18  1  0.68002800  0.66514300  0.13301100  1
  Y  Y19  1  0.31997200  0.33485700  0.86698900  1
  Y  Y20  1  0.61841500  0.20942300  0.30349000  1
  Y  Y21  1  0.04985200  0.33566200  0.36941700  1
  Y  Y22  1  0.95114100  0.66852200  0.29369500  1
  Y  Y23  1  0.37637400  0.19074700  0.54570300  1
  Si  Si24  1  0.15748100  0.65598800  0.79079300  1
  Si  Si25  1  0.45787300  0.67639400  0.27664000  1
  Si  Si26  1  0.15178500  0.15349300  0.29007100  1
  Si  Si27  1  0.13392500  0.63811900  0.45942400  1
  Si  Si28  1  0.84821500  0.84650700  0.70992900  1
  Si  Si29  1  0.49138700  0.15291100  0.10752200  1
  Si  Si30  1  0.40104500  0.04293500  0.77822600  1
  Si  Si31  1  0.37592600  0.21670200  0.03144900  1
  Si  Si32  1  0.62561900  0.28951200  0.46928600  1
  Si  Si33  1  0.16080200  0.13691500  0.63054900  1
  Si  Si34  1  0.13721200  0.13586300  0.95974000  1
  Si  Si35  1  0.62407400  0.78329800  0.96855100  1
  Si  Si36  1  0.49593200  0.64654600  0.60607700  1
  Si  Si37  1  0.50406800  0.35345400  0.39392300  1
  Si  Si38  1  0.86278800  0.86413700  0.04026000  1
  Si  Si39  1  0.84195100  0.36069100  0.87141300  1
  Si  Si40  1  0.37438100  0.71048800  0.53071400  1
  Si  Si41  1  0.54212700  0.32360600  0.72336000  1
  Si  Si42  1  0.83919800  0.86308500  0.36945100  1
  Si  Si43  1  0.59895500  0.95706500  0.22177400  1
  Si  Si44  1  0.84251900  0.34401200  0.20920700  1
  Si  Si45  1  0.86607500  0.36188100  0.54057600  1
  Si  Si46  1  0.15804900  0.63930900  0.12858700  1
  Si  Si47  1  0.50861300  0.84708900  0.89247800  1
  O  O48  1  0.32499900  0.25400200  0.26612200  1
  O  O49  1  0.41858100  0.67156300  0.98185400  1
  O  O50  1  0.29631900  0.71252000  0.30915600  1
  O  O51  1  0.22277500  0.06557500  0.67077400  1
  O  O52  1  0.40917200  0.54873300  0.56286100  1
  O  O53  1  0.58141900  0.32843700  0.01814600  1
  O  O54  1  0.04660500  0.21637100  0.52534600  1
  O  O55  1  0.38492200  0.99227700  0.20177000  1
  O  O56  1  0.61507800  0.00772300  0.79823000  1
  O  O57  1  0.93560100  0.56866300  0.56428700  1
  O  O58  1  0.77432700  0.60713000  0.95649400  1
  O  O59  1  0.01457100  0.33065600  0.64041000  1
  O  O60  1  0.02047000  0.19869700  0.19221400  1
  O  O61  1  0.30584000  0.59829500  0.82493100  1
  O  O62  1  0.94175500  0.53475600  0.23390000  1
  O  O63  1  0.72656400  0.42677700  0.50485100  1
  O  O64  1  0.30642900  0.80394100  0.76657800  1
  O  O65  1  0.36472700  0.46333300  0.70884700  1
  O  O66  1  0.28093100  0.07705300  0.99545400  1
  O  O67  1  0.99145100  0.47829600  0.10815300  1
  O  O68  1  0.70311300  0.80250700  0.86791400  1
  O  O69  1  0.58926800  0.94456400  0.93651200  1
  O  O70  1  0.35511600  0.00376200  0.87563400  1
  O  O71  1  0.27181700  0.11540600  0.32984800  1
  O  O72  1  0.98542900  0.66934400  0.35959000  1
  O  O73  1  0.57863200  0.82317700  0.51710400  1
  O  O74  1  0.62906900  0.84355300  0.59544800  1
  O  O75  1  0.25324100  0.17073700  0.80437900  1
  O  O76  1  0.97953000  0.80130300  0.80778600  1
  O  O77  1  0.77438700  0.11377400  0.45619300  1
  O  O78  1  0.29688700  0.19749300  0.13208600  1
  O  O79  1  0.95497600  0.27934000  0.97465900  1
  O  O80  1  0.72818300  0.88459400  0.67015200  1
  O  O81  1  0.37093100  0.15644700  0.40455200  1
  O  O82  1  0.74675900  0.82926300  0.19562100  1
  O  O83  1  0.71945100  0.70723400  0.06232300  1
  O  O84  1  0.64488400  0.99623800  0.12436600  1
  O  O85  1  0.35316700  0.61907200  0.23645500  1
  O  O86  1  0.67500100  0.74599800  0.73387800  1
  O  O87  1  0.02598500  0.68890300  0.69494800  1
  O  O88  1  0.64544600  0.31037000  0.89486500  1
  O  O89  1  0.01239300  0.83029000  0.13904500  1
  O  O90  1  0.70368100  0.28748000  0.69084400  1
  O  O91  1  0.64384200  0.81282800  0.39346200  1
  O  O92  1  0.63024200  0.34815600  0.09774100  1
  O  O93  1  0.06439900  0.43133700  0.43571300  1
  O  O94  1  0.42136800  0.17682300  0.48289600  1
  O  O95  1  0.28054900  0.29276600  0.93767700  1
  O  O96  1  0.36975800  0.65184400  0.90225900  1
  O  O97  1  0.35455400  0.68963000  0.10513500  1
  O  O98  1  0.22567300  0.39287000  0.04350600  1
  O  O99  1  0.69357100  0.19605900  0.23342200  1
  O  O100  1  0.22561300  0.88622600  0.54380700  1
  O  O101  1  0.97401500  0.31109700  0.30505200  1
  O  O102  1  0.27343600  0.57322300  0.49514900  1
  O  O103  1  0.77209000  0.42587700  0.83122000  1
  O  O104  1  0.95339500  0.78362900  0.47465400  1
  O  O105  1  0.69416000  0.40170500  0.17506900  1
  O  O106  1  0.06839500  0.92737100  0.93652700  1
  O  O107  1  0.64683300  0.38092800  0.76354500  1
  O  O108  1  0.22791000  0.57412300  0.16878000  1
  O  O109  1  0.69135300  0.30964100  0.36687200  1
  O  O110  1  0.65178200  0.49344300  0.62288600  1
  O  O111  1  0.58157100  0.89396400  0.26559000  1
  O  O112  1  0.41842900  0.10603600  0.73441000  1
  O  O113  1  0.04846400  0.95367400  0.26673400  1
  O  O114  1  0.99613000  0.97967800  0.60776900  1
  O  O115  1  0.63527300  0.53666700  0.29115300  1
  O  O116  1  0.95153600  0.04632600  0.73326600  1
  O  O117  1  0.93160500  0.07262900  0.06347300  1
  O  O118  1  0.98760700  0.16971000  0.86095500  1
  O  O119  1  0.04502400  0.72066000  0.02534100  1
  O  O120  1  0.00854900  0.52170400  0.89184700  1
  O  O121  1  0.34821800  0.50655700  0.37711400  1
  O  O122  1  0.71980700  0.20263900  0.56164800  1
  O  O123  1  0.41073200  0.05543600  0.06348800  1
  O  O124  1  0.30864700  0.69035900  0.63312800  1
  O  O125  1  0.59082800  0.45126700  0.43713900  1
  O  O126  1  0.35615800  0.18717200  0.60653800  1
  O  O127  1  0.00387000  0.02032200  0.39223100  1
  O  O128  1  0.71906900  0.92294700  0.00454600  1
  O  O129  1  0.05824500  0.46524400  0.76610000  1
  O  O130  1  0.28019300  0.79736100  0.43835200  1
  O  O131  1  0.77722500  0.93442500  0.32922600  1
