# generated using pymatgen
data_Na3Nd14(RuO6)6
_symmetry_space_group_name_H-M   'P 1'
_cell_length_a   19.51995353
_cell_length_b   19.51995353
_cell_length_c   19.51995354
_cell_angle_alpha   29.03823655
_cell_angle_beta   29.03823655
_cell_angle_gamma   29.03823859
_symmetry_Int_Tables_number   1
_chemical_formula_structural   Na3Nd14(RuO6)6
_chemical_formula_sum   'Na6 Nd28 Ru12 O72'
_cell_volume   1550.03206909
_cell_formula_units_Z   2
loop_
 _symmetry_equiv_pos_site_id
 _symmetry_equiv_pos_as_xyz
  1  'x, y, z'
loop_
 _atom_site_type_symbol
 _atom_site_label
 _atom_site_symmetry_multiplicity
 _atom_site_fract_x
 _atom_site_fract_y
 _atom_site_fract_z
 _atom_site_occupancy
  Na  Na0  1  0.55320600  0.55320600  0.55320600  1
  Na  Na1  1  0.75000000  0.75000000  0.75000000  1
  Na  Na2  1  0.44679400  0.44679400  0.44679400  1
  Na  Na3  1  0.05320600  0.05320600  0.05320600  1
  Na  Na4  1  0.25000000  0.25000000  0.25000000  1
  Na  Na5  1  0.94679400  0.94679400  0.94679400  1
  Nd  Nd6  1  0.04086900  0.69760500  0.31925000  1
  Nd  Nd7  1  0.60782600  0.60782600  0.60782600  1
  Nd  Nd8  1  0.81925000  0.19760500  0.54086900  1
  Nd  Nd9  1  0.99898700  0.57056500  0.28014000  1
  Nd  Nd10  1  0.50101300  0.21986000  0.92943500  1
  Nd  Nd11  1  0.00101300  0.42943500  0.71986000  1
  Nd  Nd12  1  0.54086900  0.81925000  0.19760500  1
  Nd  Nd13  1  0.42943500  0.71986000  0.00101300  1
  Nd  Nd14  1  0.78014000  0.07056500  0.49898700  1
  Nd  Nd15  1  0.80239500  0.45913100  0.18075000  1
  Nd  Nd16  1  0.30239500  0.68075000  0.95913100  1
  Nd  Nd17  1  0.07056500  0.49898700  0.78014000  1
  Nd  Nd18  1  0.21986000  0.92943500  0.50101300  1
  Nd  Nd19  1  0.57056500  0.28014000  0.99898700  1
  Nd  Nd20  1  0.68075000  0.95913100  0.30239500  1
  Nd  Nd21  1  0.45913100  0.18075000  0.80239500  1
  Nd  Nd22  1  0.10782600  0.10782600  0.10782600  1
  Nd  Nd23  1  0.69760500  0.31925000  0.04086900  1
  Nd  Nd24  1  0.49898700  0.78014000  0.07056500  1
  Nd  Nd25  1  0.89217400  0.89217400  0.89217400  1
  Nd  Nd26  1  0.92943500  0.50101300  0.21986000  1
  Nd  Nd27  1  0.95913100  0.30239500  0.68075000  1
  Nd  Nd28  1  0.31925000  0.04086900  0.69760500  1
  Nd  Nd29  1  0.19760500  0.54086900  0.81925000  1
  Nd  Nd30  1  0.18075000  0.80239500  0.45913100  1
  Nd  Nd31  1  0.28014000  0.99898700  0.57056500  1
  Nd  Nd32  1  0.71986000  0.00101300  0.42943500  1
  Nd  Nd33  1  0.39217400  0.39217400  0.39217400  1
  Ru  Ru34  1  0.08280000  0.75000000  0.41720000  1
  Ru  Ru35  1  0.58280000  0.91720000  0.25000000  1
  Ru  Ru36  1  0.25000000  0.58280000  0.91720000  1
  Ru  Ru37  1  0.66231400  0.66231400  0.66231400  1
  Ru  Ru38  1  0.00000000  0.00000000  0.00000000  1
  Ru  Ru39  1  0.41720000  0.08280000  0.75000000  1
  Ru  Ru40  1  0.16231400  0.16231400  0.16231400  1
  Ru  Ru41  1  0.50000000  0.50000000  0.50000000  1
  Ru  Ru42  1  0.83768600  0.83768600  0.83768600  1
  Ru  Ru43  1  0.33768600  0.33768600  0.33768600  1
  Ru  Ru44  1  0.91720000  0.25000000  0.58280000  1
  Ru  Ru45  1  0.75000000  0.41720000  0.08280000  1
  O  O46  1  0.28135500  0.46749100  0.08046100  1
  O  O47  1  0.94504500  0.98561300  0.31535300  1
  O  O48  1  0.48518500  0.16370000  0.42846600  1
  O  O49  1  0.44504500  0.81535300  0.48561300  1
  O  O50  1  0.79800100  0.29656000  0.23296600  1
  O  O51  1  0.71864500  0.53250900  0.91953900  1
  O  O52  1  0.23296600  0.79800100  0.29656000  1
  O  O53  1  0.83630000  0.57153400  0.51481500  1
  O  O54  1  0.29656000  0.23296600  0.79800100  1
  O  O55  1  0.18960000  0.52014600  0.25216400  1
  O  O56  1  0.31040000  0.24783600  0.97985400  1
  O  O57  1  0.81040000  0.47985400  0.74783600  1
  O  O58  1  0.34968600  0.68861000  0.52390600  1
  O  O59  1  0.84968600  0.02390600  0.18861000  1
  O  O60  1  0.47609400  0.65031400  0.31139000  1
  O  O61  1  0.03250900  0.21864500  0.41953900  1
  O  O62  1  0.96749100  0.78135500  0.58046100  1
  O  O63  1  0.68861000  0.52390600  0.34968600  1
  O  O64  1  0.76703400  0.20199900  0.70344000  1
  O  O65  1  0.57153400  0.51481500  0.83630000  1
  O  O66  1  0.78135500  0.58046100  0.96749100  1
  O  O67  1  0.79656000  0.29800100  0.73296600  1
  O  O68  1  0.26703400  0.20344000  0.70199900  1
  O  O69  1  0.01481500  0.07153400  0.33630000  1
  O  O70  1  0.31139000  0.47609400  0.65031400  1
  O  O71  1  0.70344000  0.76703400  0.20199900  1
  O  O72  1  0.52014600  0.25216400  0.18960000  1
  O  O73  1  0.31535300  0.94504500  0.98561300  1
  O  O74  1  0.20344000  0.70199900  0.26703400  1
  O  O75  1  0.47985400  0.74783600  0.81040000  1
  O  O76  1  0.29800100  0.73296600  0.79656000  1
  O  O77  1  0.68960000  0.75216400  0.02014600  1
  O  O78  1  0.73296600  0.79656000  0.29800100  1
  O  O79  1  0.65031400  0.31139000  0.47609400  1
  O  O80  1  0.18861000  0.84968600  0.02390600  1
  O  O81  1  0.91953900  0.71864500  0.53250900  1
  O  O82  1  0.81139000  0.15031400  0.97609400  1
  O  O83  1  0.24783600  0.97985400  0.31040000  1
  O  O84  1  0.66370000  0.98518500  0.92846600  1
  O  O85  1  0.07153400  0.33630000  0.01481500  1
  O  O86  1  0.51438700  0.55495500  0.18464700  1
  O  O87  1  0.48561300  0.44504500  0.81535300  1
  O  O88  1  0.58046100  0.96749100  0.78135500  1
  O  O89  1  0.55495500  0.18464700  0.51438700  1
  O  O90  1  0.68464700  0.05495500  0.01438700  1
  O  O91  1  0.74783600  0.81040000  0.47985400  1
  O  O92  1  0.02390600  0.18861000  0.84968600  1
  O  O93  1  0.18464700  0.51438700  0.55495500  1
  O  O94  1  0.75216400  0.02014600  0.68960000  1
  O  O95  1  0.46749100  0.08046100  0.28135500  1
  O  O96  1  0.15031400  0.97609400  0.81139000  1
  O  O97  1  0.01438700  0.68464700  0.05495500  1
  O  O98  1  0.92846600  0.66370000  0.98518500  1
  O  O99  1  0.51481500  0.83630000  0.57153400  1
  O  O100  1  0.98518500  0.92846600  0.66370000  1
  O  O101  1  0.21864500  0.41953900  0.03250900  1
  O  O102  1  0.52390600  0.34968600  0.68861000  1
  O  O103  1  0.70199900  0.26703400  0.20344000  1
  O  O104  1  0.97985400  0.31040000  0.24783600  1
  O  O105  1  0.16370000  0.42846600  0.48518500  1
  O  O106  1  0.97609400  0.81139000  0.15031400  1
  O  O107  1  0.20199900  0.70344000  0.76703400  1
  O  O108  1  0.08046100  0.28135500  0.46749100  1
  O  O109  1  0.53250900  0.91953900  0.71864500  1
  O  O110  1  0.25216400  0.18960000  0.52014600  1
  O  O111  1  0.02014600  0.68960000  0.75216400  1
  O  O112  1  0.33630000  0.01481500  0.07153400  1
  O  O113  1  0.98561300  0.31535300  0.94504500  1
  O  O114  1  0.05495500  0.01438700  0.68464700  1
  O  O115  1  0.42846600  0.48518500  0.16370000  1
  O  O116  1  0.41953900  0.03250900  0.21864500  1
  O  O117  1  0.81535300  0.48561300  0.44504500  1
