# generated using pymatgen
data_Na4UCr3O14
_symmetry_space_group_name_H-M   'P 1'
_cell_length_a   7.33493000
_cell_length_b   8.64439833
_cell_length_c   11.63134866
_cell_angle_alpha   80.07166195
_cell_angle_beta   78.74312190
_cell_angle_gamma   69.08004334
_symmetry_Int_Tables_number   1
_chemical_formula_structural   Na4UCr3O14
_chemical_formula_sum   'Na8 U2 Cr6 O28'
_cell_volume   671.36929470
_cell_formula_units_Z   2
loop_
 _symmetry_equiv_pos_site_id
 _symmetry_equiv_pos_as_xyz
  1  'x, y, z'
loop_
 _atom_site_type_symbol
 _atom_site_label
 _atom_site_symmetry_multiplicity
 _atom_site_fract_x
 _atom_site_fract_y
 _atom_site_fract_z
 _atom_site_occupancy
  Na  Na0  1  0.77726700  0.53609700  0.78772100  1
  Na  Na1  1  0.22273300  0.46390300  0.21227900  1
  Na  Na2  1  0.04397000  0.90851800  0.67385500  1
  Na  Na3  1  0.66076700  0.14896100  0.95611200  1
  Na  Na4  1  0.33923300  0.85103900  0.04388800  1
  Na  Na5  1  0.73618500  0.77917900  0.48456700  1
  Na  Na6  1  0.95603000  0.09148200  0.32614500  1
  Na  Na7  1  0.26381500  0.22082100  0.51543300  1
  U  U8  1  0.31894300  0.38110300  0.76676900  1
  U  U9  1  0.68105700  0.61889700  0.23323100  1
  Cr  Cr10  1  0.51764400  0.92229700  0.74122200  1
  Cr  Cr11  1  0.98351600  0.73440400  0.95494100  1
  Cr  Cr12  1  0.25386800  0.66095800  0.47456300  1
  Cr  Cr13  1  0.48235600  0.07770300  0.25877800  1
  Cr  Cr14  1  0.01648400  0.26559600  0.04505900  1
  Cr  Cr15  1  0.74613200  0.33904200  0.52543700  1
  O  O16  1  0.23175000  0.27331900  0.96525100  1
  O  O17  1  0.76907000  0.49519000  0.57651500  1
  O  O18  1  0.94222400  0.40205400  0.14840500  1
  O  O19  1  0.46664700  0.78720800  0.84884100  1
  O  O20  1  0.93540200  0.16969100  0.55051800  1
  O  O21  1  0.06459800  0.83030900  0.44948200  1
  O  O22  1  0.05777600  0.59794600  0.85159500  1
  O  O23  1  0.13029700  0.33307400  0.71146000  1
  O  O24  1  0.74726900  0.83381900  0.67706700  1
  O  O25  1  0.53311300  0.30651100  0.59241700  1
  O  O26  1  0.25565900  0.62299700  0.62212200  1
  O  O27  1  0.14822900  0.68426300  0.04358300  1
  O  O28  1  0.74434100  0.37700300  0.37787800  1
  O  O29  1  0.86970300  0.66692600  0.28854000  1
  O  O30  1  0.46688700  0.69348900  0.40758300  1
  O  O31  1  0.76825000  0.72668100  0.03474900  1
  O  O32  1  0.25273100  0.16618100  0.32293300  1
  O  O33  1  0.49762800  0.09809200  0.79954200  1
  O  O34  1  0.36537300  0.96646600  0.64312500  1
  O  O35  1  0.51391000  0.41969800  0.82264800  1
  O  O36  1  0.63462700  0.03353400  0.35687500  1
  O  O37  1  0.48609000  0.58030200  0.17735200  1
  O  O38  1  0.50237200  0.90190800  0.20045800  1
  O  O39  1  0.04824000  0.07613900  0.11289300  1
  O  O40  1  0.95176000  0.92386100  0.88710700  1
  O  O41  1  0.85177100  0.31573700  0.95641700  1
  O  O42  1  0.53335300  0.21279200  0.15115900  1
  O  O43  1  0.23093000  0.50481000  0.42348500  1
