# generated using pymatgen
data_Cs(AsRu)2
_symmetry_space_group_name_H-M   'P 1'
_cell_length_a   7.94274616
_cell_length_b   7.94274616
_cell_length_c   7.94274616
_cell_angle_alpha   149.95687688
_cell_angle_beta   149.95687688
_cell_angle_gamma   43.00470655
_symmetry_Int_Tables_number   1
_chemical_formula_structural   Cs(AsRu)2
_chemical_formula_sum   'Cs1 As2 Ru2'
_cell_volume   125.27209703
_cell_formula_units_Z   1
loop_
 _symmetry_equiv_pos_site_id
 _symmetry_equiv_pos_as_xyz
  1  'x, y, z'
loop_
 _atom_site_type_symbol
 _atom_site_label
 _atom_site_symmetry_multiplicity
 _atom_site_fract_x
 _atom_site_fract_y
 _atom_site_fract_z
 _atom_site_occupancy
  Cs  Cs0  1  0.00000000  0.00000000  0.00000000  1
  As  As1  1  0.33894100  0.33894100  0.00000000  1
  As  As2  1  0.66105900  0.66105900  0.00000000  1
  Ru  Ru3  1  0.75000000  0.25000000  0.50000000  1
  Ru  Ru4  1  0.25000000  0.75000000  0.50000000  1
