# generated using pymatgen
data_VCdBiO5
_symmetry_space_group_name_H-M   'P 1'
_cell_length_a   5.58617400
_cell_length_b   11.88408000
_cell_length_c   14.49933800
_cell_angle_alpha   90.00000000
_cell_angle_beta   90.00000000
_cell_angle_gamma   90.00000000
_symmetry_Int_Tables_number   1
_chemical_formula_structural   VCdBiO5
_chemical_formula_sum   'V8 Cd8 Bi8 O40'
_cell_volume   962.56086341
_cell_formula_units_Z   8
loop_
 _symmetry_equiv_pos_site_id
 _symmetry_equiv_pos_as_xyz
  1  'x, y, z'
loop_
 _atom_site_type_symbol
 _atom_site_label
 _atom_site_symmetry_multiplicity
 _atom_site_fract_x
 _atom_site_fract_y
 _atom_site_fract_z
 _atom_site_occupancy
  V  V0  1  0.72656400  0.21258300  0.34311400  1
  V  V1  1  0.29463000  0.06437000  0.65410900  1
  V  V2  1  0.22656400  0.71258300  0.15688600  1
  V  V3  1  0.20537000  0.06437000  0.15410900  1
  V  V4  1  0.77343600  0.21258300  0.84311400  1
  V  V5  1  0.27343600  0.71258300  0.65688600  1
  V  V6  1  0.79463000  0.56437000  0.84589100  1
  V  V7  1  0.70537000  0.56437000  0.34589100  1
  Cd  Cd8  1  0.76042100  0.88810900  0.54378100  1
  Cd  Cd9  1  0.73957900  0.88810900  0.04378100  1
  Cd  Cd10  1  0.78519900  0.22867400  0.58712900  1
  Cd  Cd11  1  0.71480100  0.22867400  0.08712900  1
  Cd  Cd12  1  0.23957900  0.38810900  0.45621900  1
  Cd  Cd13  1  0.28519900  0.72867400  0.91287100  1
  Cd  Cd14  1  0.26042100  0.38810900  0.95621900  1
  Cd  Cd15  1  0.21480100  0.72867400  0.41287100  1
  Bi  Bi16  1  0.22838200  0.37848700  0.19834100  1
  Bi  Bi17  1  0.75583000  0.52993600  0.08720200  1
  Bi  Bi18  1  0.25583000  0.02993600  0.41279800  1
  Bi  Bi19  1  0.24417000  0.02993600  0.91279800  1
  Bi  Bi20  1  0.74417000  0.52993600  0.58720200  1
  Bi  Bi21  1  0.27161800  0.37848700  0.69834100  1
  Bi  Bi22  1  0.72838200  0.87848700  0.30165900  1
  Bi  Bi23  1  0.77161800  0.87848700  0.80165900  1
  O  O24  1  0.51776100  0.37712000  0.57892400  1
  O  O25  1  0.93002000  0.21717900  0.43568000  1
  O  O26  1  0.08936400  0.98137900  0.59915700  1
  O  O27  1  0.84009300  0.69793300  0.34187500  1
  O  O28  1  0.56998000  0.21717900  0.93568000  1
  O  O29  1  0.96848300  0.79136400  0.13743600  1
  O  O30  1  0.85882700  0.51273900  0.73480100  1
  O  O31  1  0.63343000  0.25322100  0.74197600  1
  O  O32  1  0.34009300  0.19793300  0.15812500  1
  O  O33  1  0.53151700  0.79136400  0.63743600  1
  O  O34  1  0.01776100  0.87712000  0.92107600  1
  O  O35  1  0.44797100  0.56743600  0.41727600  1
  O  O36  1  0.03151700  0.29136400  0.86256400  1
  O  O37  1  0.06998000  0.71717900  0.56432000  1
  O  O38  1  0.36657000  0.75322100  0.25802400  1
  O  O39  1  0.98223900  0.37712000  0.07892400  1
  O  O40  1  0.91063600  0.48137900  0.40084300  1
  O  O41  1  0.58936400  0.48137900  0.90084300  1
  O  O42  1  0.64117300  0.51273900  0.23480100  1
  O  O43  1  0.41063600  0.98137900  0.09915700  1
  O  O44  1  0.55202900  0.06743600  0.58272400  1
  O  O45  1  0.86657000  0.25322100  0.24197600  1
  O  O46  1  0.13343000  0.75322100  0.75802400  1
  O  O47  1  0.46848300  0.29136400  0.36256400  1
  O  O48  1  0.43002000  0.71717900  0.06432000  1
  O  O49  1  0.87532000  0.07160600  0.83398200  1
  O  O50  1  0.37532000  0.57160600  0.66601800  1
  O  O51  1  0.14117300  0.01273900  0.26519900  1
  O  O52  1  0.01831700  0.39676300  0.58475300  1
  O  O53  1  0.15990700  0.19793300  0.65812500  1
  O  O54  1  0.05202900  0.56743600  0.91727600  1
  O  O55  1  0.48223900  0.87712000  0.42107600  1
  O  O56  1  0.65990700  0.69793300  0.84187500  1
  O  O57  1  0.94797100  0.06743600  0.08272400  1
  O  O58  1  0.62468000  0.07160600  0.33398200  1
  O  O59  1  0.98168300  0.89676300  0.41524700  1
  O  O60  1  0.51831700  0.89676300  0.91524700  1
  O  O61  1  0.12468000  0.57160600  0.16601800  1
  O  O62  1  0.48168300  0.39676300  0.08475300  1
  O  O63  1  0.35882700  0.01273900  0.76519900  1
