# generated using pymatgen
data_Lu5(Si5Ir2)2
_symmetry_space_group_name_H-M   'P 1'
_cell_length_a   12.55344300
_cell_length_b   12.55344300
_cell_length_c   4.20996800
_cell_angle_alpha   90.00000000
_cell_angle_beta   90.00000000
_cell_angle_gamma   90.00000000
_symmetry_Int_Tables_number   1
_chemical_formula_structural   Lu5(Si5Ir2)2
_chemical_formula_sum   'Lu10 Si20 Ir8'
_cell_volume   663.44435731
_cell_formula_units_Z   2
loop_
 _symmetry_equiv_pos_site_id
 _symmetry_equiv_pos_as_xyz
  1  'x, y, z'
loop_
 _atom_site_type_symbol
 _atom_site_label
 _atom_site_symmetry_multiplicity
 _atom_site_fract_x
 _atom_site_fract_y
 _atom_site_fract_z
 _atom_site_occupancy
  Lu  Lu0  1  0.50000000  0.50000000  0.00000000  1
  Lu  Lu1  1  0.00000000  0.00000000  0.00000000  1
  Lu  Lu2  1  0.67429400  0.82570600  0.50000000  1
  Lu  Lu3  1  0.32570600  0.17429400  0.50000000  1
  Lu  Lu4  1  0.17429400  0.67429400  0.50000000  1
  Lu  Lu5  1  0.82570600  0.32570600  0.50000000  1
  Lu  Lu6  1  0.38448600  0.88448600  0.50000000  1
  Lu  Lu7  1  0.61551400  0.11551400  0.50000000  1
  Lu  Lu8  1  0.88448600  0.61551400  0.50000000  1
  Lu  Lu9  1  0.11551400  0.38448600  0.50000000  1
  Si  Si10  1  0.56582100  0.93417900  0.00000000  1
  Si  Si11  1  0.43417900  0.06582100  0.00000000  1
  Si  Si12  1  0.06582100  0.56582100  0.00000000  1
  Si  Si13  1  0.93417900  0.43417900  0.00000000  1
  Si  Si14  1  0.70089500  0.66503400  0.00000000  1
  Si  Si15  1  0.29910500  0.33496600  0.00000000  1
  Si  Si16  1  0.20089500  0.83496600  0.00000000  1
  Si  Si17  1  0.79910500  0.16503400  0.00000000  1
  Si  Si18  1  0.33496600  0.70089500  0.00000000  1
  Si  Si19  1  0.66503400  0.29910500  0.00000000  1
  Si  Si20  1  0.16503400  0.20089500  0.00000000  1
  Si  Si21  1  0.83496600  0.79910500  0.00000000  1
  Si  Si22  1  0.50357900  0.65477100  0.50000000  1
  Si  Si23  1  0.49642100  0.34522900  0.50000000  1
  Si  Si24  1  0.00357900  0.84522900  0.50000000  1
  Si  Si25  1  0.99642100  0.15477100  0.50000000  1
  Si  Si26  1  0.34522900  0.50357900  0.50000000  1
  Si  Si27  1  0.65477100  0.49642100  0.50000000  1
  Si  Si28  1  0.15477100  0.00357900  0.50000000  1
  Si  Si29  1  0.84522900  0.99642100  0.50000000  1
  Ir  Ir30  1  0.51965800  0.74558900  0.00000000  1
  Ir  Ir31  1  0.48034200  0.25441100  0.00000000  1
  Ir  Ir32  1  0.01965800  0.75441100  0.00000000  1
  Ir  Ir33  1  0.98034200  0.24558900  0.00000000  1
  Ir  Ir34  1  0.25441100  0.51965800  0.00000000  1
  Ir  Ir35  1  0.74558900  0.48034200  0.00000000  1
  Ir  Ir36  1  0.24558900  0.01965800  0.00000000  1
  Ir  Ir37  1  0.75441100  0.98034200  0.00000000  1
