# generated using pymatgen
data_K3V3(AsO7)2
_symmetry_space_group_name_H-M   'P 1'
_cell_length_a   7.95635800
_cell_length_b   10.34250300
_cell_length_c   16.67131800
_cell_angle_alpha   90.00000000
_cell_angle_beta   90.00000000
_cell_angle_gamma   90.00000000
_symmetry_Int_Tables_number   1
_chemical_formula_structural   K3V3(AsO7)2
_chemical_formula_sum   'K12 V12 As8 O56'
_cell_volume   1371.86036004
_cell_formula_units_Z   4
loop_
 _symmetry_equiv_pos_site_id
 _symmetry_equiv_pos_as_xyz
  1  'x, y, z'
loop_
 _atom_site_type_symbol
 _atom_site_label
 _atom_site_symmetry_multiplicity
 _atom_site_fract_x
 _atom_site_fract_y
 _atom_site_fract_z
 _atom_site_occupancy
  K  K0  1  0.41894900  0.03890900  0.38981400  1
  K  K1  1  0.45861300  0.34832700  0.75000000  1
  K  K2  1  0.58105100  0.96109100  0.61018600  1
  K  K3  1  0.95861300  0.15167300  0.75000000  1
  K  K4  1  0.41894900  0.03890900  0.11018600  1
  K  K5  1  0.54138700  0.65167300  0.25000000  1
  K  K6  1  0.58105100  0.96109100  0.88981400  1
  K  K7  1  0.91894900  0.46109100  0.11018600  1
  K  K8  1  0.08105100  0.53890900  0.88981400  1
  K  K9  1  0.08105100  0.53890900  0.61018600  1
  K  K10  1  0.91894900  0.46109100  0.38981400  1
  K  K11  1  0.04138700  0.84832700  0.25000000  1
  V  V12  1  0.79828300  0.78389200  0.44253000  1
  V  V13  1  0.73967500  0.72735700  0.75000000  1
  V  V14  1  0.20171700  0.21610800  0.94253000  1
  V  V15  1  0.29828300  0.71610800  0.05747000  1
  V  V16  1  0.76032500  0.22735700  0.25000000  1
  V  V17  1  0.70171700  0.28389200  0.94253000  1
  V  V18  1  0.23967500  0.77264300  0.75000000  1
  V  V19  1  0.70171700  0.28389200  0.55747000  1
  V  V20  1  0.26032500  0.27264300  0.25000000  1
  V  V21  1  0.20171700  0.21610800  0.55747000  1
  V  V22  1  0.29828300  0.71610800  0.44253000  1
  V  V23  1  0.79828300  0.78389200  0.05747000  1
  As  As24  1  0.60913200  0.59584200  0.92526800  1
  As  As25  1  0.10913200  0.90415800  0.92526800  1
  As  As26  1  0.89086800  0.09584200  0.42526800  1
  As  As27  1  0.39086800  0.40415800  0.42526800  1
  As  As28  1  0.10913200  0.90415800  0.57473200  1
  As  As29  1  0.60913200  0.59584200  0.57473200  1
  As  As30  1  0.39086800  0.40415800  0.07473200  1
  As  As31  1  0.89086800  0.09584200  0.07473200  1
  O  O32  1  0.08680700  0.12235100  0.46375200  1
  O  O33  1  0.41319300  0.62235100  0.96375200  1
  O  O34  1  0.58680700  0.37764900  0.46375200  1
  O  O35  1  0.90196500  0.62649600  0.75000000  1
  O  O36  1  0.78048500  0.62691200  0.51423500  1
  O  O37  1  0.80858800  0.70327100  0.35570800  1
  O  O38  1  0.09803500  0.37350400  0.25000000  1
  O  O39  1  0.87914200  0.20431400  0.34539500  1
  O  O40  1  0.41319300  0.62235100  0.53624800  1
  O  O41  1  0.09744200  0.67546500  0.45605600  1
  O  O42  1  0.12085800  0.79568600  0.65460500  1
  O  O43  1  0.12085800  0.79568600  0.84539500  1
  O  O44  1  0.78048500  0.62691200  0.98576500  1
  O  O45  1  0.09744200  0.67546500  0.04394400  1
  O  O46  1  0.40196500  0.87350400  0.75000000  1
  O  O47  1  0.87914200  0.20431400  0.15460500  1
  O  O48  1  0.69848100  0.38105900  0.25000000  1
  O  O49  1  0.28048500  0.87308800  0.98576500  1
  O  O50  1  0.12471400  0.05544100  0.61679300  1
  O  O51  1  0.12471400  0.05544100  0.88320700  1
  O  O52  1  0.80858800  0.70327100  0.14429200  1
  O  O53  1  0.58680700  0.37764900  0.03624800  1
  O  O54  1  0.80151900  0.88105900  0.75000000  1
  O  O55  1  0.62471400  0.44455900  0.61679300  1
  O  O56  1  0.30151900  0.61894100  0.75000000  1
  O  O57  1  0.08680700  0.12235100  0.03624800  1
  O  O58  1  0.91319300  0.87764900  0.96375200  1
  O  O59  1  0.59744200  0.82453500  0.45605600  1
  O  O60  1  0.62471400  0.44455900  0.88320700  1
  O  O61  1  0.71951500  0.12691200  0.01423500  1
  O  O62  1  0.30858800  0.79672900  0.14429200  1
  O  O63  1  0.37914200  0.29568600  0.34539500  1
  O  O64  1  0.90255800  0.32453500  0.95605600  1
  O  O65  1  0.69141200  0.20327100  0.85570800  1
  O  O66  1  0.19848100  0.11894100  0.25000000  1
  O  O67  1  0.19141200  0.29672900  0.85570800  1
  O  O68  1  0.37528600  0.55544100  0.11679300  1
  O  O69  1  0.62085800  0.70431400  0.65460500  1
  O  O70  1  0.21951500  0.37308800  0.48576500  1
  O  O71  1  0.87528600  0.94455900  0.38320700  1
  O  O72  1  0.40255800  0.17546500  0.95605600  1
  O  O73  1  0.90255800  0.32453500  0.54394400  1
  O  O74  1  0.87528600  0.94455900  0.11679300  1
  O  O75  1  0.28048500  0.87308800  0.51423500  1
  O  O76  1  0.21951500  0.37308800  0.01423500  1
  O  O77  1  0.37528600  0.55544100  0.38320700  1
  O  O78  1  0.91319300  0.87764900  0.53624800  1
  O  O79  1  0.62085800  0.70431400  0.84539500  1
  O  O80  1  0.37914200  0.29568600  0.15460500  1
  O  O81  1  0.40255800  0.17546500  0.54394400  1
  O  O82  1  0.30858800  0.79672900  0.35570800  1
  O  O83  1  0.19141200  0.29672900  0.64429200  1
  O  O84  1  0.71951500  0.12691200  0.48576500  1
  O  O85  1  0.69141200  0.20327100  0.64429200  1
  O  O86  1  0.59803500  0.12649600  0.25000000  1
  O  O87  1  0.59744200  0.82453500  0.04394400  1
