# generated using pymatgen
data_Mn2In2O7
_symmetry_space_group_name_H-M   'P 1'
_cell_length_a   6.98776710
_cell_length_b   6.98777346
_cell_length_c   6.98776922
_cell_angle_alpha   59.99971212
_cell_angle_beta   59.99978242
_cell_angle_gamma   59.99978242
_symmetry_Int_Tables_number   1
_chemical_formula_structural   Mn2In2O7
_chemical_formula_sum   'Mn4 In4 O14'
_cell_volume   241.26727600
_cell_formula_units_Z   2
loop_
 _symmetry_equiv_pos_site_id
 _symmetry_equiv_pos_as_xyz
  1  'x, y, z'
loop_
 _atom_site_type_symbol
 _atom_site_label
 _atom_site_symmetry_multiplicity
 _atom_site_fract_x
 _atom_site_fract_y
 _atom_site_fract_z
 _atom_site_occupancy
  Mn  Mn0  1  0.00000200  0.99999600  0.49999900  1
  Mn  Mn1  1  0.99999700  0.50000300  0.00000100  1
  Mn  Mn2  1  0.50000200  0.00000200  0.99999800  1
  Mn  Mn3  1  0.00000200  0.99999800  0.00000200  1
  In  In4  1  0.50000000  0.50000000  0.00000000  1
  In  In5  1  0.50000000  0.00000000  0.50000000  1
  In  In6  1  0.00000000  0.50000000  0.50000000  1
  In  In7  1  0.50000000  0.50000000  0.50000000  1
  O  O8  1  0.33184900  0.91815100  0.91815100  1
  O  O9  1  0.91815000  0.33185000  0.33184900  1
  O  O10  1  0.91815100  0.33184900  0.91815100  1
  O  O11  1  0.33184900  0.91815100  0.33184900  1
  O  O12  1  0.91815100  0.91815100  0.33184900  1
  O  O13  1  0.33184900  0.33184900  0.91815100  1
  O  O14  1  0.66815000  0.08184900  0.08184900  1
  O  O15  1  0.08184900  0.66815100  0.66815100  1
  O  O16  1  0.08184900  0.66815100  0.08184900  1
  O  O17  1  0.66815000  0.08184900  0.66815100  1
  O  O18  1  0.08184900  0.08184900  0.66815100  1
  O  O19  1  0.66815100  0.66815000  0.08184900  1
  O  O20  1  0.37500000  0.37500000  0.37500000  1
  O  O21  1  0.62500000  0.62500000  0.62500000  1
