# generated using pymatgen
data_AlSCl3O2
_symmetry_space_group_name_H-M   'P 1'
_cell_length_a   6.48670700
_cell_length_b   7.78822994
_cell_length_c   8.08295141
_cell_angle_alpha   93.40808816
_cell_angle_beta   106.13207503
_cell_angle_gamma   109.94212785
_symmetry_Int_Tables_number   1
_chemical_formula_structural   AlSCl3O2
_chemical_formula_sum   'Al2 S2 Cl6 O4'
_cell_volume   363.33262243
_cell_formula_units_Z   2
loop_
 _symmetry_equiv_pos_site_id
 _symmetry_equiv_pos_as_xyz
  1  'x, y, z'
loop_
 _atom_site_type_symbol
 _atom_site_label
 _atom_site_symmetry_multiplicity
 _atom_site_fract_x
 _atom_site_fract_y
 _atom_site_fract_z
 _atom_site_occupancy
  Al  Al0  1  0.70290200  0.19553300  0.84518600  1
  Al  Al1  1  0.29709800  0.80446700  0.15481400  1
  S  S2  1  0.38955700  0.76426900  0.77802200  1
  S  S3  1  0.61044300  0.23573100  0.22197800  1
  Cl  Cl4  1  0.93571000  0.72299200  0.09134900  1
  Cl  Cl5  1  0.08401700  0.79796900  0.64124600  1
  Cl  Cl6  1  0.06429000  0.27700800  0.90865100  1
  Cl  Cl7  1  0.45819500  0.67857100  0.34691400  1
  Cl  Cl8  1  0.91598300  0.20203100  0.35875400  1
  Cl  Cl9  1  0.54180500  0.32142900  0.65308600  1
  O  O10  1  0.57747400  0.94439900  0.77570900  1
  O  O11  1  0.61962100  0.23103400  0.03656000  1
  O  O12  1  0.38037900  0.76896600  0.96344000  1
  O  O13  1  0.42252600  0.05560100  0.22429100  1
