# generated using pymatgen
data_K3SnSe3
_symmetry_space_group_name_H-M   'P 1'
_cell_length_a   13.02613100
_cell_length_b   9.05192800
_cell_length_c   9.22906593
_cell_angle_alpha   64.15437382
_cell_angle_beta   90.00000000
_cell_angle_gamma   90.00000000
_symmetry_Int_Tables_number   1
_chemical_formula_structural   K3SnSe3
_chemical_formula_sum   'K12 Sn4 Se12'
_cell_volume   979.36195786
_cell_formula_units_Z   4
loop_
 _symmetry_equiv_pos_site_id
 _symmetry_equiv_pos_as_xyz
  1  'x, y, z'
loop_
 _atom_site_type_symbol
 _atom_site_label
 _atom_site_symmetry_multiplicity
 _atom_site_fract_x
 _atom_site_fract_y
 _atom_site_fract_z
 _atom_site_occupancy
  K  K0  1  0.93134200  0.71207200  0.77565100  1
  K  K1  1  0.43134200  0.78792800  0.22434900  1
  K  K2  1  0.06865800  0.28792800  0.22434900  1
  K  K3  1  0.56865800  0.21207200  0.77565100  1
  K  K4  1  0.83548100  0.98638800  0.00119800  1
  K  K5  1  0.33548100  0.51361200  0.99880200  1
  K  K6  1  0.16451900  0.01361200  0.99880200  1
  K  K7  1  0.66451900  0.48638800  0.00119800  1
  K  K8  1  0.78782200  0.18854400  0.44112800  1
  K  K9  1  0.28782200  0.31145600  0.55887200  1
  K  K10  1  0.21217800  0.81145600  0.55887200  1
  K  K11  1  0.71217800  0.68854400  0.44112800  1
  Sn  Sn12  1  0.99196200  0.37115100  0.65989200  1
  Sn  Sn13  1  0.49196200  0.12884900  0.34010800  1
  Sn  Sn14  1  0.00803800  0.62884900  0.34010800  1
  Sn  Sn15  1  0.50803800  0.87115100  0.65989200  1
  Se  Se16  1  0.80909400  0.37975000  0.75810100  1
  Se  Se17  1  0.30909400  0.12025000  0.24189900  1
  Se  Se18  1  0.19090600  0.62025000  0.24189900  1
  Se  Se19  1  0.69090600  0.87975000  0.75810100  1
  Se  Se20  1  0.02891000  0.09602400  0.65410900  1
  Se  Se21  1  0.52891000  0.40397600  0.34589100  1
  Se  Se22  1  0.97109000  0.90397600  0.34589100  1
  Se  Se23  1  0.47109000  0.59602400  0.65410900  1
  Se  Se24  1  0.12881400  0.43027300  0.82809000  1
  Se  Se25  1  0.62881400  0.06972700  0.17191000  1
  Se  Se26  1  0.87118600  0.56972700  0.17191000  1
  Se  Se27  1  0.37118600  0.93027300  0.82809000  1
