# generated using pymatgen
data_In3SnI5
_symmetry_space_group_name_H-M   'P 1'
_cell_length_a   9.13032100
_cell_length_b   9.04269500
_cell_length_c   19.05851225
_cell_angle_alpha   66.80047986
_cell_angle_beta   90.00000000
_cell_angle_gamma   90.00000000
_symmetry_Int_Tables_number   1
_chemical_formula_structural   In3SnI5
_chemical_formula_sum   'In12 Sn4 I20'
_cell_volume   1446.28522052
_cell_formula_units_Z   4
loop_
 _symmetry_equiv_pos_site_id
 _symmetry_equiv_pos_as_xyz
  1  'x, y, z'
loop_
 _atom_site_type_symbol
 _atom_site_label
 _atom_site_symmetry_multiplicity
 _atom_site_fract_x
 _atom_site_fract_y
 _atom_site_fract_z
 _atom_site_occupancy
  In  In0  1  0.21368500  0.93045500  0.02786500  1
  In  In1  1  0.78631500  0.06954500  0.97213500  1
  In  In2  1  0.31097300  0.10842300  0.25080200  1
  In  In3  1  0.81097300  0.89157700  0.24919800  1
  In  In4  1  0.71368500  0.06954500  0.47213500  1
  In  In5  1  0.46707100  0.38896400  0.75059200  1
  In  In6  1  0.68902700  0.89157700  0.74919800  1
  In  In7  1  0.03292900  0.38896400  0.25059200  1
  In  In8  1  0.18902700  0.10842300  0.75080200  1
  In  In9  1  0.53292900  0.61103600  0.24940800  1
  In  In10  1  0.96707100  0.61103600  0.74940800  1
  In  In11  1  0.28631500  0.93045500  0.52786500  1
  Sn  Sn12  1  0.67757500  0.39118800  0.08579700  1
  Sn  Sn13  1  0.32242500  0.60881200  0.91420300  1
  Sn  Sn14  1  0.82242500  0.39118800  0.58579700  1
  Sn  Sn15  1  0.17757500  0.60881200  0.41420300  1
  I  I16  1  0.66717200  0.23982600  0.26125500  1
  I  I17  1  0.03023300  0.79943500  0.89449800  1
  I  I18  1  0.66828200  0.68212000  0.61320100  1
  I  I19  1  0.64879600  0.46622900  0.89546400  1
  I  I20  1  0.85120400  0.46622900  0.39546400  1
  I  I21  1  0.98619900  0.06095500  0.60310000  1
  I  I22  1  0.33282800  0.76017400  0.73874500  1
  I  I23  1  0.16828200  0.31788000  0.88679900  1
  I  I24  1  0.35120400  0.53377100  0.10453600  1
  I  I25  1  0.16717200  0.76017400  0.23874500  1
  I  I26  1  0.51380100  0.06095500  0.10310000  1
  I  I27  1  0.14879600  0.53377100  0.60453600  1
  I  I28  1  0.48619900  0.93904500  0.89690000  1
  I  I29  1  0.83282800  0.23982600  0.76125500  1
  I  I30  1  0.46976700  0.79943500  0.39449800  1
  I  I31  1  0.96976700  0.20056500  0.10550200  1
  I  I32  1  0.33171800  0.31788000  0.38679900  1
  I  I33  1  0.01380100  0.93904500  0.39690000  1
  I  I34  1  0.53023300  0.20056500  0.60550200  1
  I  I35  1  0.83171800  0.68212000  0.11320100  1
