# generated using pymatgen
data_Rb2UBr6
_symmetry_space_group_name_H-M   'P 1'
_cell_length_a   7.93205100
_cell_length_b   7.93205100
_cell_length_c   11.24690500
_cell_angle_alpha   90.00000000
_cell_angle_beta   90.00000000
_cell_angle_gamma   90.00000000
_symmetry_Int_Tables_number   1
_chemical_formula_structural   Rb2UBr6
_chemical_formula_sum   'Rb4 U2 Br12'
_cell_volume   707.62639254
_cell_formula_units_Z   2
loop_
 _symmetry_equiv_pos_site_id
 _symmetry_equiv_pos_as_xyz
  1  'x, y, z'
loop_
 _atom_site_type_symbol
 _atom_site_label
 _atom_site_symmetry_multiplicity
 _atom_site_fract_x
 _atom_site_fract_y
 _atom_site_fract_z
 _atom_site_occupancy
  Rb  Rb0  1  0.50000000  0.00000000  0.75000000  1
  Rb  Rb1  1  0.50000000  0.00000000  0.25000000  1
  Rb  Rb2  1  0.00000000  0.50000000  0.25000000  1
  Rb  Rb3  1  0.00000000  0.50000000  0.75000000  1
  U  U4  1  0.00000000  0.00000000  0.00000000  1
  U  U5  1  0.50000000  0.50000000  0.50000000  1
  Br  Br6  1  0.78567700  0.27846900  0.00000000  1
  Br  Br7  1  0.21432300  0.72153100  0.00000000  1
  Br  Br8  1  0.50000000  0.50000000  0.25340900  1
  Br  Br9  1  0.28567700  0.22153100  0.50000000  1
  Br  Br10  1  0.27846900  0.21432300  0.00000000  1
  Br  Br11  1  0.77846900  0.28567700  0.50000000  1
  Br  Br12  1  0.00000000  0.00000000  0.24659100  1
  Br  Br13  1  0.71432300  0.77846900  0.50000000  1
  Br  Br14  1  0.22153100  0.71432300  0.50000000  1
  Br  Br15  1  0.50000000  0.50000000  0.74659100  1
  Br  Br16  1  0.72153100  0.78567700  0.00000000  1
  Br  Br17  1  0.00000000  0.00000000  0.75340900  1
