# generated using pymatgen
data_Sb(S8I)3
_symmetry_space_group_name_H-M   'P 1'
_cell_length_a   15.25233786
_cell_length_b   15.25233786
_cell_length_c   15.25233768
_cell_angle_alpha   118.77501647
_cell_angle_beta   118.77501647
_cell_angle_gamma   118.77501423
_symmetry_Int_Tables_number   1
_chemical_formula_structural   Sb(S8I)3
_chemical_formula_sum   'Sb1 S24 I3'
_cell_volume   1014.55847342
_cell_formula_units_Z   1
loop_
 _symmetry_equiv_pos_site_id
 _symmetry_equiv_pos_as_xyz
  1  'x, y, z'
loop_
 _atom_site_type_symbol
 _atom_site_label
 _atom_site_symmetry_multiplicity
 _atom_site_fract_x
 _atom_site_fract_y
 _atom_site_fract_z
 _atom_site_occupancy
  Sb  Sb0  1  0.27819200  0.27819200  0.27819200  1
  S  S1  1  0.01430900  0.60852300  0.60852300  1
  S  S2  1  0.60852300  0.60852300  0.01430900  1
  S  S3  1  0.60852300  0.01430900  0.60852300  1
  S  S4  1  0.23192900  0.84175300  0.71377600  1
  S  S5  1  0.84175300  0.71377600  0.23192900  1
  S  S6  1  0.71377600  0.23192900  0.84175300  1
  S  S7  1  0.84175300  0.23192900  0.71377600  1
  S  S8  1  0.23192900  0.71377600  0.84175300  1
  S  S9  1  0.71377600  0.84175300  0.23192900  1
  S  S10  1  0.10268300  0.63054800  0.44944900  1
  S  S11  1  0.63054800  0.44944900  0.10268300  1
  S  S12  1  0.44944900  0.10268300  0.63054800  1
  S  S13  1  0.63054800  0.10268300  0.44944900  1
  S  S14  1  0.10268300  0.44944900  0.63054800  1
  S  S15  1  0.44944900  0.63054800  0.10268300  1
  S  S16  1  0.35627100  0.74442200  0.61629900  1
  S  S17  1  0.74442200  0.61629900  0.35627100  1
  S  S18  1  0.61629900  0.35627100  0.74442200  1
  S  S19  1  0.74442200  0.35627100  0.61629900  1
  S  S20  1  0.35627100  0.61629900  0.74442200  1
  S  S21  1  0.61629900  0.74442200  0.35627100  1
  S  S22  1  0.18964400  0.47016300  0.47016300  1
  S  S23  1  0.47016300  0.47016300  0.18964400  1
  S  S24  1  0.47016300  0.18964400  0.47016300  1
  I  I25  1  0.11740300  0.95796000  0.95796000  1
  I  I26  1  0.95796000  0.95796000  0.11740300  1
  I  I27  1  0.95796000  0.11740300  0.95796000  1
