# generated using pymatgen
data_KGeAuS3
_symmetry_space_group_name_H-M   'P 1'
_cell_length_a   11.49870900
_cell_length_b   10.79969200
_cell_length_c   12.15218901
_cell_angle_alpha   60.25490233
_cell_angle_beta   90.00000000
_cell_angle_gamma   90.00000000
_symmetry_Int_Tables_number   1
_chemical_formula_structural   KGeAuS3
_chemical_formula_sum   'K8 Ge8 Au8 S24'
_cell_volume   1310.25369591
_cell_formula_units_Z   8
loop_
 _symmetry_equiv_pos_site_id
 _symmetry_equiv_pos_as_xyz
  1  'x, y, z'
loop_
 _atom_site_type_symbol
 _atom_site_label
 _atom_site_symmetry_multiplicity
 _atom_site_fract_x
 _atom_site_fract_y
 _atom_site_fract_z
 _atom_site_occupancy
  K  K0  1  0.73382000  0.38237200  0.28942000  1
  K  K1  1  0.76615800  0.91027600  0.12386100  1
  K  K2  1  0.23382000  0.61762800  0.21058000  1
  K  K3  1  0.23384200  0.08972400  0.87613900  1
  K  K4  1  0.26615800  0.08972400  0.37613900  1
  K  K5  1  0.73384200  0.91027600  0.62386100  1
  K  K6  1  0.26618000  0.61762800  0.71058000  1
  K  K7  1  0.76618000  0.38237200  0.78942000  1
  Ge  Ge8  1  0.00138500  0.66568400  0.91758800  1
  Ge  Ge9  1  0.50368800  0.66473200  0.94253200  1
  Ge  Ge10  1  0.00368800  0.33526800  0.55746800  1
  Ge  Ge11  1  0.49861500  0.66568400  0.41758800  1
  Ge  Ge12  1  0.50138500  0.33431600  0.58241200  1
  Ge  Ge13  1  0.99631200  0.66473200  0.44253200  1
  Ge  Ge14  1  0.49631200  0.33526800  0.05746800  1
  Ge  Ge15  1  0.99861500  0.33431600  0.08241200  1
  Au  Au16  1  0.08882900  0.98724000  0.64296200  1
  Au  Au17  1  0.91874800  0.01515600  0.81959400  1
  Au  Au18  1  0.41874800  0.98484400  0.68040600  1
  Au  Au19  1  0.91117100  0.01276000  0.35703800  1
  Au  Au20  1  0.41117100  0.98724000  0.14296200  1
  Au  Au21  1  0.08125200  0.98484400  0.18040600  1
  Au  Au22  1  0.58882900  0.01276000  0.85703800  1
  Au  Au23  1  0.58125200  0.01515600  0.31959400  1
  S  S24  1  0.99897500  0.81601100  0.99490100  1
  S  S25  1  0.49897500  0.18398900  0.50509900  1
  S  S26  1  0.85441000  0.50045800  0.98868900  1
  S  S27  1  0.34085800  0.79121600  0.86158400  1
  S  S28  1  0.99332100  0.23472000  0.29293000  1
  S  S29  1  0.52829400  0.51903200  0.85639000  1
  S  S30  1  0.64559000  0.50045800  0.48868900  1
  S  S31  1  0.02829400  0.48096800  0.64361000  1
  S  S32  1  0.65914200  0.20878400  0.13841600  1
  S  S33  1  0.16577500  0.21351000  0.57456800  1
  S  S34  1  0.84085800  0.20878400  0.63841600  1
  S  S35  1  0.50102500  0.81601100  0.49490100  1
  S  S36  1  0.35441000  0.49954200  0.51131100  1
  S  S37  1  0.00667900  0.76528000  0.70707000  1
  S  S38  1  0.47170600  0.48096800  0.14361000  1
  S  S39  1  0.49332100  0.76528000  0.20707000  1
  S  S40  1  0.15914200  0.79121600  0.36158400  1
  S  S41  1  0.97170600  0.51903200  0.35639000  1
  S  S42  1  0.14559000  0.49954200  0.01131100  1
  S  S43  1  0.33422500  0.21351000  0.07456800  1
  S  S44  1  0.50667900  0.23472000  0.79293000  1
  S  S45  1  0.00102500  0.18398900  0.00509900  1
  S  S46  1  0.66577500  0.78649000  0.92543200  1
  S  S47  1  0.83422500  0.78649000  0.42543200  1
