# generated using pymatgen
data_Rb2Ag(AsSe2)3
_symmetry_space_group_name_H-M   'P 1'
_cell_length_a   8.03455100
_cell_length_b   13.08547000
_cell_length_c   18.60393648
_cell_angle_alpha   52.38273456
_cell_angle_beta   90.00000000
_cell_angle_gamma   90.00000000
_symmetry_Int_Tables_number   1
_chemical_formula_structural   Rb2Ag(AsSe2)3
_chemical_formula_sum   'Rb8 Ag4 As12 Se24'
_cell_volume   1549.31223355
_cell_formula_units_Z   4
loop_
 _symmetry_equiv_pos_site_id
 _symmetry_equiv_pos_as_xyz
  1  'x, y, z'
loop_
 _atom_site_type_symbol
 _atom_site_label
 _atom_site_symmetry_multiplicity
 _atom_site_fract_x
 _atom_site_fract_y
 _atom_site_fract_z
 _atom_site_occupancy
  Rb  Rb0  1  0.89908000  0.58537100  0.76325800  1
  Rb  Rb1  1  0.39908000  0.41462900  0.73674200  1
  Rb  Rb2  1  0.10092000  0.41462900  0.23674200  1
  Rb  Rb3  1  0.60092000  0.58537100  0.26325800  1
  Rb  Rb4  1  0.37185800  0.78088400  0.38934300  1
  Rb  Rb5  1  0.87185800  0.21911600  0.11065700  1
  Rb  Rb6  1  0.62814200  0.21911600  0.61065700  1
  Rb  Rb7  1  0.12814200  0.78088400  0.88934300  1
  Ag  Ag8  1  0.99321300  0.52762600  0.57303300  1
  Ag  Ag9  1  0.49321300  0.47237400  0.92696700  1
  Ag  Ag10  1  0.00678700  0.47237400  0.42696700  1
  Ag  Ag11  1  0.50678700  0.52762600  0.07303300  1
  As  As12  1  0.08981500  0.22176900  0.65192200  1
  As  As13  1  0.58981500  0.77823100  0.84807800  1
  As  As14  1  0.91018500  0.77823100  0.34807800  1
  As  As15  1  0.41018500  0.22176900  0.15192200  1
  As  As16  1  0.95841900  0.16609600  0.86278200  1
  As  As17  1  0.45841900  0.83390400  0.63721800  1
  As  As18  1  0.04158100  0.83390400  0.13721800  1
  As  As19  1  0.54158100  0.16609600  0.36278200  1
  As  As20  1  0.33248500  0.11538200  0.00616600  1
  As  As21  1  0.83248500  0.88461800  0.49383400  1
  As  As22  1  0.66751500  0.88461800  0.99383400  1
  As  As23  1  0.16751500  0.11538200  0.50616600  1
  Se  Se24  1  0.23864900  0.05204600  0.65778800  1
  Se  Se25  1  0.73864900  0.94795400  0.84221200  1
  Se  Se26  1  0.76135100  0.94795400  0.34221200  1
  Se  Se27  1  0.26135100  0.05204600  0.15778800  1
  Se  Se28  1  0.74247500  0.58798200  0.44626100  1
  Se  Se29  1  0.24247500  0.41201800  0.05373900  1
  Se  Se30  1  0.25752500  0.41201800  0.55373900  1
  Se  Se31  1  0.75752500  0.58798200  0.94626100  1
  Se  Se32  1  0.20475200  0.11931200  0.80452900  1
  Se  Se33  1  0.70475200  0.88068800  0.69547100  1
  Se  Se34  1  0.79524800  0.88068800  0.19547100  1
  Se  Se35  1  0.29524800  0.11931200  0.30452900  1
  Se  Se36  1  0.83009800  0.34482400  0.72907300  1
  Se  Se37  1  0.33009800  0.65517600  0.77092700  1
  Se  Se38  1  0.16990200  0.65517600  0.27092700  1
  Se  Se39  1  0.66990200  0.34482400  0.22907300  1
  Se  Se40  1  0.10602200  0.27590800  0.91562900  1
  Se  Se41  1  0.60602200  0.72409200  0.58437100  1
  Se  Se42  1  0.89397800  0.72409200  0.08437100  1
  Se  Se43  1  0.39397800  0.27590800  0.41562900  1
  Se  Se44  1  0.06906800  0.75098300  0.54008200  1
  Se  Se45  1  0.56906800  0.24901700  0.95991800  1
  Se  Se46  1  0.93093200  0.24901700  0.45991800  1
  Se  Se47  1  0.43093200  0.75098300  0.04008200  1
