# generated using pymatgen
data_SbMoOF9
_symmetry_space_group_name_H-M   'P 1'
_cell_length_a   10.72181100
_cell_length_b   7.68497100
_cell_length_c   12.23269941
_cell_angle_alpha   54.22757852
_cell_angle_beta   90.00000000
_cell_angle_gamma   90.00000000
_symmetry_Int_Tables_number   1
_chemical_formula_structural   SbMoOF9
_chemical_formula_sum   'Sb4 Mo4 O4 F36'
_cell_volume   817.78360891
_cell_formula_units_Z   4
loop_
 _symmetry_equiv_pos_site_id
 _symmetry_equiv_pos_as_xyz
  1  'x, y, z'
loop_
 _atom_site_type_symbol
 _atom_site_label
 _atom_site_symmetry_multiplicity
 _atom_site_fract_x
 _atom_site_fract_y
 _atom_site_fract_z
 _atom_site_occupancy
  Sb  Sb0  1  0.51725300  0.90460800  0.30862500  1
  Sb  Sb1  1  0.01725300  0.09539200  0.19137500  1
  Sb  Sb2  1  0.48274700  0.09539200  0.69137500  1
  Sb  Sb3  1  0.98274700  0.90460800  0.80862500  1
  Mo  Mo4  1  0.68716400  0.53844800  0.83501600  1
  Mo  Mo5  1  0.81283600  0.53844800  0.33501600  1
  Mo  Mo6  1  0.18716400  0.46155200  0.66498400  1
  Mo  Mo7  1  0.31283600  0.46155200  0.16498400  1
  O  O8  1  0.25118000  0.70814900  0.08334600  1
  O  O9  1  0.24882000  0.70814900  0.58334600  1
  O  O10  1  0.74882000  0.29185100  0.91665400  1
  O  O11  1  0.75118000  0.29185100  0.41665400  1
  F  F12  1  0.74468000  0.66633000  0.66031000  1
  F  F13  1  0.47808100  0.98212700  0.87656200  1
  F  F14  1  0.14744100  0.90738200  0.21924400  1
  F  F15  1  0.15087800  0.31416100  0.15713600  1
  F  F16  1  0.98088900  0.77902100  0.99552500  1
  F  F17  1  0.02191900  0.98212700  0.37656200  1
  F  F18  1  0.25532000  0.33367000  0.33969000  1
  F  F19  1  0.47326700  0.51361600  0.19375300  1
  F  F20  1  0.51911100  0.77902100  0.49552500  1
  F  F21  1  0.64368500  0.55121700  0.97783300  1
  F  F22  1  0.01911100  0.22097900  0.00447500  1
  F  F23  1  0.60410000  0.29863400  0.66064300  1
  F  F24  1  0.35255900  0.90738200  0.71924400  1
  F  F25  1  0.85255900  0.09261800  0.78075600  1
  F  F26  1  0.38813100  0.10925000  0.27846300  1
  F  F27  1  0.89590000  0.29863400  0.16064300  1
  F  F28  1  0.10410000  0.70136600  0.83935700  1
  F  F29  1  0.11186900  0.10925000  0.77846300  1
  F  F30  1  0.48088900  0.22097900  0.50447500  1
  F  F31  1  0.35631500  0.44878300  0.02216700  1
  F  F32  1  0.24468000  0.33367000  0.83969000  1
  F  F33  1  0.85631500  0.55121700  0.47783300  1
  F  F34  1  0.61186900  0.89075000  0.72153700  1
  F  F35  1  0.34912200  0.31416100  0.65713600  1
  F  F36  1  0.88813100  0.89075000  0.22153700  1
  F  F37  1  0.14368500  0.44878300  0.52216700  1
  F  F38  1  0.75532000  0.66633000  0.16031000  1
  F  F39  1  0.39590000  0.70136600  0.33935700  1
  F  F40  1  0.52191900  0.01787300  0.12343800  1
  F  F41  1  0.97326700  0.48638400  0.30624700  1
  F  F42  1  0.64744100  0.09261800  0.28075600  1
  F  F43  1  0.52673300  0.48638400  0.80624700  1
  F  F44  1  0.84912200  0.68583900  0.84286400  1
  F  F45  1  0.97808100  0.01787300  0.62343800  1
  F  F46  1  0.65087800  0.68583900  0.34286400  1
  F  F47  1  0.02673300  0.51361600  0.69375300  1
