# generated using pymatgen
data_Gd2GeO5
_symmetry_space_group_name_H-M   'P 1'
_cell_length_a   7.14232100
_cell_length_b   6.89514400
_cell_length_c   9.42275678
_cell_angle_alpha   75.06089563
_cell_angle_beta   90.00000000
_cell_angle_gamma   90.00000000
_symmetry_Int_Tables_number   1
_chemical_formula_structural   Gd2GeO5
_chemical_formula_sum   'Gd8 Ge4 O20'
_cell_volume   448.36105464
_cell_formula_units_Z   4
loop_
 _symmetry_equiv_pos_site_id
 _symmetry_equiv_pos_as_xyz
  1  'x, y, z'
loop_
 _atom_site_type_symbol
 _atom_site_label
 _atom_site_symmetry_multiplicity
 _atom_site_fract_x
 _atom_site_fract_y
 _atom_site_fract_z
 _atom_site_occupancy
  Gd  Gd0  1  0.36432600  0.95652700  0.36561800  1
  Gd  Gd1  1  0.63567400  0.04347300  0.63438200  1
  Gd  Gd2  1  0.13567400  0.45652700  0.36561800  1
  Gd  Gd3  1  0.12729600  0.26902000  0.02594400  1
  Gd  Gd4  1  0.62729600  0.23098000  0.97405600  1
  Gd  Gd5  1  0.87270400  0.73098000  0.97405600  1
  Gd  Gd6  1  0.86432600  0.54347300  0.63438200  1
  Gd  Gd7  1  0.37270400  0.76902000  0.02594400  1
  Ge  Ge8  1  0.09184700  0.02361300  0.69833500  1
  Ge  Ge9  1  0.90815300  0.97638700  0.30166500  1
  Ge  Ge10  1  0.59184700  0.47638700  0.30166500  1
  Ge  Ge11  1  0.40815300  0.52361300  0.69833500  1
  O  O12  1  0.41711100  0.67273900  0.28408100  1
  O  O13  1  0.06107800  0.78055600  0.38925200  1
  O  O14  1  0.79718200  0.50611900  0.39146500  1
  O  O15  1  0.86442800  0.00830200  0.10908400  1
  O  O16  1  0.61648800  0.93276800  0.88993700  1
  O  O17  1  0.63557200  0.50830200  0.10908400  1
  O  O18  1  0.29718200  0.99388100  0.60853500  1
  O  O19  1  0.38351200  0.06723200  0.11006300  1
  O  O20  1  0.13557200  0.99169800  0.89091600  1
  O  O21  1  0.58288900  0.32726100  0.71591900  1
  O  O22  1  0.43892200  0.28055600  0.38925200  1
  O  O23  1  0.20281800  0.49388100  0.60853500  1
  O  O24  1  0.93892200  0.21944400  0.61074800  1
  O  O25  1  0.08288900  0.17273900  0.28408100  1
  O  O26  1  0.91711100  0.82726100  0.71591900  1
  O  O27  1  0.56107800  0.71944400  0.61074800  1
  O  O28  1  0.36442800  0.49169800  0.89091600  1
  O  O29  1  0.88351200  0.43276800  0.88993700  1
  O  O30  1  0.70281800  0.00611900  0.39146500  1
  O  O31  1  0.11648800  0.56723200  0.11006300  1
