# generated using pymatgen
data_Rb2ZrS4
_symmetry_space_group_name_H-M   'P 1'
_cell_length_a   6.84295500
_cell_length_b   9.89575100
_cell_length_c   24.42251400
_cell_angle_alpha   90.00000000
_cell_angle_beta   90.00000000
_cell_angle_gamma   90.00000000
_symmetry_Int_Tables_number   1
_chemical_formula_structural   Rb2ZrS4
_chemical_formula_sum   'Rb16 Zr8 S32'
_cell_volume   1653.79932438
_cell_formula_units_Z   8
loop_
 _symmetry_equiv_pos_site_id
 _symmetry_equiv_pos_as_xyz
  1  'x, y, z'
loop_
 _atom_site_type_symbol
 _atom_site_label
 _atom_site_symmetry_multiplicity
 _atom_site_fract_x
 _atom_site_fract_y
 _atom_site_fract_z
 _atom_site_occupancy
  Rb  Rb0  1  0.45038700  0.56877600  0.80041200  1
  Rb  Rb1  1  0.30534100  0.35888700  0.03357400  1
  Rb  Rb2  1  0.04961300  0.06877600  0.19958800  1
  Rb  Rb3  1  0.80534100  0.64111300  0.46642600  1
  Rb  Rb4  1  0.95038700  0.43122400  0.69958800  1
  Rb  Rb5  1  0.19465900  0.85888700  0.96642600  1
  Rb  Rb6  1  0.54961300  0.43122400  0.19958800  1
  Rb  Rb7  1  0.19465900  0.35888700  0.53357400  1
  Rb  Rb8  1  0.45038700  0.06877600  0.69958800  1
  Rb  Rb9  1  0.04961300  0.56877600  0.30041200  1
  Rb  Rb10  1  0.69465900  0.64111300  0.96642600  1
  Rb  Rb11  1  0.30534100  0.85888700  0.46642600  1
  Rb  Rb12  1  0.80534100  0.14111300  0.03357400  1
  Rb  Rb13  1  0.95038700  0.93122400  0.80041200  1
  Rb  Rb14  1  0.54961300  0.93122400  0.30041200  1
  Rb  Rb15  1  0.69465900  0.14111300  0.53357400  1
  Zr  Zr16  1  0.03798300  0.67377800  0.13060700  1
  Zr  Zr17  1  0.53798300  0.32622200  0.36939300  1
  Zr  Zr18  1  0.96201700  0.32622200  0.86939300  1
  Zr  Zr19  1  0.96201700  0.82622200  0.63060700  1
  Zr  Zr20  1  0.46201700  0.67377800  0.63060700  1
  Zr  Zr21  1  0.03798300  0.17377800  0.36939300  1
  Zr  Zr22  1  0.53798300  0.82622200  0.13060700  1
  Zr  Zr23  1  0.46201700  0.17377800  0.86939300  1
  S  S24  1  0.72179700  0.23503800  0.79911700  1
  S  S25  1  0.05372100  0.41937800  0.15850900  1
  S  S26  1  0.84710300  0.82722200  0.06768900  1
  S  S27  1  0.37698500  0.54237900  0.41048700  1
  S  S28  1  0.27820300  0.76496200  0.20088300  1
  S  S29  1  0.55372100  0.08062200  0.15850900  1
  S  S30  1  0.15289700  0.17277800  0.93231100  1
  S  S31  1  0.77820300  0.73503800  0.20088300  1
  S  S32  1  0.62301500  0.95762100  0.91048700  1
  S  S33  1  0.37698500  0.04237900  0.08951300  1
  S  S34  1  0.44627900  0.41937800  0.65850900  1
  S  S35  1  0.34710300  0.67277800  0.06768900  1
  S  S36  1  0.62301500  0.45762100  0.58951300  1
  S  S37  1  0.22179700  0.76496200  0.70088300  1
  S  S38  1  0.94627900  0.08062200  0.65850900  1
  S  S39  1  0.12301500  0.54237900  0.91048700  1
  S  S40  1  0.55372100  0.58062200  0.34149100  1
  S  S41  1  0.22179700  0.26496200  0.79911700  1
  S  S42  1  0.84710300  0.32722200  0.43231100  1
  S  S43  1  0.94627900  0.58062200  0.84149100  1
  S  S44  1  0.87698500  0.95762100  0.41048700  1
  S  S45  1  0.34710300  0.17277800  0.43231100  1
  S  S46  1  0.87698500  0.45762100  0.08951300  1
  S  S47  1  0.77820300  0.23503800  0.29911700  1
  S  S48  1  0.15289700  0.67277800  0.56768900  1
  S  S49  1  0.65289700  0.32722200  0.93231100  1
  S  S50  1  0.72179700  0.73503800  0.70088300  1
  S  S51  1  0.12301500  0.04237900  0.58951300  1
  S  S52  1  0.44627900  0.91937800  0.84149100  1
  S  S53  1  0.05372100  0.91937800  0.34149100  1
  S  S54  1  0.65289700  0.82722200  0.56768900  1
  S  S55  1  0.27820300  0.26496200  0.29911700  1
