# generated using pymatgen
data_InBr3
_symmetry_space_group_name_H-M   'P 1'
_cell_length_a   6.93429139
_cell_length_b   6.93429139
_cell_length_c   7.14393383
_cell_angle_alpha   80.95815895
_cell_angle_beta   80.95815895
_cell_angle_gamma   120.14149272
_symmetry_Int_Tables_number   1
_chemical_formula_structural   InBr3
_chemical_formula_sum   'In2 Br6'
_cell_volume   281.94321896
_cell_formula_units_Z   2
loop_
 _symmetry_equiv_pos_site_id
 _symmetry_equiv_pos_as_xyz
  1  'x, y, z'
loop_
 _atom_site_type_symbol
 _atom_site_label
 _atom_site_symmetry_multiplicity
 _atom_site_fract_x
 _atom_site_fract_y
 _atom_site_fract_z
 _atom_site_occupancy
  In  In0  1  0.16596900  0.83403100  0.00000000  1
  In  In1  1  0.83403100  0.16596900  0.00000000  1
  Br  Br2  1  0.21781300  0.21781300  0.76604400  1
  Br  Br3  1  0.06832100  0.42537600  0.23118900  1
  Br  Br4  1  0.78218700  0.78218700  0.23395600  1
  Br  Br5  1  0.93167900  0.57462400  0.76881100  1
  Br  Br6  1  0.42537600  0.06832100  0.23118900  1
  Br  Br7  1  0.57462400  0.93167900  0.76881100  1
