# generated using pymatgen
data_K2NiP2WO10
_symmetry_space_group_name_H-M   'P 1'
_cell_length_a   9.30495300
_cell_length_b   9.30495300
_cell_length_c   10.82662400
_cell_angle_alpha   90.00000000
_cell_angle_beta   90.00000000
_cell_angle_gamma   90.00000000
_symmetry_Int_Tables_number   1
_chemical_formula_structural   K2NiP2WO10
_chemical_formula_sum   'K8 Ni4 P8 W4 O40'
_cell_volume   937.39238676
_cell_formula_units_Z   4
loop_
 _symmetry_equiv_pos_site_id
 _symmetry_equiv_pos_as_xyz
  1  'x, y, z'
loop_
 _atom_site_type_symbol
 _atom_site_label
 _atom_site_symmetry_multiplicity
 _atom_site_fract_x
 _atom_site_fract_y
 _atom_site_fract_z
 _atom_site_occupancy
  K  K0  1  0.99846300  0.71252400  0.04394800  1
  K  K1  1  0.28747600  0.00153700  0.45605200  1
  K  K2  1  0.78747600  0.49846300  0.29394800  1
  K  K3  1  0.50153700  0.21252400  0.20605200  1
  K  K4  1  0.49846300  0.78747600  0.70605200  1
  K  K5  1  0.00153700  0.28747600  0.54394800  1
  K  K6  1  0.71252400  0.99846300  0.95605200  1
  K  K7  1  0.21252400  0.50153700  0.79394800  1
  Ni  Ni8  1  0.63566200  0.63566200  0.00000000  1
  Ni  Ni9  1  0.86433800  0.13566200  0.25000000  1
  Ni  Ni10  1  0.36433800  0.36433800  0.50000000  1
  Ni  Ni11  1  0.13566200  0.86433800  0.75000000  1
  P  P12  1  0.32975800  0.82278800  0.00217000  1
  P  P13  1  0.67721200  0.82975800  0.25217000  1
  P  P14  1  0.17721200  0.67024200  0.49783000  1
  P  P15  1  0.67024200  0.17721200  0.50217000  1
  P  P16  1  0.82975800  0.67721200  0.74783000  1
  P  P17  1  0.82278800  0.32975800  0.99783000  1
  P  P18  1  0.32278800  0.17024200  0.75217000  1
  P  P19  1  0.17024200  0.32278800  0.24783000  1
  W  W20  1  0.11149400  0.11149400  0.00000000  1
  W  W21  1  0.88850600  0.88850600  0.50000000  1
  W  W22  1  0.61149400  0.38850600  0.75000000  1
  W  W23  1  0.38850600  0.61149400  0.25000000  1
  O  O24  1  0.45617000  0.49298900  0.36899200  1
  O  O25  1  0.78129000  0.76065600  0.62885800  1
  O  O26  1  0.25563800  0.26255000  0.35765200  1
  O  O27  1  0.21871000  0.23934400  0.12885800  1
  O  O28  1  0.21734600  0.48420000  0.22097000  1
  O  O29  1  0.71734600  0.01580000  0.52903000  1
  O  O30  1  0.23745000  0.75563700  0.60765200  1
  O  O31  1  0.98420000  0.28265400  0.97097000  1
  O  O32  1  0.78265400  0.51580000  0.72097000  1
  O  O33  1  0.73934400  0.28129000  0.87885800  1
  O  O34  1  0.31677200  0.00832800  0.73211400  1
  O  O35  1  0.50701100  0.54383000  0.13100800  1
  O  O36  1  0.26255000  0.25563800  0.64234800  1
  O  O37  1  0.28265400  0.98420000  0.02903000  1
  O  O38  1  0.95617000  0.00701100  0.38100800  1
  O  O39  1  0.49298900  0.45617000  0.63100800  1
  O  O40  1  0.71871000  0.26065600  0.62114200  1
  O  O41  1  0.76255000  0.24436200  0.10765200  1
  O  O42  1  0.49167200  0.81677200  0.98211400  1
  O  O43  1  0.04383000  0.99298900  0.88100800  1
  O  O44  1  0.00701100  0.95617000  0.61899200  1
  O  O45  1  0.48420000  0.21734600  0.77903000  1
  O  O46  1  0.68322800  0.99167200  0.23211400  1
  O  O47  1  0.54383000  0.50701100  0.86899200  1
  O  O48  1  0.01580000  0.71734600  0.47097000  1
  O  O49  1  0.75563700  0.23745000  0.39234800  1
  O  O50  1  0.26065600  0.71871000  0.37885800  1
  O  O51  1  0.18322800  0.50832800  0.51788600  1
  O  O52  1  0.81677200  0.49167200  0.01788600  1
  O  O53  1  0.76065600  0.78129000  0.37114200  1
  O  O54  1  0.28129000  0.73934400  0.12114200  1
  O  O55  1  0.99167200  0.68322800  0.76788600  1
  O  O56  1  0.51580000  0.78265400  0.27903000  1
  O  O57  1  0.99298900  0.04383000  0.11899200  1
  O  O58  1  0.24436200  0.76255000  0.89234800  1
  O  O59  1  0.23934400  0.21871000  0.87114200  1
  O  O60  1  0.74436300  0.73745000  0.85765200  1
  O  O61  1  0.73745000  0.74436300  0.14234800  1
  O  O62  1  0.00832800  0.31677200  0.26788600  1
  O  O63  1  0.50832800  0.18322800  0.48211400  1
