# generated using pymatgen
data_SbP2O7
_symmetry_space_group_name_H-M   'P 1'
_cell_length_a   16.33308300
_cell_length_b   8.22587000
_cell_length_c   8.31073107
_cell_angle_alpha   89.82207439
_cell_angle_beta   90.00000000
_cell_angle_gamma   90.00000000
_symmetry_Int_Tables_number   1
_chemical_formula_structural   SbP2O7
_chemical_formula_sum   'Sb8 P16 O56'
_cell_volume   1116.57306156
_cell_formula_units_Z   8
loop_
 _symmetry_equiv_pos_site_id
 _symmetry_equiv_pos_as_xyz
  1  'x, y, z'
loop_
 _atom_site_type_symbol
 _atom_site_label
 _atom_site_symmetry_multiplicity
 _atom_site_fract_x
 _atom_site_fract_y
 _atom_site_fract_z
 _atom_site_occupancy
  Sb  Sb0  1  0.87319400  0.15434300  0.52825700  1
  Sb  Sb1  1  0.37319400  0.84565700  0.97174300  1
  Sb  Sb2  1  0.12680600  0.84565700  0.47174300  1
  Sb  Sb3  1  0.62680600  0.15434300  0.02825700  1
  Sb  Sb4  1  0.36675000  0.36864400  0.48442300  1
  Sb  Sb5  1  0.86675000  0.63135600  0.01557700  1
  Sb  Sb6  1  0.63325000  0.63135600  0.51557700  1
  Sb  Sb7  1  0.13325000  0.36864400  0.98442300  1
  P  P8  1  0.67811700  0.03350900  0.40344500  1
  P  P9  1  0.17811700  0.96649100  0.09655500  1
  P  P10  1  0.32188300  0.96649100  0.59655500  1
  P  P11  1  0.82188300  0.03350900  0.90344500  1
  P  P12  1  0.66702200  0.54068900  0.11153600  1
  P  P13  1  0.16702200  0.45931100  0.38846400  1
  P  P14  1  0.33297800  0.45931100  0.88846400  1
  P  P15  1  0.83297800  0.54068900  0.61153600  1
  P  P16  1  0.58936600  0.25311500  0.63833000  1
  P  P17  1  0.08936600  0.74688500  0.86167000  1
  P  P18  1  0.41063400  0.74688500  0.36167000  1
  P  P19  1  0.91063400  0.25311500  0.13833000  1
  P  P20  1  0.42802300  0.21921000  0.07267100  1
  P  P21  1  0.92802300  0.78079000  0.42732900  1
  P  P22  1  0.57197700  0.78079000  0.92732900  1
  P  P23  1  0.07197700  0.21921000  0.57267100  1
  O  O24  1  0.41574900  0.07111000  0.95772500  1
  O  O25  1  0.91574900  0.92889000  0.54227500  1
  O  O26  1  0.58425100  0.92889000  0.04227500  1
  O  O27  1  0.08425100  0.07111000  0.45772500  1
  O  O28  1  0.37403500  0.22679600  0.21676600  1
  O  O29  1  0.87403500  0.77320400  0.28323400  1
  O  O30  1  0.62596500  0.77320400  0.78323400  1
  O  O31  1  0.12596500  0.22679600  0.71676600  1
  O  O32  1  0.41541400  0.37117300  0.95200100  1
  O  O33  1  0.91541400  0.62882700  0.54799900  1
  O  O34  1  0.58458600  0.62882700  0.04799900  1
  O  O35  1  0.08458600  0.37117300  0.45200100  1
  O  O36  1  0.66998100  0.37831800  0.01507500  1
  O  O37  1  0.16998100  0.62168200  0.48492500  1
  O  O38  1  0.33001900  0.62168200  0.98492500  1
  O  O39  1  0.83001900  0.37831800  0.51507500  1
  O  O40  1  0.52051400  0.23346700  0.11861700  1
  O  O41  1  0.02051400  0.76653300  0.38138300  1
  O  O42  1  0.47948600  0.76653300  0.88138300  1
  O  O43  1  0.97948600  0.23346700  0.61861700  1
  O  O44  1  0.65825800  0.37667900  0.62794200  1
  O  O45  1  0.15825800  0.62332100  0.87205800  1
  O  O46  1  0.34174200  0.62332100  0.37205800  1
  O  O47  1  0.84174200  0.37667900  0.12794200  1
  O  O48  1  0.34394400  0.48908700  0.70957000  1
  O  O49  1  0.84394400  0.51091300  0.79043000  1
  O  O50  1  0.65605600  0.51091300  0.29043000  1
  O  O51  1  0.15605600  0.48908700  0.20957000  1
  O  O52  1  0.66591100  0.14321500  0.25349500  1
  O  O53  1  0.16591100  0.85678500  0.24650500  1
  O  O54  1  0.33408900  0.85678500  0.74650500  1
  O  O55  1  0.83408900  0.14321500  0.75349500  1
  O  O56  1  0.33796900  0.14429900  0.62533700  1
  O  O57  1  0.83796900  0.85570100  0.87466300  1
  O  O58  1  0.66203100  0.85570100  0.37466300  1
  O  O59  1  0.16203100  0.14429900  0.12533700  1
  O  O60  1  0.23861300  0.35299200  0.43949900  1
  O  O61  1  0.73861300  0.64700800  0.06050100  1
  O  O62  1  0.76138700  0.64700800  0.56050100  1
  O  O63  1  0.26138700  0.35299200  0.93949900  1
  O  O64  1  0.58255300  0.17073800  0.80944900  1
  O  O65  1  0.08255300  0.82926200  0.69055100  1
  O  O66  1  0.41744700  0.82926200  0.19055100  1
  O  O67  1  0.91744700  0.17073800  0.30944900  1
  O  O68  1  0.61451800  0.09220300  0.53420200  1
  O  O69  1  0.11451800  0.90779700  0.96579800  1
  O  O70  1  0.38548200  0.90779700  0.46579800  1
  O  O71  1  0.88548200  0.09220300  0.03420200  1
  O  O72  1  0.50697500  0.30977000  0.58309900  1
  O  O73  1  0.00697500  0.69023000  0.91690100  1
  O  O74  1  0.49302500  0.69023000  0.41690100  1
  O  O75  1  0.99302500  0.30977000  0.08309900  1
  O  O76  1  0.76558100  0.06391200  0.46531100  1
  O  O77  1  0.26558100  0.93608800  0.03468900  1
  O  O78  1  0.23441900  0.93608800  0.53468900  1
  O  O79  1  0.73441900  0.06391200  0.96531100  1
