# generated using pymatgen
data_Sm2Se5O13
_symmetry_space_group_name_H-M   'P 1'
_cell_length_a   10.48036600
_cell_length_b   10.35826400
_cell_length_c   13.11416814
_cell_angle_alpha   68.10085933
_cell_angle_beta   90.00000000
_cell_angle_gamma   90.00000000
_symmetry_Int_Tables_number   1
_chemical_formula_structural   Sm2Se5O13
_chemical_formula_sum   'Sm8 Se20 O52'
_cell_volume   1320.92490662
_cell_formula_units_Z   4
loop_
 _symmetry_equiv_pos_site_id
 _symmetry_equiv_pos_as_xyz
  1  'x, y, z'
loop_
 _atom_site_type_symbol
 _atom_site_label
 _atom_site_symmetry_multiplicity
 _atom_site_fract_x
 _atom_site_fract_y
 _atom_site_fract_z
 _atom_site_occupancy
  Sm  Sm0  1  0.25435100  0.17618300  0.09169200  1
  Sm  Sm1  1  0.81962800  0.06247300  0.08383600  1
  Sm  Sm2  1  0.18037200  0.93752700  0.91616400  1
  Sm  Sm3  1  0.74564900  0.82381700  0.90830800  1
  Sm  Sm4  1  0.68037200  0.06247300  0.58383600  1
  Sm  Sm5  1  0.75435100  0.82381700  0.40830800  1
  Sm  Sm6  1  0.24564900  0.17618300  0.59169200  1
  Sm  Sm7  1  0.31962800  0.93752700  0.41616400  1
  Se  Se8  1  0.92093100  0.09845500  0.77438400  1
  Se  Se9  1  0.42447300  0.64705000  0.03606700  1
  Se  Se10  1  0.57552700  0.35295000  0.96393300  1
  Se  Se11  1  0.26816600  0.34085100  0.30747900  1
  Se  Se12  1  0.76816600  0.65914900  0.19252100  1
  Se  Se13  1  0.92447300  0.35295000  0.46393300  1
  Se  Se14  1  0.42093100  0.90154500  0.72561600  1
  Se  Se15  1  0.42898000  0.84846100  0.17868200  1
  Se  Se16  1  0.51646000  0.40556000  0.40290900  1
  Se  Se17  1  0.23183400  0.34085100  0.80747900  1
  Se  Se18  1  0.92898000  0.15153900  0.32131800  1
  Se  Se19  1  0.01646000  0.59444000  0.09709100  1
  Se  Se20  1  0.98354000  0.40556000  0.90290900  1
  Se  Se21  1  0.57906900  0.09845500  0.27438400  1
  Se  Se22  1  0.73183400  0.65914900  0.69252100  1
  Se  Se23  1  0.07906900  0.90154500  0.22561600  1
  Se  Se24  1  0.07552700  0.64705000  0.53606700  1
  Se  Se25  1  0.48354000  0.59444000  0.59709100  1
  Se  Se26  1  0.57102000  0.15153900  0.82131800  1
  Se  Se27  1  0.07102000  0.84846100  0.67868200  1
  O  O28  1  0.26869600  0.32718800  0.68777400  1
  O  O29  1  0.23585400  0.17257600  0.90482900  1
  O  O30  1  0.36684100  0.79620600  0.94148500  1
  O  O31  1  0.42349000  0.08457900  0.23258100  1
  O  O32  1  0.33360300  0.02042500  0.76420100  1
  O  O33  1  0.83360300  0.97957500  0.73579900  1
  O  O34  1  0.55673200  0.98029900  0.41000200  1
  O  O35  1  0.66639700  0.97957500  0.23579900  1
  O  O36  1  0.94326800  0.98029900  0.91000200  1
  O  O37  1  0.44326800  0.01970100  0.58999800  1
  O  O38  1  0.89198300  0.63731500  0.00796400  1
  O  O39  1  0.39198300  0.36268500  0.49203600  1
  O  O40  1  0.60801700  0.63731500  0.50796400  1
  O  O41  1  0.76414600  0.82742400  0.09517100  1
  O  O42  1  0.26414600  0.17257600  0.40482900  1
  O  O43  1  0.68752500  0.05210600  0.91013300  1
  O  O44  1  0.57651000  0.91542100  0.76741900  1
  O  O45  1  0.92349000  0.91542100  0.26741900  1
  O  O46  1  0.58376900  0.66592800  0.01220300  1
  O  O47  1  0.36713100  0.79609900  0.30598900  1
  O  O48  1  0.90425100  0.32369700  0.33419900  1
  O  O49  1  0.13315900  0.79620600  0.44148500  1
  O  O50  1  0.86713100  0.20390100  0.19401100  1
  O  O51  1  0.31247500  0.94789400  0.08986700  1
  O  O52  1  0.55803400  0.63879800  0.71179800  1
  O  O53  1  0.94196600  0.63879800  0.21179800  1
  O  O54  1  0.23130400  0.32718800  0.18777400  1
  O  O55  1  0.37872400  0.72617400  0.55501700  1
  O  O56  1  0.05673200  0.01970100  0.08999800  1
  O  O57  1  0.87872400  0.27382600  0.94498300  1
  O  O58  1  0.05803400  0.36120200  0.78820200  1
  O  O59  1  0.07651000  0.08457900  0.73258100  1
  O  O60  1  0.63315900  0.20379400  0.05851500  1
  O  O61  1  0.10801700  0.36268500  0.99203600  1
  O  O62  1  0.76869600  0.67281200  0.81222600  1
  O  O63  1  0.73585400  0.82742400  0.59517100  1
  O  O64  1  0.73130400  0.67281200  0.31222600  1
  O  O65  1  0.40425100  0.67630300  0.16580100  1
  O  O66  1  0.44196600  0.36120200  0.28820200  1
  O  O67  1  0.59574900  0.32369700  0.83419900  1
  O  O68  1  0.86684100  0.20379400  0.55851500  1
  O  O69  1  0.18752500  0.94789400  0.58986700  1
  O  O70  1  0.63286900  0.20390100  0.69401100  1
  O  O71  1  0.16639700  0.02042500  0.26420100  1
  O  O72  1  0.62127600  0.27382600  0.44498300  1
  O  O73  1  0.91623100  0.66592800  0.51220300  1
  O  O74  1  0.09574900  0.67630300  0.66580100  1
  O  O75  1  0.08376900  0.33407200  0.48779700  1
  O  O76  1  0.12127600  0.72617400  0.05501700  1
  O  O77  1  0.41623100  0.33407200  0.98779700  1
  O  O78  1  0.81247500  0.05210600  0.41013300  1
  O  O79  1  0.13286900  0.79609900  0.80598900  1
