# generated using pymatgen
data_MoF5
_symmetry_space_group_name_H-M   'P 1'
_cell_length_a   8.85699919
_cell_length_b   8.85699919
_cell_length_c   5.47163637
_cell_angle_alpha   88.67643808
_cell_angle_beta   88.67643808
_cell_angle_gamma   111.31457217
_symmetry_Int_Tables_number   1
_chemical_formula_structural   MoF5
_chemical_formula_sum   'Mo4 F20'
_cell_volume   399.53517694
_cell_formula_units_Z   4
loop_
 _symmetry_equiv_pos_site_id
 _symmetry_equiv_pos_as_xyz
  1  'x, y, z'
loop_
 _atom_site_type_symbol
 _atom_site_label
 _atom_site_symmetry_multiplicity
 _atom_site_fract_x
 _atom_site_fract_y
 _atom_site_fract_z
 _atom_site_occupancy
  Mo  Mo0  1  0.79827400  0.20172600  0.00000000  1
  Mo  Mo1  1  0.20172600  0.79827400  0.00000000  1
  Mo  Mo2  1  0.74408800  0.74408800  0.73759400  1
  Mo  Mo3  1  0.25591200  0.25591200  0.26240600  1
  F  F4  1  0.86262500  0.86262500  0.46694800  1
  F  F5  1  0.13737500  0.13737500  0.53305200  1
  F  F6  1  0.66809300  0.66809300  0.05317100  1
  F  F7  1  0.33190700  0.33190700  0.94682900  1
  F  F8  1  0.54157300  0.72764100  0.62036400  1
  F  F9  1  0.27235900  0.45842700  0.37963600  1
  F  F10  1  0.45842700  0.27235900  0.37963600  1
  F  F11  1  0.72764100  0.54157300  0.62036400  1
  F  F12  1  0.77360900  0.97278000  0.87249200  1
  F  F13  1  0.02722000  0.22639100  0.12750800  1
  F  F14  1  0.22639100  0.02722000  0.12750800  1
  F  F15  1  0.97278000  0.77360900  0.87249200  1
  F  F16  1  0.91048700  0.27861500  0.70461600  1
  F  F17  1  0.72138500  0.08951300  0.29538400  1
  F  F18  1  0.08951300  0.72138500  0.29538400  1
  F  F19  1  0.27861500  0.91048700  0.70461600  1
  F  F20  1  0.59273800  0.17390200  0.88210000  1
  F  F21  1  0.82609800  0.40726200  0.11790000  1
  F  F22  1  0.40726200  0.82609800  0.11790000  1
  F  F23  1  0.17390200  0.59273800  0.88210000  1
