# generated using pymatgen
data_K6U2(Cu4S5)3
_symmetry_space_group_name_H-M   'P 1'
_cell_length_a   16.24585890
_cell_length_b   16.24585965
_cell_length_c   16.24585954
_cell_angle_alpha   109.47122048
_cell_angle_beta   109.47122141
_cell_angle_gamma   109.47122070
_symmetry_Int_Tables_number   1
_chemical_formula_structural   K6U2(Cu4S5)3
_chemical_formula_sum   'K24 U8 Cu48 S60'
_cell_volume   3300.70091583
_cell_formula_units_Z   4
loop_
 _symmetry_equiv_pos_site_id
 _symmetry_equiv_pos_as_xyz
  1  'x, y, z'
loop_
 _atom_site_type_symbol
 _atom_site_label
 _atom_site_symmetry_multiplicity
 _atom_site_fract_x
 _atom_site_fract_y
 _atom_site_fract_z
 _atom_site_occupancy
  K  K0  1  0.59206345  0.75000000  0.90793655  1
  K  K1  1  0.31587310  0.40793655  0.65793655  1
  K  K2  1  0.09206345  0.18412690  0.84206345  1
  K  K3  1  0.84206345  0.09206345  0.18412690  1
  K  K4  1  0.84206345  0.25000000  0.65793655  1
  K  K5  1  0.81587310  0.15793655  0.90793655  1
  K  K6  1  0.75000000  0.90793655  0.59206345  1
  K  K7  1  0.68412690  0.59206345  0.34206345  1
  K  K8  1  0.34206345  0.15793655  0.75000000  1
  K  K9  1  0.25000000  0.65793655  0.84206345  1
  K  K10  1  0.18412690  0.84206345  0.09206345  1
  K  K11  1  0.15793655  0.90793655  0.81587310  1
  K  K12  1  0.40793655  0.25000000  0.09206345  1
  K  K13  1  0.75000000  0.34206345  0.15793655  1
  K  K14  1  0.25000000  0.09206345  0.40793655  1
  K  K15  1  0.40793655  0.65793655  0.31587310  1
  K  K16  1  0.34206345  0.68412690  0.59206345  1
  K  K17  1  0.15793655  0.75000000  0.34206345  1
  K  K18  1  0.65793655  0.84206345  0.25000000  1
  K  K19  1  0.09206345  0.40793655  0.25000000  1
  K  K20  1  0.59206345  0.34206345  0.68412690  1
  K  K21  1  0.90793655  0.59206345  0.75000000  1
  K  K22  1  0.65793655  0.31587310  0.40793655  1
  K  K23  1  0.90793655  0.81587310  0.15793655  1
  U  U24  1  0.00000000  0.00000000  0.00000000  1
  U  U25  1  0.00000000  0.50000000  0.50000000  1
  U  U26  1  0.00000000  0.00000000  0.50000000  1
  U  U27  1  0.50000000  0.00000000  0.00000000  1
  U  U28  1  0.00000000  0.50000000  0.00000000  1
  U  U29  1  0.50000000  0.50000000  0.00000000  1
  U  U30  1  0.50000000  0.50000000  0.50000000  1
  U  U31  1  0.50000000  0.00000000  0.50000000  1
  Cu  Cu32  1  0.91568434  0.84878617  0.78094961  1
  Cu  Cu33  1  0.06689818  0.15121383  0.43216344  1
  Cu  Cu34  1  0.43310182  0.06783656  0.34878617  1
  Cu  Cu35  1  0.06783656  0.21905039  0.63473473  1
  Cu  Cu36  1  0.56783656  0.13473473  0.71905039  1
  Cu  Cu37  1  0.63473473  0.06689818  0.41568434  1
  Cu  Cu38  1  0.65121383  0.56689818  0.93216344  1
  Cu  Cu39  1  0.91568434  0.56689818  0.13473473  1
  Cu  Cu40  1  0.84878617  0.56783656  0.93310182  1
  Cu  Cu41  1  0.93216344  0.65121383  0.56689818  1
  Cu  Cu42  1  0.36526527  0.93216344  0.78094961  1
  Cu  Cu43  1  0.65121383  0.58431566  0.71905039  1
  Cu  Cu44  1  0.13473473  0.71905039  0.56783656  1
  Cu  Cu45  1  0.43310182  0.86526527  0.08431566  1
  Cu  Cu46  1  0.28094961  0.34878617  0.41568434  1
  Cu  Cu47  1  0.15121383  0.21905039  0.08431566  1
  Cu  Cu48  1  0.58431566  0.36526527  0.93310182  1
  Cu  Cu49  1  0.34878617  0.43310182  0.06783656  1
  Cu  Cu50  1  0.86526527  0.08431566  0.43310182  1
  Cu  Cu51  1  0.56689818  0.13473473  0.91568434  1
  Cu  Cu52  1  0.36526527  0.93310182  0.58431566  1
  Cu  Cu53  1  0.63473473  0.06783656  0.21905039  1
  Cu  Cu54  1  0.41568434  0.63473473  0.06689818  1
  Cu  Cu55  1  0.34878617  0.41568434  0.28094961  1
  Cu  Cu56  1  0.86526527  0.28094961  0.43216344  1
  Cu  Cu57  1  0.43216344  0.86526527  0.28094961  1
  Cu  Cu58  1  0.84878617  0.78094961  0.91568434  1
  Cu  Cu59  1  0.28094961  0.43216344  0.86526527  1
  Cu  Cu60  1  0.43216344  0.06689818  0.15121383  1
  Cu  Cu61  1  0.71905039  0.65121383  0.58431566  1
  Cu  Cu62  1  0.78094961  0.91568434  0.84878617  1
  Cu  Cu63  1  0.06783656  0.34878617  0.43310182  1
  Cu  Cu64  1  0.71905039  0.56783656  0.13473473  1
  Cu  Cu65  1  0.21905039  0.63473473  0.06783656  1
  Cu  Cu66  1  0.56783656  0.93310182  0.84878617  1
  Cu  Cu67  1  0.08431566  0.43310182  0.86526527  1
  Cu  Cu68  1  0.93216344  0.78094961  0.36526527  1
  Cu  Cu69  1  0.41568434  0.28094961  0.34878617  1
  Cu  Cu70  1  0.78094961  0.36526527  0.93216344  1
  Cu  Cu71  1  0.58431566  0.71905039  0.65121383  1
  Cu  Cu72  1  0.08431566  0.15121383  0.21905039  1
  Cu  Cu73  1  0.56689818  0.93216344  0.65121383  1
  Cu  Cu74  1  0.13473473  0.91568434  0.56689818  1
  Cu  Cu75  1  0.93310182  0.84878617  0.56783656  1
  Cu  Cu76  1  0.15121383  0.43216344  0.06689818  1
  Cu  Cu77  1  0.93310182  0.58431566  0.36526527  1
  Cu  Cu78  1  0.21905039  0.08431566  0.15121383  1
  Cu  Cu79  1  0.06689818  0.41568434  0.63473473  1
  S  S80  1  0.58318216  0.16442353  0.49168465  1
  S  S81  1  0.16442353  0.17273888  0.58124137  1
  S  S82  1  0.99168465  0.82726112  0.90850249  1
  S  S83  1  0.12500000  0.37500000  0.75000000  1
  S  S84  1  0.49168465  0.40850249  0.32726112  1
  S  S85  1  0.87500000  0.75000000  0.62500000  1
  S  S86  1  0.17273888  0.09149751  0.00831535  1
  S  S87  1  0.08318216  0.99168465  0.66442353  1
  S  S88  1  0.87500000  0.62500000  0.25000000  1
  S  S89  1  0.82726112  0.90850249  0.99168465  1
  S  S90  1  0.09149751  0.58318216  0.91875863  1
  S  S91  1  0.08318216  0.59149751  0.41875863  1
  S  S92  1  0.58124137  0.16442353  0.17273888  1
  S  S93  1  0.91681784  0.40850249  0.58124137  1
  S  S94  1  0.91875863  0.32726112  0.33557647  1
  S  S95  1  0.62500000  0.87500000  0.75000000  1
  S  S96  1  0.50831535  0.59149751  0.67273888  1
  S  S97  1  0.83557647  0.50831535  0.41681784  1
  S  S98  1  0.08124137  0.90850249  0.41681784  1
  S  S99  1  0.49168465  0.58318216  0.16442353  1
  S  S100  1  0.58318216  0.91875863  0.09149751  1
  S  S101  1  0.37500000  0.75000000  0.12500000  1
  S  S102  1  0.37500000  0.12500000  0.25000000  1
  S  S103  1  0.09149751  0.00831535  0.17273888  1
  S  S104  1  0.41875863  0.83557647  0.82726112  1
  S  S105  1  0.91681784  0.00831535  0.33557647  1
  S  S106  1  0.83557647  0.82726112  0.41875863  1
  S  S107  1  0.58124137  0.91681784  0.40850249  1
  S  S108  1  0.82726112  0.41875863  0.83557647  1
  S  S109  1  0.90850249  0.41681784  0.08124137  1
  S  S110  1  0.25000000  0.87500000  0.62500000  1
  S  S111  1  0.66442353  0.08318216  0.99168465  1
  S  S112  1  0.75000000  0.12500000  0.37500000  1
  S  S113  1  0.33557647  0.91681784  0.00831535  1
  S  S114  1  0.50831535  0.41681784  0.83557647  1
  S  S115  1  0.40850249  0.58124137  0.91681784  1
  S  S116  1  0.16442353  0.49168465  0.58318216  1
  S  S117  1  0.12500000  0.25000000  0.37500000  1
  S  S118  1  0.67273888  0.66442353  0.08124137  1
  S  S119  1  0.59149751  0.67273888  0.50831535  1
  S  S120  1  0.32726112  0.49168465  0.40850249  1
  S  S121  1  0.99168465  0.66442353  0.08318216  1
  S  S122  1  0.62500000  0.25000000  0.87500000  1
  S  S123  1  0.67273888  0.50831535  0.59149751  1
  S  S124  1  0.32726112  0.33557647  0.91875863  1
  S  S125  1  0.08124137  0.67273888  0.66442353  1
  S  S126  1  0.66442353  0.08124137  0.67273888  1
  S  S127  1  0.91875863  0.09149751  0.58318216  1
  S  S128  1  0.41875863  0.08318216  0.59149751  1
  S  S129  1  0.90850249  0.99168465  0.82726112  1
  S  S130  1  0.41681784  0.83557647  0.50831535  1
  S  S131  1  0.40850249  0.32726112  0.49168465  1
  S  S132  1  0.33557647  0.91875863  0.32726112  1
  S  S133  1  0.17273888  0.58124137  0.16442353  1
  S  S134  1  0.25000000  0.37500000  0.12500000  1
  S  S135  1  0.00831535  0.17273888  0.09149751  1
  S  S136  1  0.00831535  0.33557647  0.91681784  1
  S  S137  1  0.75000000  0.62500000  0.87500000  1
  S  S138  1  0.59149751  0.41875863  0.08318216  1
  S  S139  1  0.41681784  0.08124137  0.90850249  1
