# generated using pymatgen
data_Nb3P
_symmetry_space_group_name_H-M   'P 1'
_cell_length_a   10.20231800
_cell_length_b   10.20231800
_cell_length_c   5.12119400
_cell_angle_alpha   90.00000000
_cell_angle_beta   90.00000000
_cell_angle_gamma   90.00000000
_symmetry_Int_Tables_number   1
_chemical_formula_structural   Nb3P
_chemical_formula_sum   'Nb24 P8'
_cell_volume   533.05121820
_cell_formula_units_Z   8
loop_
 _symmetry_equiv_pos_site_id
 _symmetry_equiv_pos_as_xyz
  1  'x, y, z'
loop_
 _atom_site_type_symbol
 _atom_site_label
 _atom_site_symmetry_multiplicity
 _atom_site_fract_x
 _atom_site_fract_y
 _atom_site_fract_z
 _atom_site_occupancy
  Nb  Nb0  1  0.40305700  0.91378300  0.47600600  1
  Nb  Nb1  1  0.41378300  0.09694300  0.97600600  1
  Nb  Nb2  1  0.58621700  0.90305700  0.97600600  1
  Nb  Nb3  1  0.59694300  0.08621700  0.47600600  1
  Nb  Nb4  1  0.09694300  0.58621700  0.02399400  1
  Nb  Nb5  1  0.08621700  0.40305700  0.52399400  1
  Nb  Nb6  1  0.91378300  0.59694300  0.52399400  1
  Nb  Nb7  1  0.90305700  0.41378300  0.02399400  1
  Nb  Nb8  1  0.01279000  0.85492900  0.26501400  1
  Nb  Nb9  1  0.35492900  0.48721000  0.76501400  1
  Nb  Nb10  1  0.64507100  0.51279000  0.76501400  1
  Nb  Nb11  1  0.98721000  0.14507100  0.26501400  1
  Nb  Nb12  1  0.48721000  0.64507100  0.23498600  1
  Nb  Nb13  1  0.14507100  0.01279000  0.73498600  1
  Nb  Nb14  1  0.85492900  0.98721000  0.73498600  1
  Nb  Nb15  1  0.51279000  0.35492900  0.23498600  1
  Nb  Nb16  1  0.28691000  0.80905600  0.98997900  1
  Nb  Nb17  1  0.30905600  0.21309000  0.48997900  1
  Nb  Nb18  1  0.69094400  0.78691000  0.48997900  1
  Nb  Nb19  1  0.71309000  0.19094400  0.98997900  1
  Nb  Nb20  1  0.21309000  0.69094400  0.51002100  1
  Nb  Nb21  1  0.19094400  0.28691000  0.01002100  1
  Nb  Nb22  1  0.80905600  0.71309000  0.01002100  1
  Nb  Nb23  1  0.78691000  0.30905600  0.51002100  1
  P  P24  1  0.02416500  0.79292000  0.76940900  1
  P  P25  1  0.29292000  0.47583500  0.26940900  1
  P  P26  1  0.70708000  0.52416500  0.26940900  1
  P  P27  1  0.97583500  0.20708000  0.76940900  1
  P  P28  1  0.47583500  0.70708000  0.73059100  1
  P  P29  1  0.20708000  0.02416500  0.23059100  1
  P  P30  1  0.79292000  0.97583500  0.23059100  1
  P  P31  1  0.52416500  0.29292000  0.73059100  1
