# generated using pymatgen
data_Al2AgCl5O
_symmetry_space_group_name_H-M   'P 1'
_cell_length_a   11.54482700
_cell_length_b   12.58842800
_cell_length_c   13.31928400
_cell_angle_alpha   90.00000000
_cell_angle_beta   90.00000000
_cell_angle_gamma   90.00000000
_symmetry_Int_Tables_number   1
_chemical_formula_structural   Al2AgCl5O
_chemical_formula_sum   'Al16 Ag8 Cl40 O8'
_cell_volume   1935.70783936
_cell_formula_units_Z   8
loop_
 _symmetry_equiv_pos_site_id
 _symmetry_equiv_pos_as_xyz
  1  'x, y, z'
loop_
 _atom_site_type_symbol
 _atom_site_label
 _atom_site_symmetry_multiplicity
 _atom_site_fract_x
 _atom_site_fract_y
 _atom_site_fract_z
 _atom_site_occupancy
  Al  Al0  1  0.79427000  0.54097300  0.86453400  1
  Al  Al1  1  0.51467800  0.89519800  0.99754900  1
  Al  Al2  1  0.01467800  0.60480200  0.00245100  1
  Al  Al3  1  0.70573000  0.04097300  0.86453400  1
  Al  Al4  1  0.98532200  0.39519800  0.99754900  1
  Al  Al5  1  0.20573000  0.45902700  0.13546600  1
  Al  Al6  1  0.51467800  0.60480200  0.49754900  1
  Al  Al7  1  0.98532200  0.10480200  0.49754900  1
  Al  Al8  1  0.48532200  0.39519800  0.50245100  1
  Al  Al9  1  0.29427000  0.54097300  0.63546600  1
  Al  Al10  1  0.20573000  0.04097300  0.63546600  1
  Al  Al11  1  0.70573000  0.45902700  0.36453400  1
  Al  Al12  1  0.01467800  0.89519800  0.50245100  1
  Al  Al13  1  0.29427000  0.95902700  0.13546600  1
  Al  Al14  1  0.48532200  0.10480200  0.00245100  1
  Al  Al15  1  0.79427000  0.95902700  0.36453400  1
  Ag  Ag16  1  0.01793200  0.34876000  0.69170000  1
  Ag  Ag17  1  0.98206800  0.65124000  0.30830000  1
  Ag  Ag18  1  0.51793200  0.34876000  0.80830000  1
  Ag  Ag19  1  0.51793200  0.15124000  0.30830000  1
  Ag  Ag20  1  0.48206800  0.65124000  0.19170000  1
  Ag  Ag21  1  0.98206800  0.84876000  0.80830000  1
  Ag  Ag22  1  0.01793200  0.15124000  0.19170000  1
  Ag  Ag23  1  0.48206800  0.84876000  0.69170000  1
  Cl  Cl24  1  0.21235300  0.28848500  0.14318100  1
  Cl  Cl25  1  0.63250800  0.01666100  0.42574900  1
  Cl  Cl26  1  0.61385000  0.68996200  0.60651000  1
  Cl  Cl27  1  0.28764700  0.71151500  0.64318100  1
  Cl  Cl28  1  0.11385000  0.68996200  0.89349000  1
  Cl  Cl29  1  0.13250800  0.01666100  0.07425100  1
  Cl  Cl30  1  0.88615000  0.18996200  0.60651000  1
  Cl  Cl31  1  0.71235300  0.28848500  0.35681900  1
  Cl  Cl32  1  0.71235300  0.21151500  0.85681900  1
  Cl  Cl33  1  0.78764700  0.78848500  0.35681900  1
  Cl  Cl34  1  0.67539900  0.97047200  0.71936500  1
  Cl  Cl35  1  0.28764700  0.78848500  0.14318100  1
  Cl  Cl36  1  0.11385000  0.81003800  0.39349000  1
  Cl  Cl37  1  0.44581200  0.79319100  0.88392300  1
  Cl  Cl38  1  0.88615000  0.31003800  0.10651000  1
  Cl  Cl39  1  0.36749200  0.98333900  0.57425100  1
  Cl  Cl40  1  0.36749200  0.51666100  0.07425100  1
  Cl  Cl41  1  0.82460100  0.47047200  0.71936500  1
  Cl  Cl42  1  0.78764700  0.71151500  0.85681900  1
  Cl  Cl43  1  0.05418800  0.29319100  0.88392300  1
  Cl  Cl44  1  0.55418800  0.20680900  0.11607700  1
  Cl  Cl45  1  0.94581200  0.79319100  0.61607700  1
  Cl  Cl46  1  0.21235300  0.21151500  0.64318100  1
  Cl  Cl47  1  0.61385000  0.81003800  0.10651000  1
  Cl  Cl48  1  0.44581200  0.70680900  0.38392300  1
  Cl  Cl49  1  0.94581200  0.70680900  0.11607700  1
  Cl  Cl50  1  0.13250800  0.48333900  0.57425100  1
  Cl  Cl51  1  0.32460100  0.47047200  0.78063500  1
  Cl  Cl52  1  0.17539900  0.52952800  0.28063500  1
  Cl  Cl53  1  0.38615000  0.31003800  0.39349000  1
  Cl  Cl54  1  0.55418800  0.29319100  0.61607700  1
  Cl  Cl55  1  0.38615000  0.18996200  0.89349000  1
  Cl  Cl56  1  0.86749200  0.98333900  0.92574900  1
  Cl  Cl57  1  0.32460100  0.02952800  0.28063500  1
  Cl  Cl58  1  0.05418800  0.20680900  0.38392300  1
  Cl  Cl59  1  0.17539900  0.97047200  0.78063500  1
  Cl  Cl60  1  0.63250800  0.48333900  0.92574900  1
  Cl  Cl61  1  0.82460100  0.02952800  0.21936500  1
  Cl  Cl62  1  0.86749200  0.51666100  0.42574900  1
  Cl  Cl63  1  0.67539900  0.52952800  0.21936500  1
  O  O64  1  0.41200000  0.98864300  0.05266800  1
  O  O65  1  0.91200000  0.98864300  0.44733200  1
  O  O66  1  0.91200000  0.51135700  0.94733200  1
  O  O67  1  0.08800000  0.48864300  0.05266800  1
  O  O68  1  0.58800000  0.01135700  0.94733200  1
  O  O69  1  0.41200000  0.51135700  0.55266800  1
  O  O70  1  0.08800000  0.01135700  0.55266800  1
  O  O71  1  0.58800000  0.48864300  0.44733200  1
