# generated using pymatgen
data_Ba2NiMoO6
_symmetry_space_group_name_H-M   'P 1'
_cell_length_a   5.78727560
_cell_length_b   5.78726989
_cell_length_c   10.02386197
_cell_angle_alpha   90.00011494
_cell_angle_beta   73.22126906
_cell_angle_gamma   60.00016831
_symmetry_Int_Tables_number   1
_chemical_formula_structural   Ba2NiMoO6
_chemical_formula_sum   'Ba4 Ni2 Mo2 O12'
_cell_volume   274.11812350
_cell_formula_units_Z   2
loop_
 _symmetry_equiv_pos_site_id
 _symmetry_equiv_pos_as_xyz
  1  'x, y, z'
loop_
 _atom_site_type_symbol
 _atom_site_label
 _atom_site_symmetry_multiplicity
 _atom_site_fract_x
 _atom_site_fract_y
 _atom_site_fract_z
 _atom_site_occupancy
  Ba  Ba0  1  0.75000000  0.12500000  0.37500000  1
  Ba  Ba1  1  0.75000000  0.62500000  0.87500000  1
  Ba  Ba2  1  0.24999900  0.37499900  0.12500000  1
  Ba  Ba3  1  0.24999900  0.87499900  0.62500000  1
  Ni  Ni4  1  0.00000800  0.00000000  0.00000000  1
  Ni  Ni5  1  0.00000900  0.50000000  0.50000000  1
  Mo  Mo6  1  0.50000000  0.74999900  0.24999900  1
  Mo  Mo7  1  0.50000000  0.24999900  0.75000100  1
  O  O8  1  0.26050500  0.63025300  0.36974700  1
  O  O9  1  0.26050600  0.13025400  0.86974600  1
  O  O10  1  0.73949000  0.63025400  0.36974700  1
  O  O11  1  0.73948900  0.13025500  0.86974600  1
  O  O12  1  0.73949100  0.39076200  0.13025400  1
  O  O13  1  0.73949200  0.89076000  0.63025300  1
  O  O14  1  0.73949100  0.86974500  0.13025400  1
  O  O15  1  0.73949200  0.36974600  0.63025300  1
  O  O16  1  0.26050800  0.86974400  0.13025400  1
  O  O17  1  0.26050700  0.36974500  0.63025300  1
  O  O18  1  0.26050600  0.10924000  0.36974700  1
  O  O19  1  0.26050700  0.60923800  0.86974600  1
