# generated using pymatgen
data_EuMn2O5
_symmetry_space_group_name_H-M   'P 1'
_cell_length_a   5.83372500
_cell_length_b   7.54357600
_cell_length_c   8.68028500
_cell_angle_alpha   90.00000000
_cell_angle_beta   90.00000000
_cell_angle_gamma   90.00000000
_symmetry_Int_Tables_number   1
_chemical_formula_structural   EuMn2O5
_chemical_formula_sum   'Eu4 Mn8 O20'
_cell_volume   381.99458581
_cell_formula_units_Z   4
loop_
 _symmetry_equiv_pos_site_id
 _symmetry_equiv_pos_as_xyz
  1  'x, y, z'
loop_
 _atom_site_type_symbol
 _atom_site_label
 _atom_site_symmetry_multiplicity
 _atom_site_fract_x
 _atom_site_fract_y
 _atom_site_fract_z
 _atom_site_occupancy
  Eu  Eu0  1  0.00000000  0.14062400  0.17070600  1
  Eu  Eu1  1  0.00000000  0.85937600  0.82929400  1
  Eu  Eu2  1  0.00000000  0.64062400  0.32929400  1
  Eu  Eu3  1  0.00000000  0.35937600  0.67070600  1
  Mn  Mn4  1  0.25452200  0.00000000  0.50000000  1
  Mn  Mn5  1  0.74547800  0.50000000  0.00000000  1
  Mn  Mn6  1  0.74547800  0.00000000  0.50000000  1
  Mn  Mn7  1  0.25452200  0.50000000  0.00000000  1
  Mn  Mn8  1  0.50000000  0.40729900  0.35069300  1
  Mn  Mn9  1  0.50000000  0.59270100  0.64930700  1
  Mn  Mn10  1  0.50000000  0.90729900  0.14930700  1
  Mn  Mn11  1  0.50000000  0.09270100  0.85069300  1
  O  O12  1  0.27895700  0.00000000  0.00000000  1
  O  O13  1  0.72104300  0.50000000  0.50000000  1
  O  O14  1  0.72104300  0.00000000  0.00000000  1
  O  O15  1  0.27895700  0.50000000  0.50000000  1
  O  O16  1  0.00000000  0.15737700  0.44629800  1
  O  O17  1  0.00000000  0.84262300  0.55370200  1
  O  O18  1  0.00000000  0.65737700  0.05370200  1
  O  O19  1  0.00000000  0.34262300  0.94629800  1
  O  O20  1  0.50000000  0.15141200  0.43186700  1
  O  O21  1  0.50000000  0.84858800  0.56813300  1
  O  O22  1  0.50000000  0.65141200  0.06813300  1
  O  O23  1  0.50000000  0.34858800  0.93186700  1
  O  O24  1  0.24766700  0.39788000  0.20626500  1
  O  O25  1  0.24766700  0.60212000  0.79373500  1
  O  O26  1  0.75233300  0.89788000  0.29373500  1
  O  O27  1  0.75233300  0.10212000  0.70626500  1
  O  O28  1  0.75233300  0.60212000  0.79373500  1
  O  O29  1  0.75233300  0.39788000  0.20626500  1
  O  O30  1  0.24766700  0.10212000  0.70626500  1
  O  O31  1  0.24766700  0.89788000  0.29373500  1
