# generated using pymatgen
data_Zr2Si4Ru3
_symmetry_space_group_name_H-M   'P 1'
_cell_length_a   9.91847089
_cell_length_b   9.91847089
_cell_length_c   13.38500636
_cell_angle_alpha   53.87320569
_cell_angle_beta   53.87320569
_cell_angle_gamma   31.53757196
_symmetry_Int_Tables_number   1
_chemical_formula_structural   Zr2Si4Ru3
_chemical_formula_sum   'Zr8 Si16 Ru12'
_cell_volume   544.36224069
_cell_formula_units_Z   4
loop_
 _symmetry_equiv_pos_site_id
 _symmetry_equiv_pos_as_xyz
  1  'x, y, z'
loop_
 _atom_site_type_symbol
 _atom_site_label
 _atom_site_symmetry_multiplicity
 _atom_site_fract_x
 _atom_site_fract_y
 _atom_site_fract_z
 _atom_site_occupancy
  Zr  Zr0  1  0.03937200  0.29356900  0.63717900  1
  Zr  Zr1  1  0.70643100  0.96062800  0.86282100  1
  Zr  Zr2  1  0.96062800  0.70643100  0.36282100  1
  Zr  Zr3  1  0.29356900  0.03937200  0.13717900  1
  Zr  Zr4  1  0.29988800  0.55343100  0.64835300  1
  Zr  Zr5  1  0.44656900  0.70011200  0.85164700  1
  Zr  Zr6  1  0.70011200  0.44656900  0.35164700  1
  Zr  Zr7  1  0.55343100  0.29988800  0.14835300  1
  Si  Si8  1  0.97162200  0.25379800  0.89489100  1
  Si  Si9  1  0.74620200  0.02837800  0.60510900  1
  Si  Si10  1  0.02837800  0.74620200  0.10510900  1
  Si  Si11  1  0.25379800  0.97162200  0.39489100  1
  Si  Si12  1  0.14152100  0.38846400  0.89552200  1
  Si  Si13  1  0.61153600  0.85847900  0.60447800  1
  Si  Si14  1  0.85847900  0.61153600  0.10447800  1
  Si  Si15  1  0.38846400  0.14152100  0.39552200  1
  Si  Si16  1  0.08696800  0.57267200  0.56498200  1
  Si  Si17  1  0.42732800  0.91303200  0.93501800  1
  Si  Si18  1  0.91303200  0.42732800  0.43501800  1
  Si  Si19  1  0.57267200  0.08696800  0.06498200  1
  Si  Si20  1  0.61987200  0.38012800  0.75000000  1
  Si  Si21  1  0.38012800  0.61987200  0.25000000  1
  Si  Si22  1  0.13010800  0.86989200  0.75000000  1
  Si  Si23  1  0.86989200  0.13010800  0.25000000  1
  Ru  Ru24  1  0.91134000  0.13159200  0.58505200  1
  Ru  Ru25  1  0.86840800  0.08866000  0.91494800  1
  Ru  Ru26  1  0.08866000  0.86840800  0.41494800  1
  Ru  Ru27  1  0.13159200  0.91134000  0.08505200  1
  Ru  Ru28  1  0.82874800  0.64708300  0.77949100  1
  Ru  Ru29  1  0.35291700  0.17125200  0.72050900  1
  Ru  Ru30  1  0.17125200  0.35291700  0.22050900  1
  Ru  Ru31  1  0.64708300  0.82874800  0.27949100  1
  Ru  Ru32  1  0.23578700  0.51700100  0.93418800  1
  Ru  Ru33  1  0.48299900  0.76421300  0.56581200  1
  Ru  Ru34  1  0.76421300  0.48299900  0.06581200  1
  Ru  Ru35  1  0.51700100  0.23578700  0.43418800  1
