# generated using pymatgen
data_CuMo3Cl7
_symmetry_space_group_name_H-M   'P 1'
_cell_length_a   13.09423100
_cell_length_b   13.09423100
_cell_length_c   13.09423100
_cell_angle_alpha   90.00000000
_cell_angle_beta   90.00000000
_cell_angle_gamma   90.00000000
_symmetry_Int_Tables_number   1
_chemical_formula_structural   CuMo3Cl7
_chemical_formula_sum   'Cu8 Mo24 Cl56'
_cell_volume   2245.12225350
_cell_formula_units_Z   8
loop_
 _symmetry_equiv_pos_site_id
 _symmetry_equiv_pos_as_xyz
  1  'x, y, z'
loop_
 _atom_site_type_symbol
 _atom_site_label
 _atom_site_symmetry_multiplicity
 _atom_site_fract_x
 _atom_site_fract_y
 _atom_site_fract_z
 _atom_site_occupancy
  Cu  Cu0  1  0.18809400  0.18809400  0.18809400  1
  Cu  Cu1  1  0.31190600  0.68809400  0.68809400  1
  Cu  Cu2  1  0.68809400  0.31190600  0.68809400  1
  Cu  Cu3  1  0.18809400  0.81190600  0.81190600  1
  Cu  Cu4  1  0.31190600  0.31190600  0.31190600  1
  Cu  Cu5  1  0.68809400  0.68809400  0.31190600  1
  Cu  Cu6  1  0.81190600  0.81190600  0.18809400  1
  Cu  Cu7  1  0.81190600  0.18809400  0.81190600  1
  Mo  Mo8  1  0.61401000  0.77525900  0.71840000  1
  Mo  Mo9  1  0.38599000  0.22474100  0.71840000  1
  Mo  Mo10  1  0.71840000  0.61401000  0.77525900  1
  Mo  Mo11  1  0.78160000  0.11401000  0.27525900  1
  Mo  Mo12  1  0.88599000  0.27525900  0.21840000  1
  Mo  Mo13  1  0.72474100  0.78160000  0.88599000  1
  Mo  Mo14  1  0.22474100  0.71840000  0.38599000  1
  Mo  Mo15  1  0.71840000  0.38599000  0.22474100  1
  Mo  Mo16  1  0.72474100  0.21840000  0.11401000  1
  Mo  Mo17  1  0.21840000  0.88599000  0.27525900  1
  Mo  Mo18  1  0.77525900  0.28160000  0.38599000  1
  Mo  Mo19  1  0.11401000  0.72474100  0.21840000  1
  Mo  Mo20  1  0.27525900  0.21840000  0.88599000  1
  Mo  Mo21  1  0.28160000  0.38599000  0.77525900  1
  Mo  Mo22  1  0.21840000  0.11401000  0.72474100  1
  Mo  Mo23  1  0.88599000  0.72474100  0.78160000  1
  Mo  Mo24  1  0.27525900  0.78160000  0.11401000  1
  Mo  Mo25  1  0.11401000  0.27525900  0.78160000  1
  Mo  Mo26  1  0.78160000  0.88599000  0.72474100  1
  Mo  Mo27  1  0.22474100  0.28160000  0.61401000  1
  Mo  Mo28  1  0.28160000  0.61401000  0.22474100  1
  Mo  Mo29  1  0.77525900  0.71840000  0.61401000  1
  Mo  Mo30  1  0.38599000  0.77525900  0.28160000  1
  Mo  Mo31  1  0.61401000  0.22474100  0.28160000  1
  Cl  Cl32  1  0.43212000  0.67614300  0.12624600  1
  Cl  Cl33  1  0.17614300  0.37375400  0.93212000  1
  Cl  Cl34  1  0.88495500  0.11504500  0.11504500  1
  Cl  Cl35  1  0.32385700  0.87375400  0.43212000  1
  Cl  Cl36  1  0.87375400  0.43212000  0.32385700  1
  Cl  Cl37  1  0.11504500  0.88495500  0.11504500  1
  Cl  Cl38  1  0.06673700  0.30927000  0.17109800  1
  Cl  Cl39  1  0.43326300  0.19073000  0.32890200  1
  Cl  Cl40  1  0.93212000  0.82385700  0.62624600  1
  Cl  Cl41  1  0.30927000  0.82890200  0.93326300  1
  Cl  Cl42  1  0.30927000  0.17109800  0.06673700  1
  Cl  Cl43  1  0.11504500  0.11504500  0.88495500  1
  Cl  Cl44  1  0.67614300  0.87375400  0.56788000  1
  Cl  Cl45  1  0.93326300  0.69073000  0.17109800  1
  Cl  Cl46  1  0.61504500  0.61504500  0.61504500  1
  Cl  Cl47  1  0.12624600  0.56788000  0.32385700  1
  Cl  Cl48  1  0.06673700  0.69073000  0.82890200  1
  Cl  Cl49  1  0.87375400  0.56788000  0.67614300  1
  Cl  Cl50  1  0.56788000  0.32385700  0.12624600  1
  Cl  Cl51  1  0.32890200  0.43326300  0.19073000  1
  Cl  Cl52  1  0.82385700  0.37375400  0.06788000  1
  Cl  Cl53  1  0.17614300  0.62624600  0.06788000  1
  Cl  Cl54  1  0.37375400  0.93212000  0.17614300  1
  Cl  Cl55  1  0.38495500  0.38495500  0.61504500  1
  Cl  Cl56  1  0.12624600  0.43212000  0.67614300  1
  Cl  Cl57  1  0.80927000  0.67109800  0.43326300  1
  Cl  Cl58  1  0.43326300  0.80927000  0.67109800  1
  Cl  Cl59  1  0.38495500  0.61504500  0.38495500  1
  Cl  Cl60  1  0.56673700  0.19073000  0.67109800  1
  Cl  Cl61  1  0.93212000  0.17614300  0.37375400  1
  Cl  Cl62  1  0.43212000  0.32385700  0.87375400  1
  Cl  Cl63  1  0.37375400  0.06788000  0.82385700  1
  Cl  Cl64  1  0.62624600  0.93212000  0.82385700  1
  Cl  Cl65  1  0.17109800  0.06673700  0.30927000  1
  Cl  Cl66  1  0.56673700  0.80927000  0.32890200  1
  Cl  Cl67  1  0.82385700  0.62624600  0.93212000  1
  Cl  Cl68  1  0.93326300  0.30927000  0.82890200  1
  Cl  Cl69  1  0.69073000  0.17109800  0.93326300  1
  Cl  Cl70  1  0.06788000  0.82385700  0.37375400  1
  Cl  Cl71  1  0.32385700  0.12624600  0.56788000  1
  Cl  Cl72  1  0.67614300  0.12624600  0.43212000  1
  Cl  Cl73  1  0.61504500  0.38495500  0.38495500  1
  Cl  Cl74  1  0.88495500  0.88495500  0.88495500  1
  Cl  Cl75  1  0.80927000  0.32890200  0.56673700  1
  Cl  Cl76  1  0.17109800  0.93326300  0.69073000  1
  Cl  Cl77  1  0.19073000  0.67109800  0.56673700  1
  Cl  Cl78  1  0.67109800  0.43326300  0.80927000  1
  Cl  Cl79  1  0.32890200  0.56673700  0.80927000  1
  Cl  Cl80  1  0.67109800  0.56673700  0.19073000  1
  Cl  Cl81  1  0.82890200  0.93326300  0.30927000  1
  Cl  Cl82  1  0.19073000  0.32890200  0.43326300  1
  Cl  Cl83  1  0.69073000  0.82890200  0.06673700  1
  Cl  Cl84  1  0.06788000  0.17614300  0.62624600  1
  Cl  Cl85  1  0.82890200  0.06673700  0.69073000  1
  Cl  Cl86  1  0.62624600  0.06788000  0.17614300  1
  Cl  Cl87  1  0.56788000  0.67614300  0.87375400  1
