# generated using pymatgen
data_GdMnO3
_symmetry_space_group_name_H-M   'P 1'
_cell_length_a   5.36147800
_cell_length_b   5.85596500
_cell_length_c   7.57169400
_cell_angle_alpha   90.00000000
_cell_angle_beta   90.00000000
_cell_angle_gamma   90.00000000
_symmetry_Int_Tables_number   1
_chemical_formula_structural   GdMnO3
_chemical_formula_sum   'Gd4 Mn4 O12'
_cell_volume   237.72565619
_cell_formula_units_Z   4
loop_
 _symmetry_equiv_pos_site_id
 _symmetry_equiv_pos_as_xyz
  1  'x, y, z'
loop_
 _atom_site_type_symbol
 _atom_site_label
 _atom_site_symmetry_multiplicity
 _atom_site_fract_x
 _atom_site_fract_y
 _atom_site_fract_z
 _atom_site_occupancy
  Gd  Gd0  1  0.51705600  0.57801800  0.25000000  1
  Gd  Gd1  1  0.98294400  0.07801800  0.25000000  1
  Gd  Gd2  1  0.48294400  0.42198200  0.75000000  1
  Gd  Gd3  1  0.01705600  0.92198200  0.75000000  1
  Mn  Mn4  1  0.50000000  0.00000000  0.00000000  1
  Mn  Mn5  1  0.00000000  0.50000000  0.50000000  1
  Mn  Mn6  1  0.50000000  0.00000000  0.50000000  1
  Mn  Mn7  1  0.00000000  0.50000000  0.00000000  1
  O  O8  1  0.39267000  0.96675000  0.25000000  1
  O  O9  1  0.10733000  0.46675000  0.25000000  1
  O  O10  1  0.60733000  0.03325000  0.75000000  1
  O  O11  1  0.89267000  0.53325000  0.75000000  1
  O  O12  1  0.79279200  0.82254800  0.05341700  1
  O  O13  1  0.70720800  0.32254800  0.44658300  1
  O  O14  1  0.20720800  0.17745200  0.55341700  1
  O  O15  1  0.29279200  0.67745200  0.94658300  1
  O  O16  1  0.20720800  0.17745200  0.94658300  1
  O  O17  1  0.29279200  0.67745200  0.55341700  1
  O  O18  1  0.79279200  0.82254800  0.44658300  1
  O  O19  1  0.70720800  0.32254800  0.05341700  1
