# generated using pymatgen
data_Nd3Si2S8Br
_symmetry_space_group_name_H-M   'P 1'
_cell_length_a   8.81568033
_cell_length_b   8.81568033
_cell_length_c   10.95571511
_cell_angle_alpha   82.96722600
_cell_angle_beta   82.96722600
_cell_angle_gamma   52.17585636
_symmetry_Int_Tables_number   1
_chemical_formula_structural   Nd3Si2S8Br
_chemical_formula_sum   'Nd6 Si4 S16 Br2'
_cell_volume   666.26819213
_cell_formula_units_Z   2
loop_
 _symmetry_equiv_pos_site_id
 _symmetry_equiv_pos_as_xyz
  1  'x, y, z'
loop_
 _atom_site_type_symbol
 _atom_site_label
 _atom_site_symmetry_multiplicity
 _atom_site_fract_x
 _atom_site_fract_y
 _atom_site_fract_z
 _atom_site_occupancy
  Nd  Nd0  1  0.92568900  0.68008500  0.18384400  1
  Nd  Nd1  1  0.68008500  0.92568900  0.68384400  1
  Nd  Nd2  1  0.31991500  0.07431100  0.31615600  1
  Nd  Nd3  1  0.38750500  0.61249500  0.75000000  1
  Nd  Nd4  1  0.07431100  0.31991500  0.81615600  1
  Nd  Nd5  1  0.61249500  0.38750500  0.25000000  1
  Si  Si6  1  0.37500000  0.30584600  0.02907600  1
  Si  Si7  1  0.69415400  0.62500000  0.47092400  1
  Si  Si8  1  0.62500000  0.69415400  0.97092400  1
  Si  Si9  1  0.30584600  0.37500000  0.52907600  1
  S  S10  1  0.60392700  0.10562500  0.14480600  1
  S  S11  1  0.72420200  0.40902300  0.95395300  1
  S  S12  1  0.89437500  0.39607300  0.35519400  1
  S  S13  1  0.40902300  0.72420200  0.45395300  1
  S  S14  1  0.59097700  0.27579800  0.54604700  1
  S  S15  1  0.85437100  0.71235300  0.91432200  1
  S  S16  1  0.74187500  0.55404900  0.66196100  1
  S  S17  1  0.10562500  0.60392700  0.64480600  1
  S  S18  1  0.25812500  0.44595100  0.33803900  1
  S  S19  1  0.44595100  0.25812500  0.83803900  1
  S  S20  1  0.71235300  0.85437100  0.41432200  1
  S  S21  1  0.14562900  0.28764700  0.08567800  1
  S  S22  1  0.27579800  0.59097700  0.04604700  1
  S  S23  1  0.39607300  0.89437500  0.85519400  1
  S  S24  1  0.28764700  0.14562900  0.58567800  1
  S  S25  1  0.55404900  0.74187500  0.16196100  1
  Br  Br26  1  0.99532600  0.00467400  0.75000000  1
  Br  Br27  1  0.00467400  0.99532600  0.25000000  1
