# generated using pymatgen
data_CaSiN2
_symmetry_space_group_name_H-M   'P 1'
_cell_length_a   5.16070600
_cell_length_b   10.27655300
_cell_length_c   14.88487100
_cell_angle_alpha   90.00000000
_cell_angle_beta   90.00000000
_cell_angle_gamma   90.00000000
_symmetry_Int_Tables_number   1
_chemical_formula_structural   CaSiN2
_chemical_formula_sum   'Ca16 Si16 N32'
_cell_volume   789.40824857
_cell_formula_units_Z   16
loop_
 _symmetry_equiv_pos_site_id
 _symmetry_equiv_pos_as_xyz
  1  'x, y, z'
loop_
 _atom_site_type_symbol
 _atom_site_label
 _atom_site_symmetry_multiplicity
 _atom_site_fract_x
 _atom_site_fract_y
 _atom_site_fract_z
 _atom_site_occupancy
  Ca  Ca0  1  0.65270800  0.77413300  0.31236200  1
  Ca  Ca1  1  0.74017000  0.00845400  0.43488200  1
  Ca  Ca2  1  0.24017000  0.49154600  0.56511800  1
  Ca  Ca3  1  0.84729200  0.22586700  0.81236200  1
  Ca  Ca4  1  0.34729200  0.22586700  0.68763800  1
  Ca  Ca5  1  0.25983000  0.50845400  0.06511800  1
  Ca  Ca6  1  0.25983000  0.99154600  0.56511800  1
  Ca  Ca7  1  0.34729200  0.27413300  0.18763800  1
  Ca  Ca8  1  0.15270800  0.72586700  0.68763800  1
  Ca  Ca9  1  0.15270800  0.77413300  0.18763800  1
  Ca  Ca10  1  0.74017000  0.49154600  0.93488200  1
  Ca  Ca11  1  0.65270800  0.72586700  0.81236200  1
  Ca  Ca12  1  0.24017000  0.00845400  0.06511800  1
  Ca  Ca13  1  0.75983000  0.50845400  0.43488200  1
  Ca  Ca14  1  0.75983000  0.99154600  0.93488200  1
  Ca  Ca15  1  0.84729200  0.27413300  0.31236200  1
  Si  Si16  1  0.27364800  0.98345700  0.81200200  1
  Si  Si17  1  0.68371800  0.72999500  0.56267600  1
  Si  Si18  1  0.68371800  0.77000500  0.06267600  1
  Si  Si19  1  0.18371800  0.77000500  0.43732400  1
  Si  Si20  1  0.81628200  0.27000500  0.06267600  1
  Si  Si21  1  0.31628200  0.27000500  0.43732400  1
  Si  Si22  1  0.81628200  0.22999500  0.56267600  1
  Si  Si23  1  0.72635200  0.01654300  0.18799800  1
  Si  Si24  1  0.18371800  0.72999500  0.93732400  1
  Si  Si25  1  0.22635200  0.48345700  0.81200200  1
  Si  Si26  1  0.72635200  0.48345700  0.68799800  1
  Si  Si27  1  0.31628200  0.22999500  0.93732400  1
  Si  Si28  1  0.22635200  0.01654300  0.31200200  1
  Si  Si29  1  0.27364800  0.51654300  0.31200200  1
  Si  Si30  1  0.77364800  0.98345700  0.68799800  1
  Si  Si31  1  0.77364800  0.51654300  0.18799800  1
  N  N32  1  0.30376800  0.92710400  0.40926800  1
  N  N33  1  0.59595200  0.02293000  0.78453700  1
  N  N34  1  0.35097600  0.77622900  0.03583800  1
  N  N35  1  0.77520800  0.18022800  0.16195100  1
  N  N36  1  0.90404800  0.52293000  0.78453700  1
  N  N37  1  0.72479200  0.68022800  0.16195100  1
  N  N38  1  0.22479200  0.81977200  0.83804900  1
  N  N39  1  0.40404800  0.97707000  0.21546300  1
  N  N40  1  0.59595200  0.47707000  0.28453700  1
  N  N41  1  0.14902400  0.22377100  0.53583800  1
  N  N42  1  0.19623200  0.42710400  0.40926800  1
  N  N43  1  0.09595200  0.47707000  0.21546300  1
  N  N44  1  0.27520800  0.31977200  0.83804900  1
  N  N45  1  0.80376800  0.92710400  0.09073200  1
  N  N46  1  0.14902400  0.27622900  0.03583800  1
  N  N47  1  0.85097600  0.72377100  0.96416200  1
  N  N48  1  0.64902400  0.22377100  0.96416200  1
  N  N49  1  0.69623200  0.42710400  0.09073200  1
  N  N50  1  0.09595200  0.02293000  0.71546300  1
  N  N51  1  0.19623200  0.07289600  0.90926800  1
  N  N52  1  0.22479200  0.68022800  0.33804900  1
  N  N53  1  0.35097600  0.72377100  0.53583800  1
  N  N54  1  0.40404800  0.52293000  0.71546300  1
  N  N55  1  0.64902400  0.27622900  0.46416200  1
  N  N56  1  0.27520800  0.18022800  0.33804900  1
  N  N57  1  0.72479200  0.81977200  0.66195100  1
  N  N58  1  0.90404800  0.97707000  0.28453700  1
  N  N59  1  0.80376800  0.57289600  0.59073200  1
  N  N60  1  0.85097600  0.77622900  0.46416200  1
  N  N61  1  0.77520800  0.31977200  0.66195100  1
  N  N62  1  0.30376800  0.57289600  0.90926800  1
  N  N63  1  0.69623200  0.07289600  0.59073200  1
