# generated using pymatgen
data_SrCrF6
_symmetry_space_group_name_H-M   'P 1'
_cell_length_a   4.79317106
_cell_length_b   4.79317106
_cell_length_c   4.79317158
_cell_angle_alpha   98.32803334
_cell_angle_beta   98.32803334
_cell_angle_gamma   98.32802872
_symmetry_Int_Tables_number   1
_chemical_formula_structural   SrCrF6
_chemical_formula_sum   'Sr1 Cr1 F6'
_cell_volume   106.25284769
_cell_formula_units_Z   1
loop_
 _symmetry_equiv_pos_site_id
 _symmetry_equiv_pos_as_xyz
  1  'x, y, z'
loop_
 _atom_site_type_symbol
 _atom_site_label
 _atom_site_symmetry_multiplicity
 _atom_site_fract_x
 _atom_site_fract_y
 _atom_site_fract_z
 _atom_site_occupancy
  Sr  Sr0  1  0.50000000  0.50000000  0.50000000  1
  Cr  Cr1  1  0.00000000  0.00000000  0.00000000  1
  F  F2  1  0.72095200  0.72095200  0.07644800  1
  F  F3  1  0.07644800  0.72095200  0.72095200  1
  F  F4  1  0.92355200  0.27904800  0.27904800  1
  F  F5  1  0.27904800  0.27904800  0.92355200  1
  F  F6  1  0.27904800  0.92355200  0.27904800  1
  F  F7  1  0.72095200  0.07644800  0.72095200  1
