# generated using pymatgen
data_CsGd(PO3)4
_symmetry_space_group_name_H-M   'P 1'
_cell_length_a   9.04457300
_cell_length_b   10.51286800
_cell_length_c   13.06428308
_cell_angle_alpha   56.25647061
_cell_angle_beta   90.00000000
_cell_angle_gamma   90.00000000
_symmetry_Int_Tables_number   1
_chemical_formula_structural   CsGd(PO3)4
_chemical_formula_sum   'Cs4 Gd4 P16 O48'
_cell_volume   1032.93742120
_cell_formula_units_Z   4
loop_
 _symmetry_equiv_pos_site_id
 _symmetry_equiv_pos_as_xyz
  1  'x, y, z'
loop_
 _atom_site_type_symbol
 _atom_site_label
 _atom_site_symmetry_multiplicity
 _atom_site_fract_x
 _atom_site_fract_y
 _atom_site_fract_z
 _atom_site_occupancy
  Cs  Cs0  1  0.43494000  0.77825200  0.53929700  1
  Cs  Cs1  1  0.56506000  0.22174800  0.46070300  1
  Cs  Cs2  1  0.06506000  0.77825200  0.03929700  1
  Cs  Cs3  1  0.93494000  0.22174800  0.96070300  1
  Gd  Gd4  1  0.77408400  0.68363900  0.31888000  1
  Gd  Gd5  1  0.22591600  0.31636100  0.68112000  1
  Gd  Gd6  1  0.72591600  0.68363900  0.81888000  1
  Gd  Gd7  1  0.27408400  0.31636100  0.18112000  1
  P  P8  1  0.32611200  0.67287800  0.86686100  1
  P  P9  1  0.89235700  0.79951300  0.52635900  1
  P  P10  1  0.82611200  0.32712200  0.63313900  1
  P  P11  1  0.02877700  0.96755100  0.28626700  1
  P  P12  1  0.39235700  0.20048700  0.97364100  1
  P  P13  1  0.59108200  0.38833400  0.75751100  1
  P  P14  1  0.17388800  0.67287800  0.36686100  1
  P  P15  1  0.10764300  0.20048700  0.47364100  1
  P  P16  1  0.67388800  0.32712200  0.13313900  1
  P  P17  1  0.90891800  0.38833400  0.25751100  1
  P  P18  1  0.97122300  0.03244900  0.71373300  1
  P  P19  1  0.40891800  0.61166600  0.24248900  1
  P  P20  1  0.09108200  0.61166600  0.74248900  1
  P  P21  1  0.52877700  0.03244900  0.21373300  1
  P  P22  1  0.47122300  0.96755100  0.78626700  1
  P  P23  1  0.60764300  0.79951300  0.02635900  1
  O  O24  1  0.95917500  0.57747100  0.82359500  1
  O  O25  1  0.79312700  0.28146500  0.24205000  1
  O  O26  1  0.65996000  0.16005700  0.15342700  1
  O  O27  1  0.78943900  0.83645000  0.59662700  1
  O  O28  1  0.46815900  0.63050000  0.83395400  1
  O  O29  1  0.24388900  0.56941200  0.49043400  1
  O  O30  1  0.41769100  0.07788000  0.27383500  1
  O  O31  1  0.95770200  0.95516400  0.40607900  1
  O  O32  1  0.66543700  0.70169600  0.98469700  1
  O  O33  1  0.28943900  0.16355000  0.90337300  1
  O  O34  1  0.34004000  0.83994300  0.84657300  1
  O  O35  1  0.54082500  0.57747100  0.32359500  1
  O  O36  1  0.84004000  0.16005700  0.65342700  1
  O  O37  1  0.54748900  0.26849600  0.89982400  1
  O  O38  1  0.33456300  0.29830400  0.01530300  1
  O  O39  1  0.17467500  0.48134200  0.75401200  1
  O  O40  1  0.29312700  0.71853500  0.25795000  1
  O  O41  1  0.83456300  0.70169600  0.48469700  1
  O  O42  1  0.09669800  0.12300800  0.20757200  1
  O  O43  1  0.90330200  0.87699200  0.79242800  1
  O  O44  1  0.20687300  0.71853500  0.75795000  1
  O  O45  1  0.45251100  0.73150400  0.10017600  1
  O  O46  1  0.45917500  0.42252900  0.67640500  1
  O  O47  1  0.15996000  0.83994300  0.34657300  1
  O  O48  1  0.53184100  0.36950000  0.16604600  1
  O  O49  1  0.04229800  0.04483600  0.59392100  1
  O  O50  1  0.95251100  0.26849600  0.39982400  1
  O  O51  1  0.04082500  0.42252900  0.17640500  1
  O  O52  1  0.96815900  0.36950000  0.66604600  1
  O  O53  1  0.08230900  0.07788000  0.77383500  1
  O  O54  1  0.75611100  0.43058800  0.50956600  1
  O  O55  1  0.59669800  0.87699200  0.29242800  1
  O  O56  1  0.21056100  0.16355000  0.40337300  1
  O  O57  1  0.16543700  0.29830400  0.51530300  1
  O  O58  1  0.82532500  0.51865800  0.24598800  1
  O  O59  1  0.91769100  0.92212000  0.22616500  1
  O  O60  1  0.25611100  0.56941200  0.99043400  1
  O  O61  1  0.74388900  0.43058800  0.00956600  1
  O  O62  1  0.70687300  0.28146500  0.74205000  1
  O  O63  1  0.71056100  0.83645000  0.09662700  1
  O  O64  1  0.04748900  0.73150400  0.60017600  1
  O  O65  1  0.32532500  0.48134200  0.25401200  1
  O  O66  1  0.45770200  0.04483600  0.09392100  1
  O  O67  1  0.54229800  0.95516400  0.90607900  1
  O  O68  1  0.67467500  0.51865800  0.74598800  1
  O  O69  1  0.58230900  0.92212000  0.72616500  1
  O  O70  1  0.03184100  0.63050000  0.33395400  1
  O  O71  1  0.40330200  0.12300800  0.70757200  1
