# generated using pymatgen
data_Rb2CdSiO4
_symmetry_space_group_name_H-M   'P 1'
_cell_length_a   8.06843953
_cell_length_b   8.06843953
_cell_length_c   16.93679500
_cell_angle_alpha   90.00000000
_cell_angle_beta   90.00000000
_cell_angle_gamma   92.36527094
_symmetry_Int_Tables_number   1
_chemical_formula_structural   Rb2CdSiO4
_chemical_formula_sum   'Rb16 Cd8 Si8 O32'
_cell_volume   1101.64118563
_cell_formula_units_Z   8
loop_
 _symmetry_equiv_pos_site_id
 _symmetry_equiv_pos_as_xyz
  1  'x, y, z'
loop_
 _atom_site_type_symbol
 _atom_site_label
 _atom_site_symmetry_multiplicity
 _atom_site_fract_x
 _atom_site_fract_y
 _atom_site_fract_z
 _atom_site_occupancy
  Rb  Rb0  1  0.25756900  0.75600000  0.14056000  1
  Rb  Rb1  1  0.95770500  0.95770500  0.00000000  1
  Rb  Rb2  1  0.25782000  0.24835400  0.10942200  1
  Rb  Rb3  1  0.54808900  0.05231000  0.26199300  1
  Rb  Rb4  1  0.24835400  0.25782000  0.89057800  1
  Rb  Rb5  1  0.74218000  0.75164600  0.60942200  1
  Rb  Rb6  1  0.44641200  0.44641200  0.50000000  1
  Rb  Rb7  1  0.74243100  0.24400000  0.64056000  1
  Rb  Rb8  1  0.75600000  0.25756900  0.85944000  1
  Rb  Rb9  1  0.94769000  0.45191100  0.23800700  1
  Rb  Rb10  1  0.45191100  0.94769000  0.76199300  1
  Rb  Rb11  1  0.55358800  0.55358800  0.00000000  1
  Rb  Rb12  1  0.24400000  0.74243100  0.35944000  1
  Rb  Rb13  1  0.05231000  0.54808900  0.73800700  1
  Rb  Rb14  1  0.75164600  0.74218000  0.39057800  1
  Rb  Rb15  1  0.04229500  0.04229500  0.50000000  1
  Cd  Cd16  1  0.73112500  0.22815400  0.09387500  1
  Cd  Cd17  1  0.26887500  0.77184600  0.59387500  1
  Cd  Cd18  1  0.22815400  0.73112500  0.90612500  1
  Cd  Cd19  1  0.77184600  0.26887500  0.40612500  1
  Cd  Cd20  1  0.75249600  0.77133000  0.15655200  1
  Cd  Cd21  1  0.22867000  0.24750400  0.34344800  1
  Cd  Cd22  1  0.24750400  0.22867000  0.65655200  1
  Cd  Cd23  1  0.77133000  0.75249600  0.84344800  1
  Si  Si24  1  0.98715200  0.51692700  0.00459400  1
  Si  Si25  1  0.51692700  0.98715200  0.99540600  1
  Si  Si26  1  0.51761000  0.48239000  0.25000000  1
  Si  Si27  1  0.98959400  0.01040600  0.25000000  1
  Si  Si28  1  0.01284800  0.48307300  0.50459400  1
  Si  Si29  1  0.48307300  0.01284800  0.49540600  1
  Si  Si30  1  0.01040600  0.98959400  0.75000000  1
  Si  Si31  1  0.48239000  0.51761000  0.75000000  1
  O  O32  1  0.44758000  0.31349700  0.74135500  1
  O  O33  1  0.19332100  0.04861300  0.24871300  1
  O  O34  1  0.61143900  0.41599400  0.33030200  1
  O  O35  1  0.68650300  0.55242000  0.75864500  1
  O  O36  1  0.41162500  0.07311300  0.58302700  1
  O  O37  1  0.19309500  0.54011300  0.00487200  1
  O  O38  1  0.09820400  0.91837300  0.66884700  1
  O  O39  1  0.55242000  0.68650300  0.24135500  1
  O  O40  1  0.41599400  0.61143900  0.66969800  1
  O  O41  1  0.06366700  0.68365200  0.51225400  1
  O  O42  1  0.45988700  0.80690500  0.49512800  1
  O  O43  1  0.90783100  0.62227600  0.07797400  1
  O  O44  1  0.09216900  0.37772400  0.57797400  1
  O  O45  1  0.62227600  0.90783100  0.92202600  1
  O  O46  1  0.80690500  0.45988700  0.50487200  1
  O  O47  1  0.90179600  0.08162700  0.16884700  1
  O  O48  1  0.91837300  0.09820400  0.33115300  1
  O  O49  1  0.08162700  0.90179600  0.83115300  1
  O  O50  1  0.95138700  0.80667900  0.25128700  1
  O  O51  1  0.58837500  0.92688700  0.08302700  1
  O  O52  1  0.37772400  0.09216900  0.42202600  1
  O  O53  1  0.54011300  0.19309500  0.99512800  1
  O  O54  1  0.31349700  0.44758000  0.25864500  1
  O  O55  1  0.58400600  0.38856100  0.16969800  1
  O  O56  1  0.92688700  0.58837500  0.91697300  1
  O  O57  1  0.93633300  0.31634800  0.01225400  1
  O  O58  1  0.04861300  0.19332100  0.75128700  1
  O  O59  1  0.07311300  0.41162500  0.41697300  1
  O  O60  1  0.38856100  0.58400600  0.83030200  1
  O  O61  1  0.80667900  0.95138700  0.74871300  1
  O  O62  1  0.68365200  0.06366700  0.48774600  1
  O  O63  1  0.31634800  0.93633300  0.98774600  1
