# generated using pymatgen
data_Ba2ZnS3
_symmetry_space_group_name_H-M   'P 1'
_cell_length_a   4.25876500
_cell_length_b   12.17068100
_cell_length_c   12.75156400
_cell_angle_alpha   90.00000000
_cell_angle_beta   90.00000000
_cell_angle_gamma   90.00000000
_symmetry_Int_Tables_number   1
_chemical_formula_structural   Ba2ZnS3
_chemical_formula_sum   'Ba8 Zn4 S12'
_cell_volume   660.93996129
_cell_formula_units_Z   4
loop_
 _symmetry_equiv_pos_site_id
 _symmetry_equiv_pos_as_xyz
  1  'x, y, z'
loop_
 _atom_site_type_symbol
 _atom_site_label
 _atom_site_symmetry_multiplicity
 _atom_site_fract_x
 _atom_site_fract_y
 _atom_site_fract_z
 _atom_site_occupancy
  Ba  Ba0  1  0.25000000  0.49010000  0.67519100  1
  Ba  Ba1  1  0.75000000  0.50990000  0.32480900  1
  Ba  Ba2  1  0.25000000  0.99010000  0.82480900  1
  Ba  Ba3  1  0.75000000  0.00990000  0.17519100  1
  Ba  Ba4  1  0.25000000  0.82629700  0.48305700  1
  Ba  Ba5  1  0.75000000  0.17370300  0.51694300  1
  Ba  Ba6  1  0.25000000  0.32629700  0.01694300  1
  Ba  Ba7  1  0.75000000  0.67370300  0.98305700  1
  Zn  Zn8  1  0.25000000  0.74463900  0.19705000  1
  Zn  Zn9  1  0.25000000  0.24463900  0.30295000  1
  Zn  Zn10  1  0.75000000  0.25536100  0.80295000  1
  Zn  Zn11  1  0.75000000  0.75536100  0.69705000  1
  S  S12  1  0.75000000  0.93962700  0.63991100  1
  S  S13  1  0.75000000  0.43962700  0.86008900  1
  S  S14  1  0.25000000  0.06037300  0.36008900  1
  S  S15  1  0.25000000  0.56037300  0.13991100  1
  S  S16  1  0.25000000  0.22511300  0.70747500  1
  S  S17  1  0.75000000  0.77488700  0.29252500  1
  S  S18  1  0.25000000  0.72511300  0.79252500  1
  S  S19  1  0.75000000  0.27488700  0.20747500  1
  S  S20  1  0.75000000  0.63529000  0.55432000  1
  S  S21  1  0.25000000  0.36471000  0.44568000  1
  S  S22  1  0.75000000  0.13529000  0.94568000  1
  S  S23  1  0.25000000  0.86471000  0.05432000  1
