# generated using pymatgen
data_Na3Fe3(PO4)4
_symmetry_space_group_name_H-M   'P 1'
_cell_length_a   10.42751025
_cell_length_b   10.42751025
_cell_length_c   10.74287627
_cell_angle_alpha   88.28591578
_cell_angle_beta   88.28591578
_cell_angle_gamma   36.15276705
_symmetry_Int_Tables_number   1
_chemical_formula_structural   Na3Fe3(PO4)4
_chemical_formula_sum   'Na6 Fe6 P8 O32'
_cell_volume   688.77083347
_cell_formula_units_Z   2
loop_
 _symmetry_equiv_pos_site_id
 _symmetry_equiv_pos_as_xyz
  1  'x, y, z'
loop_
 _atom_site_type_symbol
 _atom_site_label
 _atom_site_symmetry_multiplicity
 _atom_site_fract_x
 _atom_site_fract_y
 _atom_site_fract_z
 _atom_site_occupancy
  Na  Na0  1  0.94255100  0.22425300  0.52587000  1
  Na  Na1  1  0.62918100  0.37081900  0.25000000  1
  Na  Na2  1  0.22425300  0.94255100  0.02587000  1
  Na  Na3  1  0.05744900  0.77574700  0.47413000  1
  Na  Na4  1  0.37081900  0.62918100  0.75000000  1
  Na  Na5  1  0.77574700  0.05744900  0.97413000  1
  Fe  Fe6  1  0.63496900  0.67859300  0.25271000  1
  Fe  Fe7  1  0.50000000  0.00000000  0.50000000  1
  Fe  Fe8  1  0.36503100  0.32140700  0.74729000  1
  Fe  Fe9  1  0.67859300  0.63496900  0.75271000  1
  Fe  Fe10  1  0.00000000  0.50000000  0.00000000  1
  Fe  Fe11  1  0.32140700  0.36503100  0.24729000  1
  P  P12  1  0.77974700  0.81700700  0.24299500  1
  P  P13  1  0.42806300  0.74717700  0.50974600  1
  P  P14  1  0.18299300  0.22025300  0.25700500  1
  P  P15  1  0.22025300  0.18299300  0.75700500  1
  P  P16  1  0.57193700  0.25282300  0.49025400  1
  P  P17  1  0.81700700  0.77974700  0.74299500  1
  P  P18  1  0.25282300  0.57193700  0.99025400  1
  P  P19  1  0.74717700  0.42806300  0.00974600  1
  O  O20  1  0.63415800  0.05060000  0.21359200  1
  O  O21  1  0.58579000  0.60415800  0.11436800  1
  O  O22  1  0.36584200  0.94940000  0.78640800  1
  O  O23  1  0.30938800  0.20185900  0.64619700  1
  O  O24  1  0.94988600  0.35409200  0.00621700  1
  O  O25  1  0.05060000  0.63415800  0.71359200  1
  O  O26  1  0.39584200  0.41421000  0.38563200  1
  O  O27  1  0.45540100  0.37510900  0.61655600  1
  O  O28  1  0.20185900  0.30938800  0.14619700  1
  O  O29  1  0.41421000  0.39584200  0.88563200  1
  O  O30  1  0.05011400  0.64590800  0.99378300  1
  O  O31  1  0.94940000  0.36584200  0.28640800  1
  O  O32  1  0.27492500  0.23216200  0.36354600  1
  O  O33  1  0.32459000  0.99014900  0.22607300  1
  O  O34  1  0.62489100  0.54459900  0.88344400  1
  O  O35  1  0.23216200  0.27492500  0.86354600  1
  O  O36  1  0.60415800  0.58579000  0.61436800  1
  O  O37  1  0.76553500  0.18246400  0.46035500  1
  O  O38  1  0.54459900  0.62489100  0.38344400  1
  O  O39  1  0.79814100  0.69061200  0.85380300  1
  O  O40  1  0.99014900  0.32459000  0.72607300  1
  O  O41  1  0.69061200  0.79814100  0.35380300  1
  O  O42  1  0.76783800  0.72507500  0.13645400  1
  O  O43  1  0.64590800  0.05011400  0.49378300  1
  O  O44  1  0.72507500  0.76783800  0.63645400  1
  O  O45  1  0.67541000  0.00985100  0.77392700  1
  O  O46  1  0.00985100  0.67541000  0.27392700  1
  O  O47  1  0.35409200  0.94988600  0.50621700  1
  O  O48  1  0.81753600  0.23446500  0.03964500  1
  O  O49  1  0.37510900  0.45540100  0.11655600  1
  O  O50  1  0.18246400  0.76553500  0.96035500  1
  O  O51  1  0.23446500  0.81753600  0.53964500  1
