# generated using pymatgen
data_Ce2Ga12Cu
_symmetry_space_group_name_H-M   'P 1'
_cell_length_a   6.14748200
_cell_length_b   6.14748200
_cell_length_c   15.32526200
_cell_angle_alpha   90.00000000
_cell_angle_beta   90.00000000
_cell_angle_gamma   90.00000000
_symmetry_Int_Tables_number   1
_chemical_formula_structural   Ce2Ga12Cu
_chemical_formula_sum   'Ce4 Ga24 Cu2'
_cell_volume   579.16517434
_cell_formula_units_Z   2
loop_
 _symmetry_equiv_pos_site_id
 _symmetry_equiv_pos_as_xyz
  1  'x, y, z'
loop_
 _atom_site_type_symbol
 _atom_site_label
 _atom_site_symmetry_multiplicity
 _atom_site_fract_x
 _atom_site_fract_y
 _atom_site_fract_z
 _atom_site_occupancy
  Ce  Ce0  1  0.00000000  0.50000000  0.75648900  1
  Ce  Ce1  1  0.50000000  0.00000000  0.75648900  1
  Ce  Ce2  1  0.00000000  0.50000000  0.24351100  1
  Ce  Ce3  1  0.50000000  0.00000000  0.24351100  1
  Ga  Ga4  1  0.67110200  0.17110200  0.42825000  1
  Ga  Ga5  1  0.67110200  0.82889800  0.57175000  1
  Ga  Ga6  1  0.17110200  0.67110200  0.57175000  1
  Ga  Ga7  1  0.82889800  0.32889800  0.57175000  1
  Ga  Ga8  1  0.50000000  0.50000000  0.18147700  1
  Ga  Ga9  1  0.50000000  0.50000000  0.81852300  1
  Ga  Ga10  1  0.00000000  0.00000000  0.81852300  1
  Ga  Ga11  1  0.00000000  0.00000000  0.18147700  1
  Ga  Ga12  1  0.50000000  0.50000000  0.34112100  1
  Ga  Ga13  1  0.50000000  0.50000000  0.65887900  1
  Ga  Ga14  1  0.00000000  0.00000000  0.65887900  1
  Ga  Ga15  1  0.00000000  0.00000000  0.34112100  1
  Ga  Ga16  1  0.25025500  0.75025500  0.91377800  1
  Ga  Ga17  1  0.24974500  0.25025500  0.91377800  1
  Ga  Ga18  1  0.75025500  0.74974500  0.91377800  1
  Ga  Ga19  1  0.25025500  0.24974500  0.08622200  1
  Ga  Ga20  1  0.74974500  0.75025500  0.08622200  1
  Ga  Ga21  1  0.74974500  0.24974500  0.91377800  1
  Ga  Ga22  1  0.75025500  0.25025500  0.08622200  1
  Ga  Ga23  1  0.24974500  0.74974500  0.08622200  1
  Ga  Ga24  1  0.32889800  0.82889800  0.42825000  1
  Ga  Ga25  1  0.17110200  0.32889800  0.42825000  1
  Ga  Ga26  1  0.82889800  0.67110200  0.42825000  1
  Ga  Ga27  1  0.32889800  0.17110200  0.57175000  1
  Cu  Cu28  1  0.50000000  0.00000000  0.00000000  1
  Cu  Cu29  1  0.00000000  0.50000000  0.00000000  1
