# generated using pymatgen
data_Fe(PO3)3
_symmetry_space_group_name_H-M   'P 1'
_cell_length_a   11.78802966
_cell_length_b   11.78802966
_cell_length_c   9.58955101
_cell_angle_alpha   70.05382830
_cell_angle_beta   70.05382830
_cell_angle_gamma   110.79633786
_symmetry_Int_Tables_number   1
_chemical_formula_structural   Fe(PO3)3
_chemical_formula_sum   'Fe6 P18 O54'
_cell_volume   995.89567080
_cell_formula_units_Z   6
loop_
 _symmetry_equiv_pos_site_id
 _symmetry_equiv_pos_as_xyz
  1  'x, y, z'
loop_
 _atom_site_type_symbol
 _atom_site_label
 _atom_site_symmetry_multiplicity
 _atom_site_fract_x
 _atom_site_fract_y
 _atom_site_fract_z
 _atom_site_occupancy
  Fe  Fe0  1  0.07467400  0.23333700  0.07150200  1
  Fe  Fe1  1  0.23333700  0.07467400  0.57150200  1
  Fe  Fe2  1  0.92795100  0.41674600  0.53902500  1
  Fe  Fe3  1  0.41674600  0.92795100  0.03902500  1
  Fe  Fe4  1  0.56329800  0.74016700  0.57403800  1
  Fe  Fe5  1  0.74016700  0.56329800  0.07403800  1
  P  P6  1  0.32205300  0.25955600  0.74790600  1
  P  P7  1  0.25955600  0.32205300  0.24790600  1
  P  P8  1  0.00047200  0.60345300  0.72447200  1
  P  P9  1  0.60345300  0.00047200  0.22447200  1
  P  P10  1  0.94366400  0.66879100  0.22600300  1
  P  P11  1  0.66879100  0.94366400  0.72600300  1
  P  P12  1  0.86855200  0.90953000  0.84567600  1
  P  P13  1  0.90953000  0.86855200  0.34567600  1
  P  P14  1  0.21594000  0.58892700  0.82630000  1
  P  P15  1  0.58892700  0.21594000  0.32630000  1
  P  P16  1  0.48182500  0.53629000  0.40856900  1
  P  P17  1  0.53629000  0.48182500  0.90856900  1
  P  P18  1  0.28381200  0.57329600  0.28164100  1
  P  P19  1  0.57329600  0.28381200  0.78164100  1
  P  P20  1  0.21999100  0.82886500  0.87709700  1
  P  P21  1  0.82886500  0.21999100  0.37709700  1
  P  P22  1  0.88642200  0.15905600  0.88533800  1
  P  P23  1  0.15905600  0.88642200  0.38533800  1
  O  O24  1  0.29899200  0.48270800  0.19062000  1
  O  O25  1  0.48270800  0.29899200  0.69062000  1
  O  O26  1  0.18047400  0.44850300  0.95778200  1
  O  O27  1  0.44850300  0.18047400  0.45778200  1
  O  O28  1  0.01197500  0.22915700  0.90081000  1
  O  O29  1  0.22915700  0.01197500  0.40081000  1
  O  O30  1  0.13799800  0.48964500  0.44187700  1
  O  O31  1  0.48964500  0.13799800  0.94187700  1
  O  O32  1  0.49277400  0.91460400  0.19756000  1
  O  O33  1  0.91460400  0.49277400  0.69756000  1
  O  O34  1  0.56825400  0.64052200  0.44186500  1
  O  O35  1  0.64052200  0.56825400  0.94186500  1
  O  O36  1  0.39885300  0.59705800  0.33838100  1
  O  O37  1  0.59705800  0.39885300  0.83838100  1
  O  O38  1  0.12937200  0.23884900  0.24762600  1
  O  O39  1  0.23884900  0.12937200  0.74762600  1
  O  O40  1  0.33434700  0.71655600  0.13843000  1
  O  O41  1  0.71655600  0.33434700  0.63843000  1
  O  O42  1  0.09282500  0.55223600  0.78404000  1
  O  O43  1  0.55223600  0.09282500  0.28404000  1
  O  O44  1  0.56522000  0.83695700  0.71072800  1
  O  O45  1  0.83695700  0.56522000  0.21072800  1
  O  O46  1  0.76677900  0.80947300  0.49770400  1
  O  O47  1  0.80947300  0.76677900  0.99770400  1
  O  O48  1  0.35014600  0.39527300  0.59204600  1
  O  O49  1  0.39527300  0.35014600  0.09204600  1
  O  O50  1  0.35858900  0.68321500  0.65766800  1
  O  O51  1  0.68321500  0.35858900  0.15766800  1
  O  O52  1  0.19499000  0.67373200  0.92459000  1
  O  O53  1  0.67373200  0.19499000  0.42459000  1
  O  O54  1  0.79107300  0.08144700  0.53753000  1
  O  O55  1  0.08144700  0.79107300  0.03753000  1
  O  O56  1  0.74645300  0.12576800  0.04029800  1
  O  O57  1  0.12576800  0.74645300  0.54029800  1
  O  O58  1  0.63388300  0.91985800  0.35011000  1
  O  O59  1  0.91985800  0.63388300  0.85011000  1
  O  O60  1  0.49878500  0.55890300  0.78980400  1
  O  O61  1  0.55890300  0.49878500  0.28980400  1
  O  O62  1  0.91865500  0.34725400  0.37680200  1
  O  O63  1  0.34725400  0.91865500  0.87680200  1
  O  O64  1  0.25657600  0.25582800  0.91526500  1
  O  O65  1  0.25582800  0.25657600  0.41526500  1
  O  O66  1  0.89195200  0.21651100  0.21461100  1
  O  O67  1  0.21651100  0.89195200  0.71461100  1
  O  O68  1  0.89690300  0.23624500  0.71641800  1
  O  O69  1  0.23624500  0.89690300  0.21641800  1
  O  O70  1  0.60683300  0.98533200  0.85054600  1
  O  O71  1  0.98533200  0.60683300  0.35054600  1
  O  O72  1  0.76280900  0.88775800  0.77432600  1
  O  O73  1  0.88775800  0.76280900  0.27432600  1
  O  O74  1  0.84708100  0.00065400  0.93246400  1
  O  O75  1  0.00065400  0.84708100  0.43246400  1
  O  O76  1  0.98797500  0.01847000  0.19597200  1
  O  O77  1  0.01847000  0.98797500  0.69597200  1
