# generated using pymatgen
data_Cs3Ga2F9
_symmetry_space_group_name_H-M   'P 1'
_cell_length_a   11.11359783
_cell_length_b   11.11359783
_cell_length_c   15.21529900
_cell_angle_alpha   90.00000000
_cell_angle_beta   90.00000000
_cell_angle_gamma   119.99999899
_symmetry_Int_Tables_number   1
_chemical_formula_structural   Cs3Ga2F9
_chemical_formula_sum   'Cs18 Ga12 F54'
_cell_volume   1627.49806558
_cell_formula_units_Z   6
loop_
 _symmetry_equiv_pos_site_id
 _symmetry_equiv_pos_as_xyz
  1  'x, y, z'
loop_
 _atom_site_type_symbol
 _atom_site_label
 _atom_site_symmetry_multiplicity
 _atom_site_fract_x
 _atom_site_fract_y
 _atom_site_fract_z
 _atom_site_occupancy
  Cs  Cs0  1  0.68026700  0.68026700  0.18200100  1
  Cs  Cs1  1  0.65539500  0.65539500  0.49947800  1
  Cs  Cs2  1  0.00000000  0.68026700  0.68200100  1
  Cs  Cs3  1  0.31973300  0.00000000  0.18200100  1
  Cs  Cs4  1  0.00000000  0.66283100  0.35202400  1
  Cs  Cs5  1  0.31973300  0.31973300  0.68200100  1
  Cs  Cs6  1  0.34460500  0.00000000  0.49947800  1
  Cs  Cs7  1  0.65539500  0.00000000  0.99947800  1
  Cs  Cs8  1  0.00000000  0.34460500  0.49947800  1
  Cs  Cs9  1  0.66283100  0.00000000  0.35202400  1
  Cs  Cs10  1  0.33716900  0.00000000  0.85202400  1
  Cs  Cs11  1  0.66283100  0.66283100  0.85202400  1
  Cs  Cs12  1  0.68026700  0.00000000  0.68200100  1
  Cs  Cs13  1  0.00000000  0.31973300  0.18200100  1
  Cs  Cs14  1  0.00000000  0.33716900  0.85202400  1
  Cs  Cs15  1  0.34460500  0.34460500  0.99947800  1
  Cs  Cs16  1  0.33716900  0.33716900  0.35202400  1
  Cs  Cs17  1  0.00000000  0.65539500  0.99947800  1
  Ga  Ga18  1  0.00000000  0.00000000  0.40698000  1
  Ga  Ga19  1  0.66666700  0.33333300  0.27408400  1
  Ga  Ga20  1  0.00000000  0.00000000  0.90698000  1
  Ga  Ga21  1  0.33333300  0.66666700  0.27408400  1
  Ga  Ga22  1  0.33333300  0.66666700  0.58412000  1
  Ga  Ga23  1  0.33333300  0.66666700  0.08412000  1
  Ga  Ga24  1  0.66666700  0.33333300  0.58412000  1
  Ga  Ga25  1  0.66666700  0.33333300  0.77408400  1
  Ga  Ga26  1  0.33333300  0.66666700  0.77408400  1
  Ga  Ga27  1  0.00000000  0.00000000  0.09694900  1
  Ga  Ga28  1  0.66666700  0.33333300  0.08412000  1
  Ga  Ga29  1  0.00000000  0.00000000  0.59694900  1
  F  F30  1  0.18625100  0.51745500  0.33065000  1
  F  F31  1  0.20110600  0.66361600  0.17945500  1
  F  F32  1  0.51643000  0.32961900  0.52793800  1
  F  F33  1  0.18681100  0.67038100  0.52793800  1
  F  F34  1  0.85116600  0.85116600  0.35185600  1
  F  F35  1  0.79889400  0.33638400  0.67945500  1
  F  F36  1  0.14873300  0.14873300  0.15231000  1
  F  F37  1  0.79889400  0.46251000  0.17945500  1
  F  F38  1  0.48254500  0.66879600  0.33065000  1
  F  F39  1  0.00000000  0.85116600  0.85185600  1
  F  F40  1  0.81374900  0.33120400  0.33065000  1
  F  F41  1  0.33120400  0.51745500  0.83065000  1
  F  F42  1  0.66361600  0.20110600  0.17945500  1
  F  F43  1  0.66361600  0.46251000  0.67945500  1
  F  F44  1  0.51745500  0.33120400  0.83065000  1
  F  F45  1  0.85116600  0.00000000  0.85185600  1
  F  F46  1  0.18625100  0.66879600  0.83065000  1
  F  F47  1  0.32961900  0.81318900  0.02793800  1
  F  F48  1  0.46251000  0.79889400  0.17945500  1
  F  F49  1  0.53749000  0.20110600  0.67945500  1
  F  F50  1  0.00000000  0.14873300  0.65231000  1
  F  F51  1  0.33638400  0.79889400  0.67945500  1
  F  F52  1  0.00000000  0.14883400  0.35185600  1
  F  F53  1  0.85126700  0.85126700  0.65231000  1
  F  F54  1  0.53749000  0.33638400  0.17945500  1
  F  F55  1  0.13084900  0.13084900  0.50176500  1
  F  F56  1  0.66879600  0.48254500  0.33065000  1
  F  F57  1  0.32961900  0.51643000  0.52793800  1
  F  F58  1  0.85126700  0.00000000  0.15231000  1
  F  F59  1  0.48357000  0.81318900  0.52793800  1
  F  F60  1  0.67038100  0.48357000  0.02793800  1
  F  F61  1  0.00000000  0.86915100  0.50176500  1
  F  F62  1  0.14873300  0.00000000  0.65231000  1
  F  F63  1  0.33120400  0.81374900  0.33065000  1
  F  F64  1  0.18681100  0.51643000  0.02793800  1
  F  F65  1  0.00000000  0.85126700  0.15231000  1
  F  F66  1  0.48357000  0.67038100  0.02793800  1
  F  F67  1  0.86915100  0.00000000  0.50176500  1
  F  F68  1  0.14883400  0.14883400  0.85185600  1
  F  F69  1  0.46251000  0.66361600  0.67945500  1
  F  F70  1  0.86915100  0.86915100  0.00176500  1
  F  F71  1  0.51745500  0.18625100  0.33065000  1
  F  F72  1  0.67038100  0.18681100  0.52793800  1
  F  F73  1  0.51643000  0.18681100  0.02793800  1
  F  F74  1  0.33638400  0.53749000  0.17945500  1
  F  F75  1  0.48254500  0.81374900  0.83065000  1
  F  F76  1  0.00000000  0.13084900  0.00176500  1
  F  F77  1  0.20110600  0.53749000  0.67945500  1
  F  F78  1  0.81318900  0.48357000  0.52793800  1
  F  F79  1  0.13084900  0.00000000  0.00176500  1
  F  F80  1  0.66879600  0.18625100  0.83065000  1
  F  F81  1  0.14883400  0.00000000  0.35185600  1
  F  F82  1  0.81374900  0.48254500  0.83065000  1
  F  F83  1  0.81318900  0.32961900  0.02793800  1
