# generated using pymatgen
data_K2OsCBr5O
_symmetry_space_group_name_H-M   'P 1'
_cell_length_a   7.51728700
_cell_length_b   10.87060300
_cell_length_c   14.83268400
_cell_angle_alpha   90.00000000
_cell_angle_beta   90.00000000
_cell_angle_gamma   90.00000000
_symmetry_Int_Tables_number   1
_chemical_formula_structural   K2OsCBr5O
_chemical_formula_sum   'K8 Os4 C4 Br20 O4'
_cell_volume   1212.08900358
_cell_formula_units_Z   4
loop_
 _symmetry_equiv_pos_site_id
 _symmetry_equiv_pos_as_xyz
  1  'x, y, z'
loop_
 _atom_site_type_symbol
 _atom_site_label
 _atom_site_symmetry_multiplicity
 _atom_site_fract_x
 _atom_site_fract_y
 _atom_site_fract_z
 _atom_site_occupancy
  K  K0  1  0.67138700  0.49985300  0.85291400  1
  K  K1  1  0.32861300  0.50014700  0.14708600  1
  K  K2  1  0.17138700  0.50014700  0.64708600  1
  K  K3  1  0.17138700  0.99985300  0.64708600  1
  K  K4  1  0.82861300  0.00014700  0.35291400  1
  K  K5  1  0.67138700  0.00014700  0.85291400  1
  K  K6  1  0.32861300  0.99985300  0.14708600  1
  K  K7  1  0.82861300  0.49985300  0.35291400  1
  Os  Os8  1  0.80976900  0.25000000  0.11362600  1
  Os  Os9  1  0.19023100  0.75000000  0.88637400  1
  Os  Os10  1  0.30976900  0.75000000  0.38637400  1
  Os  Os11  1  0.69023100  0.25000000  0.61362600  1
  C  C12  1  0.97431400  0.25000000  0.02276700  1
  C  C13  1  0.52568600  0.25000000  0.52276700  1
  C  C14  1  0.02568600  0.75000000  0.97723300  1
  C  C15  1  0.47431400  0.75000000  0.47723300  1
  Br  Br16  1  0.58589600  0.25000000  0.25042000  1
  Br  Br17  1  0.29687800  0.51840800  0.38333000  1
  Br  Br18  1  0.95397200  0.25000000  0.50631500  1
  Br  Br19  1  0.45397200  0.75000000  0.99368500  1
  Br  Br20  1  0.70312200  0.01840800  0.61667000  1
  Br  Br21  1  0.93991900  0.75000000  0.77199900  1
  Br  Br22  1  0.20312200  0.98159200  0.88333000  1
  Br  Br23  1  0.08589600  0.75000000  0.24958000  1
  Br  Br24  1  0.79687800  0.48159200  0.11667000  1
  Br  Br25  1  0.70312200  0.48159200  0.61667000  1
  Br  Br26  1  0.20312200  0.51840800  0.88333000  1
  Br  Br27  1  0.43991900  0.25000000  0.72800100  1
  Br  Br28  1  0.79687800  0.01840800  0.11667000  1
  Br  Br29  1  0.41410400  0.75000000  0.74958000  1
  Br  Br30  1  0.04602800  0.75000000  0.49368500  1
  Br  Br31  1  0.91410400  0.25000000  0.75042000  1
  Br  Br32  1  0.29687800  0.98159200  0.38333000  1
  Br  Br33  1  0.06008100  0.25000000  0.22800100  1
  Br  Br34  1  0.54602800  0.25000000  0.00631500  1
  Br  Br35  1  0.56008100  0.75000000  0.27199900  1
  O  O36  1  0.91450200  0.75000000  0.03268000  1
  O  O37  1  0.41450200  0.25000000  0.46732000  1
  O  O38  1  0.58549800  0.75000000  0.53268000  1
  O  O39  1  0.08549800  0.25000000  0.96732000  1
