# generated using pymatgen
data_Ba2NdBiO6
_symmetry_space_group_name_H-M   'P 1'
_cell_length_a   6.22746845
_cell_length_b   6.22746845
_cell_length_c   6.28380911
_cell_angle_alpha   60.10863460
_cell_angle_beta   60.10863460
_cell_angle_gamma   60.15765151
_symmetry_Int_Tables_number   1
_chemical_formula_structural   Ba2NdBiO6
_chemical_formula_sum   'Ba2 Nd1 Bi1 O6'
_cell_volume   172.80595086
_cell_formula_units_Z   1
loop_
 _symmetry_equiv_pos_site_id
 _symmetry_equiv_pos_as_xyz
  1  'x, y, z'
loop_
 _atom_site_type_symbol
 _atom_site_label
 _atom_site_symmetry_multiplicity
 _atom_site_fract_x
 _atom_site_fract_y
 _atom_site_fract_z
 _atom_site_occupancy
  Ba  Ba0  1  0.24829700  0.24829700  0.76023600  1
  Ba  Ba1  1  0.75170300  0.75170300  0.23976400  1
  Nd  Nd2  1  0.00000000  0.00000000  0.50000000  1
  Bi  Bi3  1  0.50000000  0.50000000  0.00000000  1
  O  O4  1  0.73821500  0.73821500  0.68944800  1
  O  O5  1  0.26178500  0.26178500  0.31055200  1
  O  O6  1  0.21856100  0.70072200  0.80249000  1
  O  O7  1  0.78143900  0.29927800  0.19751000  1
  O  O8  1  0.29927800  0.78143900  0.19751000  1
  O  O9  1  0.70072200  0.21856100  0.80249000  1
