# generated using pymatgen
data_RbMoPClO5
_symmetry_space_group_name_H-M   'P 1'
_cell_length_a   6.57377400
_cell_length_b   6.57377400
_cell_length_c   7.63772600
_cell_angle_alpha   90.00000000
_cell_angle_beta   90.00000000
_cell_angle_gamma   90.00000000
_symmetry_Int_Tables_number   1
_chemical_formula_structural   RbMoPClO5
_chemical_formula_sum   'Rb2 Mo2 P2 Cl2 O10'
_cell_volume   330.06054538
_cell_formula_units_Z   2
loop_
 _symmetry_equiv_pos_site_id
 _symmetry_equiv_pos_as_xyz
  1  'x, y, z'
loop_
 _atom_site_type_symbol
 _atom_site_label
 _atom_site_symmetry_multiplicity
 _atom_site_fract_x
 _atom_site_fract_y
 _atom_site_fract_z
 _atom_site_occupancy
  Rb  Rb0  1  0.00000000  0.00000000  0.50000000  1
  Rb  Rb1  1  0.50000000  0.50000000  0.50000000  1
  Mo  Mo2  1  0.50000000  0.00000000  0.09075200  1
  Mo  Mo3  1  0.00000000  0.50000000  0.90924800  1
  P  P4  1  0.50000000  0.50000000  0.00000000  1
  P  P5  1  0.00000000  0.00000000  0.00000000  1
  Cl  Cl6  1  0.00000000  0.50000000  0.56739200  1
  Cl  Cl7  1  0.50000000  0.00000000  0.43260800  1
  O  O8  1  0.18687700  0.00000000  0.12380600  1
  O  O9  1  0.50000000  0.31312300  0.12380600  1
  O  O10  1  0.50000000  0.00000000  0.86784600  1
  O  O11  1  0.81312300  0.00000000  0.12380600  1
  O  O12  1  0.31312300  0.50000000  0.87619400  1
  O  O13  1  0.68687700  0.50000000  0.87619400  1
  O  O14  1  0.00000000  0.18687700  0.87619400  1
  O  O15  1  0.50000000  0.68687700  0.12380600  1
  O  O16  1  0.00000000  0.50000000  0.13215400  1
  O  O17  1  0.00000000  0.81312300  0.87619400  1
