# generated using pymatgen
data_PdSeO3
_symmetry_space_group_name_H-M   'P 1'
_cell_length_a   6.56547600
_cell_length_b   4.03054100
_cell_length_c   6.26215924
_cell_angle_alpha   84.08991158
_cell_angle_beta   90.00000000
_cell_angle_gamma   90.00000000
_symmetry_Int_Tables_number   1
_chemical_formula_structural   PdSeO3
_chemical_formula_sum   'Pd2 Se2 O6'
_cell_volume   164.83108118
_cell_formula_units_Z   2
loop_
 _symmetry_equiv_pos_site_id
 _symmetry_equiv_pos_as_xyz
  1  'x, y, z'
loop_
 _atom_site_type_symbol
 _atom_site_label
 _atom_site_symmetry_multiplicity
 _atom_site_fract_x
 _atom_site_fract_y
 _atom_site_fract_z
 _atom_site_occupancy
  Pd  Pd0  1  0.00000000  0.50000000  0.50000000  1
  Pd  Pd1  1  0.50000000  0.50000000  0.50000000  1
  Se  Se2  1  0.75000000  0.05397400  0.17798400  1
  Se  Se3  1  0.25000000  0.94602600  0.82201600  1
  O  O4  1  0.04095400  0.20095500  0.78158500  1
  O  O5  1  0.75000000  0.21981300  0.44262000  1
  O  O6  1  0.95904600  0.79904500  0.21841500  1
  O  O7  1  0.54095400  0.79904500  0.21841500  1
  O  O8  1  0.25000000  0.78018700  0.55738000  1
  O  O9  1  0.45904600  0.20095500  0.78158500  1
