# generated using pymatgen
data_Nb6Fe16Si7
_symmetry_space_group_name_H-M   'P 1'
_cell_length_a   7.94442530
_cell_length_b   7.94442530
_cell_length_c   7.94442530
_cell_angle_alpha   60.00000000
_cell_angle_beta   60.00000000
_cell_angle_gamma   60.00000000
_symmetry_Int_Tables_number   1
_chemical_formula_structural   Nb6Fe16Si7
_chemical_formula_sum   'Nb6 Fe16 Si7'
_cell_volume   354.54589308
_cell_formula_units_Z   1
loop_
 _symmetry_equiv_pos_site_id
 _symmetry_equiv_pos_as_xyz
  1  'x, y, z'
loop_
 _atom_site_type_symbol
 _atom_site_label
 _atom_site_symmetry_multiplicity
 _atom_site_fract_x
 _atom_site_fract_y
 _atom_site_fract_z
 _atom_site_occupancy
  Nb  Nb0  1  0.79581500  0.20418500  0.79581500  1
  Nb  Nb1  1  0.79581500  0.79581500  0.20418500  1
  Nb  Nb2  1  0.20418500  0.79581500  0.20418500  1
  Nb  Nb3  1  0.20418500  0.20418500  0.79581500  1
  Nb  Nb4  1  0.20418500  0.79581500  0.79581500  1
  Nb  Nb5  1  0.79581500  0.20418500  0.20418500  1
  Fe  Fe6  1  0.86002300  0.37999200  0.37999200  1
  Fe  Fe7  1  0.62000800  0.62000800  0.13997700  1
  Fe  Fe8  1  0.37999200  0.37999200  0.86002300  1
  Fe  Fe9  1  0.82613700  0.52159000  0.82613700  1
  Fe  Fe10  1  0.82613700  0.82613700  0.82613700  1
  Fe  Fe11  1  0.82613700  0.82613700  0.52159000  1
  Fe  Fe12  1  0.37999200  0.37999200  0.37999200  1
  Fe  Fe13  1  0.13997700  0.62000800  0.62000800  1
  Fe  Fe14  1  0.62000800  0.62000800  0.62000800  1
  Fe  Fe15  1  0.17386300  0.17386300  0.17386300  1
  Fe  Fe16  1  0.17386300  0.47841000  0.17386300  1
  Fe  Fe17  1  0.52159000  0.82613700  0.82613700  1
  Fe  Fe18  1  0.62000800  0.13997700  0.62000800  1
  Fe  Fe19  1  0.17386300  0.17386300  0.47841000  1
  Fe  Fe20  1  0.37999200  0.86002300  0.37999200  1
  Fe  Fe21  1  0.47841000  0.17386300  0.17386300  1
  Si  Si22  1  0.50000000  0.00000000  0.00000000  1
  Si  Si23  1  0.00000000  0.50000000  0.00000000  1
  Si  Si24  1  0.50000000  0.50000000  0.00000000  1
  Si  Si25  1  0.50000000  0.50000000  0.50000000  1
  Si  Si26  1  0.00000000  0.50000000  0.50000000  1
  Si  Si27  1  0.00000000  0.00000000  0.50000000  1
  Si  Si28  1  0.50000000  0.00000000  0.50000000  1
