# generated using pymatgen
data_Gd3Si2Cl5O6
_symmetry_space_group_name_H-M   'P 1'
_cell_length_a   7.52214995
_cell_length_b   7.52214995
_cell_length_c   11.87453369
_cell_angle_alpha   80.72784852
_cell_angle_beta   80.72784852
_cell_angle_gamma   89.08994103
_symmetry_Int_Tables_number   1
_chemical_formula_structural   Gd3Si2Cl5O6
_chemical_formula_sum   'Gd6 Si4 Cl10 O12'
_cell_volume   654.41559456
_cell_formula_units_Z   2
loop_
 _symmetry_equiv_pos_site_id
 _symmetry_equiv_pos_as_xyz
  1  'x, y, z'
loop_
 _atom_site_type_symbol
 _atom_site_label
 _atom_site_symmetry_multiplicity
 _atom_site_fract_x
 _atom_site_fract_y
 _atom_site_fract_z
 _atom_site_occupancy
  Gd  Gd0  1  0.58352600  0.08103200  0.66898300  1
  Gd  Gd1  1  0.00000000  0.50000000  0.00000000  1
  Gd  Gd2  1  0.41647400  0.91896800  0.33101700  1
  Gd  Gd3  1  0.91896800  0.41647400  0.33101700  1
  Gd  Gd4  1  0.50000000  0.00000000  0.00000000  1
  Gd  Gd5  1  0.08103200  0.58352600  0.66898300  1
  Si  Si6  1  0.10951100  0.81920700  0.14302600  1
  Si  Si7  1  0.18079300  0.89048900  0.85697400  1
  Si  Si8  1  0.81920700  0.10951100  0.14302600  1
  Si  Si9  1  0.89048900  0.18079300  0.85697400  1
  Cl  Cl10  1  0.11538600  0.67426900  0.42056200  1
  Cl  Cl11  1  0.62088400  0.62088400  0.35610100  1
  Cl  Cl12  1  0.32573100  0.88461400  0.57943800  1
  Cl  Cl13  1  0.31567000  0.31567000  0.99598500  1
  Cl  Cl14  1  0.37911600  0.37911600  0.64389900  1
  Cl  Cl15  1  0.88461400  0.32573100  0.57943800  1
  Cl  Cl16  1  0.67426900  0.11538600  0.42056200  1
  Cl  Cl17  1  0.22292300  0.22292300  0.33694200  1
  Cl  Cl18  1  0.68433000  0.68433000  0.00401500  1
  Cl  Cl19  1  0.77707700  0.77707700  0.66305800  1
  O  O20  1  0.95343100  0.95343100  0.19056500  1
  O  O21  1  0.95748200  0.38999500  0.82798300  1
  O  O22  1  0.85492900  0.14507100  0.00000000  1
  O  O23  1  0.38999500  0.95748200  0.82798300  1
  O  O24  1  0.12958600  0.69539800  0.82785000  1
  O  O25  1  0.30460200  0.87041400  0.17215000  1
  O  O26  1  0.87041400  0.30460200  0.17215000  1
  O  O27  1  0.14507100  0.85492900  0.00000000  1
  O  O28  1  0.69539800  0.12958600  0.82785000  1
  O  O29  1  0.04656900  0.04656900  0.80943500  1
  O  O30  1  0.04251800  0.61000500  0.17201700  1
  O  O31  1  0.61000500  0.04251800  0.17201700  1
