# generated using pymatgen
data_BaSr2(PN2)6
_symmetry_space_group_name_H-M   'P 1'
_cell_length_a   10.15848400
_cell_length_b   10.15848400
_cell_length_c   10.15848400
_cell_angle_alpha   90.00000000
_cell_angle_beta   90.00000000
_cell_angle_gamma   90.00000000
_symmetry_Int_Tables_number   1
_chemical_formula_structural   BaSr2(PN2)6
_chemical_formula_sum   'Ba4 Sr8 P24 N48'
_cell_volume   1048.30269602
_cell_formula_units_Z   4
loop_
 _symmetry_equiv_pos_site_id
 _symmetry_equiv_pos_as_xyz
  1  'x, y, z'
loop_
 _atom_site_type_symbol
 _atom_site_label
 _atom_site_symmetry_multiplicity
 _atom_site_fract_x
 _atom_site_fract_y
 _atom_site_fract_z
 _atom_site_occupancy
  Ba  Ba0  1  0.50000000  0.00000000  0.50000000  1
  Ba  Ba1  1  0.00000000  0.50000000  0.50000000  1
  Ba  Ba2  1  0.00000000  0.00000000  0.00000000  1
  Ba  Ba3  1  0.50000000  0.50000000  0.00000000  1
  Sr  Sr4  1  0.12849000  0.87151000  0.37151000  1
  Sr  Sr5  1  0.37151000  0.12849000  0.87151000  1
  Sr  Sr6  1  0.37151000  0.37151000  0.37151000  1
  Sr  Sr7  1  0.12849000  0.62849000  0.87151000  1
  Sr  Sr8  1  0.62849000  0.62849000  0.62849000  1
  Sr  Sr9  1  0.87151000  0.37151000  0.12849000  1
  Sr  Sr10  1  0.87151000  0.12849000  0.62849000  1
  Sr  Sr11  1  0.62849000  0.87151000  0.12849000  1
  P  P12  1  0.83996200  0.38677800  0.81282900  1
  P  P13  1  0.81282900  0.66003800  0.88677800  1
  P  P14  1  0.16003800  0.88677800  0.68717100  1
  P  P15  1  0.88677800  0.81282900  0.66003800  1
  P  P16  1  0.33996200  0.38677800  0.68717100  1
  P  P17  1  0.18717100  0.16003800  0.61322200  1
  P  P18  1  0.81282900  0.83996200  0.38677800  1
  P  P19  1  0.38677800  0.81282900  0.83996200  1
  P  P20  1  0.11322200  0.18717100  0.33996200  1
  P  P21  1  0.61322200  0.18717100  0.16003800  1
  P  P22  1  0.61322200  0.31282900  0.66003800  1
  P  P23  1  0.38677800  0.68717100  0.33996200  1
  P  P24  1  0.68717100  0.33996200  0.38677800  1
  P  P25  1  0.18717100  0.33996200  0.11322200  1
  P  P26  1  0.33996200  0.11322200  0.18717100  1
  P  P27  1  0.66003800  0.61322200  0.31282900  1
  P  P28  1  0.11322200  0.31282900  0.83996200  1
  P  P29  1  0.16003800  0.61322200  0.18717100  1
  P  P30  1  0.83996200  0.11322200  0.31282900  1
  P  P31  1  0.66003800  0.88677800  0.81282900  1
  P  P32  1  0.31282900  0.66003800  0.61322200  1
  P  P33  1  0.68717100  0.16003800  0.88677800  1
  P  P34  1  0.31282900  0.83996200  0.11322200  1
  P  P35  1  0.88677800  0.68717100  0.16003800  1
  N  N36  1  0.82736600  0.24108400  0.88478600  1
  N  N37  1  0.11521400  0.32736600  0.25891600  1
  N  N38  1  0.67263400  0.75891600  0.38478600  1
  N  N39  1  0.00202100  0.91081000  0.71763100  1
  N  N40  1  0.71763100  0.00202100  0.91081000  1
  N  N41  1  0.25891600  0.38478600  0.82736600  1
  N  N42  1  0.41081000  0.78236900  0.99797900  1
  N  N43  1  0.99797900  0.08919000  0.28236900  1
  N  N44  1  0.58919000  0.21763100  0.00202100  1
  N  N45  1  0.61521400  0.32736600  0.24108400  1
  N  N46  1  0.17263400  0.74108400  0.61521400  1
  N  N47  1  0.08919000  0.28236900  0.99797900  1
  N  N48  1  0.74108400  0.61521400  0.17263400  1
  N  N49  1  0.25891600  0.11521400  0.32736600  1
  N  N50  1  0.91081000  0.78236900  0.50202100  1
  N  N51  1  0.32736600  0.24108400  0.61521400  1
  N  N52  1  0.82736600  0.25891600  0.38478600  1
  N  N53  1  0.00202100  0.58919000  0.21763100  1
  N  N54  1  0.75891600  0.38478600  0.67263400  1
  N  N55  1  0.74108400  0.88478600  0.67263400  1
  N  N56  1  0.99797900  0.41081000  0.78236900  1
  N  N57  1  0.28236900  0.99797900  0.08919000  1
  N  N58  1  0.17263400  0.75891600  0.11521400  1
  N  N59  1  0.49797900  0.08919000  0.21763100  1
  N  N60  1  0.24108400  0.61521400  0.32736600  1
  N  N61  1  0.71763100  0.49797900  0.41081000  1
  N  N62  1  0.58919000  0.28236900  0.50202100  1
  N  N63  1  0.28236900  0.50202100  0.58919000  1
  N  N64  1  0.91081000  0.71763100  0.00202100  1
  N  N65  1  0.88478600  0.67263400  0.74108400  1
  N  N66  1  0.75891600  0.11521400  0.17263400  1
  N  N67  1  0.21763100  0.49797900  0.08919000  1
  N  N68  1  0.21763100  0.00202100  0.58919000  1
  N  N69  1  0.67263400  0.74108400  0.88478600  1
  N  N70  1  0.78236900  0.99797900  0.41081000  1
  N  N71  1  0.50202100  0.58919000  0.28236900  1
  N  N72  1  0.61521400  0.17263400  0.74108400  1
  N  N73  1  0.32736600  0.25891600  0.11521400  1
  N  N74  1  0.78236900  0.50202100  0.91081000  1
  N  N75  1  0.49797900  0.41081000  0.71763100  1
  N  N76  1  0.38478600  0.82736600  0.25891600  1
  N  N77  1  0.88478600  0.82736600  0.24108400  1
  N  N78  1  0.08919000  0.21763100  0.49797900  1
  N  N79  1  0.11521400  0.17263400  0.75891600  1
  N  N80  1  0.38478600  0.67263400  0.75891600  1
  N  N81  1  0.24108400  0.88478600  0.82736600  1
  N  N82  1  0.50202100  0.91081000  0.78236900  1
  N  N83  1  0.41081000  0.71763100  0.49797900  1
