# generated using pymatgen
data_Sc2FeB2Rh5
_symmetry_space_group_name_H-M   'P 1'
_cell_length_a   9.32826800
_cell_length_b   9.32826800
_cell_length_c   3.08426000
_cell_angle_alpha   90.00000000
_cell_angle_beta   90.00000000
_cell_angle_gamma   90.00000000
_symmetry_Int_Tables_number   1
_chemical_formula_structural   Sc2FeB2Rh5
_chemical_formula_sum   'Sc4 Fe2 B4 Rh10'
_cell_volume   268.38176900
_cell_formula_units_Z   2
loop_
 _symmetry_equiv_pos_site_id
 _symmetry_equiv_pos_as_xyz
  1  'x, y, z'
loop_
 _atom_site_type_symbol
 _atom_site_label
 _atom_site_symmetry_multiplicity
 _atom_site_fract_x
 _atom_site_fract_y
 _atom_site_fract_z
 _atom_site_occupancy
  Sc  Sc0  1  0.82476600  0.32476600  0.00000000  1
  Sc  Sc1  1  0.32476600  0.17523400  0.00000000  1
  Sc  Sc2  1  0.67523400  0.82476600  0.00000000  1
  Sc  Sc3  1  0.17523400  0.67523400  0.00000000  1
  Fe  Fe4  1  0.00000000  0.00000000  0.00000000  1
  Fe  Fe5  1  0.50000000  0.50000000  0.00000000  1
  B  B6  1  0.62430600  0.12430600  0.00000000  1
  B  B7  1  0.12430600  0.37569400  0.00000000  1
  B  B8  1  0.87569400  0.62430600  0.00000000  1
  B  B9  1  0.37569400  0.87569400  0.00000000  1
  Rh  Rh10  1  0.07065500  0.21584900  0.50000000  1
  Rh  Rh11  1  0.21584900  0.92934500  0.50000000  1
  Rh  Rh12  1  0.78415100  0.07065500  0.50000000  1
  Rh  Rh13  1  0.92934500  0.78415100  0.50000000  1
  Rh  Rh14  1  0.42934500  0.71584900  0.50000000  1
  Rh  Rh15  1  0.57065500  0.28415100  0.50000000  1
  Rh  Rh16  1  0.71584900  0.57065500  0.50000000  1
  Rh  Rh17  1  0.28415100  0.42934500  0.50000000  1
  Rh  Rh18  1  0.50000000  0.00000000  0.50000000  1
  Rh  Rh19  1  0.00000000  0.50000000  0.50000000  1
