# generated using pymatgen
data_K2U(WO5)2
_symmetry_space_group_name_H-M   'P 1'
_cell_length_a   7.70159600
_cell_length_b   8.78539700
_cell_length_c   14.33855700
_cell_angle_alpha   90.00000000
_cell_angle_beta   90.00000000
_cell_angle_gamma   90.00000000
_symmetry_Int_Tables_number   1
_chemical_formula_structural   K2U(WO5)2
_chemical_formula_sum   'K8 U4 W8 O40'
_cell_volume   970.16939851
_cell_formula_units_Z   4
loop_
 _symmetry_equiv_pos_site_id
 _symmetry_equiv_pos_as_xyz
  1  'x, y, z'
loop_
 _atom_site_type_symbol
 _atom_site_label
 _atom_site_symmetry_multiplicity
 _atom_site_fract_x
 _atom_site_fract_y
 _atom_site_fract_z
 _atom_site_occupancy
  K  K0  1  0.75000000  0.15546000  0.30165700  1
  K  K1  1  0.25000000  0.84454000  0.69834300  1
  K  K2  1  0.25000000  0.65546000  0.19834300  1
  K  K3  1  0.75000000  0.34454000  0.80165700  1
  K  K4  1  0.25000000  0.17395200  0.28376600  1
  K  K5  1  0.75000000  0.82604800  0.71623400  1
  K  K6  1  0.75000000  0.67395200  0.21623400  1
  K  K7  1  0.25000000  0.32604800  0.78376600  1
  U  U8  1  0.25000000  0.52499900  0.49609300  1
  U  U9  1  0.75000000  0.47500100  0.50390700  1
  U  U10  1  0.75000000  0.02499900  0.00390700  1
  U  U11  1  0.25000000  0.97500100  0.99609300  1
  W  W12  1  0.00120500  0.85362000  0.43100100  1
  W  W13  1  0.50120500  0.14638000  0.56899900  1
  W  W14  1  0.99879500  0.35362000  0.06899900  1
  W  W15  1  0.49879500  0.64638000  0.93100100  1
  W  W16  1  0.99879500  0.14638000  0.56899900  1
  W  W17  1  0.49879500  0.85362000  0.43100100  1
  W  W18  1  0.00120500  0.64638000  0.93100100  1
  W  W19  1  0.50120500  0.35362000  0.06899900  1
  O  O20  1  0.97227900  0.64735500  0.48448300  1
  O  O21  1  0.47227900  0.35264500  0.51551700  1
  O  O22  1  0.02772100  0.14735500  0.01551700  1
  O  O23  1  0.52772100  0.85264500  0.98448300  1
  O  O24  1  0.02772100  0.35264500  0.51551700  1
  O  O25  1  0.52772100  0.64735500  0.48448300  1
  O  O26  1  0.97227900  0.85264500  0.98448300  1
  O  O27  1  0.47227900  0.14735500  0.01551700  1
  O  O28  1  0.75000000  0.86685600  0.42202400  1
  O  O29  1  0.25000000  0.13314400  0.57797600  1
  O  O30  1  0.25000000  0.36685600  0.07797600  1
  O  O31  1  0.75000000  0.63314400  0.92202400  1
  O  O32  1  0.03206400  0.06753300  0.42392000  1
  O  O33  1  0.53206400  0.93246700  0.57608000  1
  O  O34  1  0.96793600  0.56753300  0.07608000  1
  O  O35  1  0.46793600  0.43246700  0.92392000  1
  O  O36  1  0.96793600  0.93246700  0.57608000  1
  O  O37  1  0.46793600  0.06753300  0.42392000  1
  O  O38  1  0.03206400  0.43246700  0.92392000  1
  O  O39  1  0.53206400  0.56753300  0.07608000  1
  O  O40  1  0.25000000  0.81003900  0.46485000  1
  O  O41  1  0.75000000  0.18996100  0.53515000  1
  O  O42  1  0.75000000  0.31003900  0.03515000  1
  O  O43  1  0.25000000  0.68996100  0.96485000  1
  O  O44  1  0.02802700  0.80943400  0.31037400  1
  O  O45  1  0.52802700  0.19056600  0.68962600  1
  O  O46  1  0.97197300  0.30943400  0.18962600  1
  O  O47  1  0.47197300  0.69056600  0.81037400  1
  O  O48  1  0.97197300  0.19056600  0.68962600  1
  O  O49  1  0.47197300  0.80943400  0.31037400  1
  O  O50  1  0.02802700  0.69056600  0.81037400  1
  O  O51  1  0.52802700  0.30943400  0.18962600  1
  O  O52  1  0.25000000  0.55729800  0.62228600  1
  O  O53  1  0.75000000  0.44270200  0.37771400  1
  O  O54  1  0.75000000  0.05729800  0.87771400  1
  O  O55  1  0.25000000  0.94270200  0.12228600  1
  O  O56  1  0.25000000  0.48778900  0.37009400  1
  O  O57  1  0.75000000  0.51221100  0.62990600  1
  O  O58  1  0.75000000  0.98778900  0.12990600  1
  O  O59  1  0.25000000  0.01221100  0.87009400  1
