# generated using pymatgen
data_LiU4P3O20
_symmetry_space_group_name_H-M   'P 1'
_cell_length_a   9.99122400
_cell_length_b   9.98514200
_cell_length_c   17.74820028
_cell_angle_alpha   73.88843443
_cell_angle_beta   90.00000000
_cell_angle_gamma   90.00000000
_symmetry_Int_Tables_number   1
_chemical_formula_structural   LiU4P3O20
_chemical_formula_sum   'Li4 U16 P12 O80'
_cell_volume   1701.08306473
_cell_formula_units_Z   4
loop_
 _symmetry_equiv_pos_site_id
 _symmetry_equiv_pos_as_xyz
  1  'x, y, z'
loop_
 _atom_site_type_symbol
 _atom_site_label
 _atom_site_symmetry_multiplicity
 _atom_site_fract_x
 _atom_site_fract_y
 _atom_site_fract_z
 _atom_site_occupancy
  Li  Li0  1  0.37056300  0.67151100  0.91629700  1
  Li  Li1  1  0.62943700  0.32848900  0.08370300  1
  Li  Li2  1  0.87056300  0.32848900  0.58370300  1
  Li  Li3  1  0.12943700  0.67151100  0.41629700  1
  U  U4  1  0.62333500  0.02761700  0.69283900  1
  U  U5  1  0.12333500  0.97238300  0.80716100  1
  U  U6  1  0.88563800  0.60583100  0.05927000  1
  U  U7  1  0.63563700  0.91463900  0.94208800  1
  U  U8  1  0.87458100  0.46891800  0.31057500  1
  U  U9  1  0.37666500  0.97238300  0.30716100  1
  U  U10  1  0.61436200  0.60583100  0.55927000  1
  U  U11  1  0.62541900  0.46891800  0.81057500  1
  U  U12  1  0.12541900  0.53108200  0.68942500  1
  U  U13  1  0.38563800  0.39416900  0.44073000  1
  U  U14  1  0.36436300  0.08536100  0.05791200  1
  U  U15  1  0.37458100  0.53108200  0.18942500  1
  U  U16  1  0.11436200  0.39416900  0.94073000  1
  U  U17  1  0.86436300  0.91463900  0.44208800  1
  U  U18  1  0.87666500  0.02761700  0.19283900  1
  U  U19  1  0.13563700  0.08536100  0.55791200  1
  P  P20  1  0.12534200  0.74511600  0.25756000  1
  P  P21  1  0.62534200  0.25488400  0.24244000  1
  P  P22  1  0.62769100  0.81226000  0.13137300  1
  P  P23  1  0.37782200  0.30758700  0.63056700  1
  P  P24  1  0.87782200  0.69241300  0.86943300  1
  P  P25  1  0.87230900  0.81226000  0.63137300  1
  P  P26  1  0.12769100  0.18774000  0.36862700  1
  P  P27  1  0.37230900  0.18774000  0.86862700  1
  P  P28  1  0.62217800  0.69241300  0.36943300  1
  P  P29  1  0.37465800  0.74511600  0.75756000  1
  P  P30  1  0.12217800  0.30758700  0.13056700  1
  P  P31  1  0.87465800  0.25488400  0.74244000  1
  O  O32  1  0.28990500  0.12184000  0.81544800  1
  O  O33  1  0.71326400  0.19533500  0.18608000  1
  O  O34  1  0.86632200  0.98300400  0.30442000  1
  O  O35  1  0.74837800  0.48327500  0.55847100  1
  O  O36  1  0.28118600  0.37059500  0.67838500  1
  O  O37  1  0.53786200  0.37055800  0.18607700  1
  O  O38  1  0.48209100  0.72520200  0.55960000  1
  O  O39  1  0.63367800  0.98300400  0.80442000  1
  O  O40  1  0.63117800  0.41070100  0.91651400  1
  O  O41  1  0.48710300  0.21993400  0.05747600  1
  O  O42  1  0.38462000  0.46573900  0.30082900  1
  O  O43  1  0.96071500  0.57584500  0.92846900  1
  O  O44  1  0.03499200  0.86080200  0.20693200  1
  O  O45  1  0.78450100  0.31976900  0.79377200  1
  O  O46  1  0.38270300  0.92714600  0.41232600  1
  O  O47  1  0.96500800  0.13919800  0.79306800  1
  O  O48  1  0.71009500  0.87816000  0.18455200  1
  O  O49  1  0.24837800  0.51672500  0.94152900  1
  O  O50  1  0.24516200  0.95250300  0.05811800  1
  O  O51  1  0.98209100  0.27479800  0.94040000  1
  O  O52  1  0.52929500  0.80056000  0.31655800  1
  O  O53  1  0.75483800  0.04749700  0.94188200  1
  O  O54  1  0.13367800  0.01699600  0.69558000  1
  O  O55  1  0.98710300  0.78006600  0.44252400  1
  O  O56  1  0.51790900  0.27479800  0.44040000  1
  O  O57  1  0.36882200  0.58929900  0.08348600  1
  O  O58  1  0.02929500  0.19944000  0.18344200  1
  O  O59  1  0.25483800  0.95250300  0.55811800  1
  O  O60  1  0.13117800  0.58929900  0.58348600  1
  O  O61  1  0.46071500  0.42415500  0.57153100  1
  O  O62  1  0.75162200  0.48327500  0.05847100  1
  O  O63  1  0.95903000  0.92489700  0.57224200  1
  O  O64  1  0.51289700  0.78006600  0.94252400  1
  O  O65  1  0.30183300  0.24309800  0.57158300  1
  O  O66  1  0.04101300  0.30827900  0.32130700  1
  O  O67  1  0.71549900  0.31976900  0.29377200  1
  O  O68  1  0.54101300  0.69172100  0.17869300  1
  O  O69  1  0.80183300  0.75690200  0.92841700  1
  O  O70  1  0.61729700  0.07285400  0.58767400  1
  O  O71  1  0.71881400  0.62940500  0.32161500  1
  O  O72  1  0.04097000  0.07510300  0.42775800  1
  O  O73  1  0.21326400  0.80466500  0.31392000  1
  O  O74  1  0.46213800  0.62944200  0.81392300  1
  O  O75  1  0.19816700  0.24309800  0.07158300  1
  O  O76  1  0.28673600  0.80466500  0.81392000  1
  O  O77  1  0.54097000  0.92489700  0.07224200  1
  O  O78  1  0.28450100  0.68023100  0.70622800  1
  O  O79  1  0.21881400  0.37059500  0.17838500  1
  O  O80  1  0.21009500  0.12184000  0.31544800  1
  O  O81  1  0.27825500  0.23481700  0.92737300  1
  O  O82  1  0.03928500  0.42415500  0.07153100  1
  O  O83  1  0.78990500  0.87816000  0.68455200  1
  O  O84  1  0.01289700  0.21993400  0.55747600  1
  O  O85  1  0.25162200  0.51672500  0.44152900  1
  O  O86  1  0.03786200  0.62944200  0.31392300  1
  O  O87  1  0.96213800  0.37055800  0.68607700  1
  O  O88  1  0.88462000  0.53426100  0.19917100  1
  O  O89  1  0.61538000  0.53426100  0.69917100  1
  O  O90  1  0.53928500  0.57584500  0.42846900  1
  O  O91  1  0.01790900  0.72520200  0.05960000  1
  O  O92  1  0.45898700  0.30827900  0.82130700  1
  O  O93  1  0.46500800  0.86080200  0.70693200  1
  O  O94  1  0.53499200  0.13919800  0.29306800  1
  O  O95  1  0.95898700  0.69172100  0.67869300  1
  O  O96  1  0.88270300  0.07285400  0.08767400  1
  O  O97  1  0.45903000  0.07510300  0.92775800  1
  O  O98  1  0.22174500  0.23481700  0.42737300  1
  O  O99  1  0.74516200  0.04749700  0.44188200  1
  O  O100  1  0.69816700  0.75690200  0.42841700  1
  O  O101  1  0.78118600  0.62940500  0.82161500  1
  O  O102  1  0.36632200  0.01699600  0.19558000  1
  O  O103  1  0.21549900  0.68023100  0.20622800  1
  O  O104  1  0.97070500  0.80056000  0.81655800  1
  O  O105  1  0.86882200  0.41070100  0.41651400  1
  O  O106  1  0.47070500  0.19944000  0.68344200  1
  O  O107  1  0.11538000  0.46573900  0.80082900  1
  O  O108  1  0.77825500  0.76518300  0.57262700  1
  O  O109  1  0.11729700  0.92714600  0.91232600  1
  O  O110  1  0.72174500  0.76518300  0.07262700  1
  O  O111  1  0.78673600  0.19533500  0.68608000  1
