# generated using pymatgen
data_K2PdO2
_symmetry_space_group_name_H-M   'P 1'
_cell_length_a   5.55718009
_cell_length_b   5.55718009
_cell_length_c   5.55718009
_cell_angle_alpha   146.68718377
_cell_angle_beta   112.88520413
_cell_angle_gamma   77.02237166
_symmetry_Int_Tables_number   1
_chemical_formula_structural   K2PdO2
_chemical_formula_sum   'K2 Pd1 O2'
_cell_volume   85.10805069
_cell_formula_units_Z   1
loop_
 _symmetry_equiv_pos_site_id
 _symmetry_equiv_pos_as_xyz
  1  'x, y, z'
loop_
 _atom_site_type_symbol
 _atom_site_label
 _atom_site_symmetry_multiplicity
 _atom_site_fract_x
 _atom_site_fract_y
 _atom_site_fract_z
 _atom_site_occupancy
  K  K0  1  0.32460600  0.82460600  0.50000000  1
  K  K1  1  0.67539400  0.17539400  0.50000000  1
  Pd  Pd2  1  0.00000000  0.00000000  0.00000000  1
  O  O3  1  0.21962700  0.50000000  0.71962700  1
  O  O4  1  0.78037300  0.50000000  0.28037300  1
