# generated using pymatgen
data_SbSe(BrF2)3
_symmetry_space_group_name_H-M   'P 1'
_cell_length_a   8.52494300
_cell_length_b   9.72428700
_cell_length_c   12.85796600
_cell_angle_alpha   90.00000000
_cell_angle_beta   90.00000000
_cell_angle_gamma   90.00000000
_symmetry_Int_Tables_number   1
_chemical_formula_structural   SbSe(BrF2)3
_chemical_formula_sum   'Sb4 Se4 Br12 F24'
_cell_volume   1065.91242559
_cell_formula_units_Z   4
loop_
 _symmetry_equiv_pos_site_id
 _symmetry_equiv_pos_as_xyz
  1  'x, y, z'
loop_
 _atom_site_type_symbol
 _atom_site_label
 _atom_site_symmetry_multiplicity
 _atom_site_fract_x
 _atom_site_fract_y
 _atom_site_fract_z
 _atom_site_occupancy
  Sb  Sb0  1  0.81255300  0.45996200  0.18341100  1
  Sb  Sb1  1  0.68744700  0.54003800  0.68341100  1
  Sb  Sb2  1  0.18744700  0.95996200  0.31658900  1
  Sb  Sb3  1  0.31255300  0.04003800  0.81658900  1
  Se  Se4  1  0.36431900  0.46616900  0.97093000  1
  Se  Se5  1  0.13568100  0.53383100  0.47093000  1
  Se  Se6  1  0.86431900  0.03383100  0.02907000  1
  Se  Se7  1  0.63568100  0.96616900  0.52907000  1
  Br  Br8  1  0.85965200  0.98891000  0.63046300  1
  Br  Br9  1  0.86051500  0.82508900  0.94231900  1
  Br  Br10  1  0.35965200  0.51109000  0.36953700  1
  Br  Br11  1  0.20936900  0.68402200  0.60207300  1
  Br  Br12  1  0.14034800  0.48891000  0.86953700  1
  Br  Br13  1  0.29063100  0.31597800  0.10207300  1
  Br  Br14  1  0.79063100  0.18402200  0.89792700  1
  Br  Br15  1  0.64034800  0.01109000  0.13046300  1
  Br  Br16  1  0.36051500  0.67491100  0.05768100  1
  Br  Br17  1  0.13948500  0.32508900  0.55768100  1
  Br  Br18  1  0.70936900  0.81597800  0.39792700  1
  Br  Br19  1  0.63948500  0.17491100  0.44231900  1
  F  F20  1  0.26121200  0.13949900  0.27716800  1
  F  F21  1  0.05397700  0.95204200  0.19583400  1
  F  F22  1  0.67588400  0.45941500  0.06371600  1
  F  F23  1  0.82411600  0.54058500  0.56371600  1
  F  F24  1  0.38623200  0.22071200  0.85534700  1
  F  F25  1  0.61376800  0.72071200  0.64465300  1
  F  F26  1  0.85488900  0.61996700  0.76401400  1
  F  F27  1  0.44602300  0.04795800  0.69583400  1
  F  F28  1  0.11376800  0.77928800  0.35534700  1
  F  F29  1  0.73878800  0.63949900  0.22283200  1
  F  F30  1  0.35488900  0.88003300  0.23598600  1
  F  F31  1  0.17588400  0.04058500  0.93628400  1
  F  F32  1  0.97600800  0.54226700  0.10331400  1
  F  F33  1  0.23878800  0.86050100  0.77716800  1
  F  F34  1  0.64511100  0.38003300  0.26401400  1
  F  F35  1  0.94602300  0.45204200  0.30416600  1
  F  F36  1  0.47600800  0.95773300  0.89668600  1
  F  F37  1  0.14511100  0.11996700  0.73598600  1
  F  F38  1  0.55397700  0.54795800  0.80416600  1
  F  F39  1  0.52399200  0.45773300  0.60331400  1
  F  F40  1  0.02399200  0.04226700  0.39668600  1
  F  F41  1  0.88623200  0.27928800  0.14465300  1
  F  F42  1  0.32411600  0.95941500  0.43628400  1
  F  F43  1  0.76121200  0.36050100  0.72283200  1
